# generated using pymatgen
data_Ho8Ta2Ti9Si16Rh
_symmetry_space_group_name_H-M   'P 1'
_cell_length_a   7.03396347
_cell_length_b   7.03396415
_cell_length_c   12.89129630
_cell_angle_alpha   90.19054623
_cell_angle_beta   89.80945607
_cell_angle_gamma   89.63790719
_symmetry_Int_Tables_number   1
_chemical_formula_structural   Ho8Ta2Ti9Si16Rh
_chemical_formula_sum   'Ho8 Ta2 Ti9 Si16 Rh1'
_cell_volume   637.79827927
_cell_formula_units_Z   1
loop_
 _symmetry_equiv_pos_site_id
 _symmetry_equiv_pos_as_xyz
  1  'x, y, z'
loop_
 _atom_site_type_symbol
 _atom_site_label
 _atom_site_symmetry_multiplicity
 _atom_site_fract_x
 _atom_site_fract_y
 _atom_site_fract_z
 _atom_site_occupancy
  Ho  Ho0  1  0.340734  0.003799  0.467252  1
  Ho  Ho1  1  0.497153  0.842269  0.718226  1
  Ho  Ho2  1  0.501480  0.158194  0.215179  1
  Ho  Ho3  1  0.842269  0.497153  0.281774  1
  Ho  Ho4  1  0.158194  0.501480  0.784821  1
  Ho  Ho5  1  0.657465  0.998582  0.968317  1
  Ho  Ho6  1  0.003799  0.340734  0.532748  1
  Ho  Ho7  1  0.998582  0.657465  0.031683  1
  Ta  Ta8  1  0.174960  0.826105  0.248411  1
  Ta  Ta9  1  0.826105  0.174960  0.751589  1
  Ti  Ti10  1  0.673712  0.673712  0.500000  1
  Ti  Ti11  1  0.148568  0.003135  0.875395  1
  Ti  Ti12  1  0.493173  0.656760  0.125379  1
  Ti  Ti13  1  0.507653  0.348186  0.628153  1
  Ti  Ti14  1  0.656760  0.493173  0.874621  1
  Ti  Ti15  1  0.348186  0.507653  0.371847  1
  Ti  Ti16  1  0.849712  0.993426  0.373925  1
  Ti  Ti17  1  0.003135  0.148568  0.124605  1
  Ti  Ti18  1  0.993426  0.849712  0.626075  1
  Si  Si19  1  0.202516  0.132883  0.684792  1
  Si  Si20  1  0.371841  0.703218  0.933770  1
  Si  Si21  1  0.630951  0.295570  0.433753  1
  Si  Si22  1  0.703218  0.371841  0.066230  1
  Si  Si23  1  0.295570  0.630951  0.566247  1
  Si  Si24  1  0.796614  0.868017  0.183848  1
  Si  Si25  1  0.132883  0.202516  0.315208  1
  Si  Si26  1  0.868017  0.796614  0.816152  1
  Si  Si27  1  0.287880  0.950960  0.062407  1
  Si  Si28  1  0.547363  0.792256  0.315487  1
  Si  Si29  1  0.449148  0.209633  0.817367  1
  Si  Si30  1  0.792256  0.547363  0.684513  1
  Si  Si31  1  0.209633  0.449148  0.182633  1
  Si  Si32  1  0.707523  0.047522  0.565034  1
  Si  Si33  1  0.950960  0.287880  0.937593  1
  Si  Si34  1  0.047522  0.707523  0.434966  1
  Rh  Rh35  1  0.331042  0.331042  0.000000  1
