# generated using pymatgen
data_Cs2Ga2P2O9
_symmetry_space_group_name_H-M   'P 1'
_cell_length_a   5.03153945
_cell_length_b   7.35506635
_cell_length_c   8.32686355
_cell_angle_alpha   97.07403149
_cell_angle_beta   106.59415779
_cell_angle_gamma   108.61445057
_symmetry_Int_Tables_number   1
_chemical_formula_structural   Cs2Ga2P2O9
_chemical_formula_sum   'Cs2 Ga2 P2 O9'
_cell_volume   271.96838813
_cell_formula_units_Z   1
loop_
 _symmetry_equiv_pos_site_id
 _symmetry_equiv_pos_as_xyz
  1  'x, y, z'
loop_
 _atom_site_type_symbol
 _atom_site_label
 _atom_site_symmetry_multiplicity
 _atom_site_fract_x
 _atom_site_fract_y
 _atom_site_fract_z
 _atom_site_occupancy
  Cs  Cs0  1  0.772546  0.202932  0.352504  1
  Cs  Cs1  1  0.227454  0.797068  0.647496  1
  Ga  Ga2  1  0.145984  0.240164  0.965669  1
  Ga  Ga3  1  0.854016  0.759836  0.034331  1
  P  P4  1  0.608245  0.348972  0.770281  1
  P  P5  1  0.391755  0.651028  0.229719  1
  O  O6  1  0.100160  0.696573  0.212541  1
  O  O7  1  0.606811  0.736820  0.411919  1
  O  O8  1  0.487390  0.258706  0.908896  1
  O  O9  1  0.707779  0.580059  0.820623  1
  O  O10  1  0.899840  0.303427  0.787459  1
  O  O11  1  0.292221  0.419941  0.179377  1
  O  O12  1  0.393189  0.263180  0.588081  1
  O  O13  1  0.000000  0.000000  0.000000  1
  O  O14  1  0.512610  0.741294  0.091104  1
