# generated using pymatgen
data_Tb3Yb5Tl4
_symmetry_space_group_name_H-M   'P 1'
_cell_length_a   5.34903600
_cell_length_b   7.04560090
_cell_length_c   9.56524652
_cell_angle_alpha   90.46773520
_cell_angle_beta   90.00000000
_cell_angle_gamma   90.00000000
_symmetry_Int_Tables_number   1
_chemical_formula_structural   Tb3Yb5Tl4
_chemical_formula_sum   'Tb3 Yb5 Tl4'
_cell_volume   360.47508714
_cell_formula_units_Z   1
loop_
 _symmetry_equiv_pos_site_id
 _symmetry_equiv_pos_as_xyz
  1  'x, y, z'
loop_
 _atom_site_type_symbol
 _atom_site_label
 _atom_site_symmetry_multiplicity
 _atom_site_fract_x
 _atom_site_fract_y
 _atom_site_fract_z
 _atom_site_occupancy
  Tb  Tb0  1  0.750000  0.691386  0.423525  1
  Tb  Tb1  1  0.250000  0.308842  0.577074  1
  Tb  Tb2  1  0.750000  0.181226  0.077329  1
  Yb  Yb3  1  0.250000  0.813146  0.921944  1
  Yb  Yb4  1  0.750000  0.513358  0.792414  1
  Yb  Yb5  1  0.250000  0.487393  0.209980  1
  Yb  Yb6  1  0.750000  0.013602  0.706381  1
  Yb  Yb7  1  0.250000  0.987550  0.292115  1
  Tl  Tl8  1  0.750000  0.238665  0.404531  1
  Tl  Tl9  1  0.250000  0.762261  0.592227  1
  Tl  Tl10  1  0.750000  0.736036  0.098302  1
  Tl  Tl11  1  0.250000  0.266537  0.904182  1
