# generated using pymatgen
data_Ce8Si12IrRh3
_symmetry_space_group_name_H-M   'P 1'
_cell_length_a   8.22750300
_cell_length_b   8.22750396
_cell_length_c   8.19816000
_cell_angle_alpha   90.00000000
_cell_angle_beta   90.00000000
_cell_angle_gamma   119.99999214
_symmetry_Int_Tables_number   1
_chemical_formula_structural   Ce8Si12IrRh3
_chemical_formula_sum   'Ce8 Si12 Ir1 Rh3'
_cell_volume   480.59937890
_cell_formula_units_Z   1
loop_
 _symmetry_equiv_pos_site_id
 _symmetry_equiv_pos_as_xyz
  1  'x, y, z'
loop_
 _atom_site_type_symbol
 _atom_site_label
 _atom_site_symmetry_multiplicity
 _atom_site_fract_x
 _atom_site_fract_y
 _atom_site_fract_z
 _atom_site_occupancy
  Ce  Ce0  1  0.000000  0.000000  0.249679  1
  Ce  Ce1  1  0.000000  0.000000  0.750262  1
  Ce  Ce2  1  0.499633  0.500367  0.250233  1
  Ce  Ce3  1  0.499633  0.999265  0.250233  1
  Ce  Ce4  1  0.000735  0.500367  0.250233  1
  Ce  Ce5  1  0.499171  0.500829  0.749820  1
  Ce  Ce6  1  0.499171  0.998341  0.749820  1
  Ce  Ce7  1  0.001659  0.500829  0.749820  1
  Si  Si8  1  0.164953  0.835047  0.501254  1
  Si  Si9  1  0.164953  0.329908  0.501254  1
  Si  Si10  1  0.670092  0.835047  0.501254  1
  Si  Si11  1  0.834405  0.165595  0.499013  1
  Si  Si12  1  0.834405  0.668809  0.499013  1
  Si  Si13  1  0.331191  0.165595  0.499013  1
  Si  Si14  1  0.834657  0.165343  0.000978  1
  Si  Si15  1  0.834657  0.669313  0.000978  1
  Si  Si16  1  0.330687  0.165343  0.000978  1
  Si  Si17  1  0.165157  0.834843  0.998581  1
  Si  Si18  1  0.165157  0.330317  0.998581  1
  Si  Si19  1  0.669683  0.834843  0.998581  1
  Ir  Ir20  1  0.333333  0.666667  0.497114  1
  Rh  Rh21  1  0.666667  0.333333  0.503304  1
  Rh  Rh22  1  0.666667  0.333333  0.996627  1
  Rh  Rh23  1  0.333333  0.666667  0.003378  1
