# generated using pymatgen
data_Tb3Ce2P12Ru19
_symmetry_space_group_name_H-M   'P 1'
_cell_length_a   12.58304037
_cell_length_b   12.61249626
_cell_length_c   3.97532600
_cell_angle_alpha   90.00000000
_cell_angle_beta   90.00000000
_cell_angle_gamma   120.07747328
_symmetry_Int_Tables_number   1
_chemical_formula_structural   Tb3Ce2P12Ru19
_chemical_formula_sum   'Tb3 Ce2 P12 Ru19'
_cell_volume   545.94695755
_cell_formula_units_Z   1
loop_
 _symmetry_equiv_pos_site_id
 _symmetry_equiv_pos_as_xyz
  1  'x, y, z'
loop_
 _atom_site_type_symbol
 _atom_site_label
 _atom_site_symmetry_multiplicity
 _atom_site_fract_x
 _atom_site_fract_y
 _atom_site_fract_z
 _atom_site_occupancy
  Tb  Tb0  1  0.000000  0.186438  0.500000  1
  Tb  Tb1  1  0.666495  0.333094  0.000000  1
  Tb  Tb2  1  0.333505  0.666600  0.000000  1
  Ce  Ce3  1  0.815945  0.816526  0.500000  1
  Ce  Ce4  1  0.184055  0.000581  0.500000  1
  P  P5  1  0.000000  0.813132  0.000000  1
  P  P6  1  0.184311  0.187161  0.000000  1
  P  P7  1  0.815689  0.002850  0.000000  1
  P  P8  1  0.694034  0.172077  0.500000  1
  P  P9  1  0.828002  0.521297  0.500000  1
  P  P10  1  0.477457  0.305181  0.500000  1
  P  P11  1  0.171998  0.693295  0.500000  1
  P  P12  1  0.522543  0.827725  0.500000  1
  P  P13  1  0.305966  0.478045  0.500000  1
  P  P14  1  0.000000  0.374308  0.000000  1
  P  P15  1  0.624920  0.625170  0.000000  1
  P  P16  1  0.375080  0.000252  0.000000  1
  Ru  Ru17  1  0.000000  0.555545  0.000000  1
  Ru  Ru18  1  0.444612  0.443953  0.000000  1
  Ru  Ru19  1  0.555388  0.999340  0.000000  1
  Ru  Ru20  1  0.000000  0.714931  0.500000  1
  Ru  Ru21  1  0.283658  0.284031  0.500000  1
  Ru  Ru22  1  0.716342  0.000374  0.500000  1
  Ru  Ru23  1  0.807071  0.185605  0.000000  1
  Ru  Ru24  1  0.815157  0.623014  0.000000  1
  Ru  Ru25  1  0.376455  0.192289  0.000000  1
  Ru  Ru26  1  0.184843  0.807857  0.000000  1
  Ru  Ru27  1  0.623545  0.815834  0.000000  1
  Ru  Ru28  1  0.192929  0.378535  0.000000  1
  Ru  Ru29  1  0.874531  0.366220  0.500000  1
  Ru  Ru30  1  0.633611  0.507135  0.500000  1
  Ru  Ru31  1  0.491382  0.124582  0.500000  1
  Ru  Ru32  1  0.366389  0.873524  0.500000  1
  Ru  Ru33  1  0.508618  0.633200  0.500000  1
  Ru  Ru34  1  0.125469  0.491690  0.500000  1
  Ru  Ru35  1  0.000000  0.998607  0.000000  1
