# generated using pymatgen
data_Pr16Hg4RuPt3
_symmetry_space_group_name_H-M   'P 1'
_cell_length_a   10.08220445
_cell_length_b   10.08241812
_cell_length_c   10.08222273
_cell_angle_alpha   59.74530741
_cell_angle_beta   59.74446011
_cell_angle_gamma   59.74608378
_symmetry_Int_Tables_number   1
_chemical_formula_structural   Pr16Hg4RuPt3
_chemical_formula_sum   'Pr16 Hg4 Ru1 Pt3'
_cell_volume   720.51352561
_cell_formula_units_Z   1
loop_
 _symmetry_equiv_pos_site_id
 _symmetry_equiv_pos_as_xyz
  1  'x, y, z'
loop_
 _atom_site_type_symbol
 _atom_site_label
 _atom_site_symmetry_multiplicity
 _atom_site_fract_x
 _atom_site_fract_y
 _atom_site_fract_z
 _atom_site_occupancy
  Pr  Pr0  1  0.352550  0.352553  0.352551  1
  Pr  Pr1  1  0.348810  0.348821  0.948498  1
  Pr  Pr2  1  0.348805  0.948480  0.348809  1
  Pr  Pr3  1  0.948485  0.348821  0.348809  1
  Pr  Pr4  1  0.816212  0.189149  0.189152  1
  Pr  Pr5  1  0.189085  0.807853  0.807831  1
  Pr  Pr6  1  0.189167  0.816199  0.189168  1
  Pr  Pr7  1  0.807842  0.189089  0.807839  1
  Pr  Pr8  1  0.189151  0.189155  0.816202  1
  Pr  Pr9  1  0.807820  0.807830  0.189092  1
  Pr  Pr10  1  0.938253  0.563250  0.563274  1
  Pr  Pr11  1  0.558502  0.937499  0.937496  1
  Pr  Pr12  1  0.563255  0.938274  0.563256  1
  Pr  Pr13  1  0.937537  0.558464  0.937525  1
  Pr  Pr14  1  0.563287  0.563260  0.938236  1
  Pr  Pr15  1  0.937493  0.937495  0.558519  1
  Hg  Hg16  1  0.583445  0.583461  0.583439  1
  Hg  Hg17  1  0.584638  0.584640  0.246649  1
  Hg  Hg18  1  0.584637  0.246648  0.584641  1
  Hg  Hg19  1  0.246658  0.584637  0.584636  1
  Ru  Ru20  1  0.142741  0.142777  0.142757  1
  Pt  Pt21  1  0.145045  0.145052  0.571532  1
  Pt  Pt22  1  0.145049  0.571546  0.145044  1
  Pt  Pt23  1  0.571533  0.145048  0.145043  1
