# generated using pymatgen
data_TbDyTi6(BiO4)6
_symmetry_space_group_name_H-M   'P 1'
_cell_length_a   5.39085909
_cell_length_b   5.47726683
_cell_length_c   17.16690701
_cell_angle_alpha   81.15591916
_cell_angle_beta   90.00199663
_cell_angle_gamma   89.97932694
_symmetry_Int_Tables_number   1
_chemical_formula_structural   TbDyTi6(BiO4)6
_chemical_formula_sum   'Tb1 Dy1 Ti6 Bi6 O24'
_cell_volume   500.86348214
_cell_formula_units_Z   1
loop_
 _symmetry_equiv_pos_site_id
 _symmetry_equiv_pos_as_xyz
  1  'x, y, z'
loop_
 _atom_site_type_symbol
 _atom_site_label
 _atom_site_symmetry_multiplicity
 _atom_site_fract_x
 _atom_site_fract_y
 _atom_site_fract_z
 _atom_site_occupancy
  Tb  Tb0  1  0.266142  0.087931  0.869201  1
  Dy  Dy1  1  0.733869  0.587108  0.869052  1
  Ti  Ti2  1  0.764802  0.064247  0.986180  1
  Ti  Ti3  1  0.235172  0.564162  0.986189  1
  Ti  Ti4  1  0.761431  0.182958  0.749820  1
  Ti  Ti5  1  0.238579  0.682934  0.749812  1
  Ti  Ti6  1  0.757699  0.917495  0.258668  1
  Ti  Ti7  1  0.242292  0.417482  0.258673  1
  Bi  Bi8  1  0.273118  0.180617  0.589248  1
  Bi  Bi9  1  0.726875  0.680616  0.589258  1
  Bi  Bi10  1  0.264414  0.933590  0.132783  1
  Bi  Bi11  1  0.735574  0.433601  0.132767  1
  Bi  Bi12  1  0.234010  0.772985  0.434819  1
  Bi  Bi13  1  0.765977  0.272985  0.434821  1
  O  O14  1  0.451354  0.323811  0.958354  1
  O  O15  1  0.549585  0.822796  0.958227  1
  O  O16  1  0.506441  0.000363  0.506267  1
  O  O17  1  0.493557  0.500358  0.506269  1
  O  O18  1  0.849768  0.179046  0.875751  1
  O  O19  1  0.148440  0.677674  0.875732  1
  O  O20  1  0.675675  0.248601  0.645455  1
  O  O21  1  0.324293  0.748587  0.645450  1
  O  O22  1  0.456705  0.410466  0.787385  1
  O  O23  1  0.544561  0.909098  0.787461  1
  O  O24  1  0.939509  0.514054  0.747263  1
  O  O25  1  0.060260  0.013973  0.747066  1
  O  O26  1  0.933634  0.400782  0.002626  1
  O  O27  1  0.066262  0.900706  0.002709  1
  O  O28  1  0.993429  0.500182  0.507493  1
  O  O29  1  0.006580  0.000191  0.507497  1
  O  O30  1  0.675659  0.049311  0.098037  1
  O  O31  1  0.324316  0.549317  0.098038  1
  O  O32  1  0.794486  0.868710  0.360515  1
  O  O33  1  0.205532  0.368705  0.360499  1
  O  O34  1  0.010982  0.183315  0.220182  1
  O  O35  1  0.989020  0.683321  0.220179  1
  O  O36  1  0.522331  0.212359  0.235928  1
  O  O37  1  0.477669  0.712366  0.235927  1
