# generated using pymatgen
data_HfTi5(GaPt)6
_symmetry_space_group_name_H-M   'P 1'
_cell_length_a   7.04524617
_cell_length_b   7.04123363
_cell_length_c   6.82828300
_cell_angle_alpha   90.00000000
_cell_angle_beta   90.00000000
_cell_angle_gamma   119.73124849
_symmetry_Int_Tables_number   1
_chemical_formula_structural   HfTi5(GaPt)6
_chemical_formula_sum   'Hf1 Ti5 Ga6 Pt6'
_cell_volume   294.14185920
_cell_formula_units_Z   1
loop_
 _symmetry_equiv_pos_site_id
 _symmetry_equiv_pos_as_xyz
  1  'x, y, z'
loop_
 _atom_site_type_symbol
 _atom_site_label
 _atom_site_symmetry_multiplicity
 _atom_site_fract_x
 _atom_site_fract_y
 _atom_site_fract_z
 _atom_site_occupancy
  Hf  Hf0  1  0.616635  0.028290  0.250000  1
  Ti  Ti1  1  0.409940  0.383612  0.250000  1
  Ti  Ti2  1  0.591049  0.974657  0.750000  1
  Ti  Ti3  1  0.382328  0.408094  0.750000  1
  Ti  Ti4  1  0.025722  0.617184  0.750000  1
  Ti  Ti5  1  0.973934  0.590172  0.250000  1
  Ga  Ga6  1  0.272470  0.001022  0.994809  1
  Ga  Ga7  1  0.272470  0.001022  0.505191  1
  Ga  Ga8  1  0.003152  0.275751  0.502547  1
  Ga  Ga9  1  0.003152  0.275751  0.997453  1
  Ga  Ga10  1  0.726067  0.724614  0.998769  1
  Ga  Ga11  1  0.726067  0.724614  0.501231  1
  Pt  Pt12  1  0.667289  0.334351  0.539414  1
  Pt  Pt13  1  0.998288  0.998876  0.750000  1
  Pt  Pt14  1  0.667289  0.334351  0.960586  1
  Pt  Pt15  1  0.330886  0.664244  0.032696  1
  Pt  Pt16  1  0.330886  0.664244  0.467304  1
  Pt  Pt17  1  0.002375  0.999152  0.250000  1
