# generated using pymatgen
data_Dy4Ho8TlCo4Rh
_symmetry_space_group_name_H-M   'P 1'
_cell_length_a   8.28210514
_cell_length_b   8.28210810
_cell_length_c   8.28210567
_cell_angle_alpha   110.94594323
_cell_angle_beta   110.54243592
_cell_angle_gamma   106.95448573
_symmetry_Int_Tables_number   1
_chemical_formula_structural   Dy4Ho8TlCo4Rh
_chemical_formula_sum   'Dy4 Ho8 Tl1 Co4 Rh1'
_cell_volume   436.68616955
_cell_formula_units_Z   1
loop_
 _symmetry_equiv_pos_site_id
 _symmetry_equiv_pos_as_xyz
  1  'x, y, z'
loop_
 _atom_site_type_symbol
 _atom_site_label
 _atom_site_symmetry_multiplicity
 _atom_site_fract_x
 _atom_site_fract_y
 _atom_site_fract_z
 _atom_site_occupancy
  Dy  Dy0  1  0.407705  0.212362  0.195343  1
  Dy  Dy1  1  0.592295  0.787638  0.804657  1
  Dy  Dy2  1  0.017019  0.212362  0.804657  1
  Dy  Dy3  1  0.982981  0.787638  0.195343  1
  Ho  Ho4  1  0.185712  0.291478  0.477188  1
  Ho  Ho5  1  0.814288  0.708522  0.522812  1
  Ho  Ho6  1  0.185712  0.708522  0.894233  1
  Ho  Ho7  1  0.814288  0.291478  0.105767  1
  Ho  Ho8  1  0.314033  0.619893  0.305859  1
  Ho  Ho9  1  0.685967  0.380107  0.694141  1
  Ho  Ho10  1  0.314033  0.008173  0.694141  1
  Ho  Ho11  1  0.685967  0.991827  0.305859  1
  Tl  Tl12  1  0.500000  0.500000  0.000000  1
  Co  Co13  1  0.379613  0.000000  0.379613  1
  Co  Co14  1  0.620387  0.000000  0.620387  1
  Co  Co15  1  0.111860  0.611860  0.500000  1
  Co  Co16  1  0.888140  0.388140  0.500000  1
  Rh  Rh17  1  0.000000  0.000000  0.000000  1
