# generated using pymatgen
data_Ta11TiAl8(RhN)4
_symmetry_space_group_name_H-M   'P 1'
_cell_length_a   8.26989927
_cell_length_b   8.26994157
_cell_length_c   8.26201100
_cell_angle_alpha   60.03145826
_cell_angle_beta   60.03039286
_cell_angle_gamma   59.93873470
_symmetry_Int_Tables_number   1
_chemical_formula_structural   Ta11TiAl8(RhN)4
_chemical_formula_sum   'Ta11 Ti1 Al8 Rh4 N4'
_cell_volume   399.55319317
_cell_formula_units_Z   1
loop_
 _symmetry_equiv_pos_site_id
 _symmetry_equiv_pos_as_xyz
  1  'x, y, z'
loop_
 _atom_site_type_symbol
 _atom_site_label
 _atom_site_symmetry_multiplicity
 _atom_site_fract_x
 _atom_site_fract_y
 _atom_site_fract_z
 _atom_site_occupancy
  Ta  Ta0  1  0.814958  0.814959  0.185038  1
  Ta  Ta1  1  0.064807  0.434239  0.436268  1
  Ta  Ta2  1  0.434249  0.064796  0.064688  1
  Ta  Ta3  1  0.064246  0.064236  0.435757  1
  Ta  Ta4  1  0.064799  0.434245  0.064687  1
  Ta  Ta5  1  0.434240  0.064806  0.436263  1
  Ta  Ta6  1  0.184545  0.815929  0.185964  1
  Ta  Ta7  1  0.184533  0.815935  0.813567  1
  Ta  Ta8  1  0.815931  0.184538  0.185968  1
  Ta  Ta9  1  0.815930  0.184539  0.813564  1
  Ta  Ta10  1  0.435429  0.435426  0.064577  1
  Ti  Ti11  1  0.184153  0.184158  0.815846  1
  Al  Al12  1  0.416420  0.750105  0.416753  1
  Al  Al13  1  0.833296  0.833320  0.500289  1
  Al  Al14  1  0.498267  0.835490  0.833104  1
  Al  Al15  1  0.833321  0.833307  0.833091  1
  Al  Al16  1  0.750104  0.416418  0.416736  1
  Al  Al17  1  0.416651  0.416632  0.417229  1
  Al  Al18  1  0.416642  0.416655  0.749479  1
  Al  Al19  1  0.835489  0.498266  0.833127  1
  Rh  Rh20  1  0.623888  0.125096  0.625530  1
  Rh  Rh21  1  0.625297  0.625339  0.124345  1
  Rh  Rh22  1  0.125090  0.623891  0.625489  1
  Rh  Rh23  1  0.625338  0.625293  0.625021  1
  N  N24  1  0.125936  0.624963  0.124548  1
  N  N25  1  0.125741  0.125736  0.627401  1
  N  N26  1  0.624967  0.125938  0.124550  1
  N  N27  1  0.125735  0.125746  0.121121  1
