# generated using pymatgen
data_Ag(AuF6)2
_symmetry_space_group_name_H-M   'P 1'
_cell_length_a   5.41169142
_cell_length_b   5.71668595
_cell_length_c   9.03804402
_cell_angle_alpha   103.95127291
_cell_angle_beta   89.81161392
_cell_angle_gamma   116.80781992
_symmetry_Int_Tables_number   1
_chemical_formula_structural   Ag(AuF6)2
_chemical_formula_sum   'Ag1 Au2 F12'
_cell_volume   240.39520612
_cell_formula_units_Z   1
loop_
 _symmetry_equiv_pos_site_id
 _symmetry_equiv_pos_as_xyz
  1  'x, y, z'
loop_
 _atom_site_type_symbol
 _atom_site_label
 _atom_site_symmetry_multiplicity
 _atom_site_fract_x
 _atom_site_fract_y
 _atom_site_fract_z
 _atom_site_occupancy
  Ag  Ag0  1  0.000000  0.000000  0.000000  1
  Au  Au1  1  0.769230  0.503698  0.254331  1
  Au  Au2  1  0.230770  0.496302  0.745669  1
  F  F3  1  0.830517  0.270364  0.711891  1
  F  F4  1  0.169483  0.729636  0.288109  1
  F  F5  1  0.198778  0.737724  0.938863  1
  F  F6  1  0.728619  0.737261  0.434074  1
  F  F7  1  0.271381  0.262739  0.565926  1
  F  F8  1  0.794521  0.272850  0.370080  1
  F  F9  1  0.205479  0.727150  0.629920  1
  F  F10  1  0.361468  0.273294  0.213400  1
  F  F11  1  0.638532  0.726706  0.786600  1
  F  F12  1  0.727603  0.733546  0.129165  1
  F  F13  1  0.272397  0.266454  0.870835  1
  F  F14  1  0.801222  0.262276  0.061137  1
