# generated using pymatgen
data_K2Al4CdAg5
_symmetry_space_group_name_H-M   'P 1'
_cell_length_a   7.08817800
_cell_length_b   7.08817814
_cell_length_c   5.55060400
_cell_angle_alpha   90.00000000
_cell_angle_beta   90.00000000
_cell_angle_gamma   103.59080892
_symmetry_Int_Tables_number   1
_chemical_formula_structural   K2Al4CdAg5
_chemical_formula_sum   'K2 Al4 Cd1 Ag5'
_cell_volume   271.06607741
_cell_formula_units_Z   1
loop_
 _symmetry_equiv_pos_site_id
 _symmetry_equiv_pos_as_xyz
  1  'x, y, z'
loop_
 _atom_site_type_symbol
 _atom_site_label
 _atom_site_symmetry_multiplicity
 _atom_site_fract_x
 _atom_site_fract_y
 _atom_site_fract_z
 _atom_site_occupancy
  K  K0  1  0.845845  0.845845  0.000000  1
  K  K1  1  0.156404  0.156404  0.500000  1
  Al  Al2  1  0.288045  0.708616  0.247064  1
  Al  Al3  1  0.288045  0.708616  0.752936  1
  Al  Al4  1  0.708616  0.288045  0.247064  1
  Al  Al5  1  0.708616  0.288045  0.752936  1
  Cd  Cd6  1  0.568705  0.568705  0.500000  1
  Ag  Ag7  1  0.434437  0.028205  0.000000  1
  Ag  Ag8  1  0.974488  0.556282  0.500000  1
  Ag  Ag9  1  0.556282  0.974488  0.500000  1
  Ag  Ag10  1  0.028205  0.434437  0.000000  1
  Ag  Ag11  1  0.442309  0.442309  0.000000  1
