# generated using pymatgen
data_Hf2Zr2H15
_symmetry_space_group_name_H-M   'P 1'
_cell_length_a   6.96477263
_cell_length_b   6.96477266
_cell_length_c   6.96477316
_cell_angle_alpha   109.45889245
_cell_angle_beta   109.45889749
_cell_angle_gamma   109.45888238
_symmetry_Int_Tables_number   1
_chemical_formula_structural   Hf2Zr2H15
_chemical_formula_sum   'Hf4 Zr4 H30'
_cell_volume   260.19387629
_cell_formula_units_Z   2
loop_
 _symmetry_equiv_pos_site_id
 _symmetry_equiv_pos_as_xyz
  1  'x, y, z'
loop_
 _atom_site_type_symbol
 _atom_site_label
 _atom_site_symmetry_multiplicity
 _atom_site_fract_x
 _atom_site_fract_y
 _atom_site_fract_z
 _atom_site_occupancy
  Hf  Hf0  1  0.905472  0.905472  0.905472  1
  Hf  Hf1  1  0.499638  0.000009  0.094322  1
  Hf  Hf2  1  0.000009  0.094322  0.499638  1
  Hf  Hf3  1  0.094322  0.499638  0.000009  1
  Zr  Zr4  1  0.000295  0.593023  0.499998  1
  Zr  Zr5  1  0.593023  0.499998  0.000295  1
  Zr  Zr6  1  0.499998  0.000295  0.593023  1
  Zr  Zr7  1  0.408323  0.408323  0.408323  1
  H  H8  1  0.657447  0.967788  0.383274  1
  H  H9  1  0.226206  0.311259  0.842899  1
  H  H10  1  0.185414  0.414708  0.532737  1
  H  H11  1  0.079534  0.268555  0.110349  1
  H  H12  1  0.268555  0.110349  0.079534  1
  H  H13  1  0.110349  0.079534  0.268555  1
  H  H14  1  0.467800  0.153437  0.887722  1
  H  H15  1  0.733751  0.346331  0.813446  1
  H  H16  1  0.624731  0.372909  0.249354  1
  H  H17  1  0.249354  0.624731  0.372909  1
  H  H18  1  0.750585  0.876756  0.125065  1
  H  H19  1  0.125065  0.750585  0.876756  1
  H  H20  1  0.372909  0.249354  0.624731  1
  H  H21  1  0.876756  0.125065  0.750585  1
  H  H22  1  0.771335  0.585126  0.618749  1
  H  H23  1  0.311259  0.842899  0.226206  1
  H  H24  1  0.383274  0.657447  0.967788  1
  H  H25  1  0.967788  0.383274  0.657447  1
  H  H26  1  0.532737  0.185414  0.414708  1
  H  H27  1  0.414708  0.532737  0.185414  1
  H  H28  1  0.842899  0.226206  0.311259  1
  H  H29  1  0.920153  0.689755  0.031745  1
  H  H30  1  0.813446  0.733751  0.346331  1
  H  H31  1  0.153437  0.887722  0.467800  1
  H  H32  1  0.689755  0.031745  0.920153  1
  H  H33  1  0.346331  0.813446  0.733751  1
  H  H34  1  0.887722  0.467800  0.153437  1
  H  H35  1  0.618749  0.771335  0.585126  1
  H  H36  1  0.585126  0.618749  0.771335  1
  H  H37  1  0.031745  0.920153  0.689755  1
