# generated using pymatgen
data_Lu8Nb11Si16Os
_symmetry_space_group_name_H-M   'P 1'
_cell_length_a   6.78753857
_cell_length_b   7.00046412
_cell_length_c   13.22979234
_cell_angle_alpha   90.12982109
_cell_angle_beta   89.85939392
_cell_angle_gamma   89.93005975
_symmetry_Int_Tables_number   1
_chemical_formula_structural   Lu8Nb11Si16Os
_chemical_formula_sum   'Lu8 Nb11 Si16 Os1'
_cell_volume   628.62177814
_cell_formula_units_Z   1
loop_
 _symmetry_equiv_pos_site_id
 _symmetry_equiv_pos_as_xyz
  1  'x, y, z'
loop_
 _atom_site_type_symbol
 _atom_site_label
 _atom_site_symmetry_multiplicity
 _atom_site_fract_x
 _atom_site_fract_y
 _atom_site_fract_z
 _atom_site_occupancy
  Lu  Lu0  1  0.502826  0.328036  0.095280  1
  Lu  Lu1  1  0.999824  0.173555  0.403818  1
  Lu  Lu2  1  0.497838  0.672776  0.594816  1
  Lu  Lu3  1  0.999224  0.829064  0.904461  1
  Lu  Lu4  1  0.497410  0.671861  0.903865  1
  Lu  Lu5  1  0.997373  0.827901  0.595286  1
  Lu  Lu6  1  0.502640  0.327861  0.405561  1
  Lu  Lu7  1  0.003731  0.173326  0.095858  1
  Nb  Nb8  1  0.839728  0.326963  0.623820  1
  Nb  Nb9  1  0.337280  0.172778  0.872662  1
  Nb  Nb10  1  0.163813  0.674371  0.125417  1
  Nb  Nb11  1  0.659736  0.829505  0.376955  1
  Nb  Nb12  1  0.166939  0.673641  0.378369  1
  Nb  Nb13  1  0.663339  0.825850  0.125449  1
  Nb  Nb14  1  0.836367  0.324516  0.872921  1
  Nb  Nb15  1  0.664391  0.007599  0.748895  1
  Nb  Nb16  1  0.160991  0.493403  0.748948  1
  Nb  Nb17  1  0.337154  0.996141  0.251549  1
  Nb  Nb18  1  0.838226  0.506603  0.250297  1
  Si  Si19  1  0.659150  0.037885  0.543120  1
  Si  Si20  1  0.164539  0.463744  0.958692  1
  Si  Si21  1  0.334856  0.964343  0.040653  1
  Si  Si22  1  0.835395  0.537516  0.458660  1
  Si  Si23  1  0.332842  0.966830  0.462230  1
  Si  Si24  1  0.836076  0.534929  0.040186  1
  Si  Si25  1  0.663888  0.034483  0.959369  1
  Si  Si26  1  0.166990  0.455884  0.543298  1
  Si  Si27  1  0.535641  0.377357  0.746933  1
  Si  Si28  1  0.044220  0.120804  0.747778  1
  Si  Si29  1  0.460631  0.620119  0.251044  1
  Si  Si30  1  0.959528  0.879815  0.251246  1
  Si  Si31  1  0.794401  0.631324  0.749427  1
  Si  Si32  1  0.298159  0.869526  0.749701  1
  Si  Si33  1  0.205462  0.369466  0.250340  1
  Si  Si34  1  0.704509  0.132405  0.249722  1
  Os  Os35  1  0.334883  0.167821  0.623376  1
