# generated using pymatgen
data_LaThAs4(IrRh)2
_symmetry_space_group_name_H-M   'P 1'
_cell_length_a   4.35036200
_cell_length_b   4.35036200
_cell_length_c   9.99011200
_cell_angle_alpha   90.00000000
_cell_angle_beta   90.00000000
_cell_angle_gamma   90.00000000
_symmetry_Int_Tables_number   1
_chemical_formula_structural   LaThAs4(IrRh)2
_chemical_formula_sum   'La1 Th1 As4 Ir2 Rh2'
_cell_volume   189.06935849
_cell_formula_units_Z   1
loop_
 _symmetry_equiv_pos_site_id
 _symmetry_equiv_pos_as_xyz
  1  'x, y, z'
loop_
 _atom_site_type_symbol
 _atom_site_label
 _atom_site_symmetry_multiplicity
 _atom_site_fract_x
 _atom_site_fract_y
 _atom_site_fract_z
 _atom_site_occupancy
  La  La0  1  0.500000  0.000000  0.753305  1
  Th  Th1  1  0.000000  0.500000  0.247874  1
  As  As2  1  0.000000  0.000000  0.001048  1
  As  As3  1  0.500000  0.500000  0.001048  1
  As  As4  1  0.000000  0.500000  0.637319  1
  As  As5  1  0.500000  0.000000  0.365022  1
  Ir  Ir6  1  0.000000  0.500000  0.885555  1
  Ir  Ir7  1  0.500000  0.000000  0.120267  1
  Rh  Rh8  1  0.000000  0.000000  0.494280  1
  Rh  Rh9  1  0.500000  0.500000  0.494280  1
