# generated using pymatgen
data_Ce4CoSi2Ru
_symmetry_space_group_name_H-M   'P 1'
_cell_length_a   7.56886700
_cell_length_b   7.56886666
_cell_length_c   9.64566700
_cell_angle_alpha   90.00000000
_cell_angle_beta   90.00000000
_cell_angle_gamma   119.99999710
_symmetry_Int_Tables_number   1
_chemical_formula_structural   Ce4CoSi2Ru
_chemical_formula_sum   'Ce12 Co3 Si6 Ru3'
_cell_volume   478.54704346
_cell_formula_units_Z   3
loop_
 _symmetry_equiv_pos_site_id
 _symmetry_equiv_pos_as_xyz
  1  'x, y, z'
loop_
 _atom_site_type_symbol
 _atom_site_label
 _atom_site_symmetry_multiplicity
 _atom_site_fract_x
 _atom_site_fract_y
 _atom_site_fract_z
 _atom_site_occupancy
  Ce  Ce0  1  0.000000  0.589731  0.503926  1
  Ce  Ce1  1  0.589731  0.000000  0.503926  1
  Ce  Ce2  1  0.410269  0.410269  0.503926  1
  Ce  Ce3  1  0.000000  0.406385  0.008632  1
  Ce  Ce4  1  0.406385  0.000000  0.008632  1
  Ce  Ce5  1  0.593615  0.593615  0.008632  1
  Ce  Ce6  1  0.000000  0.738522  0.171372  1
  Ce  Ce7  1  0.738522  0.000000  0.171372  1
  Ce  Ce8  1  0.261478  0.261478  0.171372  1
  Ce  Ce9  1  0.000000  0.265424  0.664758  1
  Ce  Ce10  1  0.265424  0.000000  0.664758  1
  Ce  Ce11  1  0.734576  0.734576  0.664758  1
  Co  Co12  1  0.000000  0.342376  0.340441  1
  Co  Co13  1  0.342376  0.000000  0.340441  1
  Co  Co14  1  0.657624  0.657624  0.340441  1
  Si  Si15  1  0.666667  0.333333  0.281986  1
  Si  Si16  1  0.333333  0.666667  0.281986  1
  Si  Si17  1  0.333333  0.666667  0.775697  1
  Si  Si18  1  0.666667  0.333333  0.775697  1
  Si  Si19  1  0.000000  0.000000  0.412245  1
  Si  Si20  1  0.000000  0.000000  0.916582  1
  Ru  Ru21  1  0.000000  0.660276  0.839223  1
  Ru  Ru22  1  0.660276  0.000000  0.839223  1
  Ru  Ru23  1  0.339724  0.339724  0.839223  1
