# generated using pymatgen
data_TbTm(Re2Si)4
_symmetry_space_group_name_H-M   'P 1'
_cell_length_a   7.40908450
_cell_length_b   7.40908334
_cell_length_c   4.13615200
_cell_angle_alpha   90.00000000
_cell_angle_beta   90.00000000
_cell_angle_gamma   90.60144491
_symmetry_Int_Tables_number   1
_chemical_formula_structural   TbTm(Re2Si)4
_chemical_formula_sum   'Tb1 Tm1 Re8 Si4'
_cell_volume   227.03958812
_cell_formula_units_Z   1
loop_
 _symmetry_equiv_pos_site_id
 _symmetry_equiv_pos_as_xyz
  1  'x, y, z'
loop_
 _atom_site_type_symbol
 _atom_site_label
 _atom_site_symmetry_multiplicity
 _atom_site_fract_x
 _atom_site_fract_y
 _atom_site_fract_z
 _atom_site_occupancy
  Tb  Tb0  1  0.000000  0.000000  0.500000  1
  Tm  Tm1  1  0.500000  0.500000  0.000000  1
  Re  Re2  1  0.656554  0.903627  0.000000  1
  Re  Re3  1  0.160410  0.591493  0.500000  1
  Re  Re4  1  0.096373  0.343446  0.000000  1
  Re  Re5  1  0.903627  0.656554  0.000000  1
  Re  Re6  1  0.408507  0.839590  0.500000  1
  Re  Re7  1  0.591493  0.160410  0.500000  1
  Re  Re8  1  0.343446  0.096373  0.000000  1
  Re  Re9  1  0.839590  0.408507  0.500000  1
  Si  Si10  1  0.209884  0.790116  0.000000  1
  Si  Si11  1  0.790116  0.209884  0.000000  1
  Si  Si12  1  0.706940  0.706940  0.500000  1
  Si  Si13  1  0.293060  0.293060  0.500000  1
