# generated using pymatgen
data_Lu2Co9As7Rh3
_symmetry_space_group_name_H-M   'P 1'
_cell_length_a   3.77244200
_cell_length_b   9.41663464
_cell_length_c   9.41663500
_cell_angle_alpha   119.99999776
_cell_angle_beta   90.00000000
_cell_angle_gamma   90.00000000
_symmetry_Int_Tables_number   1
_chemical_formula_structural   Lu2Co9As7Rh3
_chemical_formula_sum   'Lu2 Co9 As7 Rh3'
_cell_volume   289.69744850
_cell_formula_units_Z   1
loop_
 _symmetry_equiv_pos_site_id
 _symmetry_equiv_pos_as_xyz
  1  'x, y, z'
loop_
 _atom_site_type_symbol
 _atom_site_label
 _atom_site_symmetry_multiplicity
 _atom_site_fract_x
 _atom_site_fract_y
 _atom_site_fract_z
 _atom_site_occupancy
  Lu  Lu0  1  0.000000  0.666667  0.333333  1
  Lu  Lu1  1  0.500000  0.333333  0.666667  1
  Co  Co2  1  0.000000  0.567369  0.939870  1
  Co  Co3  1  0.000000  0.372502  0.432631  1
  Co  Co4  1  0.000000  0.060130  0.627498  1
  Co  Co5  1  0.000000  0.876705  0.159731  1
  Co  Co6  1  0.000000  0.283026  0.123295  1
  Co  Co7  1  0.000000  0.840269  0.716974  1
  Co  Co8  1  0.500000  0.945383  0.384625  1
  Co  Co9  1  0.500000  0.439241  0.054617  1
  Co  Co10  1  0.500000  0.615375  0.560759  1
  As  As11  1  0.000000  0.000000  0.000000  1
  As  As12  1  0.500000  0.709257  0.121539  1
  As  As13  1  0.500000  0.412281  0.290743  1
  As  As14  1  0.500000  0.878461  0.587719  1
  As  As15  1  0.000000  0.585076  0.700218  1
  As  As16  1  0.000000  0.115142  0.414924  1
  As  As17  1  0.000000  0.299782  0.884858  1
  Rh  Rh18  1  0.500000  0.770579  0.897332  1
  Rh  Rh19  1  0.500000  0.126753  0.229421  1
  Rh  Rh20  1  0.500000  0.102668  0.873247  1
