# generated using pymatgen
data_Li3Dy8Sc8Si16Tc
_symmetry_space_group_name_H-M   'P 1'
_cell_length_a   6.88992205
_cell_length_b   7.33418325
_cell_length_c   14.00345400
_cell_angle_alpha   90.00000000
_cell_angle_beta   90.00000000
_cell_angle_gamma   90.18708505
_symmetry_Int_Tables_number   1
_chemical_formula_structural   Li3Dy8Sc8Si16Tc
_chemical_formula_sum   'Li3 Dy8 Sc8 Si16 Tc1'
_cell_volume   707.61807729
_cell_formula_units_Z   1
loop_
 _symmetry_equiv_pos_site_id
 _symmetry_equiv_pos_as_xyz
  1  'x, y, z'
loop_
 _atom_site_type_symbol
 _atom_site_label
 _atom_site_symmetry_multiplicity
 _atom_site_fract_x
 _atom_site_fract_y
 _atom_site_fract_z
 _atom_site_occupancy
  Li  Li0  1  0.842640  0.493586  0.250000  1
  Li  Li1  1  0.341877  0.005627  0.250000  1
  Li  Li2  1  0.659760  0.991288  0.750000  1
  Dy  Dy3  1  0.015507  0.182608  0.096044  1
  Dy  Dy4  1  0.987862  0.821794  0.899845  1
  Dy  Dy5  1  0.488285  0.679493  0.900252  1
  Dy  Dy6  1  0.987862  0.821794  0.600155  1
  Dy  Dy7  1  0.515423  0.319733  0.098071  1
  Dy  Dy8  1  0.015507  0.182608  0.403956  1
  Dy  Dy9  1  0.515423  0.319733  0.401929  1
  Dy  Dy10  1  0.488285  0.679493  0.599748  1
  Sc  Sc11  1  0.330925  0.176425  0.627192  1
  Sc  Sc12  1  0.671224  0.821996  0.373689  1
  Sc  Sc13  1  0.170623  0.676838  0.375994  1
  Sc  Sc14  1  0.671224  0.821996  0.126311  1
  Sc  Sc15  1  0.824627  0.322337  0.628699  1
  Sc  Sc16  1  0.330925  0.176425  0.872808  1
  Sc  Sc17  1  0.824627  0.322337  0.871301  1
  Sc  Sc18  1  0.170623  0.676838  0.124006  1
  Si  Si19  1  0.035265  0.119784  0.750000  1
  Si  Si20  1  0.971661  0.894194  0.250000  1
  Si  Si21  1  0.469719  0.603763  0.250000  1
  Si  Si22  1  0.517377  0.404934  0.750000  1
  Si  Si23  1  0.276461  0.865388  0.750000  1
  Si  Si24  1  0.722165  0.120521  0.250000  1
  Si  Si25  1  0.217153  0.380194  0.250000  1
  Si  Si26  1  0.794099  0.618423  0.750000  1
  Si  Si27  1  0.152559  0.466470  0.548086  1
  Si  Si28  1  0.840629  0.538189  0.467522  1
  Si  Si29  1  0.343397  0.961892  0.465911  1
  Si  Si30  1  0.840629  0.538189  0.032478  1
  Si  Si31  1  0.658765  0.037310  0.535134  1
  Si  Si32  1  0.152559  0.466470  0.951914  1
  Si  Si33  1  0.658765  0.037310  0.964866  1
  Si  Si34  1  0.343397  0.961892  0.034089  1
  Tc  Tc35  1  0.152175  0.492127  0.750000  1
