# generated using pymatgen
data_Sc6Ta4Al4Ga8Ir7
_symmetry_space_group_name_H-M   'P 1'
_cell_length_a   8.84799263
_cell_length_b   8.84799224
_cell_length_c   8.84799300
_cell_angle_alpha   59.99999343
_cell_angle_beta   59.99999490
_cell_angle_gamma   59.99999729
_symmetry_Int_Tables_number   1
_chemical_formula_structural   Sc6Ta4Al4Ga8Ir7
_chemical_formula_sum   'Sc6 Ta4 Al4 Ga8 Ir7'
_cell_volume   489.80048513
_cell_formula_units_Z   1
loop_
 _symmetry_equiv_pos_site_id
 _symmetry_equiv_pos_as_xyz
  1  'x, y, z'
loop_
 _atom_site_type_symbol
 _atom_site_label
 _atom_site_symmetry_multiplicity
 _atom_site_fract_x
 _atom_site_fract_y
 _atom_site_fract_z
 _atom_site_occupancy
  Sc  Sc0  1  0.698486  0.698486  0.301514  1
  Sc  Sc1  1  0.301514  0.698486  0.301514  1
  Sc  Sc2  1  0.698486  0.301514  0.301514  1
  Sc  Sc3  1  0.301514  0.301514  0.698486  1
  Sc  Sc4  1  0.698486  0.301514  0.698486  1
  Sc  Sc5  1  0.301514  0.698486  0.698486  1
  Ta  Ta6  1  0.877140  0.877140  0.368578  1
  Ta  Ta7  1  0.877140  0.368578  0.877140  1
  Ta  Ta8  1  0.368578  0.877140  0.877140  1
  Ta  Ta9  1  0.877140  0.877140  0.877140  1
  Al  Al10  1  0.121499  0.121499  0.635503  1
  Al  Al11  1  0.121499  0.635503  0.121499  1
  Al  Al12  1  0.635503  0.121499  0.121499  1
  Al  Al13  1  0.121499  0.121499  0.121499  1
  Ga  Ga14  1  0.650860  0.650860  0.047419  1
  Ga  Ga15  1  0.650860  0.047419  0.650860  1
  Ga  Ga16  1  0.047419  0.650860  0.650860  1
  Ga  Ga17  1  0.650860  0.650860  0.650860  1
  Ga  Ga18  1  0.338754  0.338754  0.983739  1
  Ga  Ga19  1  0.338754  0.983739  0.338754  1
  Ga  Ga20  1  0.983739  0.338754  0.338754  1
  Ga  Ga21  1  0.338754  0.338754  0.338754  1
  Ir  Ir22  1  0.000000  0.000000  0.000000  1
  Ir  Ir23  1  0.997262  0.997262  0.502738  1
  Ir  Ir24  1  0.502738  0.997262  0.502738  1
  Ir  Ir25  1  0.997262  0.502738  0.502738  1
  Ir  Ir26  1  0.502738  0.502738  0.997262  1
  Ir  Ir27  1  0.997262  0.502738  0.997262  1
  Ir  Ir28  1  0.502738  0.997262  0.997262  1
