# generated using pymatgen
data_TbDy7(AsI6)2
_symmetry_space_group_name_H-M   'P 1'
_cell_length_a   4.24521800
_cell_length_b   13.90395307
_cell_length_c   14.72353207
_cell_angle_alpha   90.01130369
_cell_angle_beta   90.00000000
_cell_angle_gamma   90.00000000
_symmetry_Int_Tables_number   1
_chemical_formula_structural   TbDy7(AsI6)2
_chemical_formula_sum   'Tb1 Dy7 As2 I12'
_cell_volume   869.06105491
_cell_formula_units_Z   1
loop_
 _symmetry_equiv_pos_site_id
 _symmetry_equiv_pos_as_xyz
  1  'x, y, z'
loop_
 _atom_site_type_symbol
 _atom_site_label
 _atom_site_symmetry_multiplicity
 _atom_site_fract_x
 _atom_site_fract_y
 _atom_site_fract_z
 _atom_site_occupancy
  Tb  Tb0  1  0.000000  0.389931  0.073116  1
  Dy  Dy1  1  0.500000  0.114700  0.347164  1
  Dy  Dy2  1  0.500000  0.885315  0.652809  1
  Dy  Dy3  1  0.500000  0.614657  0.152806  1
  Dy  Dy4  1  0.500000  0.385299  0.847224  1
  Dy  Dy5  1  0.000000  0.109914  0.573005  1
  Dy  Dy6  1  0.000000  0.890085  0.426995  1
  Dy  Dy7  1  0.000000  0.609963  0.926971  1
  As  As8  1  0.500000  0.000003  0.499997  1
  As  As9  1  0.500000  0.500391  0.999753  1
  I  I10  1  0.500000  0.245362  0.160597  1
  I  I11  1  0.500000  0.754349  0.839595  1
  I  I12  1  0.500000  0.745691  0.339626  1
  I  I13  1  0.500000  0.254314  0.660370  1
  I  I14  1  0.000000  0.258603  0.413979  1
  I  I15  1  0.000000  0.741393  0.586024  1
  I  I16  1  0.000000  0.758609  0.086032  1
  I  I17  1  0.000000  0.241266  0.913759  1
  I  I18  1  0.000000  0.999566  0.240832  1
  I  I19  1  0.000000  0.000424  0.759171  1
  I  I20  1  0.000000  0.499744  0.259356  1
  I  I21  1  0.000000  0.500422  0.740820  1
