# generated using pymatgen
data_Ti6AlRe3Tc2
_symmetry_space_group_name_H-M   'P 1'
_cell_length_a   4.42538400
_cell_length_b   6.28286200
_cell_length_c   13.17497300
_cell_angle_alpha   90.00047194
_cell_angle_beta   89.99987003
_cell_angle_gamma   89.99980906
_symmetry_Int_Tables_number   1
_chemical_formula_structural   Ti6AlRe3Tc2
_chemical_formula_sum   'Ti12 Al2 Re6 Tc4'
_cell_volume   366.31796335
_cell_formula_units_Z   2
loop_
 _symmetry_equiv_pos_site_id
 _symmetry_equiv_pos_as_xyz
  1  'x, y, z'
loop_
 _atom_site_type_symbol
 _atom_site_label
 _atom_site_symmetry_multiplicity
 _atom_site_fract_x
 _atom_site_fract_y
 _atom_site_fract_z
 _atom_site_occupancy
  Ti  Ti0  1  0.499951  0.244469  0.004704  1
  Ti  Ti1  1  0.499948  0.755532  0.004703  1
  Ti  Ti2  1  0.999724  0.250974  0.166859  1
  Ti  Ti3  1  0.999721  0.749027  0.166859  1
  Ti  Ti4  1  0.499720  0.249038  0.333110  1
  Ti  Ti5  1  0.499718  0.750962  0.333111  1
  Ti  Ti6  1  0.999950  0.255536  0.495302  1
  Ti  Ti7  1  0.999950  0.744463  0.495304  1
  Ti  Ti8  1  0.500319  0.257604  0.660878  1
  Ti  Ti9  1  0.500319  0.742395  0.660880  1
  Ti  Ti10  1  0.000320  0.242384  0.839136  1
  Ti  Ti11  1  0.000319  0.757616  0.839136  1
  Al  Al12  1  0.000432  0.999999  0.664755  1
  Al  Al13  1  0.500431  0.500002  0.835240  1
  Re  Re14  1  0.999913  0.499998  0.996203  1
  Re  Re15  1  0.499734  0.999997  0.168218  1
  Re  Re16  1  0.999725  0.500004  0.331820  1
  Re  Re17  1  0.499913  0.999999  0.503793  1
  Re  Re18  1  0.000250  0.500001  0.672062  1
  Re  Re19  1  0.500248  0.999999  0.827955  1
  Tc  Tc20  1  0.999969  0.999999  0.999604  1
  Tc  Tc21  1  0.499720  0.499998  0.166094  1
  Tc  Tc22  1  0.999724  0.000000  0.333885  1
  Tc  Tc23  1  0.499965  0.500000  0.500389  1
