# generated using pymatgen
data_Ti7Co8Si14Tc
_symmetry_space_group_name_H-M   'P 1'
_cell_length_a   9.13419954
_cell_length_b   9.13419942
_cell_length_c   9.16389619
_cell_angle_alpha   94.17553843
_cell_angle_beta   94.17554271
_cell_angle_gamma   148.63861228
_symmetry_Int_Tables_number   1
_chemical_formula_structural   Ti7Co8Si14Tc
_chemical_formula_sum   'Ti7 Co8 Si14 Tc1'
_cell_volume   383.20052942
_cell_formula_units_Z   1
loop_
 _symmetry_equiv_pos_site_id
 _symmetry_equiv_pos_as_xyz
  1  'x, y, z'
loop_
 _atom_site_type_symbol
 _atom_site_label
 _atom_site_symmetry_multiplicity
 _atom_site_fract_x
 _atom_site_fract_y
 _atom_site_fract_z
 _atom_site_occupancy
  Ti  Ti0  1  0.866568  0.866568  0.733137  1
  Ti  Ti1  1  0.863887  0.134468  0.998355  1
  Ti  Ti2  1  0.134468  0.863887  0.998355  1
  Ti  Ti3  1  0.500539  0.691219  0.191759  1
  Ti  Ti4  1  0.500060  0.309573  0.809633  1
  Ti  Ti5  1  0.309573  0.500060  0.809633  1
  Ti  Ti6  1  0.691219  0.500539  0.191759  1
  Co  Co7  1  0.399586  0.899586  0.799173  1
  Co  Co8  1  0.100425  0.600425  0.200849  1
  Co  Co9  1  0.100966  0.900379  0.499100  1
  Co  Co10  1  0.398134  0.598721  0.499100  1
  Co  Co11  1  0.598721  0.398134  0.499100  1
  Co  Co12  1  0.900379  0.100966  0.499100  1
  Co  Co13  1  0.899586  0.399586  0.799173  1
  Co  Co14  1  0.600425  0.100425  0.200849  1
  Si  Si15  1  0.293640  0.293640  0.587281  1
  Si  Si16  1  0.706711  0.706711  0.413420  1
  Si  Si17  1  0.705253  0.294640  0.999892  1
  Si  Si18  1  0.294640  0.705253  0.999892  1
  Si  Si19  1  0.002143  0.291012  0.293155  1
  Si  Si20  1  0.999116  0.706266  0.705382  1
  Si  Si21  1  0.706266  0.999116  0.705382  1
  Si  Si22  1  0.291012  0.002143  0.293155  1
  Si  Si23  1  0.500166  0.905163  0.405329  1
  Si  Si24  1  0.500538  0.094030  0.594568  1
  Si  Si25  1  0.094030  0.500538  0.594568  1
  Si  Si26  1  0.905163  0.500166  0.405329  1
  Si  Si27  1  0.751640  0.751640  0.003221  1
  Si  Si28  1  0.251581  0.251581  0.003221  1
  Tc  Tc29  1  0.133565  0.133565  0.267130  1
