# generated using pymatgen
data_PrErSe2
_symmetry_space_group_name_H-M   'P 1'
_cell_length_a   7.35931665
_cell_length_b   7.35931646
_cell_length_c   7.35931602
_cell_angle_alpha   32.36050363
_cell_angle_beta   32.36050461
_cell_angle_gamma   32.36050791
_symmetry_Int_Tables_number   1
_chemical_formula_structural   PrErSe2
_chemical_formula_sum   'Pr1 Er1 Se2'
_cell_volume   101.51244337
_cell_formula_units_Z   1
loop_
 _symmetry_equiv_pos_site_id
 _symmetry_equiv_pos_as_xyz
  1  'x, y, z'
loop_
 _atom_site_type_symbol
 _atom_site_label
 _atom_site_symmetry_multiplicity
 _atom_site_fract_x
 _atom_site_fract_y
 _atom_site_fract_z
 _atom_site_occupancy
  Pr  Pr0  1  0.500000  0.500000  0.500000  1
  Er  Er1  1  0.000000  0.000000  0.000000  1
  Se  Se2  1  0.257240  0.257240  0.257240  1
  Se  Se3  1  0.742760  0.742760  0.742760  1
