# generated using pymatgen
data_Lu2PaSn3Ir2Pt
_symmetry_space_group_name_H-M   'P 1'
_cell_length_a   7.41763412
_cell_length_b   7.45208455
_cell_length_c   3.97845900
_cell_angle_alpha   90.00000000
_cell_angle_beta   90.00000000
_cell_angle_gamma   119.85299457
_symmetry_Int_Tables_number   1
_chemical_formula_structural   Lu2PaSn3Ir2Pt
_chemical_formula_sum   'Lu2 Pa1 Sn3 Ir2 Pt1'
_cell_volume   190.73488269
_cell_formula_units_Z   1
loop_
 _symmetry_equiv_pos_site_id
 _symmetry_equiv_pos_as_xyz
  1  'x, y, z'
loop_
 _atom_site_type_symbol
 _atom_site_label
 _atom_site_symmetry_multiplicity
 _atom_site_fract_x
 _atom_site_fract_y
 _atom_site_fract_z
 _atom_site_occupancy
  Lu  Lu0  1  0.599876  0.596284  0.500000  1
  Lu  Lu1  1  0.403838  0.002824  0.500000  1
  Pa  Pa2  1  0.990525  0.404494  0.500000  1
  Sn  Sn3  1  0.998214  0.752608  0.000000  1
  Sn  Sn4  1  0.270541  0.256453  0.000000  1
  Sn  Sn5  1  0.730350  0.986976  0.000000  1
  Ir  Ir6  1  0.686772  0.334892  0.000000  1
  Ir  Ir7  1  0.000597  0.012667  0.500000  1
  Pt  Pt8  1  0.319287  0.652801  0.000000  1
