# generated using pymatgen
data_Ho2Co3P6Ru5Rh2
_symmetry_space_group_name_H-M   'P 1'
_cell_length_a   3.80763300
_cell_length_b   10.66301400
_cell_length_c   12.24883500
_cell_angle_alpha   90.00000000
_cell_angle_beta   90.00000000
_cell_angle_gamma   90.00000000
_symmetry_Int_Tables_number   1
_chemical_formula_structural   Ho2Co3P6Ru5Rh2
_chemical_formula_sum   'Ho4 Co6 P12 Ru10 Rh4'
_cell_volume   497.31303884
_cell_formula_units_Z   2
loop_
 _symmetry_equiv_pos_site_id
 _symmetry_equiv_pos_as_xyz
  1  'x, y, z'
loop_
 _atom_site_type_symbol
 _atom_site_label
 _atom_site_symmetry_multiplicity
 _atom_site_fract_x
 _atom_site_fract_y
 _atom_site_fract_z
 _atom_site_occupancy
  Ho  Ho0  1  0.250000  0.582246  0.707772  1
  Ho  Ho1  1  0.250000  0.917754  0.207772  1
  Ho  Ho2  1  0.750000  0.413659  0.293516  1
  Ho  Ho3  1  0.750000  0.086341  0.793516  1
  Co  Co4  1  0.750000  0.113808  0.302967  1
  Co  Co5  1  0.750000  0.386192  0.802967  1
  Co  Co6  1  0.250000  0.460523  0.932931  1
  Co  Co7  1  0.250000  0.039477  0.432931  1
  Co  Co8  1  0.750000  0.535437  0.060576  1
  Co  Co9  1  0.750000  0.964563  0.560576  1
  P  P10  1  0.250000  0.421393  0.109130  1
  P  P11  1  0.250000  0.078607  0.609130  1
  P  P12  1  0.750000  0.568314  0.886934  1
  P  P13  1  0.750000  0.931686  0.386934  1
  P  P14  1  0.250000  0.269429  0.870902  1
  P  P15  1  0.250000  0.230571  0.370902  1
  P  P16  1  0.750000  0.725476  0.128592  1
  P  P17  1  0.750000  0.774524  0.628592  1
  P  P18  1  0.250000  0.595816  0.388572  1
  P  P19  1  0.250000  0.904184  0.888572  1
  P  P20  1  0.750000  0.395778  0.614898  1
  P  P21  1  0.750000  0.104222  0.114898  1
  Ru  Ru22  1  0.250000  0.711569  0.985139  1
  Ru  Ru23  1  0.250000  0.788431  0.485139  1
  Ru  Ru24  1  0.750000  0.290239  0.011821  1
  Ru  Ru25  1  0.750000  0.209761  0.511821  1
  Ru  Ru26  1  0.250000  0.405951  0.487416  1
  Ru  Ru27  1  0.250000  0.094049  0.987416  1
  Ru  Ru28  1  0.250000  0.223283  0.180629  1
  Ru  Ru29  1  0.250000  0.276717  0.680629  1
  Ru  Ru30  1  0.250000  0.887171  0.697358  1
  Ru  Ru31  1  0.250000  0.612829  0.197358  1
  Rh  Rh32  1  0.750000  0.594270  0.519005  1
  Rh  Rh33  1  0.750000  0.905730  0.019005  1
  Rh  Rh34  1  0.750000  0.768309  0.821846  1
  Rh  Rh35  1  0.750000  0.731691  0.321846  1
