# generated using pymatgen
data_Yb2Be2Si4Pd21
_symmetry_space_group_name_H-M   'P 1'
_cell_length_a   8.56735469
_cell_length_b   8.58220428
_cell_length_c   8.58220385
_cell_angle_alpha   59.68571542
_cell_angle_beta   60.05722572
_cell_angle_gamma   60.05721476
_symmetry_Int_Tables_number   1
_chemical_formula_structural   Yb2Be2Si4Pd21
_chemical_formula_sum   'Yb2 Be2 Si4 Pd21'
_cell_volume   445.51318472
_cell_formula_units_Z   1
loop_
 _symmetry_equiv_pos_site_id
 _symmetry_equiv_pos_as_xyz
  1  'x, y, z'
loop_
 _atom_site_type_symbol
 _atom_site_label
 _atom_site_symmetry_multiplicity
 _atom_site_fract_x
 _atom_site_fract_y
 _atom_site_fract_z
 _atom_site_occupancy
  Yb  Yb0  1  0.750264  0.747159  0.752313  1
  Yb  Yb1  1  0.249736  0.247687  0.252841  1
  Be  Be2  1  0.730139  0.727596  0.272404  1
  Be  Be3  1  0.269861  0.727596  0.272404  1
  Si  Si4  1  0.729550  0.269136  0.271764  1
  Si  Si5  1  0.269093  0.267955  0.732045  1
  Si  Si6  1  0.730907  0.267955  0.732045  1
  Si  Si7  1  0.270450  0.728236  0.730864  1
  Pd  Pd8  1  0.000000  0.000668  0.999332  1
  Pd  Pd9  1  0.614377  0.621115  0.150132  1
  Pd  Pd10  1  0.617260  0.147651  0.617829  1
  Pd  Pd11  1  0.149044  0.619341  0.612293  1
  Pd  Pd12  1  0.619323  0.619341  0.612293  1
  Pd  Pd13  1  0.382740  0.382171  0.852349  1
  Pd  Pd14  1  0.385623  0.849868  0.378885  1
  Pd  Pd15  1  0.850956  0.387707  0.380659  1
  Pd  Pd16  1  0.380677  0.387707  0.380659  1
  Pd  Pd17  1  0.004305  0.995368  0.337546  1
  Pd  Pd18  1  0.662782  0.995368  0.337546  1
  Pd  Pd19  1  0.000000  0.664936  0.335064  1
  Pd  Pd20  1  0.656486  0.343683  0.000485  1
  Pd  Pd21  1  0.999346  0.343683  0.000485  1
  Pd  Pd22  1  0.000000  0.344746  0.655254  1
  Pd  Pd23  1  0.337218  0.662454  0.004632  1
  Pd  Pd24  1  0.343514  0.999515  0.656317  1
  Pd  Pd25  1  0.339592  0.994695  0.005305  1
  Pd  Pd26  1  0.000654  0.999515  0.656317  1
  Pd  Pd27  1  0.995695  0.662454  0.004632  1
  Pd  Pd28  1  0.660408  0.994695  0.005305  1
