# generated using pymatgen
data_Rb6Co2O5
_symmetry_space_group_name_H-M   'P 1'
_cell_length_a   6.99114868
_cell_length_b   6.99135114
_cell_length_c   7.01166598
_cell_angle_alpha   92.48176508
_cell_angle_beta   92.48736524
_cell_angle_gamma   117.57924437
_symmetry_Int_Tables_number   1
_chemical_formula_structural   Rb6Co2O5
_chemical_formula_sum   'Rb6 Co2 O5'
_cell_volume   302.70631876
_cell_formula_units_Z   1
loop_
 _symmetry_equiv_pos_site_id
 _symmetry_equiv_pos_as_xyz
  1  'x, y, z'
loop_
 _atom_site_type_symbol
 _atom_site_label
 _atom_site_symmetry_multiplicity
 _atom_site_fract_x
 _atom_site_fract_y
 _atom_site_fract_z
 _atom_site_occupancy
  Rb  Rb0  1  0.295005  0.295004  0.994346  1
  Rb  Rb1  1  0.854284  0.433774  0.178823  1
  Rb  Rb2  1  0.433776  0.854288  0.178825  1
  Rb  Rb3  1  0.013833  0.013832  0.372849  1
  Rb  Rb4  1  0.881621  0.410990  0.685303  1
  Rb  Rb5  1  0.410988  0.881617  0.685301  1
  Co  Co6  1  0.438320  0.438315  0.507681  1
  Co  Co7  1  0.842010  0.842013  0.883742  1
  O  O8  1  0.489245  0.218747  0.409339  1
  O  O9  1  0.218750  0.489256  0.409336  1
  O  O10  1  0.590015  0.590019  0.754134  1
  O  O11  1  0.807789  0.080744  0.949862  1
  O  O12  1  0.080755  0.807793  0.949855  1
