# generated using pymatgen
data_Dy17Ho3Ir7Au5
_symmetry_space_group_name_H-M   'P 1'
_cell_length_a   11.18794623
_cell_length_b   11.18774085
_cell_length_c   6.31045652
_cell_angle_alpha   90.01327785
_cell_angle_beta   90.01691871
_cell_angle_gamma   89.51340499
_symmetry_Int_Tables_number   1
_chemical_formula_structural   Dy17Ho3Ir7Au5
_chemical_formula_sum   'Dy17 Ho3 Ir7 Au5'
_cell_volume   789.83769121
_cell_formula_units_Z   1
loop_
 _symmetry_equiv_pos_site_id
 _symmetry_equiv_pos_as_xyz
  1  'x, y, z'
loop_
 _atom_site_type_symbol
 _atom_site_label
 _atom_site_symmetry_multiplicity
 _atom_site_fract_x
 _atom_site_fract_y
 _atom_site_fract_z
 _atom_site_occupancy
  Dy  Dy0  1  0.300161  0.091210  0.363262  1
  Dy  Dy1  1  0.301580  0.907068  0.863233  1
  Dy  Dy2  1  0.697568  0.080667  0.858103  1
  Dy  Dy3  1  0.697529  0.905554  0.360903  1
  Dy  Dy4  1  0.580742  0.784523  0.876462  1
  Dy  Dy5  1  0.576053  0.206576  0.361214  1
  Dy  Dy6  1  0.417486  0.788135  0.376373  1
  Dy  Dy7  1  0.410934  0.207953  0.875383  1
  Dy  Dy8  1  0.215489  0.419260  0.623519  1
  Dy  Dy9  1  0.211883  0.582487  0.123625  1
  Dy  Dy10  1  0.793409  0.423964  0.138774  1
  Dy  Dy11  1  0.792033  0.589067  0.624591  1
  Dy  Dy12  1  0.908790  0.699873  0.136654  1
  Dy  Dy13  1  0.919340  0.302488  0.642013  1
  Dy  Dy14  1  0.092933  0.698363  0.636875  1
  Dy  Dy15  1  0.094437  0.302432  0.139045  1
  Dy  Dy16  1  0.998462  0.000990  0.499216  1
  Ho  Ho17  1  0.999004  0.001544  0.000777  1
  Ho  Ho18  1  0.495990  0.501956  0.001188  1
  Ho  Ho19  1  0.498049  0.504012  0.498805  1
  Ir  Ir20  1  0.653708  0.650915  0.250852  1
  Ir  Ir21  1  0.349089  0.346292  0.249130  1
  Ir  Ir22  1  0.345418  0.654597  0.750016  1
  Ir  Ir23  1  0.499308  0.999134  0.110121  1
  Ir  Ir24  1  0.499095  0.000270  0.611154  1
  Ir  Ir25  1  0.999736  0.500897  0.888826  1
  Ir  Ir26  1  0.000866  0.500692  0.389870  1
  Au  Au27  1  0.841565  0.158438  0.249723  1
  Au  Au28  1  0.843573  0.846042  0.751028  1
  Au  Au29  1  0.153992  0.156395  0.749505  1
  Au  Au30  1  0.155535  0.844467  0.249731  1
  Au  Au31  1  0.656240  0.343739  0.750030  1
