# generated using pymatgen
data_La2Hg2GePRh4
_symmetry_space_group_name_H-M   'P 1'
_cell_length_a   4.11356400
_cell_length_b   4.11356400
_cell_length_c   11.71804600
_cell_angle_alpha   90.00000000
_cell_angle_beta   90.00000000
_cell_angle_gamma   90.00000000
_symmetry_Int_Tables_number   1
_chemical_formula_structural   La2Hg2GePRh4
_chemical_formula_sum   'La2 Hg2 Ge1 P1 Rh4'
_cell_volume   198.28584649
_cell_formula_units_Z   1
loop_
 _symmetry_equiv_pos_site_id
 _symmetry_equiv_pos_as_xyz
  1  'x, y, z'
loop_
 _atom_site_type_symbol
 _atom_site_label
 _atom_site_symmetry_multiplicity
 _atom_site_fract_x
 _atom_site_fract_y
 _atom_site_fract_z
 _atom_site_occupancy
  La  La0  1  0.000000  0.500000  0.242434  1
  La  La1  1  0.500000  0.000000  0.751907  1
  Hg  Hg2  1  0.000000  0.000000  0.496109  1
  Hg  Hg3  1  0.500000  0.500000  0.496109  1
  Ge  Ge4  1  0.000000  0.500000  0.887678  1
  P  P5  1  0.500000  0.000000  0.113981  1
  Rh  Rh6  1  0.000000  0.000000  0.010593  1
  Rh  Rh7  1  0.500000  0.500000  0.010593  1
  Rh  Rh8  1  0.000000  0.500000  0.680740  1
  Rh  Rh9  1  0.500000  0.000000  0.309856  1
