# generated using pymatgen
data_AlV(Fe2Si)2
_symmetry_space_group_name_H-M   'P 1'
_cell_length_a   6.87594700
_cell_length_b   6.87594699
_cell_length_c   6.87594649
_cell_angle_alpha   33.49783140
_cell_angle_beta   33.49783443
_cell_angle_gamma   33.49783315
_symmetry_Int_Tables_number   1
_chemical_formula_structural   AlV(Fe2Si)2
_chemical_formula_sum   'Al1 V1 Fe4 Si2'
_cell_volume   88.19163128
_cell_formula_units_Z   1
loop_
 _symmetry_equiv_pos_site_id
 _symmetry_equiv_pos_as_xyz
  1  'x, y, z'
loop_
 _atom_site_type_symbol
 _atom_site_label
 _atom_site_symmetry_multiplicity
 _atom_site_fract_x
 _atom_site_fract_y
 _atom_site_fract_z
 _atom_site_occupancy
  Al  Al0  1  0.000000  0.000000  0.000000  1
  V  V1  1  0.500000  0.500000  0.500000  1
  Fe  Fe2  1  0.623734  0.623734  0.623734  1
  Fe  Fe3  1  0.126643  0.126643  0.126643  1
  Fe  Fe4  1  0.873357  0.873357  0.873357  1
  Fe  Fe5  1  0.376266  0.376266  0.376266  1
  Si  Si6  1  0.250998  0.250998  0.250998  1
  Si  Si7  1  0.749002  0.749002  0.749002  1
