# generated using pymatgen
data_Re5Pt2W
_symmetry_space_group_name_H-M   'P 1'
_cell_length_a   5.62675500
_cell_length_b   5.61982001
_cell_length_c   4.45077600
_cell_angle_alpha   90.00000000
_cell_angle_beta   90.00000000
_cell_angle_gamma   120.04083545
_symmetry_Int_Tables_number   1
_chemical_formula_structural   Re5Pt2W
_chemical_formula_sum   'Re5 Pt2 W1'
_cell_volume   121.83383882
_cell_formula_units_Z   1
loop_
 _symmetry_equiv_pos_site_id
 _symmetry_equiv_pos_as_xyz
  1  'x, y, z'
loop_
 _atom_site_type_symbol
 _atom_site_label
 _atom_site_symmetry_multiplicity
 _atom_site_fract_x
 _atom_site_fract_y
 _atom_site_fract_z
 _atom_site_occupancy
  Re  Re0  1  0.682315  0.840810  0.250000  1
  Re  Re1  1  0.158495  0.840810  0.250000  1
  Re  Re2  1  0.841349  0.682697  0.750000  1
  Re  Re3  1  0.317134  0.155466  0.750000  1
  Re  Re4  1  0.838333  0.155466  0.750000  1
  Pt  Pt5  1  0.334642  0.669286  0.750000  1
  Pt  Pt6  1  0.667453  0.334904  0.250000  1
  W  W7  1  0.160280  0.320561  0.250000  1
