# generated using pymatgen
data_Na(TiSe2)2
_symmetry_space_group_name_H-M   'P 1'
_cell_length_a   6.24770500
_cell_length_b   7.20630600
_cell_length_c   15.06962000
_cell_angle_alpha   90.00000000
_cell_angle_beta   90.00000000
_cell_angle_gamma   90.00000000
_symmetry_Int_Tables_number   1
_chemical_formula_structural   Na(TiSe2)2
_chemical_formula_sum   'Na4 Ti8 Se16'
_cell_volume   678.47760291
_cell_formula_units_Z   4
loop_
 _symmetry_equiv_pos_site_id
 _symmetry_equiv_pos_as_xyz
  1  'x, y, z'
loop_
 _atom_site_type_symbol
 _atom_site_label
 _atom_site_symmetry_multiplicity
 _atom_site_fract_x
 _atom_site_fract_y
 _atom_site_fract_z
 _atom_site_occupancy
  Na  Na0  1  0.329372  0.000000  0.000000  1
  Na  Na1  1  0.670628  0.500000  0.500000  1
  Na  Na2  1  0.024254  0.000000  0.500000  1
  Na  Na3  1  0.975746  0.500000  0.000000  1
  Ti  Ti4  1  0.995339  0.000000  0.249086  1
  Ti  Ti5  1  0.995339  0.000000  0.750914  1
  Ti  Ti6  1  0.004661  0.500000  0.250914  1
  Ti  Ti7  1  0.004661  0.500000  0.749086  1
  Ti  Ti8  1  0.500000  0.250000  0.250000  1
  Ti  Ti9  1  0.500000  0.750000  0.750000  1
  Ti  Ti10  1  0.500000  0.750000  0.250000  1
  Ti  Ti11  1  0.500000  0.250000  0.750000  1
  Se  Se12  1  0.833942  0.249709  0.352566  1
  Se  Se13  1  0.833942  0.750291  0.647434  1
  Se  Se14  1  0.166058  0.749709  0.147434  1
  Se  Se15  1  0.166058  0.250291  0.852566  1
  Se  Se16  1  0.166058  0.250291  0.147434  1
  Se  Se17  1  0.166058  0.749709  0.852566  1
  Se  Se18  1  0.833942  0.750291  0.352566  1
  Se  Se19  1  0.833942  0.249709  0.647434  1
  Se  Se20  1  0.666456  0.000000  0.147491  1
  Se  Se21  1  0.666456  0.000000  0.852509  1
  Se  Se22  1  0.333544  0.500000  0.352509  1
  Se  Se23  1  0.333544  0.500000  0.647491  1
  Se  Se24  1  0.334175  0.000000  0.350439  1
  Se  Se25  1  0.334175  0.000000  0.649561  1
  Se  Se26  1  0.665825  0.500000  0.149561  1
  Se  Se27  1  0.665825  0.500000  0.850439  1
