# generated using pymatgen
data_Hf4NbSiSn3
_symmetry_space_group_name_H-M   'P 1'
_cell_length_a   8.56938500
_cell_length_b   8.56938516
_cell_length_c   5.75594100
_cell_angle_alpha   90.00000000
_cell_angle_beta   90.00000000
_cell_angle_gamma   120.00000325
_symmetry_Int_Tables_number   1
_chemical_formula_structural   Hf4NbSiSn3
_chemical_formula_sum   'Hf8 Nb2 Si2 Sn6'
_cell_volume   366.05493750
_cell_formula_units_Z   2
loop_
 _symmetry_equiv_pos_site_id
 _symmetry_equiv_pos_as_xyz
  1  'x, y, z'
loop_
 _atom_site_type_symbol
 _atom_site_label
 _atom_site_symmetry_multiplicity
 _atom_site_fract_x
 _atom_site_fract_y
 _atom_site_fract_z
 _atom_site_occupancy
  Hf  Hf0  1  0.333333  0.666667  0.500000  1
  Hf  Hf1  1  0.666667  0.333333  0.500000  1
  Hf  Hf2  1  0.740036  0.740036  0.748316  1
  Hf  Hf3  1  0.259964  0.000000  0.748316  1
  Hf  Hf4  1  0.000000  0.259964  0.748316  1
  Hf  Hf5  1  0.259964  0.259964  0.251684  1
  Hf  Hf6  1  0.740036  0.000000  0.251684  1
  Hf  Hf7  1  0.000000  0.740036  0.251684  1
  Nb  Nb8  1  0.666667  0.333333  0.000000  1
  Nb  Nb9  1  0.333333  0.666667  0.000000  1
  Si  Si10  1  0.000000  0.000000  0.000000  1
  Si  Si11  1  0.000000  0.000000  0.500000  1
  Sn  Sn12  1  0.395660  0.395660  0.754641  1
  Sn  Sn13  1  0.604340  0.000000  0.754641  1
  Sn  Sn14  1  0.000000  0.604340  0.754641  1
  Sn  Sn15  1  0.604340  0.604340  0.245359  1
  Sn  Sn16  1  0.395660  0.000000  0.245359  1
  Sn  Sn17  1  0.000000  0.395660  0.245359  1
