# generated using pymatgen
data_Sr3DyCrO6
_symmetry_space_group_name_H-M   'P 1'
_cell_length_a   6.85449741
_cell_length_b   6.85442229
_cell_length_c   6.85443501
_cell_angle_alpha   92.20164873
_cell_angle_beta   92.20122169
_cell_angle_gamma   92.20156099
_symmetry_Int_Tables_number   1
_chemical_formula_structural   Sr3DyCrO6
_chemical_formula_sum   'Sr6 Dy2 Cr2 O12'
_cell_volume   321.31426444
_cell_formula_units_Z   2
loop_
 _symmetry_equiv_pos_site_id
 _symmetry_equiv_pos_as_xyz
  1  'x, y, z'
loop_
 _atom_site_type_symbol
 _atom_site_label
 _atom_site_symmetry_multiplicity
 _atom_site_fract_x
 _atom_site_fract_y
 _atom_site_fract_z
 _atom_site_occupancy
  Sr  Sr0  1  0.615461  0.884541  0.249998  1
  Sr  Sr1  1  0.884534  0.250002  0.615465  1
  Sr  Sr2  1  0.250003  0.615463  0.884530  1
  Sr  Sr3  1  0.115469  0.750002  0.384538  1
  Sr  Sr4  1  0.749999  0.384528  0.115466  1
  Sr  Sr5  1  0.384533  0.115470  0.749996  1
  Dy  Dy6  1  0.249990  0.250001  0.249998  1
  Dy  Dy7  1  0.749990  0.749996  0.749997  1
  Cr  Cr8  1  0.499989  0.499960  0.500024  1
  Cr  Cr9  1  0.000033  0.000050  0.000016  1
  O  O10  1  0.543228  0.214516  0.411307  1
  O  O11  1  0.214514  0.411319  0.543234  1
  O  O12  1  0.411306  0.543242  0.214516  1
  O  O13  1  0.043230  0.911305  0.714513  1
  O  O14  1  0.911311  0.714513  0.043235  1
  O  O15  1  0.714520  0.043224  0.911310  1
  O  O16  1  0.456769  0.785482  0.588694  1
  O  O17  1  0.785488  0.588690  0.456764  1
  O  O18  1  0.588694  0.456762  0.785483  1
  O  O19  1  0.956767  0.088690  0.285473  1
  O  O20  1  0.088685  0.285479  0.956758  1
  O  O21  1  0.285484  0.956767  0.088682  1
