# generated using pymatgen
data_Pa3Tc(Sb2Rh)2
_symmetry_space_group_name_H-M   'P 1'
_cell_length_a   8.36318874
_cell_length_b   8.36367594
_cell_length_c   8.36359734
_cell_angle_alpha   109.61293018
_cell_angle_beta   109.18482757
_cell_angle_gamma   109.61578151
_symmetry_Int_Tables_number   1
_chemical_formula_structural   Pa3Tc(Sb2Rh)2
_chemical_formula_sum   'Pa6 Tc2 Sb8 Rh4'
_cell_volume   450.33415061
_cell_formula_units_Z   2
loop_
 _symmetry_equiv_pos_site_id
 _symmetry_equiv_pos_as_xyz
  1  'x, y, z'
loop_
 _atom_site_type_symbol
 _atom_site_label
 _atom_site_symmetry_multiplicity
 _atom_site_fract_x
 _atom_site_fract_y
 _atom_site_fract_z
 _atom_site_occupancy
  Pa  Pa0  1  0.375000  0.249997  0.624988  1
  Pa  Pa1  1  0.124981  0.749989  0.874975  1
  Pa  Pa2  1  0.629181  0.379180  0.249986  1
  Pa  Pa3  1  0.870816  0.120821  0.750001  1
  Pa  Pa4  1  0.250002  0.620825  0.370831  1
  Pa  Pa5  1  0.750020  0.879230  0.129221  1
  Tc  Tc6  1  0.874994  0.249970  0.125012  1
  Tc  Tc7  1  0.624973  0.749957  0.374936  1
  Sb  Sb8  1  0.497798  0.999328  0.825310  1
  Sb  Sb9  1  0.826001  0.500676  0.998490  1
  Sb  Sb10  1  0.002216  0.827518  0.501522  1
  Sb  Sb11  1  0.674013  0.672483  0.674703  1
  Sb  Sb12  1  0.325289  0.499321  0.997782  1
  Sb  Sb13  1  0.498452  0.000685  0.325988  1
  Sb  Sb14  1  0.001534  0.327539  0.502206  1
  Sb  Sb15  1  0.174690  0.172482  0.174013  1
  Rh  Rh16  1  0.125728  0.875757  0.250051  1
  Rh  Rh17  1  0.374289  0.624204  0.749981  1
  Rh  Rh18  1  0.250074  0.124304  0.874272  1
  Rh  Rh19  1  0.749952  0.375735  0.625733  1
