# generated using pymatgen
data_Lu8VGe16Mo11
_symmetry_space_group_name_H-M   'P 1'
_cell_length_a   6.84231410
_cell_length_b   7.01839413
_cell_length_c   13.04216200
_cell_angle_alpha   90.00000000
_cell_angle_beta   90.00000000
_cell_angle_gamma   89.93491091
_symmetry_Int_Tables_number   1
_chemical_formula_structural   Lu8VGe16Mo11
_chemical_formula_sum   'Lu8 V1 Ge16 Mo11'
_cell_volume   626.31104487
_cell_formula_units_Z   1
loop_
 _symmetry_equiv_pos_site_id
 _symmetry_equiv_pos_as_xyz
  1  'x, y, z'
loop_
 _atom_site_type_symbol
 _atom_site_label
 _atom_site_symmetry_multiplicity
 _atom_site_fract_x
 _atom_site_fract_y
 _atom_site_fract_z
 _atom_site_occupancy
  Lu  Lu0  1  0.490736  0.328828  0.091328  1
  Lu  Lu1  1  0.989610  0.170775  0.408634  1
  Lu  Lu2  1  0.509851  0.671547  0.592354  1
  Lu  Lu3  1  0.009117  0.828868  0.907644  1
  Lu  Lu4  1  0.509851  0.671547  0.907646  1
  Lu  Lu5  1  0.009117  0.828868  0.592356  1
  Lu  Lu6  1  0.490736  0.328828  0.408672  1
  Lu  Lu7  1  0.989610  0.170775  0.091366  1
  V  V8  1  0.661697  0.007959  0.750000  1
  Ge  Ge9  1  0.671951  0.041998  0.549198  1
  Ge  Ge10  1  0.172214  0.456677  0.952597  1
  Ge  Ge11  1  0.328684  0.956822  0.046765  1
  Ge  Ge12  1  0.828418  0.543156  0.452999  1
  Ge  Ge13  1  0.328684  0.956822  0.453235  1
  Ge  Ge14  1  0.828418  0.543156  0.047001  1
  Ge  Ge15  1  0.671951  0.041998  0.950802  1
  Ge  Ge16  1  0.172214  0.456677  0.547403  1
  Ge  Ge17  1  0.530325  0.368985  0.750000  1
  Ge  Ge18  1  0.025921  0.126430  0.750000  1
  Ge  Ge19  1  0.471000  0.628886  0.250000  1
  Ge  Ge20  1  0.971510  0.871068  0.250000  1
  Ge  Ge21  1  0.807055  0.648827  0.750000  1
  Ge  Ge22  1  0.311932  0.855292  0.750000  1
  Ge  Ge23  1  0.190849  0.353335  0.250000  1
  Ge  Ge24  1  0.690571  0.146661  0.250000  1
  Mo  Mo25  1  0.829734  0.342305  0.625830  1
  Mo  Mo26  1  0.329450  0.156641  0.873774  1
  Mo  Mo27  1  0.171129  0.657770  0.126232  1
  Mo  Mo28  1  0.671122  0.843024  0.373409  1
  Mo  Mo29  1  0.171129  0.657770  0.373768  1
  Mo  Mo30  1  0.671122  0.843024  0.126591  1
  Mo  Mo31  1  0.829734  0.342305  0.874170  1
  Mo  Mo32  1  0.329450  0.156641  0.626226  1
  Mo  Mo33  1  0.166038  0.496527  0.750000  1
  Mo  Mo34  1  0.335045  0.997099  0.250000  1
  Mo  Mo35  1  0.834022  0.502110  0.250000  1
