# generated using pymatgen
data_Ti8Al14GaPt7
_symmetry_space_group_name_H-M   'P 1'
_cell_length_a   8.71861915
_cell_length_b   8.71861979
_cell_length_c   8.71862017
_cell_angle_alpha   120.09396745
_cell_angle_beta   119.88628843
_cell_angle_gamma   90.01719189
_symmetry_Int_Tables_number   1
_chemical_formula_structural   Ti8Al14GaPt7
_chemical_formula_sum   'Ti8 Al14 Ga1 Pt7'
_cell_volume   468.69595865
_cell_formula_units_Z   1
loop_
 _symmetry_equiv_pos_site_id
 _symmetry_equiv_pos_as_xyz
  1  'x, y, z'
loop_
 _atom_site_type_symbol
 _atom_site_label
 _atom_site_symmetry_multiplicity
 _atom_site_fract_x
 _atom_site_fract_y
 _atom_site_fract_z
 _atom_site_occupancy
  Ti  Ti0  1  0.786735  0.290829  0.079601  1
  Ti  Ti1  1  0.211228  0.290829  0.504094  1
  Ti  Ti2  1  0.211709  0.711709  0.500000  1
  Ti  Ti3  1  0.211228  0.707135  0.920399  1
  Ti  Ti4  1  0.786735  0.707135  0.495906  1
  Ti  Ti5  1  0.790643  0.290643  0.500000  1
  Ti  Ti6  1  0.379437  0.122396  0.742960  1
  Ti  Ti7  1  0.379437  0.636477  0.257040  1
  Al  Al8  1  0.155409  0.347616  0.192206  1
  Al  Al9  1  0.155409  0.963203  0.807794  1
  Al  Al10  1  0.157480  0.343120  0.814360  1
  Al  Al11  1  0.528760  0.343120  0.185640  1
  Al  Al12  1  0.845578  0.655270  0.809693  1
  Al  Al13  1  0.845578  0.035884  0.190307  1
  Al  Al14  1  0.845531  0.654705  0.190826  1
  Al  Al15  1  0.463879  0.654705  0.809174  1
  Al  Al16  1  0.378492  0.121256  0.257236  1
  Al  Al17  1  0.864020  0.121256  0.742764  1
  Al  Al18  1  0.621800  0.876509  0.254710  1
  Al  Al19  1  0.621800  0.367089  0.745290  1
  Al  Al20  1  0.621133  0.878100  0.743033  1
  Al  Al21  1  0.135067  0.878100  0.256967  1
  Ga  Ga22  1  0.001162  0.501162  0.500000  1
  Pt  Pt23  1  0.996323  0.999464  0.498277  1
  Pt  Pt24  1  0.501187  0.999464  0.003142  1
  Pt  Pt25  1  0.502215  0.502215  0.000000  1
  Pt  Pt26  1  0.501187  0.498045  0.501723  1
  Pt  Pt27  1  0.996323  0.498045  0.996858  1
  Pt  Pt28  1  0.001603  0.001603  0.000000  1
  Pt  Pt29  1  0.502912  0.002912  0.500000  1
