# generated using pymatgen
data_Tb9Y9(ErPb8)2
_symmetry_space_group_name_H-M   'P 1'
_cell_length_a   8.22699434
_cell_length_b   8.31104292
_cell_length_c   15.70340100
_cell_angle_alpha   90.00407490
_cell_angle_beta   90.01145165
_cell_angle_gamma   90.03538436
_symmetry_Int_Tables_number   1
_chemical_formula_structural   Tb9Y9(ErPb8)2
_chemical_formula_sum   'Tb9 Y9 Er2 Pb16'
_cell_volume   1073.71829254
_cell_formula_units_Z   1
loop_
 _symmetry_equiv_pos_site_id
 _symmetry_equiv_pos_as_xyz
  1  'x, y, z'
loop_
 _atom_site_type_symbol
 _atom_site_label
 _atom_site_symmetry_multiplicity
 _atom_site_fract_x
 _atom_site_fract_y
 _atom_site_fract_z
 _atom_site_occupancy
  Tb  Tb0  1  0.876649  0.659275  0.879612  1
  Tb  Tb1  1  0.534209  0.323047  0.900213  1
  Tb  Tb2  1  0.034287  0.176726  0.599692  1
  Tb  Tb3  1  0.465755  0.676834  0.400066  1
  Tb  Tb4  1  0.965598  0.823444  0.100241  1
  Tb  Tb5  1  0.465905  0.676664  0.099981  1
  Tb  Tb6  1  0.965667  0.823224  0.400034  1
  Tb  Tb7  1  0.534123  0.323169  0.599766  1
  Tb  Tb8  1  0.034312  0.176508  0.900076  1
  Y  Y9  1  0.376125  0.841058  0.879178  1
  Y  Y10  1  0.876226  0.658815  0.620665  1
  Y  Y11  1  0.623661  0.158759  0.379031  1
  Y  Y12  1  0.123519  0.341321  0.120916  1
  Y  Y13  1  0.623377  0.158759  0.121264  1
  Y  Y14  1  0.123571  0.341108  0.379025  1
  Y  Y15  1  0.376387  0.841183  0.620586  1
  Y  Y16  1  0.208330  0.503965  0.749911  1
  Y  Y17  1  0.708187  0.996070  0.749834  1
  Er  Er18  1  0.791640  0.495657  0.250127  1
  Er  Er19  1  0.291634  0.004241  0.249968  1
  Pb  Pb20  1  0.281918  0.033653  0.043040  1
  Pb  Pb21  1  0.782074  0.466329  0.456912  1
  Pb  Pb22  1  0.717970  0.966134  0.542450  1
  Pb  Pb23  1  0.218708  0.533501  0.957411  1
  Pb  Pb24  1  0.717504  0.966677  0.957406  1
  Pb  Pb25  1  0.217817  0.533817  0.542507  1
  Pb  Pb26  1  0.282019  0.033715  0.456858  1
  Pb  Pb27  1  0.782029  0.466211  0.043379  1
  Pb  Pb28  1  0.572015  0.625525  0.749869  1
  Pb  Pb29  1  0.071909  0.874714  0.749873  1
  Pb  Pb30  1  0.428782  0.374419  0.250089  1
  Pb  Pb31  1  0.928999  0.125614  0.250020  1
  Pb  Pb32  1  0.345299  0.152502  0.749925  1
  Pb  Pb33  1  0.845302  0.347482  0.749936  1
  Pb  Pb34  1  0.654249  0.846256  0.250070  1
  Pb  Pb35  1  0.154242  0.653625  0.250071  1
