# generated using pymatgen
data_Ho7Tm(Si4Tc3)4
_symmetry_space_group_name_H-M   'P 1'
_cell_length_a   6.76596329
_cell_length_b   6.76489339
_cell_length_c   12.72876200
_cell_angle_alpha   90.00614891
_cell_angle_beta   89.98311434
_cell_angle_gamma   90.01843161
_symmetry_Int_Tables_number   1
_chemical_formula_structural   Ho7Tm(Si4Tc3)4
_chemical_formula_sum   'Ho7 Tm1 Si16 Tc12'
_cell_volume   582.60836581
_cell_formula_units_Z   1
loop_
 _symmetry_equiv_pos_site_id
 _symmetry_equiv_pos_as_xyz
  1  'x, y, z'
loop_
 _atom_site_type_symbol
 _atom_site_label
 _atom_site_symmetry_multiplicity
 _atom_site_fract_x
 _atom_site_fract_y
 _atom_site_fract_z
 _atom_site_occupancy
  Ho  Ho0  1  0.005899  0.662237  0.031065  1
  Ho  Ho1  1  0.994010  0.337712  0.531141  1
  Ho  Ho2  1  0.337731  0.993982  0.468868  1
  Ho  Ho3  1  0.162180  0.494113  0.781320  1
  Ho  Ho4  1  0.837846  0.505996  0.280969  1
  Ho  Ho5  1  0.494165  0.162268  0.218794  1
  Ho  Ho6  1  0.506068  0.837946  0.719073  1
  Tm  Tm7  1  0.661375  0.006263  0.969025  1
  Si  Si8  1  0.019483  0.725414  0.438108  1
  Si  Si9  1  0.614818  0.305807  0.435932  1
  Si  Si10  1  0.385235  0.694821  0.935901  1
  Si  Si11  1  0.194245  0.114877  0.686065  1
  Si  Si12  1  0.305826  0.614865  0.564158  1
  Si  Si13  1  0.694128  0.384218  0.063739  1
  Si  Si14  1  0.805603  0.885154  0.185470  1
  Si  Si15  1  0.114828  0.194132  0.313878  1
  Si  Si16  1  0.979422  0.274228  0.937970  1
  Si  Si17  1  0.725343  0.019476  0.561870  1
  Si  Si18  1  0.225666  0.480495  0.187925  1
  Si  Si19  1  0.774921  0.519837  0.688247  1
  Si  Si20  1  0.480473  0.224900  0.812566  1
  Si  Si21  1  0.519521  0.774589  0.311658  1
  Si  Si22  1  0.275918  0.980080  0.061809  1
  Si  Si23  1  0.884688  0.806526  0.814567  1
  Tc  Tc24  1  0.664414  0.664439  0.499985  1
  Tc  Tc25  1  0.164582  0.835615  0.249850  1
  Tc  Tc26  1  0.336012  0.335035  0.999904  1
  Tc  Tc27  1  0.018037  0.814930  0.629833  1
  Tc  Tc28  1  0.981728  0.184340  0.129218  1
  Tc  Tc29  1  0.814704  0.018004  0.370099  1
  Tc  Tc30  1  0.314890  0.481915  0.379650  1
  Tc  Tc31  1  0.684804  0.519031  0.879769  1
  Tc  Tc32  1  0.482251  0.315029  0.620647  1
  Tc  Tc33  1  0.518779  0.685528  0.119758  1
  Tc  Tc34  1  0.185103  0.981940  0.870451  1
  Tc  Tc35  1  0.835306  0.164260  0.750717  1
