# generated using pymatgen
data_ErSc6Co6Sn23
_symmetry_space_group_name_H-M   'P 1'
_cell_length_a   9.55384300
_cell_length_b   9.55384347
_cell_length_c   9.79474300
_cell_angle_alpha   90.00000000
_cell_angle_beta   90.00000000
_cell_angle_gamma   120.00000182
_symmetry_Int_Tables_number   1
_chemical_formula_structural   ErSc6Co6Sn23
_chemical_formula_sum   'Er1 Sc6 Co6 Sn23'
_cell_volume   774.24764099
_cell_formula_units_Z   1
loop_
 _symmetry_equiv_pos_site_id
 _symmetry_equiv_pos_as_xyz
  1  'x, y, z'
loop_
 _atom_site_type_symbol
 _atom_site_label
 _atom_site_symmetry_multiplicity
 _atom_site_fract_x
 _atom_site_fract_y
 _atom_site_fract_z
 _atom_site_occupancy
  Er  Er0  1  0.000000  0.000000  0.000000  1
  Sc  Sc1  1  0.518057  0.481943  0.692190  1
  Sc  Sc2  1  0.518057  0.036111  0.692190  1
  Sc  Sc3  1  0.963889  0.481943  0.692190  1
  Sc  Sc4  1  0.036111  0.518057  0.307810  1
  Sc  Sc5  1  0.481943  0.963889  0.307810  1
  Sc  Sc6  1  0.481943  0.518057  0.307810  1
  Co  Co7  1  0.168778  0.831222  0.801640  1
  Co  Co8  1  0.168778  0.337556  0.801640  1
  Co  Co9  1  0.662444  0.831222  0.801640  1
  Co  Co10  1  0.337556  0.168778  0.198360  1
  Co  Co11  1  0.831222  0.662444  0.198360  1
  Co  Co12  1  0.831222  0.168778  0.198360  1
  Sn  Sn13  1  0.666667  0.333333  0.178104  1
  Sn  Sn14  1  0.666667  0.333333  0.863554  1
  Sn  Sn15  1  0.333333  0.666667  0.136446  1
  Sn  Sn16  1  0.347783  0.347783  0.000000  1
  Sn  Sn17  1  0.000000  0.652217  0.000000  1
  Sn  Sn18  1  0.652217  0.000000  0.000000  1
  Sn  Sn19  1  0.652217  0.652217  0.000000  1
  Sn  Sn20  1  0.333333  0.666667  0.821896  1
  Sn  Sn21  1  0.441618  0.220809  0.453407  1
  Sn  Sn22  1  0.220809  0.779191  0.546593  1
  Sn  Sn23  1  0.220809  0.441618  0.546593  1
  Sn  Sn24  1  0.558382  0.779191  0.546593  1
  Sn  Sn25  1  0.121779  0.878221  0.276537  1
  Sn  Sn26  1  0.779191  0.558382  0.453407  1
  Sn  Sn27  1  0.779191  0.220809  0.453407  1
  Sn  Sn28  1  0.347783  0.000000  0.000000  1
  Sn  Sn29  1  0.121779  0.243558  0.276537  1
  Sn  Sn30  1  0.756442  0.878221  0.276537  1
  Sn  Sn31  1  0.243558  0.121779  0.723463  1
  Sn  Sn32  1  0.878221  0.756442  0.723463  1
  Sn  Sn33  1  0.878221  0.121779  0.723463  1
  Sn  Sn34  1  0.000000  0.000000  0.500000  1
  Sn  Sn35  1  0.000000  0.347783  0.000000  1
