# generated using pymatgen
data_Ca13Dy7Si15Hg
_symmetry_space_group_name_H-M   'P 1'
_cell_length_a   7.51132610
_cell_length_b   7.81234972
_cell_length_c   15.29290866
_cell_angle_alpha   90.24293954
_cell_angle_beta   89.19760038
_cell_angle_gamma   90.29120283
_symmetry_Int_Tables_number   1
_chemical_formula_structural   Ca13Dy7Si15Hg
_chemical_formula_sum   'Ca13 Dy7 Si15 Hg1'
_cell_volume   897.29740992
_cell_formula_units_Z   1
loop_
 _symmetry_equiv_pos_site_id
 _symmetry_equiv_pos_as_xyz
  1  'x, y, z'
loop_
 _atom_site_type_symbol
 _atom_site_label
 _atom_site_symmetry_multiplicity
 _atom_site_fract_x
 _atom_site_fract_y
 _atom_site_fract_z
 _atom_site_occupancy
  Ca  Ca0  1  0.648868  0.980724  0.251765  1
  Ca  Ca1  1  0.153156  0.517727  0.250697  1
  Ca  Ca2  1  0.847444  0.485628  0.746394  1
  Ca  Ca3  1  0.351777  0.017193  0.747305  1
  Ca  Ca4  1  0.984508  0.823141  0.101234  1
  Ca  Ca5  1  0.471744  0.682959  0.404623  1
  Ca  Ca6  1  0.507482  0.317415  0.901074  1
  Ca  Ca7  1  0.028526  0.183815  0.595625  1
  Ca  Ca8  1  0.029905  0.173308  0.901414  1
  Ca  Ca9  1  0.528932  0.316590  0.595599  1
  Ca  Ca10  1  0.474850  0.681400  0.096470  1
  Ca  Ca11  1  0.972025  0.816714  0.404030  1
  Ca  Ca12  1  0.671541  0.829629  0.873552  1
  Dy  Dy13  1  0.182206  0.677418  0.620147  1
  Dy  Dy14  1  0.825018  0.316531  0.128672  1
  Dy  Dy15  1  0.317616  0.176474  0.380297  1
  Dy  Dy16  1  0.322352  0.179679  0.123497  1
  Dy  Dy17  1  0.816573  0.323509  0.380065  1
  Dy  Dy18  1  0.189938  0.676237  0.877501  1
  Dy  Dy19  1  0.682820  0.823892  0.620444  1
  Si  Si20  1  0.756722  0.604626  0.250787  1
  Si  Si21  1  0.256593  0.894723  0.252134  1
  Si  Si22  1  0.748614  0.111271  0.745057  1
  Si  Si23  1  0.237898  0.392608  0.747930  1
  Si  Si24  1  0.029196  0.114698  0.251735  1
  Si  Si25  1  0.529449  0.382202  0.253882  1
  Si  Si26  1  0.468375  0.611956  0.744052  1
  Si  Si27  1  0.975256  0.886357  0.749047  1
  Si  Si28  1  0.359716  0.965611  0.537804  1
  Si  Si29  1  0.644509  0.039362  0.037796  1
  Si  Si30  1  0.139437  0.465978  0.461228  1
  Si  Si31  1  0.155749  0.464183  0.039948  1
  Si  Si32  1  0.640056  0.034225  0.461525  1
  Si  Si33  1  0.355124  0.967302  0.966101  1
  Si  Si34  1  0.860157  0.535923  0.537338  1
  Hg  Hg35  1  0.835867  0.528986  0.963233  1
