# generated using pymatgen
data_LuZr3Si6Ir7
_symmetry_space_group_name_H-M   'P 1'
_cell_length_a   7.04311520
_cell_length_b   7.04311583
_cell_length_c   7.04311600
_cell_angle_alpha   109.47871124
_cell_angle_beta   109.47872078
_cell_angle_gamma   109.47873188
_symmetry_Int_Tables_number   1
_chemical_formula_structural   LuZr3Si6Ir7
_chemical_formula_sum   'Lu1 Zr3 Si6 Ir7'
_cell_volume   268.87591993
_cell_formula_units_Z   1
loop_
 _symmetry_equiv_pos_site_id
 _symmetry_equiv_pos_as_xyz
  1  'x, y, z'
loop_
 _atom_site_type_symbol
 _atom_site_label
 _atom_site_symmetry_multiplicity
 _atom_site_fract_x
 _atom_site_fract_y
 _atom_site_fract_z
 _atom_site_occupancy
  Lu  Lu0  1  0.500000  0.500000  0.500000  1
  Zr  Zr1  1  0.000000  0.000000  0.500000  1
  Zr  Zr2  1  0.000000  0.500000  0.000000  1
  Zr  Zr3  1  0.500000  0.000000  0.000000  1
  Si  Si4  1  0.679551  0.679551  0.000371  1
  Si  Si5  1  0.320449  0.999629  0.320449  1
  Si  Si6  1  0.999629  0.320449  0.320449  1
  Si  Si7  1  0.320449  0.320449  0.999629  1
  Si  Si8  1  0.679551  0.000371  0.679551  1
  Si  Si9  1  0.000371  0.679551  0.679551  1
  Ir  Ir10  1  0.751536  0.248464  0.500000  1
  Ir  Ir11  1  0.751536  0.500000  0.248464  1
  Ir  Ir12  1  0.500000  0.248464  0.751536  1
  Ir  Ir13  1  0.248464  0.500000  0.751536  1
  Ir  Ir14  1  0.248464  0.751536  0.500000  1
  Ir  Ir15  1  0.500000  0.751536  0.248464  1
  Ir  Ir16  1  0.000000  0.000000  0.000000  1
