# generated using pymatgen
data_Tm2HgRhPb
_symmetry_space_group_name_H-M   'P 1'
_cell_length_a   8.28575100
_cell_length_b   8.03765600
_cell_length_c   3.55667900
_cell_angle_alpha   90.00000000
_cell_angle_beta   90.00000000
_cell_angle_gamma   90.00000000
_symmetry_Int_Tables_number   1
_chemical_formula_structural   Tm2HgRhPb
_chemical_formula_sum   'Tm4 Hg2 Rh2 Pb2'
_cell_volume   236.86776580
_cell_formula_units_Z   2
loop_
 _symmetry_equiv_pos_site_id
 _symmetry_equiv_pos_as_xyz
  1  'x, y, z'
loop_
 _atom_site_type_symbol
 _atom_site_label
 _atom_site_symmetry_multiplicity
 _atom_site_fract_x
 _atom_site_fract_y
 _atom_site_fract_z
 _atom_site_occupancy
  Tm  Tm0  1  0.307545  0.834543  0.500000  1
  Tm  Tm1  1  0.622318  0.177665  0.500000  1
  Tm  Tm2  1  0.192455  0.334543  0.500000  1
  Tm  Tm3  1  0.877682  0.677665  0.500000  1
  Hg  Hg4  1  0.874707  0.366695  0.000000  1
  Hg  Hg5  1  0.625293  0.866695  0.000000  1
  Rh  Rh6  1  0.371380  0.118380  0.000000  1
  Rh  Rh7  1  0.128620  0.618380  0.000000  1
  Pb  Pb8  1  0.486643  0.502717  0.000000  1
  Pb  Pb9  1  0.013357  0.002717  0.000000  1
