# generated using pymatgen
data_Y5Lu2Cr(Ni4As3)4
_symmetry_space_group_name_H-M   'P 1'
_cell_length_a   12.72889163
_cell_length_b   12.75455109
_cell_length_c   3.92507400
_cell_angle_alpha   90.00000000
_cell_angle_beta   90.00000000
_cell_angle_gamma   120.06671072
_symmetry_Int_Tables_number   1
_chemical_formula_structural   Y5Lu2Cr(Ni4As3)4
_chemical_formula_sum   'Y5 Lu2 Cr1 Ni16 As12'
_cell_volume   551.49542339
_cell_formula_units_Z   1
loop_
 _symmetry_equiv_pos_site_id
 _symmetry_equiv_pos_as_xyz
  1  'x, y, z'
loop_
 _atom_site_type_symbol
 _atom_site_label
 _atom_site_symmetry_multiplicity
 _atom_site_fract_x
 _atom_site_fract_y
 _atom_site_fract_z
 _atom_site_occupancy
  Y  Y0  1  0.182572  0.180894  0.500000  1
  Y  Y1  1  0.817428  0.998322  0.500000  1
  Y  Y2  1  0.000000  0.811750  0.500000  1
  Y  Y3  1  0.330024  0.664677  0.000000  1
  Y  Y4  1  0.669976  0.334652  0.000000  1
  Lu  Lu5  1  0.565145  0.564624  0.000000  1
  Lu  Lu6  1  0.434855  0.999479  0.000000  1
  Cr  Cr7  1  0.000000  0.437734  0.000000  1
  Ni  Ni8  1  0.722922  0.723921  0.500000  1
  Ni  Ni9  1  0.277078  0.000998  0.500000  1
  Ni  Ni10  1  0.000000  0.280389  0.500000  1
  Ni  Ni11  1  0.179284  0.378958  0.000000  1
  Ni  Ni12  1  0.622422  0.809196  0.000000  1
  Ni  Ni13  1  0.188678  0.810912  0.000000  1
  Ni  Ni14  1  0.811322  0.622233  0.000000  1
  Ni  Ni15  1  0.820716  0.199673  0.000000  1
  Ni  Ni16  1  0.377578  0.186772  0.000000  1
  Ni  Ni17  1  0.355686  0.479905  0.500000  1
  Ni  Ni18  1  0.519717  0.881838  0.500000  1
  Ni  Ni19  1  0.118144  0.633266  0.500000  1
  Ni  Ni20  1  0.881856  0.515122  0.500000  1
  Ni  Ni21  1  0.644314  0.124218  0.500000  1
  Ni  Ni22  1  0.480283  0.362120  0.500000  1
  Ni  Ni23  1  0.000000  0.000868  0.000000  1
  As  As24  1  0.823770  0.821066  0.000000  1
  As  As25  1  0.176230  0.997296  0.000000  1
  As  As26  1  0.000000  0.179045  0.000000  1
  As  As27  1  0.164289  0.477545  0.500000  1
  As  As28  1  0.519282  0.695318  0.500000  1
  As  As29  1  0.302662  0.823881  0.500000  1
  As  As30  1  0.697338  0.521219  0.500000  1
  As  As31  1  0.835711  0.313256  0.500000  1
  As  As32  1  0.480718  0.176035  0.500000  1
  As  As33  1  0.349214  0.354354  0.000000  1
  As  As34  1  0.650786  0.005140  0.000000  1
  As  As35  1  0.000000  0.633325  0.000000  1
