# generated using pymatgen
data_Rb8Ti6MnBr20
_symmetry_space_group_name_H-M   'P 1'
_cell_length_a   12.02634724
_cell_length_b   12.02634780
_cell_length_c   12.02634700
_cell_angle_alpha   59.99999945
_cell_angle_beta   59.99999790
_cell_angle_gamma   60.00000174
_symmetry_Int_Tables_number   1
_chemical_formula_structural   Rb8Ti6MnBr20
_chemical_formula_sum   'Rb8 Ti6 Mn1 Br20'
_cell_volume   1229.94652027
_cell_formula_units_Z   1
loop_
 _symmetry_equiv_pos_site_id
 _symmetry_equiv_pos_as_xyz
  1  'x, y, z'
loop_
 _atom_site_type_symbol
 _atom_site_label
 _atom_site_symmetry_multiplicity
 _atom_site_fract_x
 _atom_site_fract_y
 _atom_site_fract_z
 _atom_site_occupancy
  Rb  Rb0  1  0.361262  0.361262  0.361262  1
  Rb  Rb1  1  0.638738  0.638738  0.638738  1
  Rb  Rb2  1  0.361262  0.361262  0.916214  1
  Rb  Rb3  1  0.361262  0.916214  0.361262  1
  Rb  Rb4  1  0.638738  0.638738  0.083786  1
  Rb  Rb5  1  0.638738  0.083786  0.638738  1
  Rb  Rb6  1  0.916214  0.361262  0.361262  1
  Rb  Rb7  1  0.083786  0.638738  0.638738  1
  Ti  Ti8  1  0.863805  0.136195  0.136195  1
  Ti  Ti9  1  0.136195  0.863805  0.863805  1
  Ti  Ti10  1  0.136195  0.863805  0.136195  1
  Ti  Ti11  1  0.863805  0.136195  0.863805  1
  Ti  Ti12  1  0.136195  0.136195  0.863805  1
  Ti  Ti13  1  0.863805  0.863805  0.136195  1
  Mn  Mn14  1  0.000000  0.000000  0.000000  1
  Br  Br15  1  0.307252  0.000000  0.000000  1
  Br  Br16  1  0.692748  0.000000  0.000000  1
  Br  Br17  1  0.000000  0.307252  0.692748  1
  Br  Br18  1  0.000000  0.692748  0.307252  1
  Br  Br19  1  0.000000  0.307252  0.000000  1
  Br  Br20  1  0.692748  0.000000  0.307252  1
  Br  Br21  1  0.000000  0.692748  0.000000  1
  Br  Br22  1  0.307252  0.000000  0.692748  1
  Br  Br23  1  0.000000  0.000000  0.307252  1
  Br  Br24  1  0.000000  0.000000  0.692748  1
  Br  Br25  1  0.692748  0.307252  0.000000  1
  Br  Br26  1  0.307252  0.692748  0.000000  1
  Br  Br27  1  0.694284  0.305716  0.305716  1
  Br  Br28  1  0.305716  0.694284  0.694284  1
  Br  Br29  1  0.305716  0.694284  0.305716  1
  Br  Br30  1  0.694284  0.305716  0.694284  1
  Br  Br31  1  0.305716  0.305716  0.694284  1
  Br  Br32  1  0.694284  0.694284  0.305716  1
  Br  Br33  1  0.250000  0.250000  0.250000  1
  Br  Br34  1  0.750000  0.750000  0.750000  1
