# generated using pymatgen
data_Y8Co3Si12Pd
_symmetry_space_group_name_H-M   'P 1'
_cell_length_a   8.04072100
_cell_length_b   8.04072069
_cell_length_c   8.08452500
_cell_angle_alpha   90.00000000
_cell_angle_beta   90.00000000
_cell_angle_gamma   120.00000540
_symmetry_Int_Tables_number   1
_chemical_formula_structural   Y8Co3Si12Pd
_chemical_formula_sum   'Y8 Co3 Si12 Pd1'
_cell_volume   452.66309196
_cell_formula_units_Z   1
loop_
 _symmetry_equiv_pos_site_id
 _symmetry_equiv_pos_as_xyz
  1  'x, y, z'
loop_
 _atom_site_type_symbol
 _atom_site_label
 _atom_site_symmetry_multiplicity
 _atom_site_fract_x
 _atom_site_fract_y
 _atom_site_fract_z
 _atom_site_occupancy
  Y  Y0  1  0.502661  0.005323  0.246886  1
  Y  Y1  1  0.502105  0.004210  0.753091  1
  Y  Y2  1  0.994677  0.497339  0.246886  1
  Y  Y3  1  0.995790  0.497895  0.753091  1
  Y  Y4  1  0.502661  0.497339  0.246886  1
  Y  Y5  1  0.502105  0.497895  0.753091  1
  Y  Y6  1  0.000000  0.000000  0.248590  1
  Y  Y7  1  0.000000  0.000000  0.751396  1
  Co  Co8  1  0.333333  0.666667  0.000648  1
  Co  Co9  1  0.666667  0.333333  0.998568  1
  Co  Co10  1  0.666667  0.333333  0.501569  1
  Si  Si11  1  0.172377  0.344756  0.000200  1
  Si  Si12  1  0.828766  0.657531  0.999889  1
  Si  Si13  1  0.655244  0.827623  0.000200  1
  Si  Si14  1  0.827101  0.654203  0.500010  1
  Si  Si15  1  0.342469  0.171234  0.999889  1
  Si  Si16  1  0.163867  0.327734  0.499914  1
  Si  Si17  1  0.172377  0.827623  0.000200  1
  Si  Si18  1  0.345797  0.172899  0.500010  1
  Si  Si19  1  0.828766  0.171234  0.999889  1
  Si  Si20  1  0.672266  0.836133  0.499914  1
  Si  Si21  1  0.827101  0.172899  0.500010  1
  Si  Si22  1  0.163867  0.836133  0.499914  1
  Pd  Pd23  1  0.333333  0.666667  0.499261  1
