# generated using pymatgen
data_TiNb6SnS12
_symmetry_space_group_name_H-M   'P 1'
_cell_length_a   5.76703100
_cell_length_b   5.76703218
_cell_length_c   13.32263900
_cell_angle_alpha   90.00000000
_cell_angle_beta   90.00000000
_cell_angle_gamma   119.99998750
_symmetry_Int_Tables_number   1
_chemical_formula_structural   TiNb6SnS12
_chemical_formula_sum   'Ti1 Nb6 Sn1 S12'
_cell_volume   383.72987047
_cell_formula_units_Z   1
loop_
 _symmetry_equiv_pos_site_id
 _symmetry_equiv_pos_as_xyz
  1  'x, y, z'
loop_
 _atom_site_type_symbol
 _atom_site_label
 _atom_site_symmetry_multiplicity
 _atom_site_fract_x
 _atom_site_fract_y
 _atom_site_fract_z
 _atom_site_occupancy
  Ti  Ti0  1  0.666667  0.333333  0.750000  1
  Nb  Nb1  1  0.000000  0.000000  0.521852  1
  Nb  Nb2  1  0.000000  0.000000  0.978148  1
  Nb  Nb3  1  0.333333  0.666667  0.978392  1
  Nb  Nb4  1  0.666667  0.333333  0.979072  1
  Nb  Nb5  1  0.666667  0.333333  0.520928  1
  Nb  Nb6  1  0.333333  0.666667  0.521608  1
  Sn  Sn7  1  0.333333  0.666667  0.250000  1
  S  S8  1  0.332609  0.329074  0.402325  1
  S  S9  1  0.670926  0.003535  0.402325  1
  S  S10  1  0.996465  0.667391  0.402325  1
  S  S11  1  0.330443  0.333312  0.640586  1
  S  S12  1  0.002868  0.669557  0.640586  1
  S  S13  1  0.666688  0.997132  0.640586  1
  S  S14  1  0.666688  0.669557  0.859414  1
  S  S15  1  0.330443  0.997132  0.859414  1
  S  S16  1  0.002868  0.333312  0.859414  1
  S  S17  1  0.670926  0.667391  0.097675  1
  S  S18  1  0.996465  0.329074  0.097675  1
  S  S19  1  0.332609  0.003535  0.097675  1
