# generated using pymatgen
data_TbYb3GaRu7
_symmetry_space_group_name_H-M   'P 1'
_cell_length_a   5.29741900
_cell_length_b   5.29741888
_cell_length_c   8.72929800
_cell_angle_alpha   90.00000000
_cell_angle_beta   90.00000000
_cell_angle_gamma   120.00000700
_symmetry_Int_Tables_number   1
_chemical_formula_structural   TbYb3GaRu7
_chemical_formula_sum   'Tb1 Yb3 Ga1 Ru7'
_cell_volume   212.14781372
_cell_formula_units_Z   1
loop_
 _symmetry_equiv_pos_site_id
 _symmetry_equiv_pos_as_xyz
  1  'x, y, z'
loop_
 _atom_site_type_symbol
 _atom_site_label
 _atom_site_symmetry_multiplicity
 _atom_site_fract_x
 _atom_site_fract_y
 _atom_site_fract_z
 _atom_site_occupancy
  Tb  Tb0  1  0.333333  0.666667  0.068249  1
  Yb  Yb1  1  0.333333  0.666667  0.435774  1
  Yb  Yb2  1  0.666667  0.333333  0.568520  1
  Yb  Yb3  1  0.666667  0.333333  0.929304  1
  Ga  Ga4  1  0.000000  0.000000  0.498467  1
  Ru  Ru5  1  0.000000  0.000000  0.000340  1
  Ru  Ru6  1  0.827968  0.172032  0.249855  1
  Ru  Ru7  1  0.827968  0.655937  0.249855  1
  Ru  Ru8  1  0.344063  0.172032  0.249855  1
  Ru  Ru9  1  0.171010  0.828990  0.749926  1
  Ru  Ru10  1  0.171010  0.342021  0.749926  1
  Ru  Ru11  1  0.657979  0.828990  0.749926  1
