# generated using pymatgen
data_Cs12Ga3FeSe12
_symmetry_space_group_name_H-M   'P 1'
_cell_length_a   11.11260355
_cell_length_b   11.11260392
_cell_length_c   14.23269306
_cell_angle_alpha   89.94192752
_cell_angle_beta   89.94193004
_cell_angle_gamma   139.71298737
_symmetry_Int_Tables_number   1
_chemical_formula_structural   Cs12Ga3FeSe12
_chemical_formula_sum   'Cs12 Ga3 Fe1 Se12'
_cell_volume   1136.48550639
_cell_formula_units_Z   1
loop_
 _symmetry_equiv_pos_site_id
 _symmetry_equiv_pos_as_xyz
  1  'x, y, z'
loop_
 _atom_site_type_symbol
 _atom_site_label
 _atom_site_symmetry_multiplicity
 _atom_site_fract_x
 _atom_site_fract_y
 _atom_site_fract_z
 _atom_site_occupancy
  Cs  Cs0  1  0.861801  0.861800  0.670752  1
  Cs  Cs1  1  0.138200  0.138199  0.329248  1
  Cs  Cs2  1  0.639109  0.639104  0.171614  1
  Cs  Cs3  1  0.360896  0.360891  0.828386  1
  Cs  Cs4  1  0.159841  0.513496  0.126428  1
  Cs  Cs5  1  0.486504  0.840159  0.873572  1
  Cs  Cs6  1  0.986892  0.340998  0.627077  1
  Cs  Cs7  1  0.659002  0.013108  0.372923  1
  Cs  Cs8  1  0.840754  0.486728  0.872888  1
  Cs  Cs9  1  0.513272  0.159246  0.127112  1
  Cs  Cs10  1  0.013578  0.659270  0.373333  1
  Cs  Cs11  1  0.340730  0.986422  0.626667  1
  Ga  Ga12  1  0.918282  0.081718  0.000000  1
  Ga  Ga13  1  0.419217  0.580783  0.500000  1
  Ga  Ga14  1  0.082031  0.917969  0.000000  1
  Fe  Fe15  1  0.579937  0.420063  0.500000  1
  Se  Se16  1  0.300680  0.299856  0.572450  1
  Se  Se17  1  0.700144  0.699320  0.427550  1
  Se  Se18  1  0.198180  0.197806  0.072848  1
  Se  Se19  1  0.802194  0.801820  0.927152  1
  Se  Se20  1  0.702983  0.997375  0.116112  1
  Se  Se21  1  0.002625  0.297017  0.883888  1
  Se  Se22  1  0.502724  0.795427  0.616280  1
  Se  Se23  1  0.204573  0.497276  0.383720  1
  Se  Se24  1  0.297252  0.002473  0.883780  1
  Se  Se25  1  0.997527  0.702748  0.116220  1
  Se  Se26  1  0.500410  0.209336  0.385844  1
  Se  Se27  1  0.790664  0.499590  0.614156  1
