# generated using pymatgen
data_Na5SbBr8
_symmetry_space_group_name_H-M   'P 1'
_cell_length_a   7.45957600
_cell_length_b   7.45957701
_cell_length_c   8.60929600
_cell_angle_alpha   90.00000000
_cell_angle_beta   90.00000000
_cell_angle_gamma   109.11687428
_symmetry_Int_Tables_number   1
_chemical_formula_structural   Na5SbBr8
_chemical_formula_sum   'Na5 Sb1 Br8'
_cell_volume   452.64737056
_cell_formula_units_Z   1
loop_
 _symmetry_equiv_pos_site_id
 _symmetry_equiv_pos_as_xyz
  1  'x, y, z'
loop_
 _atom_site_type_symbol
 _atom_site_label
 _atom_site_symmetry_multiplicity
 _atom_site_fract_x
 _atom_site_fract_y
 _atom_site_fract_z
 _atom_site_occupancy
  Na  Na0  1  0.500000  0.000000  0.235032  1
  Na  Na1  1  0.000000  0.500000  0.764968  1
  Na  Na2  1  0.500000  0.000000  0.764968  1
  Na  Na3  1  0.000000  0.500000  0.235032  1
  Na  Na4  1  0.500000  0.500000  0.000000  1
  Sb  Sb5  1  0.500000  0.500000  0.500000  1
  Br  Br6  1  0.269569  0.269569  0.265510  1
  Br  Br7  1  0.730431  0.730431  0.265510  1
  Br  Br8  1  0.265045  0.734955  0.500000  1
  Br  Br9  1  0.269569  0.269569  0.734490  1
  Br  Br10  1  0.730431  0.730431  0.734490  1
  Br  Br11  1  0.257244  0.742756  0.000000  1
  Br  Br12  1  0.734955  0.265045  0.500000  1
  Br  Br13  1  0.742756  0.257244  0.000000  1
