# generated using pymatgen
data_Ca9SmSi5Sn
_symmetry_space_group_name_H-M   'P 1'
_cell_length_a   9.21762391
_cell_length_b   9.23504485
_cell_length_c   9.23079639
_cell_angle_alpha   130.77091316
_cell_angle_beta   130.76717027
_cell_angle_gamma   72.28973842
_symmetry_Int_Tables_number   1
_chemical_formula_structural   Ca9SmSi5Sn
_chemical_formula_sum   'Ca9 Sm1 Si5 Sn1'
_cell_volume   440.34967772
_cell_formula_units_Z   1
loop_
 _symmetry_equiv_pos_site_id
 _symmetry_equiv_pos_as_xyz
  1  'x, y, z'
loop_
 _atom_site_type_symbol
 _atom_site_label
 _atom_site_symmetry_multiplicity
 _atom_site_fract_x
 _atom_site_fract_y
 _atom_site_fract_z
 _atom_site_occupancy
  Ca  Ca0  1  0.191224  0.674748  0.144140  1
  Ca  Ca1  1  0.456137  0.973066  0.147524  1
  Ca  Ca2  1  0.311300  0.454415  0.485358  1
  Ca  Ca3  1  0.042892  0.191686  0.516709  1
  Ca  Ca4  1  0.528433  0.045138  0.853617  1
  Ca  Ca5  1  0.675585  0.526725  0.483690  1
  Ca  Ca6  1  0.971343  0.825851  0.516857  1
  Ca  Ca7  1  0.992911  0.987880  0.000511  1
  Ca  Ca8  1  0.505735  0.510579  0.999834  1
  Sm  Sm9  1  0.826021  0.308063  0.859512  1
  Si  Si10  1  0.111156  0.610830  0.720788  1
  Si  Si11  1  0.888102  0.388182  0.269211  1
  Si  Si12  1  0.616477  0.891238  0.505163  1
  Si  Si13  1  0.391731  0.116240  0.504674  1
  Si  Si14  1  0.240312  0.250469  0.995220  1
  Sn  Sn15  1  0.750642  0.744889  0.997192  1
