# generated using pymatgen
data_Pr4Cd2AgRh3
_symmetry_space_group_name_H-M   'P 1'
_cell_length_a   7.84357773
_cell_length_b   7.84357773
_cell_length_c   3.95385600
_cell_angle_alpha   90.00000000
_cell_angle_beta   90.00000000
_cell_angle_gamma   89.36158625
_symmetry_Int_Tables_number   1
_chemical_formula_structural   Pr4Cd2AgRh3
_chemical_formula_sum   'Pr4 Cd2 Ag1 Rh3'
_cell_volume   243.23288840
_cell_formula_units_Z   1
loop_
 _symmetry_equiv_pos_site_id
 _symmetry_equiv_pos_as_xyz
  1  'x, y, z'
loop_
 _atom_site_type_symbol
 _atom_site_label
 _atom_site_symmetry_multiplicity
 _atom_site_fract_x
 _atom_site_fract_y
 _atom_site_fract_z
 _atom_site_occupancy
  Pr  Pr0  1  0.676323  0.176323  0.500000  1
  Pr  Pr1  1  0.349953  0.849953  0.500000  1
  Pr  Pr2  1  0.164040  0.307745  0.500000  1
  Pr  Pr3  1  0.807745  0.664040  0.500000  1
  Cd  Cd4  1  0.997107  0.995294  0.000000  1
  Cd  Cd5  1  0.495294  0.497107  0.000000  1
  Ag  Ag6  1  0.129375  0.629375  0.000000  1
  Rh  Rh7  1  0.872873  0.372873  0.000000  1
  Rh  Rh8  1  0.636525  0.870766  0.000000  1
  Rh  Rh9  1  0.370766  0.136525  0.000000  1
