# generated using pymatgen
data_Dy3Er(In2Cl5)4
_symmetry_space_group_name_H-M   'P 1'
_cell_length_a   8.27338745
_cell_length_b   8.55677600
_cell_length_c   13.09495072
_cell_angle_alpha   90.00000000
_cell_angle_beta   89.96203537
_cell_angle_gamma   90.00000000
_symmetry_Int_Tables_number   1
_chemical_formula_structural   Dy3Er(In2Cl5)4
_chemical_formula_sum   'Dy3 Er1 In8 Cl20'
_cell_volume   927.03749407
_cell_formula_units_Z   1
loop_
 _symmetry_equiv_pos_site_id
 _symmetry_equiv_pos_as_xyz
  1  'x, y, z'
loop_
 _atom_site_type_symbol
 _atom_site_label
 _atom_site_symmetry_multiplicity
 _atom_site_fract_x
 _atom_site_fract_y
 _atom_site_fract_z
 _atom_site_occupancy
  Dy  Dy0  1  0.928097  0.750000  0.503683  1
  Dy  Dy1  1  0.071921  0.250000  0.496306  1
  Dy  Dy2  1  0.428147  0.250000  0.996327  1
  Er  Er3  1  0.571524  0.750000  0.003429  1
  In  In4  1  0.947862  0.004143  0.827323  1
  In  In5  1  0.052075  0.995796  0.172690  1
  In  In6  1  0.447878  0.995848  0.672736  1
  In  In7  1  0.052075  0.504204  0.172690  1
  In  In8  1  0.552133  0.004144  0.327263  1
  In  In9  1  0.947862  0.495857  0.827323  1
  In  In10  1  0.552133  0.495856  0.327263  1
  In  In11  1  0.447878  0.504152  0.672736  1
  Cl  Cl12  1  0.105747  0.750000  0.675568  1
  Cl  Cl13  1  0.894239  0.250000  0.324440  1
  Cl  Cl14  1  0.605751  0.250000  0.824426  1
  Cl  Cl15  1  0.395368  0.750000  0.174547  1
  Cl  Cl16  1  0.840751  0.044393  0.570151  1
  Cl  Cl17  1  0.159265  0.955605  0.429851  1
  Cl  Cl18  1  0.341630  0.954769  0.930185  1
  Cl  Cl19  1  0.159265  0.544395  0.429851  1
  Cl  Cl20  1  0.658897  0.043214  0.069859  1
  Cl  Cl21  1  0.840751  0.455607  0.570151  1
  Cl  Cl22  1  0.658897  0.456786  0.069859  1
  Cl  Cl23  1  0.341630  0.545231  0.930185  1
  Cl  Cl24  1  0.597346  0.750000  0.511005  1
  Cl  Cl25  1  0.402634  0.250000  0.489034  1
  Cl  Cl26  1  0.097454  0.250000  0.989005  1
  Cl  Cl27  1  0.901144  0.750000  0.010985  1
  Cl  Cl28  1  0.654323  0.750000  0.805923  1
  Cl  Cl29  1  0.345285  0.250000  0.195194  1
  Cl  Cl30  1  0.154763  0.250000  0.695194  1
  Cl  Cl31  1  0.845275  0.750000  0.304818  1
