# generated using pymatgen
data_DyHoSi2NiRu
_symmetry_space_group_name_H-M   'P 1'
_cell_length_a   4.23410300
_cell_length_b   6.90078840
_cell_length_c   7.16233190
_cell_angle_alpha   91.38539565
_cell_angle_beta   90.00000000
_cell_angle_gamma   90.00000000
_symmetry_Int_Tables_number   1
_chemical_formula_structural   DyHoSi2NiRu
_chemical_formula_sum   'Dy2 Ho2 Si4 Ni2 Ru2'
_cell_volume   209.21248698
_cell_formula_units_Z   2
loop_
 _symmetry_equiv_pos_site_id
 _symmetry_equiv_pos_as_xyz
  1  'x, y, z'
loop_
 _atom_site_type_symbol
 _atom_site_label
 _atom_site_symmetry_multiplicity
 _atom_site_fract_x
 _atom_site_fract_y
 _atom_site_fract_z
 _atom_site_occupancy
  Dy  Dy0  1  0.250000  0.990914  0.798857  1
  Dy  Dy1  1  0.750000  0.009086  0.201143  1
  Ho  Ho2  1  0.250000  0.489486  0.683840  1
  Ho  Ho3  1  0.750000  0.510514  0.316160  1
  Si  Si4  1  0.250000  0.300507  0.097991  1
  Si  Si5  1  0.750000  0.699493  0.902009  1
  Si  Si6  1  0.250000  0.803837  0.399767  1
  Si  Si7  1  0.750000  0.196163  0.600233  1
  Ni  Ni8  1  0.750000  0.833080  0.577054  1
  Ni  Ni9  1  0.250000  0.166920  0.422946  1
  Ru  Ru10  1  0.750000  0.344188  0.929845  1
  Ru  Ru11  1  0.250000  0.655812  0.070155  1
