# generated using pymatgen
data_Y3HoGa18(OsPd2)2
_symmetry_space_group_name_H-M   'P 1'
_cell_length_a   7.62914962
_cell_length_b   7.63192007
_cell_length_c   9.54463100
_cell_angle_alpha   90.00000000
_cell_angle_beta   90.00000000
_cell_angle_gamma   119.58197276
_symmetry_Int_Tables_number   1
_chemical_formula_structural   Y3HoGa18(OsPd2)2
_chemical_formula_sum   'Y3 Ho1 Ga18 Os2 Pd4'
_cell_volume   483.29659853
_cell_formula_units_Z   1
loop_
 _symmetry_equiv_pos_site_id
 _symmetry_equiv_pos_as_xyz
  1  'x, y, z'
loop_
 _atom_site_type_symbol
 _atom_site_label
 _atom_site_symmetry_multiplicity
 _atom_site_fract_x
 _atom_site_fract_y
 _atom_site_fract_z
 _atom_site_occupancy
  Y  Y0  1  0.996241  0.671012  0.250000  1
  Y  Y1  1  0.003960  0.328851  0.750000  1
  Y  Y2  1  0.670943  0.996004  0.250000  1
  Ho  Ho3  1  0.328438  0.004060  0.750000  1
  Ga  Ga4  1  0.126932  0.126718  0.250000  1
  Ga  Ga5  1  0.873203  0.872879  0.750000  1
  Ga  Ga6  1  0.999296  0.332324  0.081268  1
  Ga  Ga7  1  0.001384  0.668101  0.917669  1
  Ga  Ga8  1  0.001384  0.668101  0.582331  1
  Ga  Ga9  1  0.332483  0.999265  0.419204  1
  Ga  Ga10  1  0.999296  0.332324  0.418732  1
  Ga  Ga11  1  0.667138  0.000920  0.582273  1
  Ga  Ga12  1  0.667138  0.000920  0.917727  1
  Ga  Ga13  1  0.332483  0.999265  0.080796  1
  Ga  Ga14  1  0.328539  0.328137  0.563865  1
  Ga  Ga15  1  0.671604  0.671575  0.437050  1
  Ga  Ga16  1  0.671604  0.671575  0.062950  1
  Ga  Ga17  1  0.328539  0.328137  0.936135  1
  Ga  Ga18  1  0.343731  0.548269  0.250000  1
  Ga  Ga19  1  0.655274  0.450764  0.750000  1
  Ga  Ga20  1  0.548136  0.343505  0.250000  1
  Ga  Ga21  1  0.451613  0.656706  0.750000  1
  Os  Os22  1  0.000005  0.999967  0.999734  1
  Os  Os23  1  0.000005  0.999967  0.500266  1
  Pd  Pd24  1  0.671349  0.329095  0.000174  1
  Pd  Pd25  1  0.328969  0.671232  0.000152  1
  Pd  Pd26  1  0.328969  0.671232  0.499848  1
  Pd  Pd27  1  0.671349  0.329095  0.499826  1
