# generated using pymatgen
data_ZrI16
_symmetry_space_group_name_H-M   'P 1'
_cell_length_a   8.81239121
_cell_length_b   10.45348366
_cell_length_c   13.97864233
_cell_angle_alpha   105.35879900
_cell_angle_beta   89.52068739
_cell_angle_gamma   122.99211752
_symmetry_Int_Tables_number   1
_chemical_formula_structural   ZrI16
_chemical_formula_sum   'Zr1 I16'
_cell_volume   1026.69322570
_cell_formula_units_Z   1
loop_
 _symmetry_equiv_pos_site_id
 _symmetry_equiv_pos_as_xyz
  1  'x, y, z'
loop_
 _atom_site_type_symbol
 _atom_site_label
 _atom_site_symmetry_multiplicity
 _atom_site_fract_x
 _atom_site_fract_y
 _atom_site_fract_z
 _atom_site_occupancy
  Zr  Zr0  1  0.000000  0.000000  0.000000  1
  I  I1  1  0.777869  0.947506  0.162174  1
  I  I2  1  0.222131  0.052494  0.837826  1
  I  I3  1  0.308845  0.221707  0.149028  1
  I  I4  1  0.691155  0.778293  0.850972  1
  I  I5  1  0.968335  0.261073  0.989914  1
  I  I6  1  0.031665  0.738927  0.010086  1
  I  I7  1  0.358611  0.534869  0.314084  1
  I  I8  1  0.641389  0.465131  0.685916  1
  I  I9  1  0.884768  0.565802  0.234498  1
  I  I10  1  0.115232  0.434198  0.765502  1
  I  I11  1  0.408533  0.846165  0.089199  1
  I  I12  1  0.591467  0.153835  0.910801  1
  I  I13  1  0.590431  0.205983  0.535056  1
  I  I14  1  0.409569  0.794017  0.464944  1
  I  I15  1  0.759082  0.393761  0.369523  1
  I  I16  1  0.240918  0.606239  0.630477  1
