# generated using pymatgen
data_Ca2PrNdTi4O12
_symmetry_space_group_name_H-M   'P 1'
_cell_length_a   5.47687268
_cell_length_b   5.57765199
_cell_length_c   7.81548600
_cell_angle_alpha   90.00000000
_cell_angle_beta   90.00000000
_cell_angle_gamma   89.85232572
_symmetry_Int_Tables_number   1
_chemical_formula_structural   Ca2PrNdTi4O12
_chemical_formula_sum   'Ca2 Pr1 Nd1 Ti4 O12'
_cell_volume   238.74737484
_cell_formula_units_Z   1
loop_
 _symmetry_equiv_pos_site_id
 _symmetry_equiv_pos_as_xyz
  1  'x, y, z'
loop_
 _atom_site_type_symbol
 _atom_site_label
 _atom_site_symmetry_multiplicity
 _atom_site_fract_x
 _atom_site_fract_y
 _atom_site_fract_z
 _atom_site_occupancy
  Ca  Ca0  1  0.989979  0.042710  0.750000  1
  Ca  Ca1  1  0.009457  0.957263  0.250000  1
  Pr  Pr2  1  0.492432  0.454372  0.250000  1
  Nd  Nd3  1  0.508301  0.548322  0.750000  1
  Ti  Ti4  1  0.000364  0.500145  0.500452  1
  Ti  Ti5  1  0.000364  0.500145  0.999548  1
  Ti  Ti6  1  0.499653  0.000423  0.500616  1
  Ti  Ti7  1  0.499653  0.000423  0.999384  1
  O  O8  1  0.076784  0.472698  0.750000  1
  O  O9  1  0.927889  0.526212  0.250000  1
  O  O10  1  0.418748  0.985004  0.750000  1
  O  O11  1  0.580505  0.012338  0.250000  1
  O  O12  1  0.787982  0.786896  0.953154  1
  O  O13  1  0.210942  0.212171  0.454097  1
  O  O14  1  0.210942  0.212171  0.045903  1
  O  O15  1  0.787982  0.786896  0.546846  1
  O  O16  1  0.704495  0.293989  0.963060  1
  O  O17  1  0.294516  0.706918  0.465502  1
  O  O18  1  0.294516  0.706918  0.034498  1
  O  O19  1  0.704495  0.293989  0.536940  1
