# generated using pymatgen
data_Zr6V7Fe4Re
_symmetry_space_group_name_H-M   'P 1'
_cell_length_a   5.08375775
_cell_length_b   5.12615131
_cell_length_c   12.57351035
_cell_angle_alpha   90.08706083
_cell_angle_beta   89.48955300
_cell_angle_gamma   119.62165797
_symmetry_Int_Tables_number   1
_chemical_formula_structural   Zr6V7Fe4Re
_chemical_formula_sum   'Zr6 V7 Fe4 Re1'
_cell_volume   284.83079463
_cell_formula_units_Z   1
loop_
 _symmetry_equiv_pos_site_id
 _symmetry_equiv_pos_as_xyz
  1  'x, y, z'
loop_
 _atom_site_type_symbol
 _atom_site_label
 _atom_site_symmetry_multiplicity
 _atom_site_fract_x
 _atom_site_fract_y
 _atom_site_fract_z
 _atom_site_occupancy
  Zr  Zr0  1  0.332243  0.663399  0.919167  1
  Zr  Zr1  1  0.006881  0.003706  0.246772  1
  Zr  Zr2  1  0.668814  0.331684  0.582715  1
  Zr  Zr3  1  0.331186  0.668316  0.667285  1
  Zr  Zr4  1  0.993119  0.996294  0.003227  1
  Zr  Zr5  1  0.667757  0.336601  0.330833  1
  V  V6  1  0.170181  0.334462  0.455900  1
  V  V7  1  0.829819  0.665538  0.794100  1
  V  V8  1  0.339883  0.673568  0.286959  1
  V  V9  1  0.660117  0.326432  0.963041  1
  V  V10  1  0.000000  0.500000  0.125000  1
  V  V11  1  0.667845  0.832026  0.456178  1
  V  V12  1  0.332155  0.167974  0.793822  1
  Fe  Fe13  1  0.500000  0.500000  0.125000  1
  Fe  Fe14  1  0.172247  0.830152  0.453216  1
  Fe  Fe15  1  0.827753  0.169848  0.796784  1
  Fe  Fe16  1  0.500000  0.000000  0.125000  1
  Re  Re17  1  0.000000  0.000000  0.625000  1
