# generated using pymatgen
data_Al10GaRe4
_symmetry_space_group_name_H-M   'P 1'
_cell_length_a   5.20609252
_cell_length_b   5.18837475
_cell_length_c   9.01245845
_cell_angle_alpha   105.12006088
_cell_angle_beta   90.45168984
_cell_angle_gamma   99.58538863
_symmetry_Int_Tables_number   1
_chemical_formula_structural   Al10GaRe4
_chemical_formula_sum   'Al10 Ga1 Re4'
_cell_volume   231.39142082
_cell_formula_units_Z   1
loop_
 _symmetry_equiv_pos_site_id
 _symmetry_equiv_pos_as_xyz
  1  'x, y, z'
loop_
 _atom_site_type_symbol
 _atom_site_label
 _atom_site_symmetry_multiplicity
 _atom_site_fract_x
 _atom_site_fract_y
 _atom_site_fract_z
 _atom_site_occupancy
  Al  Al0  1  0.801821  0.258405  0.636819  1
  Al  Al1  1  0.198179  0.741595  0.363181  1
  Al  Al2  1  0.146358  0.463603  0.871847  1
  Al  Al3  1  0.853642  0.536397  0.128153  1
  Al  Al4  1  0.496362  0.096487  0.871576  1
  Al  Al5  1  0.503638  0.903513  0.128424  1
  Al  Al6  1  0.564840  0.319538  0.378186  1
  Al  Al7  1  0.435160  0.680462  0.621814  1
  Al  Al8  1  0.942511  0.796604  0.664451  1
  Al  Al9  1  0.057489  0.203396  0.335549  1
  Ga  Ga10  1  0.000000  0.000000  0.000000  1
  Re  Re11  1  0.280628  0.155628  0.604806  1
  Re  Re12  1  0.719372  0.844372  0.395194  1
  Re  Re13  1  0.662108  0.611643  0.868026  1
  Re  Re14  1  0.337892  0.388357  0.131974  1
