# generated using pymatgen
data_YbEu5(TmSb3)2
_symmetry_space_group_name_H-M   'P 1'
_cell_length_a   8.11072146
_cell_length_b   8.30892022
_cell_length_c   8.34759200
_cell_angle_alpha   110.10237189
_cell_angle_beta   108.94900446
_cell_angle_gamma   108.81950304
_symmetry_Int_Tables_number   1
_chemical_formula_structural   YbEu5(TmSb3)2
_chemical_formula_sum   'Yb1 Eu5 Tm2 Sb6'
_cell_volume   435.88215089
_cell_formula_units_Z   1
loop_
 _symmetry_equiv_pos_site_id
 _symmetry_equiv_pos_as_xyz
  1  'x, y, z'
loop_
 _atom_site_type_symbol
 _atom_site_label
 _atom_site_symmetry_multiplicity
 _atom_site_fract_x
 _atom_site_fract_y
 _atom_site_fract_z
 _atom_site_occupancy
  Yb  Yb0  1  0.000437  0.143856  0.500657  1
  Eu  Eu1  1  0.498748  0.996834  0.641512  1
  Eu  Eu2  1  0.357311  0.355515  0.357715  1
  Eu  Eu3  1  0.501954  0.001885  0.144164  1
  Eu  Eu4  1  0.001607  0.643881  0.502031  1
  Eu  Eu5  1  0.857811  0.857365  0.855605  1
  Tm  Tm6  1  0.140840  0.500177  0.000159  1
  Tm  Tm7  1  0.641462  0.500134  0.000964  1
  Sb  Sb8  1  0.375718  0.616414  0.761059  1
  Sb  Sb9  1  0.877660  0.262059  0.120135  1
  Sb  Sb10  1  0.617955  0.740255  0.356985  1
  Sb  Sb11  1  0.113699  0.859636  0.239767  1
  Sb  Sb12  1  0.255363  0.143343  0.877195  1
  Sb  Sb13  1  0.759435  0.378646  0.642050  1
