# generated using pymatgen
data_MgSc3Cu2(B2Rh5)2
_symmetry_space_group_name_H-M   'P 1'
_cell_length_a   9.37889436
_cell_length_b   2.99971000
_cell_length_c   9.37895435
_cell_angle_alpha   90.00000000
_cell_angle_beta   89.57220458
_cell_angle_gamma   90.00000000
_symmetry_Int_Tables_number   1
_chemical_formula_structural   MgSc3Cu2(B2Rh5)2
_chemical_formula_sum   'Mg1 Sc3 Cu2 B4 Rh10'
_cell_volume   263.85980167
_cell_formula_units_Z   1
loop_
 _symmetry_equiv_pos_site_id
 _symmetry_equiv_pos_as_xyz
  1  'x, y, z'
loop_
 _atom_site_type_symbol
 _atom_site_label
 _atom_site_symmetry_multiplicity
 _atom_site_fract_x
 _atom_site_fract_y
 _atom_site_fract_z
 _atom_site_occupancy
  Mg  Mg0  1  0.677216  0.000000  0.822776  1
  Sc  Sc1  1  0.326213  0.000000  0.173805  1
  Sc  Sc2  1  0.821930  0.000000  0.323773  1
  Sc  Sc3  1  0.176277  0.000000  0.678027  1
  Cu  Cu4  1  0.999485  0.000000  0.000275  1
  Cu  Cu5  1  0.499721  0.000000  0.500521  1
  B  B6  1  0.626546  0.000000  0.126785  1
  B  B7  1  0.127119  0.000000  0.372860  1
  B  B8  1  0.870529  0.000000  0.629480  1
  B  B9  1  0.373211  0.000000  0.873460  1
  Rh  Rh10  1  0.501287  0.500001  0.998710  1
  Rh  Rh11  1  0.784261  0.500001  0.071351  1
  Rh  Rh12  1  0.071918  0.500001  0.216177  1
  Rh  Rh13  1  0.568514  0.500001  0.283528  1
  Rh  Rh14  1  0.283825  0.500001  0.428042  1
  Rh  Rh15  1  0.000092  0.500001  0.499909  1
  Rh  Rh16  1  0.716359  0.500001  0.569654  1
  Rh  Rh17  1  0.428631  0.500001  0.715748  1
  Rh  Rh18  1  0.930387  0.500001  0.783634  1
  Rh  Rh19  1  0.216480  0.500001  0.931485  1
