# generated using pymatgen
data_Zr6Nb4Sn6GeAs
_symmetry_space_group_name_H-M   'P 1'
_cell_length_a   8.59414600
_cell_length_b   8.59414671
_cell_length_c   5.77145500
_cell_angle_alpha   90.00000000
_cell_angle_beta   90.00000000
_cell_angle_gamma   120.00000497
_symmetry_Int_Tables_number   1
_chemical_formula_structural   Zr6Nb4Sn6GeAs
_chemical_formula_sum   'Zr6 Nb4 Sn6 Ge1 As1'
_cell_volume   369.16576055
_cell_formula_units_Z   1
loop_
 _symmetry_equiv_pos_site_id
 _symmetry_equiv_pos_as_xyz
  1  'x, y, z'
loop_
 _atom_site_type_symbol
 _atom_site_label
 _atom_site_symmetry_multiplicity
 _atom_site_fract_x
 _atom_site_fract_y
 _atom_site_fract_z
 _atom_site_occupancy
  Zr  Zr0  1  0.735619  0.735619  0.749788  1
  Zr  Zr1  1  0.264381  0.000000  0.749788  1
  Zr  Zr2  1  0.000000  0.264381  0.749788  1
  Zr  Zr3  1  0.264381  0.264381  0.250212  1
  Zr  Zr4  1  0.735619  0.000000  0.250212  1
  Zr  Zr5  1  0.000000  0.735619  0.250212  1
  Nb  Nb6  1  0.666667  0.333333  0.000000  1
  Nb  Nb7  1  0.333333  0.666667  0.000000  1
  Nb  Nb8  1  0.333333  0.666667  0.500000  1
  Nb  Nb9  1  0.666667  0.333333  0.500000  1
  Sn  Sn10  1  0.396856  0.396856  0.750317  1
  Sn  Sn11  1  0.603144  0.000000  0.750317  1
  Sn  Sn12  1  0.000000  0.603144  0.750317  1
  Sn  Sn13  1  0.603144  0.603144  0.249683  1
  Sn  Sn14  1  0.396856  0.000000  0.249683  1
  Sn  Sn15  1  0.000000  0.396856  0.249683  1
  Ge  Ge16  1  0.000000  0.000000  0.000000  1
  As  As17  1  0.000000  0.000000  0.500000  1
