# generated using pymatgen
data_Ba5Al4InPb
_symmetry_space_group_name_H-M   'P 1'
_cell_length_a   6.17060600
_cell_length_b   6.17060589
_cell_length_c   11.37808900
_cell_angle_alpha   90.00000000
_cell_angle_beta   90.00000000
_cell_angle_gamma   119.99998988
_symmetry_Int_Tables_number   1
_chemical_formula_structural   Ba5Al4InPb
_chemical_formula_sum   'Ba5 Al4 In1 Pb1'
_cell_volume   375.19377897
_cell_formula_units_Z   1
loop_
 _symmetry_equiv_pos_site_id
 _symmetry_equiv_pos_as_xyz
  1  'x, y, z'
loop_
 _atom_site_type_symbol
 _atom_site_label
 _atom_site_symmetry_multiplicity
 _atom_site_fract_x
 _atom_site_fract_y
 _atom_site_fract_z
 _atom_site_occupancy
  Ba  Ba0  1  0.666667  0.333333  0.200291  1
  Ba  Ba1  1  0.666667  0.333333  0.798784  1
  Ba  Ba2  1  0.000000  0.000000  0.330258  1
  Ba  Ba3  1  0.000000  0.000000  0.670856  1
  Ba  Ba4  1  0.333333  0.666667  0.997347  1
  Al  Al5  1  0.513938  0.027876  0.503983  1
  Al  Al6  1  0.513938  0.486062  0.503983  1
  Al  Al7  1  0.333333  0.666667  0.675003  1
  Al  Al8  1  0.972124  0.486062  0.503983  1
  In  In9  1  0.333333  0.666667  0.315595  1
  Pb  Pb10  1  0.000000  0.000000  0.999916  1
