# generated using pymatgen
data_Tm12Zn2Ni3Rh
_symmetry_space_group_name_H-M   'P 1'
_cell_length_a   8.20337985
_cell_length_b   8.20338007
_cell_length_c   8.20337822
_cell_angle_alpha   106.24932971
_cell_angle_beta   109.92820628
_cell_angle_gamma   112.29279921
_symmetry_Int_Tables_number   1
_chemical_formula_structural   Tm12Zn2Ni3Rh
_chemical_formula_sum   'Tm12 Zn2 Ni3 Rh1'
_cell_volume   423.77578395
_cell_formula_units_Z   1
loop_
 _symmetry_equiv_pos_site_id
 _symmetry_equiv_pos_as_xyz
  1  'x, y, z'
loop_
 _atom_site_type_symbol
 _atom_site_label
 _atom_site_symmetry_multiplicity
 _atom_site_fract_x
 _atom_site_fract_y
 _atom_site_fract_z
 _atom_site_occupancy
  Tm  Tm0  1  0.691427  0.254496  0.945923  1
  Tm  Tm1  1  0.306874  0.736251  0.043125  1
  Tm  Tm2  1  0.691427  0.745504  0.436931  1
  Tm  Tm3  1  0.306874  0.263749  0.570624  1
  Tm  Tm4  1  0.806808  0.131348  0.324778  1
  Tm  Tm5  1  0.806808  0.482031  0.675460  1
  Tm  Tm6  1  0.193430  0.868652  0.675460  1
  Tm  Tm7  1  0.193430  0.517969  0.324778  1
  Tm  Tm8  1  0.600539  0.778882  0.821658  1
  Tm  Tm9  1  0.962952  0.781950  0.181002  1
  Tm  Tm10  1  0.042776  0.221118  0.821658  1
  Tm  Tm11  1  0.399054  0.218050  0.181002  1
  Zn  Zn12  1  0.508116  0.500000  0.008116  1
  Zn  Zn13  1  0.497940  0.000000  0.497940  1
  Ni  Ni14  1  0.154184  0.500000  0.654184  1
  Ni  Ni15  1  0.000393  0.120039  0.120432  1
  Ni  Ni16  1  0.000393  0.879961  0.880353  1
  Rh  Rh17  1  0.836575  0.500000  0.336575  1
