# generated using pymatgen
data_Rb2VS3
_symmetry_space_group_name_H-M   'P 1'
_cell_length_a   7.65212227
_cell_length_b   7.65212214
_cell_length_c   9.77306806
_cell_angle_alpha   58.33372743
_cell_angle_beta   58.33372957
_cell_angle_gamma   54.83800482
_symmetry_Int_Tables_number   1
_chemical_formula_structural   Rb2VS3
_chemical_formula_sum   'Rb4 V2 S6'
_cell_volume   377.25292011
_cell_formula_units_Z   2
loop_
 _symmetry_equiv_pos_site_id
 _symmetry_equiv_pos_as_xyz
  1  'x, y, z'
loop_
 _atom_site_type_symbol
 _atom_site_label
 _atom_site_symmetry_multiplicity
 _atom_site_fract_x
 _atom_site_fract_y
 _atom_site_fract_z
 _atom_site_occupancy
  Rb  Rb0  1  0.197783  0.197783  0.187127  1
  Rb  Rb1  1  0.802217  0.802217  0.812873  1
  Rb  Rb2  1  0.417478  0.417478  0.357313  1
  Rb  Rb3  1  0.582522  0.582522  0.642687  1
  V  V4  1  0.892964  0.892964  0.163816  1
  V  V5  1  0.107036  0.107036  0.836184  1
  S  S6  1  0.250311  0.749689  0.000000  1
  S  S7  1  0.749689  0.250311  0.000000  1
  S  S8  1  0.109826  0.109826  0.612884  1
  S  S9  1  0.890174  0.890174  0.387116  1
  S  S10  1  0.287728  0.287728  0.778956  1
  S  S11  1  0.712272  0.712272  0.221044  1
