# generated using pymatgen
data_RbSr2IO6
_symmetry_space_group_name_H-M   'P 1'
_cell_length_a   5.95523287
_cell_length_b   6.47152000
_cell_length_c   8.77239834
_cell_angle_alpha   90.00000000
_cell_angle_beta   91.05344675
_cell_angle_gamma   90.00000000
_symmetry_Int_Tables_number   1
_chemical_formula_structural   RbSr2IO6
_chemical_formula_sum   'Rb2 Sr4 I2 O12'
_cell_volume   338.02590159
_cell_formula_units_Z   2
loop_
 _symmetry_equiv_pos_site_id
 _symmetry_equiv_pos_as_xyz
  1  'x, y, z'
loop_
 _atom_site_type_symbol
 _atom_site_label
 _atom_site_symmetry_multiplicity
 _atom_site_fract_x
 _atom_site_fract_y
 _atom_site_fract_z
 _atom_site_occupancy
  Rb  Rb0  1  0.500000  0.500000  0.000000  1
  Rb  Rb1  1  0.000000  0.000000  0.500000  1
  Sr  Sr2  1  0.491313  0.973512  0.773910  1
  Sr  Sr3  1  0.008687  0.473512  0.726090  1
  Sr  Sr4  1  0.508687  0.026488  0.226090  1
  Sr  Sr5  1  0.991313  0.526488  0.273910  1
  I  I6  1  0.500000  0.500000  0.500000  1
  I  I7  1  0.000000  0.000000  0.000000  1
  O  O8  1  0.366595  0.283468  0.619354  1
  O  O9  1  0.133405  0.783468  0.880646  1
  O  O10  1  0.633405  0.716532  0.380646  1
  O  O11  1  0.866595  0.216532  0.119354  1
  O  O12  1  0.618447  0.626091  0.682640  1
  O  O13  1  0.881553  0.126091  0.817360  1
  O  O14  1  0.381553  0.373909  0.317360  1
  O  O15  1  0.118447  0.873909  0.182640  1
  O  O16  1  0.227318  0.650855  0.516573  1
  O  O17  1  0.272682  0.150855  0.983427  1
  O  O18  1  0.772682  0.349145  0.483427  1
  O  O19  1  0.727318  0.849145  0.016573  1
