# generated using pymatgen
data_SrDy6PtI12
_symmetry_space_group_name_H-M   'P 1'
_cell_length_a   9.82838504
_cell_length_b   9.82838605
_cell_length_c   9.82838508
_cell_angle_alpha   106.44641609
_cell_angle_beta   106.44642415
_cell_angle_gamma   106.44643054
_symmetry_Int_Tables_number   1
_chemical_formula_structural   SrDy6PtI12
_chemical_formula_sum   'Sr1 Dy6 Pt1 I12'
_cell_volume   802.30492355
_cell_formula_units_Z   1
loop_
 _symmetry_equiv_pos_site_id
 _symmetry_equiv_pos_as_xyz
  1  'x, y, z'
loop_
 _atom_site_type_symbol
 _atom_site_label
 _atom_site_symmetry_multiplicity
 _atom_site_fract_x
 _atom_site_fract_y
 _atom_site_fract_z
 _atom_site_occupancy
  Sr  Sr0  1  0.000000  0.000000  0.000000  1
  Dy  Dy1  1  0.404141  0.476513  0.201534  1
  Dy  Dy2  1  0.201534  0.404141  0.476513  1
  Dy  Dy3  1  0.476513  0.201534  0.404141  1
  Dy  Dy4  1  0.595859  0.523487  0.798466  1
  Dy  Dy5  1  0.798466  0.595859  0.523487  1
  Dy  Dy6  1  0.523487  0.798466  0.595859  1
  Pt  Pt7  1  0.500000  0.500000  0.500000  1
  I  I8  1  0.048180  0.363318  0.127734  1
  I  I9  1  0.127734  0.048180  0.363318  1
  I  I10  1  0.363318  0.127734  0.048180  1
  I  I11  1  0.951820  0.636682  0.872266  1
  I  I12  1  0.872266  0.951820  0.636682  1
  I  I13  1  0.636682  0.872266  0.951820  1
  I  I14  1  0.722164  0.573830  0.176421  1
  I  I15  1  0.176421  0.722164  0.573830  1
  I  I16  1  0.573830  0.176421  0.722164  1
  I  I17  1  0.277836  0.426170  0.823579  1
  I  I18  1  0.823579  0.277836  0.426170  1
  I  I19  1  0.426170  0.823579  0.277836  1
