# generated using pymatgen
data_Li6HfMn5Pt12
_symmetry_space_group_name_H-M   'P 1'
_cell_length_a   4.11425100
_cell_length_b   6.89375700
_cell_length_c   12.34158600
_cell_angle_alpha   90.00000000
_cell_angle_beta   90.00028782
_cell_angle_gamma   90.00000000
_symmetry_Int_Tables_number   1
_chemical_formula_structural   Li6HfMn5Pt12
_chemical_formula_sum   'Li6 Hf1 Mn5 Pt12'
_cell_volume   350.04004258
_cell_formula_units_Z   1
loop_
 _symmetry_equiv_pos_site_id
 _symmetry_equiv_pos_as_xyz
  1  'x, y, z'
loop_
 _atom_site_type_symbol
 _atom_site_label
 _atom_site_symmetry_multiplicity
 _atom_site_fract_x
 _atom_site_fract_y
 _atom_site_fract_z
 _atom_site_occupancy
  Li  Li0  1  0.999999  0.000000  0.008301  1
  Li  Li1  1  0.500007  0.499999  0.169613  1
  Li  Li2  1  0.999996  0.000000  0.333301  1
  Li  Li3  1  0.500001  0.499999  0.496963  1
  Li  Li4  1  0.000005  0.000000  0.658434  1
  Li  Li5  1  0.499995  0.499999  0.833438  1
  Hf  Hf6  1  0.499998  0.000000  0.833316  1
  Mn  Mn7  1  0.999997  0.499999  0.004194  1
  Mn  Mn8  1  0.500004  0.000000  0.168704  1
  Mn  Mn9  1  0.999982  0.499999  0.333325  1
  Mn  Mn10  1  0.500002  0.000000  0.497982  1
  Mn  Mn11  1  0.000013  0.499999  0.662415  1
  Pt  Pt12  1  0.499999  0.253607  0.002949  1
  Pt  Pt13  1  0.499999  0.746393  0.002949  1
  Pt  Pt14  1  0.000000  0.250482  0.168243  1
  Pt  Pt15  1  0.000000  0.749518  0.168243  1
  Pt  Pt16  1  0.499992  0.249502  0.333345  1
  Pt  Pt17  1  0.499992  0.750498  0.333345  1
  Pt  Pt18  1  0.000002  0.250454  0.498456  1
  Pt  Pt19  1  0.000002  0.749546  0.498456  1
  Pt  Pt20  1  0.500007  0.253650  0.663712  1
  Pt  Pt21  1  0.500007  0.746350  0.663712  1
  Pt  Pt22  1  0.000000  0.259765  0.833303  1
  Pt  Pt23  1  0.000000  0.740235  0.833303  1
