# generated using pymatgen
data_Rb3Y(SiO3)3
_symmetry_space_group_name_H-M   'P 1'
_cell_length_a   5.85864200
_cell_length_b   13.00904300
_cell_length_c   14.07386800
_cell_angle_alpha   90.00000000
_cell_angle_beta   90.00000000
_cell_angle_gamma   90.00000000
_symmetry_Int_Tables_number   1
_chemical_formula_structural   Rb3Y(SiO3)3
_chemical_formula_sum   'Rb12 Y4 Si12 O36'
_cell_volume   1072.64443347
_cell_formula_units_Z   4
loop_
 _symmetry_equiv_pos_site_id
 _symmetry_equiv_pos_as_xyz
  1  'x, y, z'
loop_
 _atom_site_type_symbol
 _atom_site_label
 _atom_site_symmetry_multiplicity
 _atom_site_fract_x
 _atom_site_fract_y
 _atom_site_fract_z
 _atom_site_occupancy
  Rb  Rb0  1  0.826959  0.299499  0.500000  1
  Rb  Rb1  1  0.839306  0.340666  0.000000  1
  Rb  Rb2  1  0.343581  0.624827  0.715901  1
  Rb  Rb3  1  0.160694  0.840666  0.500000  1
  Rb  Rb4  1  0.236542  0.102295  0.500000  1
  Rb  Rb5  1  0.656419  0.124827  0.215901  1
  Rb  Rb6  1  0.343581  0.624827  0.284099  1
  Rb  Rb7  1  0.187026  0.075735  0.000000  1
  Rb  Rb8  1  0.656419  0.124827  0.784099  1
  Rb  Rb9  1  0.763458  0.602295  0.000000  1
  Rb  Rb10  1  0.812974  0.575735  0.500000  1
  Rb  Rb11  1  0.173041  0.799499  0.000000  1
  Y  Y12  1  0.161094  0.961447  0.239272  1
  Y  Y13  1  0.838906  0.461447  0.260728  1
  Y  Y14  1  0.161094  0.961447  0.760728  1
  Y  Y15  1  0.838906  0.461447  0.739272  1
  Si  Si16  1  0.331351  0.434754  0.115431  1
  Si  Si17  1  0.836171  0.748629  0.723543  1
  Si  Si18  1  0.668649  0.934754  0.384569  1
  Si  Si19  1  0.836171  0.748629  0.276457  1
  Si  Si20  1  0.163829  0.248629  0.223543  1
  Si  Si21  1  0.670553  0.873561  0.109109  1
  Si  Si22  1  0.668649  0.934754  0.615431  1
  Si  Si23  1  0.163829  0.248629  0.776457  1
  Si  Si24  1  0.329448  0.373561  0.390891  1
  Si  Si25  1  0.329448  0.373561  0.609109  1
  Si  Si26  1  0.670553  0.873561  0.890891  1
  Si  Si27  1  0.331351  0.434754  0.884569  1
  O  O28  1  0.565507  0.484644  0.154085  1
  O  O29  1  0.573152  0.428608  0.374283  1
  O  O30  1  0.166802  0.128446  0.803155  1
  O  O31  1  0.099585  0.494677  0.143879  1
  O  O32  1  0.318889  0.309052  0.140845  1
  O  O33  1  0.565507  0.484644  0.845915  1
  O  O34  1  0.670645  0.820714  0.000000  1
  O  O35  1  0.573152  0.428608  0.625717  1
  O  O36  1  0.099585  0.494677  0.856121  1
  O  O37  1  0.109195  0.446670  0.377705  1
  O  O38  1  0.426848  0.928608  0.874283  1
  O  O39  1  0.681111  0.809052  0.640845  1
  O  O40  1  0.301898  0.265643  0.673416  1
  O  O41  1  0.166802  0.128446  0.196845  1
  O  O42  1  0.318889  0.309052  0.859155  1
  O  O43  1  0.434493  0.984644  0.654085  1
  O  O44  1  0.890805  0.946670  0.122295  1
  O  O45  1  0.833198  0.628446  0.696845  1
  O  O46  1  0.639647  0.932541  0.500000  1
  O  O47  1  0.910704  0.297314  0.773496  1
  O  O48  1  0.681111  0.809052  0.359155  1
  O  O49  1  0.910704  0.297314  0.226504  1
  O  O50  1  0.890805  0.946670  0.877705  1
  O  O51  1  0.360353  0.432541  0.000000  1
  O  O52  1  0.426848  0.928608  0.125717  1
  O  O53  1  0.698102  0.765643  0.826584  1
  O  O54  1  0.089296  0.797314  0.726504  1
  O  O55  1  0.109195  0.446670  0.622295  1
  O  O56  1  0.698102  0.765643  0.173416  1
  O  O57  1  0.434493  0.984644  0.345915  1
  O  O58  1  0.900415  0.994677  0.356121  1
  O  O59  1  0.089296  0.797314  0.273496  1
  O  O60  1  0.900415  0.994677  0.643879  1
  O  O61  1  0.329355  0.320714  0.500000  1
  O  O62  1  0.833198  0.628446  0.303155  1
  O  O63  1  0.301898  0.265643  0.326584  1
