# generated using pymatgen
data_YbHoNi2(BN)2
_symmetry_space_group_name_H-M   'P 1'
_cell_length_a   3.48114000
_cell_length_b   3.48114000
_cell_length_c   7.49910600
_cell_angle_alpha   90.00000000
_cell_angle_beta   90.00000000
_cell_angle_gamma   90.00000000
_symmetry_Int_Tables_number   1
_chemical_formula_structural   YbHoNi2(BN)2
_chemical_formula_sum   'Yb1 Ho1 Ni2 B2 N2'
_cell_volume   90.87668395
_cell_formula_units_Z   1
loop_
 _symmetry_equiv_pos_site_id
 _symmetry_equiv_pos_as_xyz
  1  'x, y, z'
loop_
 _atom_site_type_symbol
 _atom_site_label
 _atom_site_symmetry_multiplicity
 _atom_site_fract_x
 _atom_site_fract_y
 _atom_site_fract_z
 _atom_site_occupancy
  Yb  Yb0  1  0.500000  0.000000  0.167973  1
  Ho  Ho1  1  0.000000  0.500000  0.840233  1
  Ni  Ni2  1  0.000000  0.000000  0.500042  1
  Ni  Ni3  1  0.500000  0.500000  0.500042  1
  B  B4  1  0.000000  0.500000  0.334254  1
  B  B5  1  0.500000  0.000000  0.658583  1
  N  N6  1  0.000000  0.500000  0.147180  1
  N  N7  1  0.500000  0.000000  0.851693  1
