# generated using pymatgen
data_TbNdEr2(WO6)2
_symmetry_space_group_name_H-M   'P 1'
_cell_length_a   5.44928100
_cell_length_b   7.75982303
_cell_length_c   11.49482382
_cell_angle_alpha   75.74411607
_cell_angle_beta   90.00000000
_cell_angle_gamma   90.00000000
_symmetry_Int_Tables_number   1
_chemical_formula_structural   TbNdEr2(WO6)2
_chemical_formula_sum   'Tb2 Nd2 Er4 W4 O24'
_cell_volume   471.09583702
_cell_formula_units_Z   2
loop_
 _symmetry_equiv_pos_site_id
 _symmetry_equiv_pos_as_xyz
  1  'x, y, z'
loop_
 _atom_site_type_symbol
 _atom_site_label
 _atom_site_symmetry_multiplicity
 _atom_site_fract_x
 _atom_site_fract_y
 _atom_site_fract_z
 _atom_site_occupancy
  Tb  Tb0  1  0.743135  0.000000  0.250000  1
  Tb  Tb1  1  0.256865  0.000000  0.750000  1
  Nd  Nd2  1  0.685001  0.500000  0.250000  1
  Nd  Nd3  1  0.314999  0.500000  0.750000  1
  Er  Er4  1  0.184690  0.204143  0.422753  1
  Er  Er5  1  0.184690  0.795857  0.077247  1
  Er  Er6  1  0.815310  0.795857  0.577247  1
  Er  Er7  1  0.815310  0.204143  0.922753  1
  W  W8  1  0.254599  0.272564  0.115451  1
  W  W9  1  0.254599  0.727436  0.384549  1
  W  W10  1  0.745401  0.727436  0.884549  1
  W  W11  1  0.745401  0.272564  0.615451  1
  O  O12  1  0.453387  0.205880  0.273702  1
  O  O13  1  0.453387  0.794120  0.226298  1
  O  O14  1  0.546613  0.794120  0.726298  1
  O  O15  1  0.546613  0.205880  0.773702  1
  O  O16  1  0.046355  0.058577  0.102736  1
  O  O17  1  0.046355  0.941423  0.397264  1
  O  O18  1  0.953645  0.941423  0.897264  1
  O  O19  1  0.953645  0.058577  0.602736  1
  O  O20  1  0.986176  0.280995  0.230623  1
  O  O21  1  0.986176  0.719005  0.269377  1
  O  O22  1  0.013824  0.719005  0.769377  1
  O  O23  1  0.013824  0.280995  0.730623  1
  O  O24  1  0.854877  0.359212  0.453792  1
  O  O25  1  0.854877  0.640788  0.046208  1
  O  O26  1  0.145123  0.640788  0.546208  1
  O  O27  1  0.145123  0.359212  0.953792  1
  O  O28  1  0.651358  0.507594  0.612682  1
  O  O29  1  0.651358  0.492406  0.887318  1
  O  O30  1  0.348642  0.492406  0.387318  1
  O  O31  1  0.348642  0.507594  0.112682  1
  O  O32  1  0.464054  0.156430  0.568491  1
  O  O33  1  0.464054  0.843570  0.931509  1
  O  O34  1  0.535946  0.843570  0.431509  1
  O  O35  1  0.535946  0.156430  0.068491  1
