# generated using pymatgen
data_Li3PrDy2Si2Bi
_symmetry_space_group_name_H-M   'P 1'
_cell_length_a   7.27335929
_cell_length_b   7.27335949
_cell_length_c   4.38643100
_cell_angle_alpha   90.00000000
_cell_angle_beta   90.00000000
_cell_angle_gamma   120.94511547
_symmetry_Int_Tables_number   1
_chemical_formula_structural   Li3PrDy2Si2Bi
_chemical_formula_sum   'Li3 Pr1 Dy2 Si2 Bi1'
_cell_volume   199.01998535
_cell_formula_units_Z   1
loop_
 _symmetry_equiv_pos_site_id
 _symmetry_equiv_pos_as_xyz
  1  'x, y, z'
loop_
 _atom_site_type_symbol
 _atom_site_label
 _atom_site_symmetry_multiplicity
 _atom_site_fract_x
 _atom_site_fract_y
 _atom_site_fract_z
 _atom_site_occupancy
  Li  Li0  1  0.244783  0.998813  0.500000  1
  Li  Li1  1  0.756655  0.756655  0.500000  1
  Li  Li2  1  0.998813  0.244783  0.500000  1
  Pr  Pr3  1  0.455193  0.455193  0.000000  1
  Dy  Dy4  1  0.001319  0.551509  0.000000  1
  Dy  Dy5  1  0.551509  0.001319  0.000000  1
  Si  Si6  1  0.327583  0.674262  0.500000  1
  Si  Si7  1  0.674262  0.327583  0.500000  1
  Bi  Bi8  1  0.989884  0.989884  0.000000  1
