# generated using pymatgen
data_YbDy2U5(ReB6)4
_symmetry_space_group_name_H-M   'P 1'
_cell_length_a   3.63856800
_cell_length_b   9.28932704
_cell_length_c   11.39735538
_cell_angle_alpha   90.04242845
_cell_angle_beta   90.00000000
_cell_angle_gamma   90.00000000
_symmetry_Int_Tables_number   1
_chemical_formula_structural   YbDy2U5(ReB6)4
_chemical_formula_sum   'Yb1 Dy2 U5 Re4 B24'
_cell_volume   385.22877500
_cell_formula_units_Z   1
loop_
 _symmetry_equiv_pos_site_id
 _symmetry_equiv_pos_as_xyz
  1  'x, y, z'
loop_
 _atom_site_type_symbol
 _atom_site_label
 _atom_site_symmetry_multiplicity
 _atom_site_fract_x
 _atom_site_fract_y
 _atom_site_fract_z
 _atom_site_occupancy
  Yb  Yb0  1  0.000000  0.835891  0.092852  1
  Dy  Dy1  1  0.000000  0.337075  0.407613  1
  Dy  Dy2  1  0.000000  0.663157  0.591432  1
  U  U3  1  0.000000  0.162612  0.908031  1
  U  U4  1  0.000000  0.955870  0.395978  1
  U  U5  1  0.000000  0.042335  0.603315  1
  U  U6  1  0.000000  0.458361  0.104514  1
  U  U7  1  0.000000  0.544598  0.897282  1
  Re  Re8  1  0.000000  0.645029  0.319167  1
  Re  Re9  1  0.000000  0.352404  0.684333  1
  Re  Re10  1  0.000000  0.146679  0.177460  1
  Re  Re11  1  0.000000  0.857518  0.819427  1
  B  B12  1  0.500000  0.551492  0.431518  1
  B  B13  1  0.500000  0.447455  0.570018  1
  B  B14  1  0.500000  0.052841  0.067826  1
  B  B15  1  0.500000  0.949772  0.930329  1
  B  B16  1  0.500000  0.742759  0.422933  1
  B  B17  1  0.500000  0.256712  0.577026  1
  B  B18  1  0.500000  0.242950  0.075740  1
  B  B19  1  0.500000  0.756857  0.922718  1
  B  B20  1  0.500000  0.801744  0.274817  1
  B  B21  1  0.500000  0.196581  0.726683  1
  B  B22  1  0.500000  0.302578  0.224711  1
  B  B23  1  0.500000  0.698387  0.774902  1
  B  B24  1  0.500000  0.643730  0.188847  1
  B  B25  1  0.500000  0.354891  0.812463  1
  B  B26  1  0.500000  0.144269  0.310476  1
  B  B27  1  0.500000  0.855477  0.688300  1
  B  B28  1  0.500000  0.989531  0.218939  1
  B  B29  1  0.500000  0.013093  0.781307  1
  B  B30  1  0.500000  0.489040  0.280820  1
  B  B31  1  0.500000  0.511197  0.719975  1
  B  B32  1  0.500000  0.639456  0.038581  1
  B  B33  1  0.500000  0.357460  0.960516  1
  B  B34  1  0.500000  0.139903  0.460677  1
  B  B35  1  0.500000  0.860295  0.538475  1
