# generated using pymatgen
data_Pm8S11Cl
_symmetry_space_group_name_H-M   'P 1'
_cell_length_a   3.96727300
_cell_length_b   10.79955281
_cell_length_c   11.05566400
_cell_angle_alpha   89.95185363
_cell_angle_beta   90.00000000
_cell_angle_gamma   90.00000000
_symmetry_Int_Tables_number   1
_chemical_formula_structural   Pm8S11Cl
_chemical_formula_sum   'Pm8 S11 Cl1'
_cell_volume   473.67726143
_cell_formula_units_Z   1
loop_
 _symmetry_equiv_pos_site_id
 _symmetry_equiv_pos_as_xyz
  1  'x, y, z'
loop_
 _atom_site_type_symbol
 _atom_site_label
 _atom_site_symmetry_multiplicity
 _atom_site_fract_x
 _atom_site_fract_y
 _atom_site_fract_z
 _atom_site_occupancy
  Pm  Pm0  1  0.250000  0.994270  0.687986  1
  Pm  Pm1  1  0.750000  0.983069  0.309766  1
  Pm  Pm2  1  0.750000  0.499143  0.812065  1
  Pm  Pm3  1  0.250000  0.515702  0.190606  1
  Pm  Pm4  1  0.250000  0.317313  0.518601  1
  Pm  Pm5  1  0.750000  0.682165  0.492388  1
  Pm  Pm6  1  0.750000  0.816227  0.986447  1
  Pm  Pm7  1  0.250000  0.190385  0.999290  1
  S  S8  1  0.750000  0.054827  0.874259  1
  S  S9  1  0.250000  0.952605  0.118015  1
  S  S10  1  0.250000  0.553528  0.624738  1
  S  S11  1  0.750000  0.442894  0.376853  1
  S  S12  1  0.250000  0.868262  0.453541  1
  S  S13  1  0.750000  0.126296  0.539427  1
  S  S14  1  0.750000  0.371438  0.052786  1
  S  S15  1  0.250000  0.629879  0.955522  1
  S  S16  1  0.250000  0.303739  0.772412  1
  S  S17  1  0.750000  0.705393  0.230293  1
  S  S18  1  0.750000  0.801349  0.727340  1
  Cl  Cl19  1  0.250000  0.191517  0.277664  1
