# generated using pymatgen
data_Lu5Tc2
_symmetry_space_group_name_H-M   'P 1'
_cell_length_a   5.92456967
_cell_length_b   7.51544694
_cell_length_c   8.27931106
_cell_angle_alpha   97.35281532
_cell_angle_beta   110.96476174
_cell_angle_gamma   89.99999717
_symmetry_Int_Tables_number   1
_chemical_formula_structural   Lu5Tc2
_chemical_formula_sum   'Lu10 Tc4'
_cell_volume   340.99067192
_cell_formula_units_Z   2
loop_
 _symmetry_equiv_pos_site_id
 _symmetry_equiv_pos_as_xyz
  1  'x, y, z'
loop_
 _atom_site_type_symbol
 _atom_site_label
 _atom_site_symmetry_multiplicity
 _atom_site_fract_x
 _atom_site_fract_y
 _atom_site_fract_z
 _atom_site_occupancy
  Lu  Lu0  1  0.534696  0.081005  0.818476  1
  Lu  Lu1  1  0.465304  0.918995  0.181524  1
  Lu  Lu2  1  0.716220  0.418995  0.181524  1
  Lu  Lu3  1  0.283780  0.581005  0.818476  1
  Lu  Lu4  1  0.310449  0.320668  0.432860  1
  Lu  Lu5  1  0.689551  0.679332  0.567140  1
  Lu  Lu6  1  0.877590  0.179332  0.567140  1
  Lu  Lu7  1  0.122410  0.820668  0.432860  1
  Lu  Lu8  1  0.104546  0.250000  0.000000  1
  Lu  Lu9  1  0.895454  0.750000  0.000000  1
  Tc  Tc10  1  0.303074  0.579730  0.217165  1
  Tc  Tc11  1  0.696926  0.420270  0.782835  1
  Tc  Tc12  1  0.085910  0.920270  0.782835  1
  Tc  Tc13  1  0.914090  0.079730  0.217165  1
