# generated using pymatgen
data_TbEr3Ga12Co
_symmetry_space_group_name_H-M   'P 1'
_cell_length_a   7.40957774
_cell_length_b   7.37982812
_cell_length_c   7.40957681
_cell_angle_alpha   109.38990324
_cell_angle_beta   109.55241007
_cell_angle_gamma   109.38990716
_symmetry_Int_Tables_number   1
_chemical_formula_structural   TbEr3Ga12Co
_chemical_formula_sum   'Tb1 Er3 Ga12 Co1'
_cell_volume   312.20948092
_cell_formula_units_Z   1
loop_
 _symmetry_equiv_pos_site_id
 _symmetry_equiv_pos_as_xyz
  1  'x, y, z'
loop_
 _atom_site_type_symbol
 _atom_site_label
 _atom_site_symmetry_multiplicity
 _atom_site_fract_x
 _atom_site_fract_y
 _atom_site_fract_z
 _atom_site_occupancy
  Tb  Tb0  1  0.000000  0.500000  0.000000  1
  Er  Er1  1  0.000000  0.000000  0.500000  1
  Er  Er2  1  0.500000  0.000000  0.000000  1
  Er  Er3  1  0.500000  0.500000  0.500000  1
  Ga  Ga4  1  0.749632  0.249632  0.499265  1
  Ga  Ga5  1  0.749632  0.500000  0.250368  1
  Ga  Ga6  1  0.499265  0.249632  0.749632  1
  Ga  Ga7  1  0.250368  0.500000  0.749632  1
  Ga  Ga8  1  0.250368  0.750368  0.500735  1
  Ga  Ga9  1  0.500735  0.750368  0.250368  1
  Ga  Ga10  1  0.717190  0.717833  0.000000  1
  Ga  Ga11  1  0.282810  0.000643  0.282810  1
  Ga  Ga12  1  0.000000  0.282167  0.282810  1
  Ga  Ga13  1  0.282810  0.282167  0.000000  1
  Ga  Ga14  1  0.717190  0.999357  0.717190  1
  Ga  Ga15  1  0.000000  0.717833  0.717190  1
  Co  Co16  1  0.000000  0.000000  0.000000  1
