# generated using pymatgen
data_Hf16Co4Ir4CN
_symmetry_space_group_name_H-M   'P 1'
_cell_length_a   8.61270961
_cell_length_b   8.61843728
_cell_length_c   8.61270981
_cell_angle_alpha   120.09436784
_cell_angle_beta   119.78105536
_cell_angle_gamma   90.08897786
_symmetry_Int_Tables_number   1
_chemical_formula_structural   Hf16Co4Ir4CN
_chemical_formula_sum   'Hf16 Co4 Ir4 C1 N1'
_cell_volume   452.55318935
_cell_formula_units_Z   1
loop_
 _symmetry_equiv_pos_site_id
 _symmetry_equiv_pos_as_xyz
  1  'x, y, z'
loop_
 _atom_site_type_symbol
 _atom_site_label
 _atom_site_symmetry_multiplicity
 _atom_site_fract_x
 _atom_site_fract_y
 _atom_site_fract_z
 _atom_site_occupancy
  Hf  Hf0  1  0.938332  0.188577  0.750245  1
  Hf  Hf1  1  0.319452  0.569201  0.749748  1
  Hf  Hf2  1  0.934873  0.566865  0.755134  1
  Hf  Hf3  1  0.310235  0.177705  0.742796  1
  Hf  Hf4  1  0.934909  0.177705  0.367470  1
  Hf  Hf5  1  0.311731  0.566865  0.131992  1
  Hf  Hf6  1  0.059001  0.808213  0.249211  1
  Hf  Hf7  1  0.687186  0.437318  0.250130  1
  Hf  Hf8  1  0.060005  0.438226  0.246269  1
  Hf  Hf9  1  0.692317  0.815035  0.254729  1
  Hf  Hf10  1  0.060306  0.815035  0.622718  1
  Hf  Hf11  1  0.691957  0.438226  0.878220  1
  Hf  Hf12  1  0.483814  0.015941  0.032127  1
  Hf  Hf13  1  0.484224  0.453361  0.469138  1
  Hf  Hf14  1  0.484322  0.016269  0.468209  1
  Hf  Hf15  1  0.048060  0.016269  0.031946  1
  Co  Co16  1  0.272807  0.232462  0.459655  1
  Co  Co17  1  0.273698  0.813076  0.039377  1
  Co  Co18  1  0.277727  0.229232  0.046812  1
  Co  Co19  1  0.682419  0.229232  0.451505  1
  Ir  Ir20  1  0.707974  0.786926  0.578954  1
  Ir  Ir21  1  0.706880  0.128717  0.921836  1
  Ir  Ir22  1  0.705504  0.791234  0.916617  1
  Ir  Ir23  1  0.374620  0.791234  0.585730  1
  C  C24  1  0.999045  0.499608  0.000563  1
  N  N25  1  0.998606  0.997472  0.498867  1
