# generated using pymatgen
data_CaTb5HoNiI12
_symmetry_space_group_name_H-M   'P 1'
_cell_length_a   9.79854189
_cell_length_b   9.80221399
_cell_length_c   9.79684869
_cell_angle_alpha   106.82986275
_cell_angle_beta   106.81556275
_cell_angle_gamma   106.85735627
_symmetry_Int_Tables_number   1
_chemical_formula_structural   CaTb5HoNiI12
_chemical_formula_sum   'Ca1 Tb5 Ho1 Ni1 I12'
_cell_volume   787.15809789
_cell_formula_units_Z   1
loop_
 _symmetry_equiv_pos_site_id
 _symmetry_equiv_pos_as_xyz
  1  'x, y, z'
loop_
 _atom_site_type_symbol
 _atom_site_label
 _atom_site_symmetry_multiplicity
 _atom_site_fract_x
 _atom_site_fract_y
 _atom_site_fract_z
 _atom_site_occupancy
  Ca  Ca0  1  0.499982  0.499985  0.499947  1
  Tb  Tb1  1  0.706364  0.904490  0.974707  1
  Tb  Tb2  1  0.975022  0.706576  0.904052  1
  Tb  Tb3  1  0.095454  0.024858  0.293482  1
  Tb  Tb4  1  0.293312  0.095471  0.024338  1
  Tb  Tb5  1  0.024631  0.293282  0.094832  1
  Ho  Ho6  1  0.905456  0.975187  0.709005  1
  Ni  Ni7  1  0.999908  0.999941  0.999720  1
  I  I8  1  0.926528  0.319387  0.775946  1
  I  I9  1  0.776966  0.926916  0.321700  1
  I  I10  1  0.320787  0.776676  0.926758  1
  I  I11  1  0.073226  0.679326  0.223302  1
  I  I12  1  0.221531  0.072697  0.678961  1
  I  I13  1  0.679203  0.223311  0.073235  1
  I  I14  1  0.544209  0.850173  0.620514  1
  I  I15  1  0.620542  0.542649  0.849591  1
  I  I16  1  0.849699  0.621895  0.542842  1
  I  I17  1  0.457339  0.150429  0.379418  1
  I  I18  1  0.379469  0.457351  0.150386  1
  I  I19  1  0.150371  0.379399  0.457266  1
