# generated using pymatgen
data_Sc7P3S4
_symmetry_space_group_name_H-M   'P 1'
_cell_length_a   9.85569187
_cell_length_b   6.46149535
_cell_length_c   6.44864798
_cell_angle_alpha   80.61054929
_cell_angle_beta   90.08488478
_cell_angle_gamma   139.97061257
_symmetry_Int_Tables_number   1
_chemical_formula_structural   Sc7P3S4
_chemical_formula_sum   'Sc7 P3 S4'
_cell_volume   255.61545309
_cell_formula_units_Z   1
loop_
 _symmetry_equiv_pos_site_id
 _symmetry_equiv_pos_as_xyz
  1  'x, y, z'
loop_
 _atom_site_type_symbol
 _atom_site_label
 _atom_site_symmetry_multiplicity
 _atom_site_fract_x
 _atom_site_fract_y
 _atom_site_fract_z
 _atom_site_occupancy
  Sc  Sc0  1  0.211820  0.747560  0.113984  1
  Sc  Sc1  1  0.619829  0.020485  0.403877  1
  Sc  Sc2  1  0.763644  0.443593  0.834121  1
  Sc  Sc3  1  0.485425  0.596881  0.976788  1
  Sc  Sc4  1  0.349346  0.173826  0.538474  1
  Sc  Sc5  1  0.069518  0.325184  0.679699  1
  Sc  Sc6  1  0.917998  0.886932  0.254525  1
  P  P7  1  0.562034  0.318727  0.185154  1
  P  P8  1  0.272257  0.451201  0.329303  1
  P  P9  1  0.415574  0.883273  0.759024  1
  S  S10  1  0.847239  0.173870  0.042516  1
  S  S11  1  0.985554  0.596299  0.472447  1
  S  S12  1  0.128912  0.022718  0.898855  1
  S  S13  1  0.706084  0.748092  0.613771  1
