# generated using pymatgen
data_SrAl2(CoO3)4
_symmetry_space_group_name_H-M   'P 1'
_cell_length_a   7.92812291
_cell_length_b   7.92812155
_cell_length_c   9.35489959
_cell_angle_alpha   54.71919222
_cell_angle_beta   54.71919125
_cell_angle_gamma   65.73560967
_symmetry_Int_Tables_number   1
_chemical_formula_structural   SrAl2(CoO3)4
_chemical_formula_sum   'Sr2 Al4 Co8 O24'
_cell_volume   389.19520288
_cell_formula_units_Z   2
loop_
 _symmetry_equiv_pos_site_id
 _symmetry_equiv_pos_as_xyz
  1  'x, y, z'
loop_
 _atom_site_type_symbol
 _atom_site_label
 _atom_site_symmetry_multiplicity
 _atom_site_fract_x
 _atom_site_fract_y
 _atom_site_fract_z
 _atom_site_occupancy
  Sr  Sr0  1  0.283332  0.716668  0.000000  1
  Sr  Sr1  1  0.716668  0.283332  0.000000  1
  Al  Al2  1  0.852084  0.852084  0.480130  1
  Al  Al3  1  0.335888  0.335888  0.818706  1
  Al  Al4  1  0.147916  0.147916  0.519870  1
  Al  Al5  1  0.664112  0.664112  0.181294  1
  Co  Co6  1  0.669530  0.001118  0.816921  1
  Co  Co7  1  0.187615  0.518666  0.478136  1
  Co  Co8  1  0.812385  0.481334  0.521864  1
  Co  Co9  1  0.330470  0.998882  0.183079  1
  Co  Co10  1  0.998882  0.330470  0.183079  1
  Co  Co11  1  0.001118  0.669530  0.816921  1
  Co  Co12  1  0.518666  0.187615  0.478136  1
  Co  Co13  1  0.481334  0.812385  0.521864  1
  O  O14  1  0.700693  0.700693  0.942785  1
  O  O15  1  0.008549  0.674788  0.353892  1
  O  O16  1  0.674788  0.008549  0.353892  1
  O  O17  1  0.678522  0.011331  0.615050  1
  O  O18  1  0.011331  0.678522  0.615050  1
  O  O19  1  0.044608  0.044608  0.278088  1
  O  O20  1  0.707418  0.373908  0.277638  1
  O  O21  1  0.373908  0.707418  0.277638  1
  O  O22  1  0.988669  0.321478  0.384950  1
  O  O23  1  0.991451  0.325212  0.646108  1
  O  O24  1  0.037677  0.370737  0.945274  1
  O  O25  1  0.370737  0.037677  0.945274  1
  O  O26  1  0.299307  0.299307  0.057215  1
  O  O27  1  0.962323  0.629263  0.054726  1
  O  O28  1  0.347092  0.347092  0.344996  1
  O  O29  1  0.347209  0.347209  0.608634  1
  O  O30  1  0.292582  0.626092  0.722362  1
  O  O31  1  0.626092  0.292582  0.722362  1
  O  O32  1  0.955392  0.955392  0.721912  1
  O  O33  1  0.652791  0.652791  0.391366  1
  O  O34  1  0.321478  0.988669  0.384950  1
  O  O35  1  0.652908  0.652908  0.655004  1
  O  O36  1  0.325212  0.991451  0.646108  1
  O  O37  1  0.629263  0.962323  0.054726  1
