# generated using pymatgen
data_Pr10Si5Ir
_symmetry_space_group_name_H-M   'P 1'
_cell_length_a   7.71167922
_cell_length_b   7.71167880
_cell_length_c   9.13059078
_cell_angle_alpha   114.97982370
_cell_angle_beta   114.97982219
_cell_angle_gamma   90.00000234
_symmetry_Int_Tables_number   1
_chemical_formula_structural   Pr10Si5Ir
_chemical_formula_sum   'Pr10 Si5 Ir1'
_cell_volume   435.52455616
_cell_formula_units_Z   1
loop_
 _symmetry_equiv_pos_site_id
 _symmetry_equiv_pos_as_xyz
  1  'x, y, z'
loop_
 _atom_site_type_symbol
 _atom_site_label
 _atom_site_symmetry_multiplicity
 _atom_site_fract_x
 _atom_site_fract_y
 _atom_site_fract_z
 _atom_site_occupancy
  Pr  Pr0  1  0.468701  0.468701  0.937401  1
  Pr  Pr1  1  0.031299  0.031299  0.062599  1
  Pr  Pr2  1  0.949381  0.806691  0.286173  1
  Pr  Pr3  1  0.336792  0.479482  0.286173  1
  Pr  Pr4  1  0.806691  0.336792  0.286173  1
  Pr  Pr5  1  0.479482  0.949381  0.286173  1
  Pr  Pr6  1  0.020518  0.163208  0.713827  1
  Pr  Pr7  1  0.693309  0.550619  0.713827  1
  Pr  Pr8  1  0.163208  0.693309  0.713827  1
  Pr  Pr9  1  0.550619  0.020518  0.713827  1
  Si  Si10  1  0.250000  0.250000  0.500000  1
  Si  Si11  1  0.614459  0.885541  0.000000  1
  Si  Si12  1  0.385541  0.114459  0.000000  1
  Si  Si13  1  0.885541  0.385541  0.000000  1
  Si  Si14  1  0.114459  0.614459  0.000000  1
  Ir  Ir15  1  0.750000  0.750000  0.500000  1
