# generated using pymatgen
data_Dy2Er3Mn2O12
_symmetry_space_group_name_H-M   'P 1'
_cell_length_a   6.77944326
_cell_length_b   6.77944371
_cell_length_c   7.19478796
_cell_angle_alpha   74.59320933
_cell_angle_beta   74.59321002
_cell_angle_gamma   50.08753297
_symmetry_Int_Tables_number   1
_chemical_formula_structural   Dy2Er3Mn2O12
_chemical_formula_sum   'Dy2 Er3 Mn2 O12'
_cell_volume   242.48873062
_cell_formula_units_Z   1
loop_
 _symmetry_equiv_pos_site_id
 _symmetry_equiv_pos_as_xyz
  1  'x, y, z'
loop_
 _atom_site_type_symbol
 _atom_site_label
 _atom_site_symmetry_multiplicity
 _atom_site_fract_x
 _atom_site_fract_y
 _atom_site_fract_z
 _atom_site_occupancy
  Dy  Dy0  1  0.304644  0.304644  0.356977  1
  Dy  Dy1  1  0.999922  0.999922  0.500017  1
  Er  Er2  1  0.695141  0.695141  0.643642  1
  Er  Er3  1  0.307600  0.307600  0.835688  1
  Er  Er4  1  0.692469  0.692469  0.164398  1
  Mn  Mn5  1  0.753981  0.246241  0.999783  1
  Mn  Mn6  1  0.246241  0.753981  0.999783  1
  O  O7  1  0.901951  0.423133  0.917735  1
  O  O8  1  0.423133  0.901951  0.917735  1
  O  O9  1  0.097231  0.578016  0.080653  1
  O  O10  1  0.578016  0.097231  0.080653  1
  O  O11  1  0.096173  0.597310  0.576371  1
  O  O12  1  0.597310  0.096173  0.576371  1
  O  O13  1  0.900344  0.404885  0.425565  1
  O  O14  1  0.404885  0.900344  0.425565  1
  O  O15  1  0.999828  0.999828  0.821628  1
  O  O16  1  0.000284  0.000284  0.178399  1
  O  O17  1  0.499966  0.499966  0.817738  1
  O  O18  1  0.500880  0.500880  0.181298  1
