# generated using pymatgen
data_Pr3Nd2HfRuO12
_symmetry_space_group_name_H-M   'P 1'
_cell_length_a   7.17777415
_cell_length_b   7.17777494
_cell_length_c   7.65480936
_cell_angle_alpha   74.33748658
_cell_angle_beta   74.33747904
_cell_angle_gamma   50.52009645
_symmetry_Int_Tables_number   1
_chemical_formula_structural   Pr3Nd2HfRuO12
_chemical_formula_sum   'Pr3 Nd2 Hf1 Ru1 O12'
_cell_volume   290.52154418
_cell_formula_units_Z   1
loop_
 _symmetry_equiv_pos_site_id
 _symmetry_equiv_pos_as_xyz
  1  'x, y, z'
loop_
 _atom_site_type_symbol
 _atom_site_label
 _atom_site_symmetry_multiplicity
 _atom_site_fract_x
 _atom_site_fract_y
 _atom_site_fract_z
 _atom_site_occupancy
  Pr  Pr0  1  0.688045  0.701614  0.166804  1
  Pr  Pr1  1  0.298386  0.311955  0.833196  1
  Pr  Pr2  1  0.005085  0.994915  0.500000  1
  Nd  Nd3  1  0.299439  0.305245  0.360230  1
  Nd  Nd4  1  0.694755  0.700561  0.639770  1
  Hf  Hf5  1  0.767275  0.232725  0.000000  1
  Ru  Ru6  1  0.253566  0.746434  0.000000  1
  O  O7  1  0.091749  0.598181  0.573184  1
  O  O8  1  0.017736  0.982306  0.180275  1
  O  O9  1  0.401819  0.908251  0.426816  1
  O  O10  1  0.495189  0.504693  0.179681  1
  O  O11  1  0.100743  0.583628  0.081684  1
  O  O12  1  0.903391  0.406123  0.423711  1
  O  O13  1  0.017694  0.982264  0.819725  1
  O  O14  1  0.593877  0.096608  0.576289  1
  O  O15  1  0.495307  0.504811  0.820319  1
  O  O16  1  0.565491  0.105920  0.082507  1
  O  O17  1  0.416372  0.899257  0.918316  1
  O  O18  1  0.894080  0.434509  0.917493  1
