# generated using pymatgen
data_Nd3MgIn2Ga2Ag
_symmetry_space_group_name_H-M   'P 1'
_cell_length_a   7.43516000
_cell_length_b   7.43515842
_cell_length_c   4.62925000
_cell_angle_alpha   90.00000000
_cell_angle_beta   90.00000000
_cell_angle_gamma   120.09684626
_symmetry_Int_Tables_number   1
_chemical_formula_structural   Nd3MgIn2Ga2Ag
_chemical_formula_sum   'Nd3 Mg1 In2 Ga2 Ag1'
_cell_volume   221.40996434
_cell_formula_units_Z   1
loop_
 _symmetry_equiv_pos_site_id
 _symmetry_equiv_pos_as_xyz
  1  'x, y, z'
loop_
 _atom_site_type_symbol
 _atom_site_label
 _atom_site_symmetry_multiplicity
 _atom_site_fract_x
 _atom_site_fract_y
 _atom_site_fract_z
 _atom_site_occupancy
  Nd  Nd0  1  0.578117  0.000956  0.000000  1
  Nd  Nd1  1  0.000956  0.578117  0.000000  1
  Nd  Nd2  1  0.418769  0.418769  0.000000  1
  Mg  Mg3  1  0.759402  0.759402  0.500000  1
  In  In4  1  0.248199  0.998532  0.500000  1
  In  In5  1  0.998532  0.248199  0.500000  1
  Ga  Ga6  1  0.338050  0.665340  0.500000  1
  Ga  Ga7  1  0.665340  0.338050  0.500000  1
  Ag  Ag8  1  0.992634  0.992634  0.000000  1
