# generated using pymatgen
data_YbPa(Cd2Cu9)2
_symmetry_space_group_name_H-M   'P 1'
_cell_length_a   5.04774200
_cell_length_b   5.04781254
_cell_length_c   16.00301600
_cell_angle_alpha   90.00103090
_cell_angle_beta   89.99896162
_cell_angle_gamma   120.00249453
_symmetry_Int_Tables_number   1
_chemical_formula_structural   YbPa(Cd2Cu9)2
_chemical_formula_sum   'Yb1 Pa1 Cd4 Cu18'
_cell_volume   353.11967933
_cell_formula_units_Z   1
loop_
 _symmetry_equiv_pos_site_id
 _symmetry_equiv_pos_as_xyz
  1  'x, y, z'
loop_
 _atom_site_type_symbol
 _atom_site_label
 _atom_site_symmetry_multiplicity
 _atom_site_fract_x
 _atom_site_fract_y
 _atom_site_fract_z
 _atom_site_occupancy
  Yb  Yb0  1  0.333336  0.666653  0.750004  1
  Pa  Pa1  1  0.666664  0.333344  0.250007  1
  Cd  Cd2  1  0.666603  0.333349  0.463672  1
  Cd  Cd3  1  0.333342  0.666667  0.965508  1
  Cd  Cd4  1  0.666720  0.333334  0.036341  1
  Cd  Cd5  1  0.333330  0.666661  0.534492  1
  Cu  Cu6  1  0.333335  0.666660  0.250011  1
  Cu  Cu7  1  0.666692  0.333345  0.749984  1
  Cu  Cu8  1  0.167826  0.832149  0.375551  1
  Cu  Cu9  1  0.167774  0.335769  0.375561  1
  Cu  Cu10  1  0.999983  0.999966  0.749982  1
  Cu  Cu11  1  0.999989  0.000015  0.250014  1
  Cu  Cu12  1  0.000017  0.000013  0.999872  1
  Cu  Cu13  1  0.999997  0.999999  0.500127  1
  Cu  Cu14  1  0.167957  0.335755  0.124458  1
  Cu  Cu15  1  0.831933  0.168038  0.624589  1
  Cu  Cu16  1  0.336098  0.168021  0.624601  1
  Cu  Cu17  1  0.664305  0.832139  0.124460  1
  Cu  Cu18  1  0.167923  0.832135  0.124461  1
  Cu  Cu19  1  0.831944  0.663872  0.875393  1
  Cu  Cu20  1  0.831945  0.168040  0.875381  1
  Cu  Cu21  1  0.831961  0.663865  0.624585  1
  Cu  Cu22  1  0.336123  0.168052  0.875387  1
  Cu  Cu23  1  0.664203  0.832162  0.375560  1
