# generated using pymatgen
data_Nd11In9PdRu3
_symmetry_space_group_name_H-M   'P 1'
_cell_length_a   13.37508129
_cell_length_b   13.42410884
_cell_length_c   3.85638000
_cell_angle_alpha   90.00000000
_cell_angle_beta   90.00000000
_cell_angle_gamma   112.18834259
_symmetry_Int_Tables_number   1
_chemical_formula_structural   Nd11In9PdRu3
_chemical_formula_sum   'Nd11 In9 Pd1 Ru3'
_cell_volume   641.13288364
_cell_formula_units_Z   1
loop_
 _symmetry_equiv_pos_site_id
 _symmetry_equiv_pos_as_xyz
  1  'x, y, z'
loop_
 _atom_site_type_symbol
 _atom_site_label
 _atom_site_symmetry_multiplicity
 _atom_site_fract_x
 _atom_site_fract_y
 _atom_site_fract_z
 _atom_site_occupancy
  Nd  Nd0  1  0.418607  0.079498  0.000000  1
  Nd  Nd1  1  0.580171  0.919791  0.000000  1
  Nd  Nd2  1  0.081463  0.419289  0.000000  1
  Nd  Nd3  1  0.928252  0.582582  0.000000  1
  Nd  Nd4  1  0.160903  0.839960  0.000000  1
  Nd  Nd5  1  0.839407  0.159932  0.000000  1
  Nd  Nd6  1  0.372580  0.625755  0.000000  1
  Nd  Nd7  1  0.621566  0.368164  0.000000  1
  Nd  Nd8  1  0.313076  0.313069  0.000000  1
  Nd  Nd9  1  0.682015  0.692368  0.000000  1
  Nd  Nd10  1  0.000610  0.001014  0.000000  1
  In  In11  1  0.365317  0.837497  0.500000  1
  In  In12  1  0.632849  0.161383  0.500000  1
  In  In13  1  0.840357  0.366674  0.500000  1
  In  In14  1  0.160725  0.632192  0.500000  1
  In  In15  1  0.221075  0.078824  0.500000  1
  In  In16  1  0.778636  0.920996  0.500000  1
  In  In17  1  0.078687  0.221382  0.500000  1
  In  In18  1  0.924136  0.781848  0.500000  1
  In  In19  1  0.499520  0.499647  0.500000  1
  Pd  Pd20  1  0.752771  0.548988  0.500000  1
  Ru  Ru21  1  0.446664  0.246688  0.500000  1
  Ru  Ru22  1  0.550588  0.755037  0.500000  1
  Ru  Ru23  1  0.250030  0.447420  0.500000  1
