# generated using pymatgen
data_TbEr(ZrPt)2
_symmetry_space_group_name_H-M   'P 1'
_cell_length_a   4.67482600
_cell_length_b   7.15730644
_cell_length_c   8.23555384
_cell_angle_alpha   90.26245879
_cell_angle_beta   90.00000000
_cell_angle_gamma   90.00000000
_symmetry_Int_Tables_number   1
_chemical_formula_structural   TbEr(ZrPt)2
_chemical_formula_sum   'Tb2 Er2 Zr4 Pt4'
_cell_volume   275.55184083
_cell_formula_units_Z   2
loop_
 _symmetry_equiv_pos_site_id
 _symmetry_equiv_pos_as_xyz
  1  'x, y, z'
loop_
 _atom_site_type_symbol
 _atom_site_label
 _atom_site_symmetry_multiplicity
 _atom_site_fract_x
 _atom_site_fract_y
 _atom_site_fract_z
 _atom_site_occupancy
  Tb  Tb0  1  0.250000  0.483232  0.177539  1
  Tb  Tb1  1  0.750000  0.516768  0.822461  1
  Er  Er2  1  0.750000  0.018035  0.677351  1
  Er  Er3  1  0.250000  0.981965  0.322649  1
  Zr  Zr4  1  0.250000  0.852554  0.919979  1
  Zr  Zr5  1  0.750000  0.147446  0.080021  1
  Zr  Zr6  1  0.750000  0.648362  0.421378  1
  Zr  Zr7  1  0.250000  0.351638  0.578622  1
  Pt  Pt8  1  0.250000  0.730616  0.593065  1
  Pt  Pt9  1  0.750000  0.269384  0.406935  1
  Pt  Pt10  1  0.750000  0.773461  0.097231  1
  Pt  Pt11  1  0.250000  0.226539  0.902769  1
