# generated using pymatgen
data_Tb5Tm5(Sn3Se)2
_symmetry_space_group_name_H-M   'P 1'
_cell_length_a   9.14018600
_cell_length_b   9.13769553
_cell_length_c   6.74009300
_cell_angle_alpha   90.00000000
_cell_angle_beta   90.00000000
_cell_angle_gamma   119.99098795
_symmetry_Int_Tables_number   1
_chemical_formula_structural   Tb5Tm5(Sn3Se)2
_chemical_formula_sum   'Tb5 Tm5 Sn6 Se2'
_cell_volume   487.55955201
_cell_formula_units_Z   1
loop_
 _symmetry_equiv_pos_site_id
 _symmetry_equiv_pos_as_xyz
  1  'x, y, z'
loop_
 _atom_site_type_symbol
 _atom_site_label
 _atom_site_symmetry_multiplicity
 _atom_site_fract_x
 _atom_site_fract_y
 _atom_site_fract_z
 _atom_site_occupancy
  Tb  Tb0  1  0.746978  0.746839  0.750000  1
  Tb  Tb1  1  0.253022  0.999861  0.750000  1
  Tb  Tb2  1  0.000000  0.252691  0.750000  1
  Tb  Tb3  1  0.253402  0.253436  0.250000  1
  Tb  Tb4  1  0.746598  0.000035  0.250000  1
  Tm  Tm5  1  0.666870  0.333664  0.000154  1
  Tm  Tm6  1  0.333130  0.666795  0.000154  1
  Tm  Tm7  1  0.333130  0.666795  0.499846  1
  Tm  Tm8  1  0.666870  0.333664  0.499846  1
  Tm  Tm9  1  0.000000  0.747912  0.250000  1
  Sn  Sn10  1  0.397317  0.397400  0.750000  1
  Sn  Sn11  1  0.602683  0.000082  0.750000  1
  Sn  Sn12  1  0.000000  0.602254  0.750000  1
  Sn  Sn13  1  0.604138  0.602838  0.250000  1
  Sn  Sn14  1  0.395862  0.998700  0.250000  1
  Sn  Sn15  1  0.000000  0.399424  0.250000  1
  Se  Se16  1  0.000000  0.998805  0.001255  1
  Se  Se17  1  0.000000  0.998805  0.498745  1
