# generated using pymatgen
data_Tb3YGa18(Ru2Rh)2
_symmetry_space_group_name_H-M   'P 1'
_cell_length_a   7.52370901
_cell_length_b   7.52467843
_cell_length_c   9.66805203
_cell_angle_alpha   90.00421751
_cell_angle_beta   90.00440611
_cell_angle_gamma   119.82806612
_symmetry_Int_Tables_number   1
_chemical_formula_structural   Tb3YGa18(Ru2Rh)2
_chemical_formula_sum   'Tb3 Y1 Ga18 Ru4 Rh2'
_cell_volume   474.83132378
_cell_formula_units_Z   1
loop_
 _symmetry_equiv_pos_site_id
 _symmetry_equiv_pos_as_xyz
  1  'x, y, z'
loop_
 _atom_site_type_symbol
 _atom_site_label
 _atom_site_symmetry_multiplicity
 _atom_site_fract_x
 _atom_site_fract_y
 _atom_site_fract_z
 _atom_site_occupancy
  Tb  Tb0  1  0.003387  0.332531  0.750000  1
  Tb  Tb1  1  0.667452  0.996561  0.250000  1
  Tb  Tb2  1  0.332622  0.003473  0.749994  1
  Y  Y3  1  0.996669  0.667459  0.250003  1
  Ga  Ga4  1  0.127399  0.127602  0.250003  1
  Ga  Ga5  1  0.872399  0.872405  0.749997  1
  Ga  Ga6  1  0.002852  0.335312  0.076830  1
  Ga  Ga7  1  0.997202  0.664737  0.923030  1
  Ga  Ga8  1  0.997222  0.664743  0.576959  1
  Ga  Ga9  1  0.335217  0.002835  0.423161  1
  Ga  Ga10  1  0.002878  0.335331  0.423172  1
  Ga  Ga11  1  0.664725  0.997140  0.576871  1
  Ga  Ga12  1  0.664742  0.997172  0.923126  1
  Ga  Ga13  1  0.335224  0.002858  0.076848  1
  Ga  Ga14  1  0.337567  0.337601  0.561329  1
  Ga  Ga15  1  0.662403  0.662363  0.438648  1
  Ga  Ga16  1  0.662423  0.662364  0.061352  1
  Ga  Ga17  1  0.337565  0.337581  0.938672  1
  Ga  Ga18  1  0.336479  0.547034  0.250012  1
  Ga  Ga19  1  0.663624  0.453066  0.750006  1
  Ga  Ga20  1  0.546917  0.336119  0.249996  1
  Ga  Ga21  1  0.452992  0.663639  0.749989  1
  Ru  Ru22  1  0.673495  0.326625  0.000018  1
  Ru  Ru23  1  0.326593  0.673472  0.000051  1
  Ru  Ru24  1  0.326593  0.673472  0.499950  1
  Ru  Ru25  1  0.673489  0.326628  0.499982  1
  Rh  Rh26  1  0.999936  0.999940  0.000011  1
  Rh  Rh27  1  0.999933  0.999935  0.499993  1
