# generated using pymatgen
data_Ta4FeCuN
_symmetry_space_group_name_H-M   'P 1'
_cell_length_a   8.24978218
_cell_length_b   8.24978219
_cell_length_c   8.24978200
_cell_angle_alpha   60.00000075
_cell_angle_beta   60.00000074
_cell_angle_gamma   60.00000050
_symmetry_Int_Tables_number   1
_chemical_formula_structural   Ta4FeCuN
_chemical_formula_sum   'Ta16 Fe4 Cu4 N4'
_cell_volume   397.02005545
_cell_formula_units_Z   4
loop_
 _symmetry_equiv_pos_site_id
 _symmetry_equiv_pos_as_xyz
  1  'x, y, z'
loop_
 _atom_site_type_symbol
 _atom_site_label
 _atom_site_symmetry_multiplicity
 _atom_site_fract_x
 _atom_site_fract_y
 _atom_site_fract_z
 _atom_site_occupancy
  Ta  Ta0  1  0.118100  0.627300  0.627300  1
  Ta  Ta1  1  0.627300  0.118100  0.627300  1
  Ta  Ta2  1  0.627300  0.627300  0.118100  1
  Ta  Ta3  1  0.627300  0.627300  0.627300  1
  Ta  Ta4  1  0.815501  0.815501  0.184499  1
  Ta  Ta5  1  0.184499  0.184499  0.815501  1
  Ta  Ta6  1  0.815501  0.184499  0.815501  1
  Ta  Ta7  1  0.184499  0.815501  0.184499  1
  Ta  Ta8  1  0.184499  0.815501  0.815501  1
  Ta  Ta9  1  0.815501  0.184499  0.184499  1
  Ta  Ta10  1  0.437936  0.437936  0.062064  1
  Ta  Ta11  1  0.062064  0.062064  0.437936  1
  Ta  Ta12  1  0.437936  0.062064  0.437936  1
  Ta  Ta13  1  0.062064  0.437936  0.062064  1
  Ta  Ta14  1  0.062064  0.437936  0.437936  1
  Ta  Ta15  1  0.437936  0.062064  0.062064  1
  Fe  Fe16  1  0.502804  0.832399  0.832399  1
  Fe  Fe17  1  0.832399  0.502804  0.832399  1
  Fe  Fe18  1  0.832399  0.832399  0.502804  1
  Fe  Fe19  1  0.832399  0.832399  0.832399  1
  Cu  Cu20  1  0.756404  0.414532  0.414532  1
  Cu  Cu21  1  0.414532  0.756404  0.414532  1
  Cu  Cu22  1  0.414532  0.414532  0.756404  1
  Cu  Cu23  1  0.414532  0.414532  0.414532  1
  N  N24  1  0.621749  0.126084  0.126084  1
  N  N25  1  0.126084  0.621749  0.126084  1
  N  N26  1  0.126084  0.126084  0.621749  1
  N  N27  1  0.126084  0.126084  0.126084  1
