# generated using pymatgen
data_Ho10TmScPb10
_symmetry_space_group_name_H-M   'P 1'
_cell_length_a   11.69156835
_cell_length_b   11.69156834
_cell_length_c   11.70023044
_cell_angle_alpha   147.41127323
_cell_angle_beta   132.64235294
_cell_angle_gamma   58.59362826
_symmetry_Int_Tables_number   1
_chemical_formula_structural   Ho10TmScPb10
_chemical_formula_sum   'Ho10 Tm1 Sc1 Pb10'
_cell_volume   628.65338229
_cell_formula_units_Z   1
loop_
 _symmetry_equiv_pos_site_id
 _symmetry_equiv_pos_as_xyz
  1  'x, y, z'
loop_
 _atom_site_type_symbol
 _atom_site_label
 _atom_site_symmetry_multiplicity
 _atom_site_fract_x
 _atom_site_fract_y
 _atom_site_fract_z
 _atom_site_occupancy
  Ho  Ho0  1  0.251175  0.639206  0.610637  1
  Ho  Ho1  1  0.675401  0.941020  0.733394  1
  Ho  Ho2  1  0.028569  0.140536  0.889363  1
  Ho  Ho3  1  0.970404  0.858259  0.110834  1
  Ho  Ho4  1  0.792309  0.560349  0.233671  1
  Ho  Ho5  1  0.207626  0.442006  0.766606  1
  Ho  Ho6  1  0.303305  0.053305  0.750000  1
  Ho  Ho7  1  0.326677  0.058638  0.266329  1
  Ho  Ho8  1  0.303893  0.553893  0.250000  1
  Ho  Ho9  1  0.747424  0.359570  0.389166  1
  Tm  Tm10  1  0.696454  0.946454  0.250000  1
  Sc  Sc11  1  0.695118  0.445118  0.750000  1
  Pb  Pb12  1  0.480228  0.570346  0.895963  1
  Pb  Pb13  1  0.598912  0.787318  0.800145  1
  Pb  Pb14  1  0.674384  0.084266  0.604037  1
  Pb  Pb15  1  0.000458  0.750458  0.750000  1
  Pb  Pb16  1  0.987173  0.298767  0.699855  1
  Pb  Pb17  1  0.523372  0.424187  0.098332  1
  Pb  Pb18  1  0.006527  0.702274  0.297203  1
  Pb  Pb19  1  0.405071  0.209325  0.202797  1
  Pb  Pb20  1  0.325855  0.925040  0.401668  1
  Pb  Pb21  1  0.999664  0.249664  0.250000  1
