# generated using pymatgen
data_Y3Ho(Si5Pt3)2
_symmetry_space_group_name_H-M   'P 1'
_cell_length_a   8.15863797
_cell_length_b   8.15855426
_cell_length_c   8.15855435
_cell_angle_alpha   136.25762436
_cell_angle_beta   104.63985247
_cell_angle_gamma   91.42101174
_symmetry_Int_Tables_number   1
_chemical_formula_structural   Y3Ho(Si5Pt3)2
_chemical_formula_sum   'Y3 Ho1 Si10 Pt6'
_cell_volume   345.38804875
_cell_formula_units_Z   1
loop_
 _symmetry_equiv_pos_site_id
 _symmetry_equiv_pos_as_xyz
  1  'x, y, z'
loop_
 _atom_site_type_symbol
 _atom_site_label
 _atom_site_symmetry_multiplicity
 _atom_site_fract_x
 _atom_site_fract_y
 _atom_site_fract_z
 _atom_site_occupancy
  Y  Y0  1  0.641438  0.370542  0.270896  1
  Y  Y1  1  0.358624  0.629388  0.729237  1
  Y  Y2  1  0.099786  0.870584  0.229202  1
  Ho  Ho3  1  0.900378  0.129717  0.770660  1
  Si  Si4  1  0.271671  0.521611  0.249615  1
  Si  Si5  1  0.728296  0.477918  0.750129  1
  Si  Si6  1  0.728296  0.978167  0.250379  1
  Si  Si7  1  0.271671  0.022057  0.750061  1
  Si  Si8  1  0.460676  0.112013  0.348663  1
  Si  Si9  1  0.539753  0.888336  0.651416  1
  Si  Si10  1  0.763446  0.611987  0.151459  1
  Si  Si11  1  0.236358  0.387717  0.848642  1
  Si  Si12  1  0.999880  0.249689  0.249400  1
  Si  Si13  1  0.999880  0.750480  0.750191  1
  Pt  Pt14  1  0.249479  0.137280  0.112198  1
  Pt  Pt15  1  0.750239  0.862545  0.887694  1
  Pt  Pt16  1  0.025056  0.637207  0.387849  1
  Pt  Pt17  1  0.975117  0.362783  0.612334  1
  Pt  Pt18  1  0.499976  0.249983  0.749978  1
  Pt  Pt19  1  0.499976  0.749998  0.249993  1
