# generated using pymatgen
data_Dy6Sc4Al12Rh7
_symmetry_space_group_name_H-M   'P 1'
_cell_length_a   9.10010513
_cell_length_b   9.10000017
_cell_length_c   9.10000600
_cell_angle_alpha   59.99975008
_cell_angle_beta   59.99936131
_cell_angle_gamma   59.99898002
_symmetry_Int_Tables_number   1
_chemical_formula_structural   Dy6Sc4Al12Rh7
_chemical_formula_sum   'Dy6 Sc4 Al12 Rh7'
_cell_volume   532.85399505
_cell_formula_units_Z   1
loop_
 _symmetry_equiv_pos_site_id
 _symmetry_equiv_pos_as_xyz
  1  'x, y, z'
loop_
 _atom_site_type_symbol
 _atom_site_label
 _atom_site_symmetry_multiplicity
 _atom_site_fract_x
 _atom_site_fract_y
 _atom_site_fract_z
 _atom_site_occupancy
  Dy  Dy0  1  0.700989  0.700986  0.299010  1
  Dy  Dy1  1  0.299011  0.700990  0.299013  1
  Dy  Dy2  1  0.700992  0.299014  0.299009  1
  Dy  Dy3  1  0.299010  0.299014  0.700991  1
  Dy  Dy4  1  0.700989  0.299012  0.700986  1
  Dy  Dy5  1  0.299010  0.700985  0.700986  1
  Sc  Sc6  1  0.881782  0.881783  0.354656  1
  Sc  Sc7  1  0.881781  0.354653  0.881783  1
  Sc  Sc8  1  0.354658  0.881783  0.881780  1
  Sc  Sc9  1  0.881783  0.881783  0.881782  1
  Al  Al10  1  0.120865  0.120873  0.637396  1
  Al  Al11  1  0.120864  0.637398  0.120871  1
  Al  Al12  1  0.637397  0.120868  0.120866  1
  Al  Al13  1  0.120867  0.120870  0.120865  1
  Al  Al14  1  0.669627  0.669631  0.991121  1
  Al  Al15  1  0.669623  0.991123  0.669632  1
  Al  Al16  1  0.991120  0.669622  0.669626  1
  Al  Al17  1  0.669635  0.669623  0.669623  1
  Al  Al18  1  0.328612  0.328608  0.014162  1
  Al  Al19  1  0.328615  0.014165  0.328606  1
  Al  Al20  1  0.014162  0.328617  0.328612  1
  Al  Al21  1  0.328608  0.328616  0.328617  1
  Rh  Rh22  1  0.999997  0.999991  0.000004  1
  Rh  Rh23  1  0.001259  0.001266  0.498738  1
  Rh  Rh24  1  0.498741  0.001267  0.498736  1
  Rh  Rh25  1  0.001269  0.498732  0.498728  1
  Rh  Rh26  1  0.498740  0.498735  0.001269  1
  Rh  Rh27  1  0.001257  0.498735  0.001267  1
  Rh  Rh28  1  0.498736  0.001261  0.001261  1
