# generated using pymatgen
data_Tb4Dy2ErIrI12
_symmetry_space_group_name_H-M   'P 1'
_cell_length_a   9.81850043
_cell_length_b   9.81590679
_cell_length_c   9.82232759
_cell_angle_alpha   106.95715447
_cell_angle_beta   106.95211580
_cell_angle_gamma   106.92804188
_symmetry_Int_Tables_number   1
_chemical_formula_structural   Tb4Dy2ErIrI12
_chemical_formula_sum   'Tb4 Dy2 Er1 Ir1 I12'
_cell_volume   789.54351849
_cell_formula_units_Z   1
loop_
 _symmetry_equiv_pos_site_id
 _symmetry_equiv_pos_as_xyz
  1  'x, y, z'
loop_
 _atom_site_type_symbol
 _atom_site_label
 _atom_site_symmetry_multiplicity
 _atom_site_fract_x
 _atom_site_fract_y
 _atom_site_fract_z
 _atom_site_occupancy
  Tb  Tb0  1  0.094304  0.021526  0.296526  1
  Tb  Tb1  1  0.296827  0.094317  0.021941  1
  Tb  Tb2  1  0.021726  0.296839  0.094891  1
  Tb  Tb3  1  0.904718  0.977371  0.703087  1
  Dy  Dy4  1  0.704994  0.905550  0.977970  1
  Dy  Dy5  1  0.977696  0.704835  0.905923  1
  Er  Er6  1  0.499589  0.499800  0.499926  1
  Ir  Ir7  1  0.999884  0.999868  0.999984  1
  I  I8  1  0.069129  0.675488  0.223925  1
  I  I9  1  0.225097  0.069501  0.675874  1
  I  I10  1  0.675674  0.223989  0.069157  1
  I  I11  1  0.930790  0.325120  0.775283  1
  I  I12  1  0.774523  0.930487  0.323552  1
  I  I13  1  0.324360  0.774789  0.930594  1
  I  I14  1  0.464237  0.165264  0.387940  1
  I  I15  1  0.388012  0.464217  0.165294  1
  I  I16  1  0.165323  0.387996  0.464210  1
  I  I17  1  0.535779  0.834652  0.612605  1
  I  I18  1  0.612517  0.536547  0.834796  1
  I  I19  1  0.834819  0.611844  0.536518  1
