# generated using pymatgen
data_Sm2Si2Pt3
_symmetry_space_group_name_H-M   'P 1'
_cell_length_a   4.24602000
_cell_length_b   6.80435800
_cell_length_c   9.01050700
_cell_angle_alpha   90.00000000
_cell_angle_beta   90.00000000
_cell_angle_gamma   90.00000000
_symmetry_Int_Tables_number   1
_chemical_formula_structural   Sm2Si2Pt3
_chemical_formula_sum   'Sm4 Si4 Pt6'
_cell_volume   260.32652376
_cell_formula_units_Z   2
loop_
 _symmetry_equiv_pos_site_id
 _symmetry_equiv_pos_as_xyz
  1  'x, y, z'
loop_
 _atom_site_type_symbol
 _atom_site_label
 _atom_site_symmetry_multiplicity
 _atom_site_fract_x
 _atom_site_fract_y
 _atom_site_fract_z
 _atom_site_occupancy
  Sm  Sm0  1  0.000000  0.888359  0.329538  1
  Sm  Sm1  1  0.000000  0.111641  0.670462  1
  Sm  Sm2  1  0.000000  0.388359  0.170462  1
  Sm  Sm3  1  0.000000  0.611641  0.829538  1
  Si  Si4  1  0.500000  0.574216  0.360418  1
  Si  Si5  1  0.500000  0.425784  0.639582  1
  Si  Si6  1  0.500000  0.074216  0.139582  1
  Si  Si7  1  0.500000  0.925784  0.860418  1
  Pt  Pt8  1  0.500000  0.698271  0.091811  1
  Pt  Pt9  1  0.500000  0.301729  0.908189  1
  Pt  Pt10  1  0.500000  0.198271  0.408189  1
  Pt  Pt11  1  0.500000  0.801729  0.591811  1
  Pt  Pt12  1  0.000000  0.500000  0.500000  1
  Pt  Pt13  1  0.000000  0.000000  0.000000  1
