# generated using pymatgen
data_Cs13Ti2Tl3In3As10
_symmetry_space_group_name_H-M   'P 1'
_cell_length_a   9.88487092
_cell_length_b   9.91527489
_cell_length_c   14.20444636
_cell_angle_alpha   82.80954452
_cell_angle_beta   79.52330667
_cell_angle_gamma   64.37797890
_symmetry_Int_Tables_number   1
_chemical_formula_structural   Cs13Ti2Tl3In3As10
_chemical_formula_sum   'Cs13 Ti2 Tl3 In3 As10'
_cell_volume   1232.66694978
_cell_formula_units_Z   1
loop_
 _symmetry_equiv_pos_site_id
 _symmetry_equiv_pos_as_xyz
  1  'x, y, z'
loop_
 _atom_site_type_symbol
 _atom_site_label
 _atom_site_symmetry_multiplicity
 _atom_site_fract_x
 _atom_site_fract_y
 _atom_site_fract_z
 _atom_site_occupancy
  Cs  Cs0  1  0.499032  0.867612  0.356816  1
  Cs  Cs1  1  0.500332  0.133288  0.644629  1
  Cs  Cs2  1  0.855700  0.581504  0.882285  1
  Cs  Cs3  1  0.149431  0.417261  0.115232  1
  Cs  Cs4  1  0.091321  0.779499  0.430156  1
  Cs  Cs5  1  0.907487  0.219919  0.569312  1
  Cs  Cs6  1  0.743068  0.686369  0.595245  1
  Cs  Cs7  1  0.257850  0.315693  0.403005  1
  Cs  Cs8  1  0.499016  0.499196  0.997760  1
  Cs  Cs9  1  0.320110  0.928289  0.085382  1
  Cs  Cs10  1  0.677175  0.074545  0.911671  1
  Cs  Cs11  1  0.893454  0.861465  0.165534  1
  Cs  Cs12  1  0.110322  0.139306  0.833309  1
  Ti  Ti13  1  0.378246  0.737599  0.774179  1
  Ti  Ti14  1  0.622380  0.262786  0.224651  1
  Tl  Tl15  1  0.022294  0.817166  0.708456  1
  Tl  Tl16  1  0.975381  0.184473  0.292475  1
  Tl  Tl17  1  0.590283  0.446076  0.417799  1
  In  In18  1  0.389856  0.562686  0.600768  1
  In  In19  1  0.723869  0.537740  0.184248  1
  In  In20  1  0.277235  0.440319  0.828869  1
  As  As21  1  0.439653  0.543676  0.250756  1
  As  As22  1  0.559848  0.457407  0.746683  1
  As  As23  1  0.147846  0.742872  0.889825  1
  As  As24  1  0.857399  0.259443  0.107452  1
  As  As25  1  0.704872  0.132520  0.383747  1
  As  As26  1  0.294998  0.866694  0.612184  1
  As  As27  1  0.857418  0.518695  0.343487  1
  As  As28  1  0.150015  0.489158  0.644440  1
  As  As29  1  0.499474  0.859432  0.839410  1
  As  As30  1  0.504633  0.137311  0.160235  1
