# generated using pymatgen
data_Tb3Dy3(Er7Pb8)2
_symmetry_space_group_name_H-M   'P 1'
_cell_length_a   8.18268002
_cell_length_b   8.24646765
_cell_length_c   15.57485007
_cell_angle_alpha   90.04203574
_cell_angle_beta   89.99198873
_cell_angle_gamma   90.00180271
_symmetry_Int_Tables_number   1
_chemical_formula_structural   Tb3Dy3(Er7Pb8)2
_chemical_formula_sum   'Tb3 Dy3 Er14 Pb16'
_cell_volume   1050.96264984
_cell_formula_units_Z   1
loop_
 _symmetry_equiv_pos_site_id
 _symmetry_equiv_pos_as_xyz
  1  'x, y, z'
loop_
 _atom_site_type_symbol
 _atom_site_label
 _atom_site_symmetry_multiplicity
 _atom_site_fract_x
 _atom_site_fract_y
 _atom_site_fract_z
 _atom_site_occupancy
  Tb  Tb0  1  0.463303  0.676245  0.400257  1
  Tb  Tb1  1  0.963305  0.823779  0.099734  1
  Tb  Tb2  1  0.463032  0.675862  0.099462  1
  Dy  Dy3  1  0.962999  0.824164  0.400526  1
  Dy  Dy4  1  0.536430  0.323769  0.599521  1
  Dy  Dy5  1  0.036425  0.176240  0.900481  1
  Er  Er6  1  0.376821  0.842168  0.878323  1
  Er  Er7  1  0.876831  0.657840  0.621636  1
  Er  Er8  1  0.622785  0.157997  0.378741  1
  Er  Er9  1  0.122762  0.341969  0.121279  1
  Er  Er10  1  0.622684  0.158194  0.121074  1
  Er  Er11  1  0.122679  0.341808  0.378959  1
  Er  Er12  1  0.377075  0.842315  0.621736  1
  Er  Er13  1  0.877064  0.657668  0.878246  1
  Er  Er14  1  0.537989  0.324277  0.899641  1
  Er  Er15  1  0.038000  0.175733  0.600318  1
  Er  Er16  1  0.209180  0.504743  0.750026  1
  Er  Er17  1  0.709187  0.995257  0.749960  1
  Er  Er18  1  0.791007  0.495102  0.249897  1
  Er  Er19  1  0.290963  0.004880  0.250167  1
  Pb  Pb20  1  0.281607  0.034159  0.042805  1
  Pb  Pb21  1  0.781640  0.465899  0.457188  1
  Pb  Pb22  1  0.718733  0.966553  0.543030  1
  Pb  Pb23  1  0.218669  0.533394  0.956926  1
  Pb  Pb24  1  0.717142  0.965568  0.957108  1
  Pb  Pb25  1  0.217142  0.534429  0.542894  1
  Pb  Pb26  1  0.281563  0.034973  0.457938  1
  Pb  Pb27  1  0.781648  0.464966  0.042052  1
  Pb  Pb28  1  0.572021  0.625990  0.749840  1
  Pb  Pb29  1  0.072025  0.874026  0.750163  1
  Pb  Pb30  1  0.428045  0.373117  0.249991  1
  Pb  Pb31  1  0.928056  0.126847  0.250015  1
  Pb  Pb32  1  0.348968  0.154779  0.750168  1
  Pb  Pb33  1  0.848965  0.345215  0.749829  1
  Pb  Pb34  1  0.651670  0.845945  0.249645  1
  Pb  Pb35  1  0.151582  0.654130  0.250425  1
