# generated using pymatgen
data_Pr2Nd(As2Rh3)3
_symmetry_space_group_name_H-M   'P 1'
_cell_length_a   4.04755000
_cell_length_b   8.51157149
_cell_length_c   10.01067776
_cell_angle_alpha   107.11308362
_cell_angle_beta   90.00000000
_cell_angle_gamma   103.75480634
_symmetry_Int_Tables_number   1
_chemical_formula_structural   Pr2Nd(As2Rh3)3
_chemical_formula_sum   'Pr2 Nd1 As6 Rh9'
_cell_volume   319.24572842
_cell_formula_units_Z   1
loop_
 _symmetry_equiv_pos_site_id
 _symmetry_equiv_pos_as_xyz
  1  'x, y, z'
loop_
 _atom_site_type_symbol
 _atom_site_label
 _atom_site_symmetry_multiplicity
 _atom_site_fract_x
 _atom_site_fract_y
 _atom_site_fract_z
 _atom_site_occupancy
  Pr  Pr0  1  0.843773  0.687546  0.303040  1
  Pr  Pr1  1  0.156227  0.312454  0.696960  1
  Nd  Nd2  1  0.000000  0.000000  0.000000  1
  As  As3  1  0.803571  0.607141  0.870583  1
  As  As4  1  0.196429  0.392859  0.129417  1
  As  As5  1  0.537909  0.075819  0.779607  1
  As  As6  1  0.462091  0.924181  0.220393  1
  As  As7  1  0.637893  0.275786  0.453117  1
  As  As8  1  0.362107  0.724214  0.546883  1
  Rh  Rh9  1  0.956576  0.913154  0.670789  1
  Rh  Rh10  1  0.043424  0.086846  0.329211  1
  Rh  Rh11  1  0.780347  0.560694  0.606675  1
  Rh  Rh12  1  0.219653  0.439306  0.393325  1
  Rh  Rh13  1  0.375208  0.750417  0.793997  1
  Rh  Rh14  1  0.624792  0.249583  0.206003  1
  Rh  Rh15  1  0.500000  0.000000  0.500000  1
  Rh  Rh16  1  0.678717  0.357434  0.959505  1
  Rh  Rh17  1  0.321283  0.642566  0.040495  1
