# generated using pymatgen
data_YTh7(Si3Pd)4
_symmetry_space_group_name_H-M   'P 1'
_cell_length_a   8.23602400
_cell_length_b   8.23602486
_cell_length_c   8.47562500
_cell_angle_alpha   90.00000000
_cell_angle_beta   90.00000000
_cell_angle_gamma   119.99999656
_symmetry_Int_Tables_number   1
_chemical_formula_structural   YTh7(Si3Pd)4
_chemical_formula_sum   'Y1 Th7 Si12 Pd4'
_cell_volume   497.89484783
_cell_formula_units_Z   1
loop_
 _symmetry_equiv_pos_site_id
 _symmetry_equiv_pos_as_xyz
  1  'x, y, z'
loop_
 _atom_site_type_symbol
 _atom_site_label
 _atom_site_symmetry_multiplicity
 _atom_site_fract_x
 _atom_site_fract_y
 _atom_site_fract_z
 _atom_site_occupancy
  Y  Y0  1  0.000000  0.000000  0.750000  1
  Th  Th1  1  0.500843  0.001687  0.250000  1
  Th  Th2  1  0.499220  0.998441  0.750000  1
  Th  Th3  1  0.998313  0.499157  0.250000  1
  Th  Th4  1  0.001559  0.500780  0.750000  1
  Th  Th5  1  0.500843  0.499157  0.250000  1
  Th  Th6  1  0.499220  0.500780  0.750000  1
  Th  Th7  1  0.000000  0.000000  0.250000  1
  Si  Si8  1  0.165390  0.330779  0.998408  1
  Si  Si9  1  0.834661  0.669322  0.995735  1
  Si  Si10  1  0.669221  0.834610  0.998408  1
  Si  Si11  1  0.834661  0.669322  0.504265  1
  Si  Si12  1  0.330678  0.165339  0.995735  1
  Si  Si13  1  0.165390  0.330779  0.501592  1
  Si  Si14  1  0.165390  0.834610  0.998408  1
  Si  Si15  1  0.330678  0.165339  0.504265  1
  Si  Si16  1  0.834661  0.165339  0.995735  1
  Si  Si17  1  0.669221  0.834610  0.501592  1
  Si  Si18  1  0.834661  0.165339  0.504265  1
  Si  Si19  1  0.165390  0.834610  0.501592  1
  Pd  Pd20  1  0.333333  0.666667  0.003740  1
  Pd  Pd21  1  0.666667  0.333333  0.998742  1
  Pd  Pd22  1  0.666667  0.333333  0.501258  1
  Pd  Pd23  1  0.333333  0.666667  0.496260  1
