# generated using pymatgen
data_UMn(Ni7B2)3
_symmetry_space_group_name_H-M   'P 1'
_cell_length_a   7.45356196
_cell_length_b   7.45356209
_cell_length_c   7.45356200
_cell_angle_alpha   60.00000039
_cell_angle_beta   59.99999984
_cell_angle_gamma   60.00000044
_symmetry_Int_Tables_number   1
_chemical_formula_structural   UMn(Ni7B2)3
_chemical_formula_sum   'U1 Mn1 Ni21 B6'
_cell_volume   292.80373510
_cell_formula_units_Z   1
loop_
 _symmetry_equiv_pos_site_id
 _symmetry_equiv_pos_as_xyz
  1  'x, y, z'
loop_
 _atom_site_type_symbol
 _atom_site_label
 _atom_site_symmetry_multiplicity
 _atom_site_fract_x
 _atom_site_fract_y
 _atom_site_fract_z
 _atom_site_occupancy
  U  U0  1  0.250000  0.250000  0.250000  1
  Mn  Mn1  1  0.750000  0.750000  0.750000  1
  Ni  Ni2  1  0.339352  0.000300  0.660046  1
  Ni  Ni3  1  0.838542  0.387152  0.387152  1
  Ni  Ni4  1  0.618313  0.618313  0.618313  1
  Ni  Ni5  1  0.000300  0.339352  0.000300  1
  Ni  Ni6  1  0.339352  0.000300  0.000300  1
  Ni  Ni7  1  0.000300  0.339352  0.660046  1
  Ni  Ni8  1  0.660046  0.000300  0.339352  1
  Ni  Ni9  1  0.000300  0.000300  0.339352  1
  Ni  Ni10  1  0.339352  0.660046  0.000300  1
  Ni  Ni11  1  0.660046  0.339352  0.000300  1
  Ni  Ni12  1  0.000300  0.660046  0.339352  1
  Ni  Ni13  1  0.000300  0.000300  0.660046  1
  Ni  Ni14  1  0.145061  0.618313  0.618313  1
  Ni  Ni15  1  0.660046  0.000300  0.000300  1
  Ni  Ni16  1  0.000300  0.660046  0.000300  1
  Ni  Ni17  1  0.000000  0.000000  0.000000  1
  Ni  Ni18  1  0.387152  0.387152  0.387152  1
  Ni  Ni19  1  0.387152  0.838542  0.387152  1
  Ni  Ni20  1  0.618313  0.618313  0.145061  1
  Ni  Ni21  1  0.618313  0.145061  0.618313  1
  Ni  Ni22  1  0.387152  0.387152  0.838542  1
  B  B23  1  0.731366  0.268634  0.731366  1
  B  B24  1  0.268634  0.268634  0.731366  1
  B  B25  1  0.731366  0.731366  0.268634  1
  B  B26  1  0.731366  0.268634  0.268634  1
  B  B27  1  0.268634  0.731366  0.731366  1
  B  B28  1  0.268634  0.731366  0.268634  1
