# generated using pymatgen
data_Ti2Si2MoOs
_symmetry_space_group_name_H-M   'P 1'
_cell_length_a   7.54914194
_cell_length_b   7.56198526
_cell_length_c   7.55069536
_cell_angle_alpha   126.08079507
_cell_angle_beta   128.68418164
_cell_angle_gamma   77.61053334
_symmetry_Int_Tables_number   1
_chemical_formula_structural   Ti2Si2MoOs
_chemical_formula_sum   'Ti6 Si6 Mo3 Os3'
_cell_volume   263.75703719
_cell_formula_units_Z   3
loop_
 _symmetry_equiv_pos_site_id
 _symmetry_equiv_pos_as_xyz
  1  'x, y, z'
loop_
 _atom_site_type_symbol
 _atom_site_label
 _atom_site_symmetry_multiplicity
 _atom_site_fract_x
 _atom_site_fract_y
 _atom_site_fract_z
 _atom_site_occupancy
  Ti  Ti0  1  0.448131  0.413780  0.462784  1
  Ti  Ti1  1  0.552633  0.006947  0.952311  1
  Ti  Ti2  1  0.053575  0.008708  0.456873  1
  Ti  Ti3  1  0.951908  0.414680  0.965733  1
  Ti  Ti4  1  0.246538  0.589932  0.844595  1
  Ti  Ti5  1  0.746965  0.590774  0.342721  1
  Si  Si6  1  0.250988  0.000351  0.248814  1
  Si  Si7  1  0.752958  0.000848  0.748559  1
  Si  Si8  1  0.165996  0.674442  0.509550  1
  Si  Si9  1  0.829019  0.336850  0.504836  1
  Si  Si10  1  0.667100  0.675867  0.007345  1
  Si  Si11  1  0.331169  0.331771  0.003145  1
  Mo  Mo12  1  0.999285  0.262731  0.263054  1
  Mo  Mo13  1  0.501152  0.263906  0.762833  1
  Mo  Mo14  1  0.369062  0.739035  0.371017  1
  Os  Os15  1  0.631632  0.003421  0.369669  1
  Os  Os16  1  0.869234  0.742529  0.872391  1
  Os  Os17  1  0.132657  0.001430  0.871772  1
