# generated using pymatgen
data_La19Sm(Ga2Sn)4
_symmetry_space_group_name_H-M   'P 1'
_cell_length_a   8.18331900
_cell_length_b   8.18331900
_cell_length_c   14.91145300
_cell_angle_alpha   90.00000000
_cell_angle_beta   90.00000000
_cell_angle_gamma   90.00000000
_symmetry_Int_Tables_number   1
_chemical_formula_structural   La19Sm(Ga2Sn)4
_chemical_formula_sum   'La19 Sm1 Ga8 Sn4'
_cell_volume   998.57094658
_cell_formula_units_Z   1
loop_
 _symmetry_equiv_pos_site_id
 _symmetry_equiv_pos_as_xyz
  1  'x, y, z'
loop_
 _atom_site_type_symbol
 _atom_site_label
 _atom_site_symmetry_multiplicity
 _atom_site_fract_x
 _atom_site_fract_y
 _atom_site_fract_z
 _atom_site_occupancy
  La  La0  1  0.338800  0.320235  0.106306  1
  La  La1  1  0.837727  0.823076  0.893417  1
  La  La2  1  0.000000  0.500000  0.221795  1
  La  La3  1  0.837339  0.177428  0.393844  1
  La  La4  1  0.162273  0.176924  0.893417  1
  La  La5  1  0.661200  0.679765  0.106306  1
  La  La6  1  0.000000  0.500000  0.721523  1
  La  La7  1  0.825973  0.837276  0.607401  1
  La  La8  1  0.322572  0.337339  0.393844  1
  La  La9  1  0.179765  0.838800  0.106306  1
  La  La10  1  0.174027  0.162724  0.607401  1
  La  La11  1  0.820235  0.161200  0.106306  1
  La  La12  1  0.337276  0.674027  0.607401  1
  La  La13  1  0.500000  0.000000  0.283414  1
  La  La14  1  0.676924  0.337727  0.893417  1
  La  La15  1  0.662724  0.325973  0.607401  1
  La  La16  1  0.323076  0.662273  0.893417  1
  La  La17  1  0.162661  0.822572  0.393844  1
  La  La18  1  0.677428  0.662661  0.393844  1
  Sm  Sm19  1  0.500000  0.000000  0.767278  1
  Ga  Ga20  1  0.620681  0.378918  0.249851  1
  Ga  Ga21  1  0.873389  0.120143  0.751600  1
  Ga  Ga22  1  0.878918  0.879319  0.249851  1
  Ga  Ga23  1  0.126611  0.879857  0.751600  1
  Ga  Ga24  1  0.379857  0.373389  0.751600  1
  Ga  Ga25  1  0.121082  0.120681  0.249851  1
  Ga  Ga26  1  0.379319  0.621082  0.249851  1
  Ga  Ga27  1  0.620143  0.626611  0.751600  1
  Sn  Sn28  1  0.500000  0.000000  0.503294  1
  Sn  Sn29  1  0.000000  0.500000  0.002574  1
  Sn  Sn30  1  0.500000  0.000000  0.988750  1
  Sn  Sn31  1  0.000000  0.500000  0.501687  1
