# generated using pymatgen
data_Ce5Ho11(CdCo)4
_symmetry_space_group_name_H-M   'P 1'
_cell_length_a   9.40028487
_cell_length_b   9.50360414
_cell_length_c   9.50360319
_cell_angle_alpha   59.82482876
_cell_angle_beta   60.35898382
_cell_angle_gamma   60.35898401
_symmetry_Int_Tables_number   1
_chemical_formula_structural   Ce5Ho11(CdCo)4
_chemical_formula_sum   'Ce5 Ho11 Cd4 Co4'
_cell_volume   602.77271968
_cell_formula_units_Z   1
loop_
 _symmetry_equiv_pos_site_id
 _symmetry_equiv_pos_as_xyz
  1  'x, y, z'
loop_
 _atom_site_type_symbol
 _atom_site_label
 _atom_site_symmetry_multiplicity
 _atom_site_fract_x
 _atom_site_fract_y
 _atom_site_fract_z
 _atom_site_occupancy
  Ce  Ce0  1  0.339928  0.347623  0.347623  1
  Ce  Ce1  1  0.345072  0.342317  0.967540  1
  Ce  Ce2  1  0.345072  0.967540  0.342317  1
  Ce  Ce3  1  0.964829  0.347623  0.347623  1
  Ce  Ce4  1  0.815303  0.184697  0.184697  1
  Ho  Ho5  1  0.186956  0.813044  0.813044  1
  Ho  Ho6  1  0.190542  0.810049  0.185766  1
  Ho  Ho7  1  0.813643  0.185766  0.810049  1
  Ho  Ho8  1  0.190542  0.185766  0.810049  1
  Ho  Ho9  1  0.813643  0.810049  0.185766  1
  Ho  Ho10  1  0.934439  0.565561  0.565561  1
  Ho  Ho11  1  0.566807  0.933193  0.933193  1
  Ho  Ho12  1  0.563242  0.937102  0.561440  1
  Ho  Ho13  1  0.938216  0.561440  0.937102  1
  Ho  Ho14  1  0.563242  0.561440  0.937102  1
  Ho  Ho15  1  0.938216  0.937102  0.561440  1
  Cd  Cd16  1  0.581031  0.580873  0.580873  1
  Cd  Cd17  1  0.580365  0.582481  0.256789  1
  Cd  Cd18  1  0.580365  0.256789  0.582481  1
  Cd  Cd19  1  0.257223  0.580873  0.580873  1
  Co  Co20  1  0.118020  0.152235  0.152235  1
  Co  Co21  1  0.147899  0.143446  0.560757  1
  Co  Co22  1  0.147899  0.560757  0.143446  1
  Co  Co23  1  0.577510  0.152235  0.152235  1
