# generated using pymatgen
data_Pr18Er2Si15Ru
_symmetry_space_group_name_H-M   'P 1'
_cell_length_a   7.89540082
_cell_length_b   7.90612949
_cell_length_c   15.25135226
_cell_angle_alpha   90.23194514
_cell_angle_beta   89.76713064
_cell_angle_gamma   90.21508963
_symmetry_Int_Tables_number   1
_chemical_formula_structural   Pr18Er2Si15Ru
_chemical_formula_sum   'Pr18 Er2 Si15 Ru1'
_cell_volume   951.99853116
_cell_formula_units_Z   1
loop_
 _symmetry_equiv_pos_site_id
 _symmetry_equiv_pos_as_xyz
  1  'x, y, z'
loop_
 _atom_site_type_symbol
 _atom_site_label
 _atom_site_symmetry_multiplicity
 _atom_site_fract_x
 _atom_site_fract_y
 _atom_site_fract_z
 _atom_site_occupancy
  Pr  Pr0  1  0.824392  0.188209  0.749623  1
  Pr  Pr1  1  0.695842  0.689944  0.500838  1
  Pr  Pr2  1  0.372046  0.010900  0.448831  1
  Pr  Pr3  1  0.487014  0.879628  0.697916  1
  Pr  Pr4  1  0.510984  0.124333  0.197508  1
  Pr  Pr5  1  0.876353  0.487395  0.300024  1
  Pr  Pr6  1  0.127795  0.504740  0.799945  1
  Pr  Pr7  1  0.625509  0.988167  0.949513  1
  Pr  Pr8  1  0.006071  0.378076  0.550844  1
  Pr  Pr9  1  0.988465  0.626054  0.051683  1
  Pr  Pr10  1  0.133882  0.982455  0.874700  1
  Pr  Pr11  1  0.518228  0.631092  0.126111  1
  Pr  Pr12  1  0.471191  0.360966  0.629901  1
  Pr  Pr13  1  0.628224  0.515297  0.875139  1
  Pr  Pr14  1  0.374335  0.482135  0.371528  1
  Pr  Pr15  1  0.872386  0.021616  0.375704  1
  Pr  Pr16  1  0.981991  0.127844  0.124221  1
  Pr  Pr17  1  0.027627  0.881286  0.625979  1
  Er  Er18  1  0.308124  0.308787  0.999127  1
  Er  Er19  1  0.188363  0.810300  0.250257  1
  Si  Si20  1  0.331085  0.690353  0.953577  1
  Si  Si21  1  0.663609  0.303602  0.451952  1
  Si  Si22  1  0.693081  0.331909  0.048466  1
  Si  Si23  1  0.305119  0.668310  0.545706  1
  Si  Si24  1  0.810221  0.830352  0.204581  1
  Si  Si25  1  0.170240  0.192766  0.295376  1
  Si  Si26  1  0.832978  0.801846  0.799839  1
  Si  Si27  1  0.286796  0.922578  0.062052  1
  Si  Si28  1  0.574721  0.789122  0.309373  1
  Si  Si29  1  0.418369  0.211381  0.815869  1
  Si  Si30  1  0.779470  0.582198  0.691048  1
  Si  Si31  1  0.213059  0.424100  0.187065  1
  Si  Si32  1  0.703903  0.074582  0.558698  1
  Si  Si33  1  0.925155  0.287838  0.942621  1
  Si  Si34  1  0.082696  0.716908  0.436548  1
  Ru  Ru35  1  0.190677  0.172932  0.697837  1
