# generated using pymatgen
data_TbHoEr3(In2Pd)2
_symmetry_space_group_name_H-M   'P 1'
_cell_length_a   3.59966200
_cell_length_b   8.14054857
_cell_length_c   18.25054227
_cell_angle_alpha   89.95725700
_cell_angle_beta   90.00000000
_cell_angle_gamma   90.00000000
_symmetry_Int_Tables_number   1
_chemical_formula_structural   TbHoEr3(In2Pd)2
_chemical_formula_sum   'Tb2 Ho2 Er6 In8 Pd4'
_cell_volume   534.79956727
_cell_formula_units_Z   2
loop_
 _symmetry_equiv_pos_site_id
 _symmetry_equiv_pos_as_xyz
  1  'x, y, z'
loop_
 _atom_site_type_symbol
 _atom_site_label
 _atom_site_symmetry_multiplicity
 _atom_site_fract_x
 _atom_site_fract_y
 _atom_site_fract_z
 _atom_site_occupancy
  Tb  Tb0  1  0.000000  0.500000  0.500000  1
  Tb  Tb1  1  0.000000  0.000000  0.000000  1
  Ho  Ho2  1  0.000000  0.739422  0.280177  1
  Ho  Ho3  1  0.000000  0.260578  0.719823  1
  Er  Er4  1  0.000000  0.760566  0.780125  1
  Er  Er5  1  0.000000  0.239434  0.219875  1
  Er  Er6  1  0.000000  0.615640  0.083290  1
  Er  Er7  1  0.000000  0.384360  0.916710  1
  Er  Er8  1  0.000000  0.884294  0.583324  1
  Er  Er9  1  0.000000  0.115706  0.416676  1
  In  In10  1  0.500000  0.709141  0.931622  1
  In  In11  1  0.500000  0.290859  0.068378  1
  In  In12  1  0.500000  0.791032  0.431724  1
  In  In13  1  0.500000  0.208968  0.568276  1
  In  In14  1  0.500000  0.582571  0.650291  1
  In  In15  1  0.500000  0.417429  0.349709  1
  In  In16  1  0.500000  0.917780  0.150205  1
  In  In17  1  0.500000  0.082220  0.849795  1
  Pd  Pd18  1  0.500000  0.522906  0.195881  1
  Pd  Pd19  1  0.500000  0.477094  0.804119  1
  Pd  Pd20  1  0.500000  0.976120  0.696005  1
  Pd  Pd21  1  0.500000  0.023880  0.303995  1
