# generated using pymatgen
data_Hf3Zr(Co4As3)2
_symmetry_space_group_name_H-M   'P 1'
_cell_length_a   12.52711033
_cell_length_b   12.52711022
_cell_length_c   3.76357400
_cell_angle_alpha   90.00000000
_cell_angle_beta   90.00000000
_cell_angle_gamma   120.06993407
_symmetry_Int_Tables_number   1
_chemical_formula_structural   Hf3Zr(Co4As3)2
_chemical_formula_sum   'Hf6 Zr2 Co16 As12'
_cell_volume   511.12416341
_cell_formula_units_Z   2
loop_
 _symmetry_equiv_pos_site_id
 _symmetry_equiv_pos_as_xyz
  1  'x, y, z'
loop_
 _atom_site_type_symbol
 _atom_site_label
 _atom_site_symmetry_multiplicity
 _atom_site_fract_x
 _atom_site_fract_y
 _atom_site_fract_z
 _atom_site_occupancy
  Hf  Hf0  1  0.825766  0.825766  0.500000  1
  Hf  Hf1  1  0.442744  0.442744  0.000000  1
  Hf  Hf2  1  0.557520  0.999854  0.000000  1
  Hf  Hf3  1  0.333254  0.666547  0.000000  1
  Hf  Hf4  1  0.666547  0.333254  0.000000  1
  Hf  Hf5  1  0.999854  0.557520  0.000000  1
  Zr  Zr6  1  0.000011  0.175424  0.500000  1
  Zr  Zr7  1  0.175424  0.000011  0.500000  1
  Co  Co8  1  0.626457  0.821800  0.000000  1
  Co  Co9  1  0.374480  0.196093  0.000000  1
  Co  Co10  1  0.999604  0.718261  0.500000  1
  Co  Co11  1  0.281814  0.281814  0.500000  1
  Co  Co12  1  0.876022  0.356663  0.500000  1
  Co  Co13  1  0.718261  0.999604  0.500000  1
  Co  Co14  1  0.821800  0.626457  0.000000  1
  Co  Co15  1  0.178002  0.803817  0.000000  1
  Co  Co16  1  0.356663  0.876022  0.500000  1
  Co  Co17  1  0.123862  0.480620  0.500000  1
  Co  Co18  1  0.643482  0.519414  0.500000  1
  Co  Co19  1  0.998684  0.998684  0.000000  1
  Co  Co20  1  0.519414  0.643482  0.500000  1
  Co  Co21  1  0.480620  0.123862  0.500000  1
  Co  Co22  1  0.196093  0.374480  0.000000  1
  Co  Co23  1  0.803817  0.178002  0.000000  1
  As  As24  1  0.000064  0.346049  0.000000  1
  As  As25  1  0.825033  0.514030  0.500000  1
  As  As26  1  0.689149  0.174888  0.500000  1
  As  As27  1  0.175617  0.175617  0.000000  1
  As  As28  1  0.654912  0.654912  0.000000  1
  As  As29  1  0.823931  0.999586  0.000000  1
  As  As30  1  0.514030  0.825033  0.500000  1
  As  As31  1  0.174888  0.689149  0.500000  1
  As  As32  1  0.346049  0.000064  0.000000  1
  As  As33  1  0.485733  0.310815  0.500000  1
  As  As34  1  0.999586  0.823931  0.000000  1
  As  As35  1  0.310815  0.485733  0.500000  1
