# generated using pymatgen
data_Ce2YHo(SnRu)4
_symmetry_space_group_name_H-M   'P 1'
_cell_length_a   6.22760676
_cell_length_b   6.22760632
_cell_length_c   10.12281987
_cell_angle_alpha   78.58962815
_cell_angle_beta   78.58963145
_cell_angle_gamma   45.33971718
_symmetry_Int_Tables_number   1
_chemical_formula_structural   Ce2YHo(SnRu)4
_chemical_formula_sum   'Ce2 Y1 Ho1 Sn4 Ru4'
_cell_volume   272.75351693
_cell_formula_units_Z   1
loop_
 _symmetry_equiv_pos_site_id
 _symmetry_equiv_pos_as_xyz
  1  'x, y, z'
loop_
 _atom_site_type_symbol
 _atom_site_label
 _atom_site_symmetry_multiplicity
 _atom_site_fract_x
 _atom_site_fract_y
 _atom_site_fract_z
 _atom_site_occupancy
  Ce  Ce0  1  0.861546  0.861546  0.912127  1
  Ce  Ce1  1  0.139957  0.139957  0.087024  1
  Y  Y2  1  0.877037  0.877037  0.406867  1
  Ho  Ho3  1  0.121486  0.121486  0.593630  1
  Sn  Sn4  1  0.425549  0.425549  0.159889  1
  Sn  Sn5  1  0.404668  0.404668  0.643018  1
  Sn  Sn6  1  0.574988  0.574988  0.840120  1
  Sn  Sn7  1  0.594838  0.594838  0.358365  1
  Ru  Ru8  1  0.816582  0.816582  0.149106  1
  Ru  Ru9  1  0.196288  0.196288  0.307940  1
  Ru  Ru10  1  0.183249  0.183249  0.849265  1
  Ru  Ru11  1  0.803810  0.803810  0.692650  1
