# generated using pymatgen
data_Ac2GeAu3
_symmetry_space_group_name_H-M   'P 1'
_cell_length_a   4.08381500
_cell_length_b   4.68353500
_cell_length_c   8.30790500
_cell_angle_alpha   90.00000000
_cell_angle_beta   90.00000000
_cell_angle_gamma   90.00000000
_symmetry_Int_Tables_number   1
_chemical_formula_structural   Ac2GeAu3
_chemical_formula_sum   'Ac2 Ge1 Au3'
_cell_volume   158.90272752
_cell_formula_units_Z   1
loop_
 _symmetry_equiv_pos_site_id
 _symmetry_equiv_pos_as_xyz
  1  'x, y, z'
loop_
 _atom_site_type_symbol
 _atom_site_label
 _atom_site_symmetry_multiplicity
 _atom_site_fract_x
 _atom_site_fract_y
 _atom_site_fract_z
 _atom_site_occupancy
  Ac  Ac0  1  0.000000  0.000000  0.999305  1
  Ac  Ac1  1  0.000000  0.500000  0.501298  1
  Ge  Ge2  1  0.500000  0.000000  0.330101  1
  Au  Au3  1  0.500000  0.500000  0.838253  1
  Au  Au4  1  0.500000  0.500000  0.178287  1
  Au  Au5  1  0.500000  0.000000  0.652757  1
