# generated using pymatgen
data_PdBrF20
_symmetry_space_group_name_H-M   'P 1'
_cell_length_a   10.53249757
_cell_length_b   5.08625768
_cell_length_c   6.88544215
_cell_angle_alpha   88.83069586
_cell_angle_beta   90.14885739
_cell_angle_gamma   89.82751457
_symmetry_Int_Tables_number   1
_chemical_formula_structural   PdBrF20
_chemical_formula_sum   'Pd1 Br1 F20'
_cell_volume   368.78021133
_cell_formula_units_Z   1
loop_
 _symmetry_equiv_pos_site_id
 _symmetry_equiv_pos_as_xyz
  1  'x, y, z'
loop_
 _atom_site_type_symbol
 _atom_site_label
 _atom_site_symmetry_multiplicity
 _atom_site_fract_x
 _atom_site_fract_y
 _atom_site_fract_z
 _atom_site_occupancy
  Pd  Pd0  1  0.500000  0.500000  0.000000  1
  Br  Br1  1  0.000000  0.500000  0.500000  1
  F  F2  1  0.853878  0.783151  0.974877  1
  F  F3  1  0.361406  0.219570  0.523351  1
  F  F4  1  0.146122  0.216849  0.025123  1
  F  F5  1  0.638594  0.780430  0.476649  1
  F  F6  1  0.853041  0.007752  0.094787  1
  F  F7  1  0.351902  0.995245  0.403660  1
  F  F8  1  0.146959  0.992248  0.905213  1
  F  F9  1  0.648098  0.004755  0.596340  1
  F  F10  1  0.068542  0.645883  0.280769  1
  F  F11  1  0.575745  0.358731  0.229656  1
  F  F12  1  0.931458  0.354117  0.719231  1
  F  F13  1  0.424255  0.641269  0.770344  1
  F  F14  1  0.866576  0.380690  0.357854  1
  F  F15  1  0.359802  0.619563  0.146423  1
  F  F16  1  0.133424  0.619310  0.642146  1
  F  F17  1  0.640198  0.380437  0.853577  1
  F  F18  1  0.087217  0.198875  0.457859  1
  F  F19  1  0.584935  0.822835  0.041151  1
  F  F20  1  0.415065  0.177165  0.958849  1
  F  F21  1  0.912783  0.801125  0.542141  1
