# generated using pymatgen
data_Tb2Th2Pd5Pt7
_symmetry_space_group_name_H-M   'P 1'
_cell_length_a   5.90669900
_cell_length_b   5.90096489
_cell_length_c   9.70027900
_cell_angle_alpha   90.00000000
_cell_angle_beta   90.00000000
_cell_angle_gamma   120.03213277
_symmetry_Int_Tables_number   1
_chemical_formula_structural   Tb2Th2Pd5Pt7
_chemical_formula_sum   'Tb2 Th2 Pd5 Pt7'
_cell_volume   292.71300374
_cell_formula_units_Z   1
loop_
 _symmetry_equiv_pos_site_id
 _symmetry_equiv_pos_as_xyz
  1  'x, y, z'
loop_
 _atom_site_type_symbol
 _atom_site_label
 _atom_site_symmetry_multiplicity
 _atom_site_fract_x
 _atom_site_fract_y
 _atom_site_fract_z
 _atom_site_occupancy
  Tb  Tb0  1  0.333746  0.667493  0.250000  1
  Tb  Tb1  1  0.666614  0.333227  0.750000  1
  Th  Th2  1  0.999917  0.999833  0.499998  1
  Th  Th3  1  0.999917  0.999833  0.000002  1
  Pd  Pd4  1  0.347943  0.173604  0.250000  1
  Pd  Pd5  1  0.825661  0.173604  0.250000  1
  Pd  Pd6  1  0.174824  0.349647  0.750000  1
  Pd  Pd7  1  0.651353  0.825605  0.750000  1
  Pd  Pd8  1  0.174253  0.825605  0.750000  1
  Pt  Pt9  1  0.500114  0.500155  0.500144  1
  Pt  Pt10  1  0.499949  0.999898  0.500500  1
  Pt  Pt11  1  0.000041  0.500155  0.500144  1
  Pt  Pt12  1  0.500114  0.500155  0.999856  1
  Pt  Pt13  1  0.499949  0.999898  0.999500  1
  Pt  Pt14  1  0.000041  0.500155  0.999856  1
  Pt  Pt15  1  0.825564  0.651129  0.250000  1
