# generated using pymatgen
data_Tb8Dy12Si15Hg
_symmetry_space_group_name_H-M   'P 1'
_cell_length_a   7.44060981
_cell_length_b   7.72847294
_cell_length_c   14.71775093
_cell_angle_alpha   89.87506535
_cell_angle_beta   89.22980410
_cell_angle_gamma   90.07966452
_symmetry_Int_Tables_number   1
_chemical_formula_structural   Tb8Dy12Si15Hg
_chemical_formula_sum   'Tb8 Dy12 Si15 Hg1'
_cell_volume   846.25833713
_cell_formula_units_Z   1
loop_
 _symmetry_equiv_pos_site_id
 _symmetry_equiv_pos_as_xyz
  1  'x, y, z'
loop_
 _atom_site_type_symbol
 _atom_site_label
 _atom_site_symmetry_multiplicity
 _atom_site_fract_x
 _atom_site_fract_y
 _atom_site_fract_z
 _atom_site_occupancy
  Tb  Tb0  1  0.020529  0.181814  0.099013  1
  Tb  Tb1  1  0.979089  0.819038  0.903097  1
  Tb  Tb2  1  0.479425  0.683254  0.903013  1
  Tb  Tb3  1  0.982970  0.827564  0.599374  1
  Tb  Tb4  1  0.519215  0.316374  0.097921  1
  Tb  Tb5  1  0.013404  0.175102  0.397682  1
  Tb  Tb6  1  0.517208  0.315852  0.398647  1
  Tb  Tb7  1  0.490709  0.688847  0.600920  1
  Dy  Dy8  1  0.162538  0.511151  0.752563  1
  Dy  Dy9  1  0.837873  0.488962  0.251061  1
  Dy  Dy10  1  0.338232  0.009086  0.249905  1
  Dy  Dy11  1  0.664559  0.987814  0.750712  1
  Dy  Dy12  1  0.338480  0.169664  0.625783  1
  Dy  Dy13  1  0.665422  0.822739  0.376215  1
  Dy  Dy14  1  0.168104  0.679041  0.372988  1
  Dy  Dy15  1  0.672344  0.820482  0.122584  1
  Dy  Dy16  1  0.826541  0.325257  0.622909  1
  Dy  Dy17  1  0.326692  0.178692  0.877956  1
  Dy  Dy18  1  0.825875  0.319427  0.878147  1
  Dy  Dy19  1  0.172301  0.679552  0.123039  1
  Si  Si20  1  0.036104  0.109641  0.751822  1
  Si  Si21  1  0.963737  0.894992  0.247970  1
  Si  Si22  1  0.465693  0.603398  0.247855  1
  Si  Si23  1  0.534516  0.396843  0.752071  1
  Si  Si24  1  0.276974  0.874481  0.752080  1
  Si  Si25  1  0.721174  0.126254  0.247828  1
  Si  Si26  1  0.222117  0.370898  0.247885  1
  Si  Si27  1  0.779894  0.626724  0.753082  1
  Si  Si28  1  0.832616  0.532255  0.458360  1
  Si  Si29  1  0.334996  0.967612  0.459652  1
  Si  Si30  1  0.847189  0.531240  0.038371  1
  Si  Si31  1  0.663013  0.033710  0.537930  1
  Si  Si32  1  0.150818  0.467689  0.962583  1
  Si  Si33  1  0.652096  0.030087  0.961125  1
  Si  Si34  1  0.346715  0.969552  0.039564  1
  Hg  Hg35  1  0.170838  0.464912  0.538294  1
