# generated using pymatgen
data_Sr2Sn(S2O7)4
_symmetry_space_group_name_H-M   'P 1'
_cell_length_a   13.24635700
_cell_length_b   7.09495065
_cell_length_c   13.59632100
_cell_angle_alpha   65.86382484
_cell_angle_beta   90.00000000
_cell_angle_gamma   90.00000000
_symmetry_Int_Tables_number   1
_chemical_formula_structural   Sr2Sn(S2O7)4
_chemical_formula_sum   'Sr4 Sn2 S16 O56'
_cell_volume   1166.10155675
_cell_formula_units_Z   2
loop_
 _symmetry_equiv_pos_site_id
 _symmetry_equiv_pos_as_xyz
  1  'x, y, z'
loop_
 _atom_site_type_symbol
 _atom_site_label
 _atom_site_symmetry_multiplicity
 _atom_site_fract_x
 _atom_site_fract_y
 _atom_site_fract_z
 _atom_site_occupancy
  Sr  Sr0  1  0.865565  0.142974  0.158930  1
  Sr  Sr1  1  0.634435  0.142974  0.658930  1
  Sr  Sr2  1  0.134435  0.857026  0.841070  1
  Sr  Sr3  1  0.365565  0.857026  0.341070  1
  Sn  Sn4  1  0.500000  0.500000  0.000000  1
  Sn  Sn5  1  0.000000  0.500000  0.500000  1
  S  S6  1  0.656598  0.209431  0.939016  1
  S  S7  1  0.843402  0.209431  0.439016  1
  S  S8  1  0.343402  0.790569  0.060984  1
  S  S9  1  0.156598  0.790569  0.560984  1
  S  S10  1  0.971825  0.686336  0.101551  1
  S  S11  1  0.528175  0.686336  0.601551  1
  S  S12  1  0.028175  0.313664  0.898449  1
  S  S13  1  0.471825  0.313664  0.398449  1
  S  S14  1  0.728854  0.619384  0.908082  1
  S  S15  1  0.771146  0.619384  0.408082  1
  S  S16  1  0.271146  0.380616  0.091918  1
  S  S17  1  0.228854  0.380616  0.591918  1
  S  S18  1  0.586641  0.229950  0.237159  1
  S  S19  1  0.913359  0.229950  0.737159  1
  S  S20  1  0.413359  0.770050  0.762841  1
  S  S21  1  0.086641  0.770050  0.262841  1
  O  O22  1  0.628464  0.129191  0.862011  1
  O  O23  1  0.871536  0.129191  0.362011  1
  O  O24  1  0.371536  0.870809  0.137989  1
  O  O25  1  0.128464  0.870809  0.637989  1
  O  O26  1  0.586026  0.270869  0.342417  1
  O  O27  1  0.913974  0.270869  0.842417  1
  O  O28  1  0.413974  0.729131  0.657583  1
  O  O29  1  0.086026  0.729131  0.157583  1
  O  O30  1  0.534541  0.040646  0.253690  1
  O  O31  1  0.965459  0.040646  0.753690  1
  O  O32  1  0.465459  0.959354  0.746310  1
  O  O33  1  0.034541  0.959354  0.246310  1
  O  O34  1  0.565220  0.233082  0.000492  1
  O  O35  1  0.934780  0.233082  0.500492  1
  O  O36  1  0.434780  0.766918  0.999508  1
  O  O37  1  0.065220  0.766918  0.499508  1
  O  O38  1  0.897486  0.808511  0.127403  1
  O  O39  1  0.602514  0.808511  0.627403  1
  O  O40  1  0.102514  0.191489  0.872597  1
  O  O41  1  0.397486  0.191489  0.372597  1
  O  O42  1  0.688824  0.449174  0.861250  1
  O  O43  1  0.811176  0.449174  0.361250  1
  O  O44  1  0.311176  0.550826  0.138750  1
  O  O45  1  0.188824  0.550826  0.638750  1
  O  O46  1  0.526772  0.417204  0.160248  1
  O  O47  1  0.973228  0.417204  0.660248  1
  O  O48  1  0.473228  0.582796  0.839752  1
  O  O49  1  0.026772  0.582796  0.339752  1
  O  O50  1  0.737859  0.111901  0.012240  1
  O  O51  1  0.762141  0.111901  0.512240  1
  O  O52  1  0.262141  0.888099  0.987760  1
  O  O53  1  0.237859  0.888099  0.487760  1
  O  O54  1  0.638053  0.649225  0.968507  1
  O  O55  1  0.861947  0.649225  0.468507  1
  O  O56  1  0.361947  0.350775  0.031493  1
  O  O57  1  0.138053  0.350775  0.531493  1
  O  O58  1  0.746121  0.799199  0.810839  1
  O  O59  1  0.753879  0.799199  0.310839  1
  O  O60  1  0.253879  0.200801  0.189161  1
  O  O61  1  0.246121  0.200801  0.689161  1
  O  O62  1  0.810770  0.526694  0.980866  1
  O  O63  1  0.689230  0.526694  0.480866  1
  O  O64  1  0.189230  0.473306  0.019134  1
  O  O65  1  0.310770  0.473306  0.519134  1
  O  O66  1  0.959251  0.465302  0.156744  1
  O  O67  1  0.540749  0.465302  0.656744  1
  O  O68  1  0.040749  0.534698  0.843256  1
  O  O69  1  0.459251  0.534698  0.343256  1
  O  O70  1  0.003874  0.764196  0.990659  1
  O  O71  1  0.496126  0.764196  0.490659  1
  O  O72  1  0.996126  0.235804  0.009341  1
  O  O73  1  0.503874  0.235804  0.509341  1
  O  O74  1  0.691084  0.244494  0.205126  1
  O  O75  1  0.808916  0.244494  0.705126  1
  O  O76  1  0.308916  0.755506  0.794874  1
  O  O77  1  0.191084  0.755506  0.294874  1
