# generated using pymatgen
data_TbTm2Cd3Si2Au
_symmetry_space_group_name_H-M   'P 1'
_cell_length_a   7.22309085
_cell_length_b   7.22309067
_cell_length_c   4.30921900
_cell_angle_alpha   90.00000000
_cell_angle_beta   90.00000000
_cell_angle_gamma   120.10183566
_symmetry_Int_Tables_number   1
_chemical_formula_structural   TbTm2Cd3Si2Au
_chemical_formula_sum   'Tb1 Tm2 Cd3 Si2 Au1'
_cell_volume   194.50410394
_cell_formula_units_Z   1
loop_
 _symmetry_equiv_pos_site_id
 _symmetry_equiv_pos_as_xyz
  1  'x, y, z'
loop_
 _atom_site_type_symbol
 _atom_site_label
 _atom_site_symmetry_multiplicity
 _atom_site_fract_x
 _atom_site_fract_y
 _atom_site_fract_z
 _atom_site_occupancy
  Tb  Tb0  1  0.417292  0.417292  0.000000  1
  Tm  Tm1  1  0.583865  0.000593  0.000000  1
  Tm  Tm2  1  0.000593  0.583865  0.000000  1
  Cd  Cd3  1  0.255770  0.999522  0.500000  1
  Cd  Cd4  1  0.999522  0.255770  0.500000  1
  Cd  Cd5  1  0.744680  0.744680  0.500000  1
  Si  Si6  1  0.332474  0.667861  0.500000  1
  Si  Si7  1  0.667861  0.332474  0.500000  1
  Au  Au8  1  0.997943  0.997943  0.000000  1
