# generated using pymatgen
data_Dy8Y2Si5Pb
_symmetry_space_group_name_H-M   'P 1'
_cell_length_a   8.53653000
_cell_length_b   8.56846157
_cell_length_c   6.42049000
_cell_angle_alpha   90.00000000
_cell_angle_beta   90.00000000
_cell_angle_gamma   119.88008713
_symmetry_Int_Tables_number   1
_chemical_formula_structural   Dy8Y2Si5Pb
_chemical_formula_sum   'Dy8 Y2 Si5 Pb1'
_cell_volume   407.19883819
_cell_formula_units_Z   1
loop_
 _symmetry_equiv_pos_site_id
 _symmetry_equiv_pos_as_xyz
  1  'x, y, z'
loop_
 _atom_site_type_symbol
 _atom_site_label
 _atom_site_symmetry_multiplicity
 _atom_site_fract_x
 _atom_site_fract_y
 _atom_site_fract_z
 _atom_site_occupancy
  Dy  Dy0  1  0.998670  0.242765  0.250000  1
  Dy  Dy1  1  0.755822  0.757250  0.250000  1
  Dy  Dy2  1  0.240605  0.252986  0.750000  1
  Dy  Dy3  1  0.240666  0.000100  0.250000  1
  Dy  Dy4  1  0.674791  0.343528  0.004002  1
  Dy  Dy5  1  0.331268  0.656371  0.496029  1
  Dy  Dy6  1  0.331268  0.656371  0.003971  1
  Dy  Dy7  1  0.674791  0.343528  0.495998  1
  Y  Y8  1  0.987780  0.747235  0.750000  1
  Y  Y9  1  0.766383  0.000061  0.750000  1
  Si  Si10  1  0.393548  0.391998  0.250000  1
  Si  Si11  1  0.001495  0.607915  0.250000  1
  Si  Si12  1  0.998483  0.394316  0.750000  1
  Si  Si13  1  0.604013  0.605562  0.750000  1
  Si  Si14  1  0.605914  0.999956  0.250000  1
  Pb  Pb15  1  0.394503  0.000055  0.750000  1
