# generated using pymatgen
data_Y6Co17P12Ru
_symmetry_space_group_name_H-M   'P 1'
_cell_length_a   3.70658400
_cell_length_b   10.53802100
_cell_length_c   12.23373200
_cell_angle_alpha   90.00000000
_cell_angle_beta   90.00000000
_cell_angle_gamma   90.00000000
_symmetry_Int_Tables_number   1
_chemical_formula_structural   Y6Co17P12Ru
_chemical_formula_sum   'Y6 Co17 P12 Ru1'
_cell_volume   477.85030631
_cell_formula_units_Z   1
loop_
 _symmetry_equiv_pos_site_id
 _symmetry_equiv_pos_as_xyz
  1  'x, y, z'
loop_
 _atom_site_type_symbol
 _atom_site_label
 _atom_site_symmetry_multiplicity
 _atom_site_fract_x
 _atom_site_fract_y
 _atom_site_fract_z
 _atom_site_occupancy
  Y  Y0  1  0.000000  0.500000  0.524232  1
  Y  Y1  1  0.500000  0.000000  0.478654  1
  Y  Y2  1  0.500000  0.817223  0.206890  1
  Y  Y3  1  0.500000  0.182777  0.206890  1
  Y  Y4  1  0.000000  0.683158  0.793818  1
  Y  Y5  1  0.000000  0.316842  0.793818  1
  Co  Co6  1  0.000000  0.000000  0.840274  1
  Co  Co7  1  0.500000  0.500000  0.704196  1
  Co  Co8  1  0.000000  0.000000  0.295424  1
  Co  Co9  1  0.000000  0.500000  0.987306  1
  Co  Co10  1  0.500000  0.000000  0.013897  1
  Co  Co11  1  0.500000  0.332157  0.991400  1
  Co  Co12  1  0.500000  0.667843  0.991400  1
  Co  Co13  1  0.000000  0.166446  0.005354  1
  Co  Co14  1  0.000000  0.833554  0.005354  1
  Co  Co15  1  0.500000  0.297388  0.430329  1
  Co  Co16  1  0.500000  0.702612  0.430329  1
  Co  Co17  1  0.000000  0.202988  0.568865  1
  Co  Co18  1  0.000000  0.797012  0.568865  1
  Co  Co19  1  0.500000  0.879503  0.709324  1
  Co  Co20  1  0.500000  0.120497  0.709324  1
  Co  Co21  1  0.000000  0.620405  0.291676  1
  Co  Co22  1  0.000000  0.379595  0.291676  1
  P  P23  1  0.500000  0.500000  0.882319  1
  P  P24  1  0.000000  0.000000  0.116601  1
  P  P25  1  0.500000  0.500000  0.349667  1
  P  P26  1  0.000000  0.000000  0.656334  1
  P  P27  1  0.500000  0.310593  0.616266  1
  P  P28  1  0.500000  0.689407  0.616266  1
  P  P29  1  0.000000  0.188504  0.384276  1
  P  P30  1  0.000000  0.811496  0.384276  1
  P  P31  1  0.500000  0.849229  0.892336  1
  P  P32  1  0.500000  0.150771  0.892336  1
  P  P33  1  0.000000  0.655079  0.105416  1
  P  P34  1  0.000000  0.344921  0.105416  1
  Ru  Ru35  1  0.500000  0.500000  0.159197  1
