# generated using pymatgen
data_CaSnSb11(OsPd)2
_symmetry_space_group_name_H-M   'P 1'
_cell_length_a   8.20749372
_cell_length_b   8.23001397
_cell_length_c   8.24178380
_cell_angle_alpha   109.80804351
_cell_angle_beta   109.64537244
_cell_angle_gamma   109.10639323
_symmetry_Int_Tables_number   1
_chemical_formula_structural   CaSnSb11(OsPd)2
_chemical_formula_sum   'Ca1 Sn1 Sb11 Os2 Pd2'
_cell_volume   427.77096730
_cell_formula_units_Z   1
loop_
 _symmetry_equiv_pos_site_id
 _symmetry_equiv_pos_as_xyz
  1  'x, y, z'
loop_
 _atom_site_type_symbol
 _atom_site_label
 _atom_site_symmetry_multiplicity
 _atom_site_fract_x
 _atom_site_fract_y
 _atom_site_fract_z
 _atom_site_occupancy
  Ca  Ca0  1  0.999471  0.000704  0.000576  1
  Sn  Sn1  1  0.846203  0.661830  0.500880  1
  Sb  Sb2  1  0.151327  0.338697  0.497404  1
  Sb  Sb3  1  0.149031  0.654885  0.813492  1
  Sb  Sb4  1  0.847695  0.346151  0.186842  1
  Sb  Sb5  1  0.664635  0.504321  0.848095  1
  Sb  Sb6  1  0.339949  0.496652  0.153164  1
  Sb  Sb7  1  0.663308  0.813140  0.160093  1
  Sb  Sb8  1  0.336520  0.184385  0.840534  1
  Sb  Sb9  1  0.505163  0.847300  0.656689  1
  Sb  Sb10  1  0.496515  0.153973  0.343386  1
  Sb  Sb11  1  0.178684  0.842173  0.337618  1
  Sb  Sb12  1  0.820121  0.156610  0.662513  1
  Os  Os13  1  0.002078  0.498757  0.000441  1
  Os  Os14  1  0.001286  0.003744  0.499108  1
  Pd  Pd15  1  0.497570  0.498596  0.499569  1
  Pd  Pd16  1  0.500446  0.998083  0.999596  1
