# generated using pymatgen
data_Y4TcOs6Ru
_symmetry_space_group_name_H-M   'P 1'
_cell_length_a   5.25535506
_cell_length_b   5.36992654
_cell_length_c   9.03187719
_cell_angle_alpha   89.99999695
_cell_angle_beta   90.02028705
_cell_angle_gamma   120.72382121
_symmetry_Int_Tables_number   1
_chemical_formula_structural   Y4TcOs6Ru
_chemical_formula_sum   'Y4 Tc1 Os6 Ru1'
_cell_volume   219.11140156
_cell_formula_units_Z   1
loop_
 _symmetry_equiv_pos_site_id
 _symmetry_equiv_pos_as_xyz
  1  'x, y, z'
loop_
 _atom_site_type_symbol
 _atom_site_label
 _atom_site_symmetry_multiplicity
 _atom_site_fract_x
 _atom_site_fract_y
 _atom_site_fract_z
 _atom_site_occupancy
  Y  Y0  1  0.332161  0.666081  0.434165  1
  Y  Y1  1  0.661832  0.330916  0.565205  1
  Y  Y2  1  0.661754  0.330877  0.934699  1
  Y  Y3  1  0.332541  0.666271  0.066251  1
  Tc  Tc4  1  0.670702  0.835351  0.749542  1
  Os  Os5  1  0.991477  0.995738  0.499123  1
  Os  Os6  1  0.831989  0.170082  0.250519  1
  Os  Os7  1  0.831989  0.661907  0.250519  1
  Os  Os8  1  0.346421  0.173211  0.250710  1
  Os  Os9  1  0.173879  0.827946  0.749351  1
  Os  Os10  1  0.173879  0.345933  0.749351  1
  Ru  Ru11  1  0.991377  0.995688  0.000564  1
