# generated using pymatgen
data_Nd6HfCo17P12
_symmetry_space_group_name_H-M   'P 1'
_cell_length_a   3.76952300
_cell_length_b   10.71998900
_cell_length_c   12.50035300
_cell_angle_alpha   90.00000000
_cell_angle_beta   90.00000000
_cell_angle_gamma   90.00000000
_symmetry_Int_Tables_number   1
_chemical_formula_structural   Nd6HfCo17P12
_chemical_formula_sum   'Nd6 Hf1 Co17 P12'
_cell_volume   505.12982815
_cell_formula_units_Z   1
loop_
 _symmetry_equiv_pos_site_id
 _symmetry_equiv_pos_as_xyz
  1  'x, y, z'
loop_
 _atom_site_type_symbol
 _atom_site_label
 _atom_site_symmetry_multiplicity
 _atom_site_fract_x
 _atom_site_fract_y
 _atom_site_fract_z
 _atom_site_occupancy
  Nd  Nd0  1  0.000000  0.500000  0.527918  1
  Nd  Nd1  1  0.500000  0.000000  0.478566  1
  Nd  Nd2  1  0.500000  0.820583  0.207512  1
  Nd  Nd3  1  0.500000  0.179417  0.207512  1
  Nd  Nd4  1  0.000000  0.683366  0.795637  1
  Nd  Nd5  1  0.000000  0.316634  0.795637  1
  Hf  Hf6  1  0.500000  0.500000  0.151309  1
  Co  Co7  1  0.000000  0.000000  0.838821  1
  Co  Co8  1  0.500000  0.500000  0.704667  1
  Co  Co9  1  0.000000  0.000000  0.294918  1
  Co  Co10  1  0.000000  0.500000  0.985086  1
  Co  Co11  1  0.500000  0.000000  0.012297  1
  Co  Co12  1  0.500000  0.327600  0.990335  1
  Co  Co13  1  0.500000  0.672400  0.990335  1
  Co  Co14  1  0.000000  0.161811  0.001249  1
  Co  Co15  1  0.000000  0.838189  0.001249  1
  Co  Co16  1  0.500000  0.295259  0.433678  1
  Co  Co17  1  0.500000  0.704741  0.433678  1
  Co  Co18  1  0.000000  0.202011  0.570772  1
  Co  Co19  1  0.000000  0.797989  0.570772  1
  Co  Co20  1  0.500000  0.882321  0.709233  1
  Co  Co21  1  0.500000  0.117679  0.709233  1
  Co  Co22  1  0.000000  0.619954  0.296155  1
  Co  Co23  1  0.000000  0.380046  0.296155  1
  P  P24  1  0.500000  0.500000  0.884832  1
  P  P25  1  0.000000  0.000000  0.112934  1
  P  P26  1  0.500000  0.500000  0.355751  1
  P  P27  1  0.000000  0.000000  0.659311  1
  P  P28  1  0.500000  0.304682  0.615871  1
  P  P29  1  0.500000  0.695318  0.615871  1
  P  P30  1  0.000000  0.193152  0.388301  1
  P  P31  1  0.000000  0.806848  0.388301  1
  P  P32  1  0.500000  0.853760  0.890918  1
  P  P33  1  0.500000  0.146240  0.890918  1
  P  P34  1  0.000000  0.662479  0.097132  1
  P  P35  1  0.000000  0.337521  0.097132  1
