# generated using pymatgen
data_Tb15TmInAg3Rh4
_symmetry_space_group_name_H-M   'P 1'
_cell_length_a   9.57284012
_cell_length_b   9.61884770
_cell_length_c   9.58150100
_cell_angle_alpha   60.12836472
_cell_angle_beta   59.97007747
_cell_angle_gamma   60.02032074
_symmetry_Int_Tables_number   1
_chemical_formula_structural   Tb15TmInAg3Rh4
_chemical_formula_sum   'Tb15 Tm1 In1 Ag3 Rh4'
_cell_volume   624.41051049
_cell_formula_units_Z   1
loop_
 _symmetry_equiv_pos_site_id
 _symmetry_equiv_pos_as_xyz
  1  'x, y, z'
loop_
 _atom_site_type_symbol
 _atom_site_label
 _atom_site_symmetry_multiplicity
 _atom_site_fract_x
 _atom_site_fract_y
 _atom_site_fract_z
 _atom_site_occupancy
  Tb  Tb0  1  0.810927  0.189096  0.810087  1
  Tb  Tb1  1  0.187836  0.188481  0.811842  1
  Tb  Tb2  1  0.649196  0.053729  0.648537  1
  Tb  Tb3  1  0.067343  0.061177  0.435740  1
  Tb  Tb4  1  0.438181  0.436126  0.062846  1
  Tb  Tb5  1  0.648875  0.649335  0.648162  1
  Tb  Tb6  1  0.810927  0.189096  0.189890  1
  Tb  Tb7  1  0.186913  0.812625  0.812624  1
  Tb  Tb8  1  0.056354  0.647660  0.647994  1
  Tb  Tb9  1  0.438447  0.061988  0.063440  1
  Tb  Tb10  1  0.438447  0.061988  0.436125  1
  Tb  Tb11  1  0.066949  0.436645  0.061480  1
  Tb  Tb12  1  0.648875  0.649335  0.053627  1
  Tb  Tb13  1  0.186913  0.812625  0.187839  1
  Tb  Tb14  1  0.066949  0.436645  0.434926  1
  Tm  Tm15  1  0.812076  0.809228  0.189348  1
  In  In16  1  0.738354  0.421097  0.420274  1
  Ag  Ag17  1  0.416137  0.417609  0.417945  1
  Ag  Ag18  1  0.416137  0.417609  0.748309  1
  Ag  Ag19  1  0.416449  0.748671  0.417440  1
  Rh  Rh20  1  0.856391  0.428673  0.857468  1
  Rh  Rh21  1  0.856642  0.856791  0.860011  1
  Rh  Rh22  1  0.856642  0.856791  0.426556  1
  Rh  Rh23  1  0.428040  0.856980  0.857491  1
