# generated using pymatgen
data_Hf3Zr2P7Pd9
_symmetry_space_group_name_H-M   'P 1'
_cell_length_a   3.80181300
_cell_length_b   6.55978751
_cell_length_c   13.71244992
_cell_angle_alpha   76.16120571
_cell_angle_beta   90.00000000
_cell_angle_gamma   90.00000000
_symmetry_Int_Tables_number   1
_chemical_formula_structural   Hf3Zr2P7Pd9
_chemical_formula_sum   'Hf3 Zr2 P7 Pd9'
_cell_volume   332.04926971
_cell_formula_units_Z   1
loop_
 _symmetry_equiv_pos_site_id
 _symmetry_equiv_pos_as_xyz
  1  'x, y, z'
loop_
 _atom_site_type_symbol
 _atom_site_label
 _atom_site_symmetry_multiplicity
 _atom_site_fract_x
 _atom_site_fract_y
 _atom_site_fract_z
 _atom_site_occupancy
  Hf  Hf0  1  0.000000  0.530124  0.000000  1
  Hf  Hf1  1  0.000000  0.821896  0.176198  1
  Hf  Hf2  1  0.000000  0.998096  0.823803  1
  Zr  Zr3  1  0.500001  0.076534  0.458593  1
  Zr  Zr4  1  0.500001  0.535126  0.541407  1
  P  P5  1  0.000000  0.130656  0.000000  1
  P  P6  1  0.500001  0.558215  0.135165  1
  P  P7  1  0.500001  0.962799  0.287263  1
  P  P8  1  0.000000  0.379419  0.429942  1
  P  P9  1  0.000000  0.809362  0.570058  1
  P  P10  1  0.500001  0.250062  0.712737  1
  P  P11  1  0.500001  0.693380  0.864835  1
  Pd  Pd12  1  0.500001  0.884401  0.000000  1
  Pd  Pd13  1  0.500001  0.202326  0.116800  1
  Pd  Pd14  1  0.000000  0.213261  0.279560  1
  Pd  Pd15  1  0.500001  0.536112  0.313621  1
  Pd  Pd16  1  0.000000  0.779217  0.391616  1
  Pd  Pd17  1  0.000000  0.170831  0.608385  1
  Pd  Pd18  1  0.500001  0.849732  0.686379  1
  Pd  Pd19  1  0.000000  0.492822  0.720440  1
  Pd  Pd20  1  0.500001  0.319125  0.883200  1
