# generated using pymatgen
data_Hf9V2Re2N3
_symmetry_space_group_name_H-M   'P 1'
_cell_length_a   8.54300200
_cell_length_b   8.55585898
_cell_length_c   8.44909600
_cell_angle_alpha   90.00000000
_cell_angle_beta   90.00000000
_cell_angle_gamma   119.95030318
_symmetry_Int_Tables_number   1
_chemical_formula_structural   Hf9V2Re2N3
_chemical_formula_sum   'Hf18 V4 Re4 N6'
_cell_volume   535.09669618
_cell_formula_units_Z   2
loop_
 _symmetry_equiv_pos_site_id
 _symmetry_equiv_pos_as_xyz
  1  'x, y, z'
loop_
 _atom_site_type_symbol
 _atom_site_label
 _atom_site_symmetry_multiplicity
 _atom_site_fract_x
 _atom_site_fract_y
 _atom_site_fract_z
 _atom_site_occupancy
  Hf  Hf0  1  0.454067  0.908136  0.250000  1
  Hf  Hf1  1  0.545933  0.091864  0.750000  1
  Hf  Hf2  1  0.090426  0.543530  0.250000  1
  Hf  Hf3  1  0.909574  0.456470  0.750000  1
  Hf  Hf4  1  0.453103  0.543530  0.250000  1
  Hf  Hf5  1  0.546897  0.456470  0.750000  1
  Hf  Hf6  1  0.204654  0.409308  0.558981  1
  Hf  Hf7  1  0.795346  0.590692  0.441019  1
  Hf  Hf8  1  0.592119  0.796139  0.557519  1
  Hf  Hf9  1  0.795346  0.590692  0.058981  1
  Hf  Hf10  1  0.407881  0.203861  0.442481  1
  Hf  Hf11  1  0.204654  0.409308  0.941019  1
  Hf  Hf12  1  0.204020  0.796139  0.557519  1
  Hf  Hf13  1  0.407881  0.203861  0.057519  1
  Hf  Hf14  1  0.795980  0.203861  0.442481  1
  Hf  Hf15  1  0.592119  0.796139  0.942481  1
  Hf  Hf16  1  0.795980  0.203861  0.057519  1
  Hf  Hf17  1  0.204020  0.796139  0.942481  1
  V  V18  1  0.104380  0.208760  0.250000  1
  V  V19  1  0.895620  0.791240  0.750000  1
  V  V20  1  0.000000  0.000000  0.000000  1
  V  V21  1  0.000000  0.000000  0.500000  1
  Re  Re22  1  0.785220  0.892331  0.250000  1
  Re  Re23  1  0.214780  0.107669  0.750000  1
  Re  Re24  1  0.107110  0.892331  0.250000  1
  Re  Re25  1  0.892890  0.107669  0.750000  1
  N  N26  1  0.500000  0.000000  0.000000  1
  N  N27  1  0.000000  0.500000  0.000000  1
  N  N28  1  0.500000  0.000000  0.500000  1
  N  N29  1  0.500000  0.500000  0.000000  1
  N  N30  1  0.000000  0.500000  0.500000  1
  N  N31  1  0.500000  0.500000  0.500000  1
