# generated using pymatgen
data_Ho8Cd3PbAu8
_symmetry_space_group_name_H-M   'P 1'
_cell_length_a   8.02725300
_cell_length_b   8.02725300
_cell_length_c   7.30840300
_cell_angle_alpha   90.00000000
_cell_angle_beta   90.00000000
_cell_angle_gamma   90.00000000
_symmetry_Int_Tables_number   1
_chemical_formula_structural   Ho8Cd3PbAu8
_chemical_formula_sum   'Ho8 Cd3 Pb1 Au8'
_cell_volume   470.93003465
_cell_formula_units_Z   1
loop_
 _symmetry_equiv_pos_site_id
 _symmetry_equiv_pos_as_xyz
  1  'x, y, z'
loop_
 _atom_site_type_symbol
 _atom_site_label
 _atom_site_symmetry_multiplicity
 _atom_site_fract_x
 _atom_site_fract_y
 _atom_site_fract_z
 _atom_site_occupancy
  Ho  Ho0  1  0.843408  0.161229  0.501032  1
  Ho  Ho1  1  0.156592  0.838771  0.501032  1
  Ho  Ho2  1  0.338771  0.343408  0.998968  1
  Ho  Ho3  1  0.661229  0.656592  0.998968  1
  Ho  Ho4  1  0.683640  0.679379  0.500789  1
  Ho  Ho5  1  0.316360  0.320621  0.500789  1
  Ho  Ho6  1  0.179379  0.816360  0.999211  1
  Ho  Ho7  1  0.820621  0.183640  0.999211  1
  Cd  Cd8  1  0.500000  0.000000  0.250000  1
  Cd  Cd9  1  0.000000  0.500000  0.750000  1
  Cd  Cd10  1  0.500000  0.000000  0.750000  1
  Pb  Pb11  1  0.000000  0.500000  0.250000  1
  Au  Au12  1  0.621746  0.366409  0.273449  1
  Au  Au13  1  0.378254  0.633591  0.273449  1
  Au  Au14  1  0.130334  0.127142  0.772507  1
  Au  Au15  1  0.869666  0.872858  0.772507  1
  Au  Au16  1  0.372858  0.630334  0.727493  1
  Au  Au17  1  0.627142  0.369666  0.727493  1
  Au  Au18  1  0.866409  0.878254  0.226551  1
  Au  Au19  1  0.133591  0.121746  0.226551  1
