# generated using pymatgen
data_Dy2Ho5Th(CdNi)2
_symmetry_space_group_name_H-M   'P 1'
_cell_length_a   9.57266384
_cell_length_b   9.57269991
_cell_length_c   9.58322700
_cell_angle_alpha   59.96336059
_cell_angle_beta   59.96373735
_cell_angle_gamma   59.95272659
_symmetry_Int_Tables_number   1
_chemical_formula_structural   Dy2Ho5Th(CdNi)2
_chemical_formula_sum   'Dy4 Ho10 Th2 Cd4 Ni4'
_cell_volume   620.39644998
_cell_formula_units_Z   2
loop_
 _symmetry_equiv_pos_site_id
 _symmetry_equiv_pos_as_xyz
  1  'x, y, z'
loop_
 _atom_site_type_symbol
 _atom_site_label
 _atom_site_symmetry_multiplicity
 _atom_site_fract_x
 _atom_site_fract_y
 _atom_site_fract_z
 _atom_site_occupancy
  Dy  Dy0  1  0.814130  0.186764  0.815886  1
  Dy  Dy1  1  0.186764  0.814130  0.183219  1
  Dy  Dy2  1  0.814466  0.814466  0.185534  1
  Dy  Dy3  1  0.184898  0.184898  0.815102  1
  Ho  Ho4  1  0.597956  0.201127  0.600373  1
  Ho  Ho5  1  0.201127  0.597956  0.600546  1
  Ho  Ho6  1  0.062294  0.439149  0.437758  1
  Ho  Ho7  1  0.439149  0.062294  0.060799  1
  Ho  Ho8  1  0.439133  0.062286  0.437777  1
  Ho  Ho9  1  0.062286  0.439133  0.060805  1
  Ho  Ho10  1  0.438439  0.438439  0.061561  1
  Ho  Ho11  1  0.061660  0.061660  0.438340  1
  Ho  Ho12  1  0.186878  0.814008  0.815757  1
  Ho  Ho13  1  0.814008  0.186878  0.183357  1
  Th  Th14  1  0.594194  0.594302  0.600505  1
  Th  Th15  1  0.594302  0.594194  0.210999  1
  Cd  Cd16  1  0.832975  0.832890  0.829376  1
  Cd  Cd17  1  0.832890  0.832975  0.504758  1
  Cd  Cd18  1  0.834241  0.504996  0.830421  1
  Cd  Cd19  1  0.504996  0.834241  0.830342  1
  Ni  Ni20  1  0.393632  0.393546  0.390999  1
  Ni  Ni21  1  0.393546  0.393632  0.821824  1
  Ni  Ni22  1  0.396243  0.819798  0.392034  1
  Ni  Ni23  1  0.819798  0.396243  0.391926  1
