# generated using pymatgen
data_NdY(IO4)2
_symmetry_space_group_name_H-M   'P 1'
_cell_length_a   5.69480168
_cell_length_b   5.69922400
_cell_length_c   11.12681360
_cell_angle_alpha   90.00000000
_cell_angle_beta   88.60060660
_cell_angle_gamma   90.00000000
_symmetry_Int_Tables_number   1
_chemical_formula_structural   NdY(IO4)2
_chemical_formula_sum   'Nd2 Y2 I4 O16'
_cell_volume   361.02360248
_cell_formula_units_Z   2
loop_
 _symmetry_equiv_pos_site_id
 _symmetry_equiv_pos_as_xyz
  1  'x, y, z'
loop_
 _atom_site_type_symbol
 _atom_site_label
 _atom_site_symmetry_multiplicity
 _atom_site_fract_x
 _atom_site_fract_y
 _atom_site_fract_z
 _atom_site_occupancy
  Nd  Nd0  1  0.494819  0.314371  0.891934  1
  Nd  Nd1  1  0.505181  0.814371  0.108066  1
  Y  Y2  1  0.017279  0.816818  0.903649  1
  Y  Y3  1  0.982721  0.316818  0.096351  1
  I  I4  1  0.002327  0.327387  0.640481  1
  I  I5  1  0.997673  0.827387  0.359519  1
  I  I6  1  0.489155  0.825656  0.636990  1
  I  I7  1  0.510845  0.325656  0.363010  1
  O  O8  1  0.240132  0.067144  0.010102  1
  O  O9  1  0.759868  0.567144  0.989898  1
  O  O10  1  0.249577  0.565648  0.008507  1
  O  O11  1  0.750423  0.065648  0.991493  1
  O  O12  1  0.126667  0.440554  0.780772  1
  O  O13  1  0.873333  0.940554  0.219228  1
  O  O14  1  0.353063  0.929285  0.780128  1
  O  O15  1  0.646937  0.429285  0.219872  1
  O  O16  1  0.844755  0.082754  0.721270  1
  O  O17  1  0.155245  0.582754  0.278730  1
  O  O18  1  0.639471  0.576508  0.712279  1
  O  O19  1  0.360529  0.076508  0.287721  1
  O  O20  1  0.248399  0.164895  0.567289  1
  O  O21  1  0.751601  0.664895  0.432711  1
  O  O22  1  0.251669  0.665802  0.562150  1
  O  O23  1  0.748331  0.165802  0.437850  1
