# generated using pymatgen
data_La3TiCuSe7
_symmetry_space_group_name_H-M   'P 1'
_cell_length_a   10.80779523
_cell_length_b   10.80626368
_cell_length_c   6.19321101
_cell_angle_alpha   89.99592906
_cell_angle_beta   89.99910314
_cell_angle_gamma   120.02796673
_symmetry_Int_Tables_number   1
_chemical_formula_structural   La3TiCuSe7
_chemical_formula_sum   'La6 Ti2 Cu2 Se14'
_cell_volume   626.23410672
_cell_formula_units_Z   2
loop_
 _symmetry_equiv_pos_site_id
 _symmetry_equiv_pos_as_xyz
  1  'x, y, z'
loop_
 _atom_site_type_symbol
 _atom_site_label
 _atom_site_symmetry_multiplicity
 _atom_site_fract_x
 _atom_site_fract_y
 _atom_site_fract_z
 _atom_site_occupancy
  La  La0  1  0.128605  0.356145  0.252060  1
  La  La1  1  0.227198  0.871180  0.251852  1
  La  La2  1  0.643724  0.772315  0.251750  1
  La  La3  1  0.871296  0.643855  0.751760  1
  La  La4  1  0.772680  0.128879  0.751466  1
  La  La5  1  0.356302  0.227697  0.751737  1
  Ti  Ti6  1  0.666843  0.333569  0.163053  1
  Ti  Ti7  1  0.333313  0.666441  0.662825  1
  Cu  Cu8  1  0.999466  0.999408  0.275741  1
  Cu  Cu9  1  0.000589  0.000589  0.775737  1
  Se  Se10  1  0.518214  0.098711  0.018593  1
  Se  Se11  1  0.580403  0.481980  0.018485  1
  Se  Se12  1  0.901610  0.419686  0.018491  1
  Se  Se13  1  0.333269  0.666588  0.046939  1
  Se  Se14  1  0.838559  0.090433  0.265272  1
  Se  Se15  1  0.251485  0.161059  0.265540  1
  Se  Se16  1  0.909275  0.747893  0.265533  1
  Se  Se17  1  0.419671  0.517917  0.518419  1
  Se  Se18  1  0.481792  0.901304  0.518542  1
  Se  Se19  1  0.098464  0.580362  0.518631  1
  Se  Se20  1  0.666727  0.333440  0.547066  1
  Se  Se21  1  0.090634  0.252044  0.765493  1
  Se  Se22  1  0.748469  0.838973  0.765553  1
  Se  Se23  1  0.161409  0.909531  0.765460  1
