# generated using pymatgen
data_Al2Zn(Ni10B3)2
_symmetry_space_group_name_H-M   'P 1'
_cell_length_a   7.39724741
_cell_length_b   7.39724727
_cell_length_c   7.39724700
_cell_angle_alpha   59.99999672
_cell_angle_beta   59.99999734
_cell_angle_gamma   60.00000019
_symmetry_Int_Tables_number   1
_chemical_formula_structural   Al2Zn(Ni10B3)2
_chemical_formula_sum   'Al2 Zn1 Ni20 B6'
_cell_volume   286.21697268
_cell_formula_units_Z   1
loop_
 _symmetry_equiv_pos_site_id
 _symmetry_equiv_pos_as_xyz
  1  'x, y, z'
loop_
 _atom_site_type_symbol
 _atom_site_label
 _atom_site_symmetry_multiplicity
 _atom_site_fract_x
 _atom_site_fract_y
 _atom_site_fract_z
 _atom_site_occupancy
  Al  Al0  1  0.250000  0.250000  0.250000  1
  Al  Al1  1  0.750000  0.750000  0.750000  1
  Zn  Zn2  1  0.000000  0.000000  0.000000  1
  Ni  Ni3  1  0.382711  0.382711  0.382711  1
  Ni  Ni4  1  0.617289  0.617289  0.617289  1
  Ni  Ni5  1  0.382711  0.382711  0.851866  1
  Ni  Ni6  1  0.382711  0.851866  0.382711  1
  Ni  Ni7  1  0.617289  0.617289  0.148134  1
  Ni  Ni8  1  0.617289  0.148134  0.617289  1
  Ni  Ni9  1  0.851866  0.382711  0.382711  1
  Ni  Ni10  1  0.148134  0.617289  0.617289  1
  Ni  Ni11  1  0.338893  0.000000  0.000000  1
  Ni  Ni12  1  0.661107  0.000000  0.000000  1
  Ni  Ni13  1  0.000000  0.338893  0.661107  1
  Ni  Ni14  1  0.000000  0.661107  0.338893  1
  Ni  Ni15  1  0.000000  0.338893  0.000000  1
  Ni  Ni16  1  0.661107  0.000000  0.338893  1
  Ni  Ni17  1  0.000000  0.661107  0.000000  1
  Ni  Ni18  1  0.338893  0.000000  0.661107  1
  Ni  Ni19  1  0.000000  0.000000  0.338893  1
  Ni  Ni20  1  0.000000  0.000000  0.661107  1
  Ni  Ni21  1  0.661107  0.338893  0.000000  1
  Ni  Ni22  1  0.338893  0.661107  0.000000  1
  B  B23  1  0.726403  0.273597  0.273597  1
  B  B24  1  0.273597  0.726403  0.726403  1
  B  B25  1  0.273597  0.726403  0.273597  1
  B  B26  1  0.726403  0.273597  0.726403  1
  B  B27  1  0.273597  0.273597  0.726403  1
  B  B28  1  0.726403  0.726403  0.273597  1
