# generated using pymatgen
data_MgV2(Ni10B3)2
_symmetry_space_group_name_H-M   'P 1'
_cell_length_a   7.40762112
_cell_length_b   7.40762102
_cell_length_c   7.40825201
_cell_angle_alpha   60.00251238
_cell_angle_beta   60.00251246
_cell_angle_gamma   60.00148468
_symmetry_Int_Tables_number   1
_chemical_formula_structural   MgV2(Ni10B3)2
_chemical_formula_sum   'Mg1 V2 Ni20 B6'
_cell_volume   287.46146258
_cell_formula_units_Z   1
loop_
 _symmetry_equiv_pos_site_id
 _symmetry_equiv_pos_as_xyz
  1  'x, y, z'
loop_
 _atom_site_type_symbol
 _atom_site_label
 _atom_site_symmetry_multiplicity
 _atom_site_fract_x
 _atom_site_fract_y
 _atom_site_fract_z
 _atom_site_occupancy
  Mg  Mg0  1  0.749981  0.749981  0.750121  1
  V  V1  1  0.000002  0.000002  0.999991  1
  V  V2  1  0.250009  0.250009  0.249880  1
  Ni  Ni3  1  0.612503  0.612503  0.162506  1
  Ni  Ni4  1  0.612465  0.162501  0.612541  1
  Ni  Ni5  1  0.162501  0.612465  0.612541  1
  Ni  Ni6  1  0.612487  0.612487  0.612524  1
  Ni  Ni7  1  0.378997  0.378997  0.863004  1
  Ni  Ni8  1  0.379034  0.863013  0.378935  1
  Ni  Ni9  1  0.863013  0.379034  0.378935  1
  Ni  Ni10  1  0.379015  0.379015  0.378952  1
  Ni  Ni11  1  0.001503  0.001503  0.337276  1
  Ni  Ni12  1  0.659743  0.001520  0.337224  1
  Ni  Ni13  1  0.001520  0.659743  0.337224  1
  Ni  Ni14  1  0.659684  0.337341  0.001494  1
  Ni  Ni15  1  0.001497  0.337342  0.001509  1
  Ni  Ni16  1  0.001484  0.337260  0.659771  1
  Ni  Ni17  1  0.337341  0.659684  0.001494  1
  Ni  Ni18  1  0.337260  0.001484  0.659771  1
  Ni  Ni19  1  0.337342  0.001497  0.001509  1
  Ni  Ni20  1  0.001457  0.001457  0.659757  1
  Ni  Ni21  1  0.001489  0.659669  0.001494  1
  Ni  Ni22  1  0.659669  0.001489  0.001494  1
  B  B23  1  0.729553  0.729553  0.270396  1
  B  B24  1  0.270484  0.729576  0.270422  1
  B  B25  1  0.729576  0.270484  0.270422  1
  B  B26  1  0.270449  0.270449  0.729619  1
  B  B27  1  0.729526  0.270417  0.729597  1
  B  B28  1  0.270417  0.729526  0.729597  1
