# generated using pymatgen
data_TbPr3(In2Pd3)4
_symmetry_space_group_name_H-M   'P 1'
_cell_length_a   4.67184400
_cell_length_b   9.97908461
_cell_length_c   10.41256572
_cell_angle_alpha   89.90283305
_cell_angle_beta   90.00000000
_cell_angle_gamma   90.00000000
_symmetry_Int_Tables_number   1
_chemical_formula_structural   TbPr3(In2Pd3)4
_chemical_formula_sum   'Tb1 Pr3 In8 Pd12'
_cell_volume   485.44068115
_cell_formula_units_Z   1
loop_
 _symmetry_equiv_pos_site_id
 _symmetry_equiv_pos_as_xyz
  1  'x, y, z'
loop_
 _atom_site_type_symbol
 _atom_site_label
 _atom_site_symmetry_multiplicity
 _atom_site_fract_x
 _atom_site_fract_y
 _atom_site_fract_z
 _atom_site_occupancy
  Tb  Tb0  1  0.750000  0.944464  0.775878  1
  Pr  Pr1  1  0.250000  0.445950  0.729537  1
  Pr  Pr2  1  0.250000  0.054576  0.228815  1
  Pr  Pr3  1  0.750000  0.554744  0.270879  1
  In  In4  1  0.250000  0.885000  0.515003  1
  In  In5  1  0.250000  0.615918  0.013728  1
  In  In6  1  0.750000  0.114808  0.489050  1
  In  In7  1  0.750000  0.383844  0.984882  1
  In  In8  1  0.250000  0.159562  0.894663  1
  In  In9  1  0.250000  0.338400  0.397140  1
  In  In10  1  0.750000  0.838686  0.101842  1
  In  In11  1  0.750000  0.664134  0.604822  1
  Pd  Pd12  1  0.250000  0.139133  0.624318  1
  Pd  Pd13  1  0.250000  0.357243  0.122129  1
  Pd  Pd14  1  0.750000  0.857446  0.377365  1
  Pd  Pd15  1  0.750000  0.646131  0.877083  1
  Pd  Pd16  1  0.250000  0.747940  0.740183  1
  Pd  Pd17  1  0.250000  0.757986  0.239987  1
  Pd  Pd18  1  0.750000  0.256802  0.259408  1
  Pd  Pd19  1  0.750000  0.237135  0.759583  1
  Pd  Pd20  1  0.250000  0.895075  0.969905  1
  Pd  Pd21  1  0.250000  0.606145  0.474301  1
  Pd  Pd22  1  0.750000  0.103580  0.022765  1
  Pd  Pd23  1  0.750000  0.395299  0.526734  1
