# generated using pymatgen
data_La3Pr(Al5Pt3)4
_symmetry_space_group_name_H-M   'P 1'
_cell_length_a   4.16728600
_cell_length_b   7.42334021
_cell_length_c   20.83031460
_cell_angle_alpha   90.02749267
_cell_angle_beta   90.00000000
_cell_angle_gamma   90.00000000
_symmetry_Int_Tables_number   1
_chemical_formula_structural   La3Pr(Al5Pt3)4
_chemical_formula_sum   'La3 Pr1 Al20 Pt12'
_cell_volume   644.38949377
_cell_formula_units_Z   1
loop_
 _symmetry_equiv_pos_site_id
 _symmetry_equiv_pos_as_xyz
  1  'x, y, z'
loop_
 _atom_site_type_symbol
 _atom_site_label
 _atom_site_symmetry_multiplicity
 _atom_site_fract_x
 _atom_site_fract_y
 _atom_site_fract_z
 _atom_site_occupancy
  La  La0  1  0.250000  0.117901  0.640014  1
  La  La1  1  0.750000  0.882195  0.359946  1
  La  La2  1  0.250000  0.382088  0.140025  1
  Pr  Pr3  1  0.750000  0.617853  0.859996  1
  Al  Al4  1  0.750000  0.355010  0.383500  1
  Al  Al5  1  0.750000  0.886677  0.982688  1
  Al  Al6  1  0.750000  0.688881  0.200870  1
  Al  Al7  1  0.250000  0.868596  0.491776  1
  Al  Al8  1  0.250000  0.631216  0.991356  1
  Al  Al9  1  0.250000  0.312378  0.799412  1
  Al  Al10  1  0.750000  0.075966  0.208621  1
  Al  Al11  1  0.250000  0.644783  0.616641  1
  Al  Al12  1  0.250000  0.575963  0.291373  1
  Al  Al13  1  0.250000  0.188959  0.299199  1
  Al  Al14  1  0.750000  0.145424  0.883549  1
  Al  Al15  1  0.250000  0.923130  0.791501  1
  Al  Al16  1  0.750000  0.368770  0.008138  1
  Al  Al17  1  0.750000  0.612696  0.482904  1
  Al  Al18  1  0.750000  0.131411  0.508265  1
  Al  Al19  1  0.250000  0.112762  0.016928  1
  Al  Al20  1  0.250000  0.855194  0.116441  1
  Al  Al21  1  0.250000  0.387317  0.517099  1
  Al  Al22  1  0.750000  0.424200  0.708848  1
  Al  Al23  1  0.750000  0.810894  0.700899  1
  Pt  Pt24  1  0.750000  0.383874  0.262875  1
  Pt  Pt25  1  0.250000  0.883784  0.237114  1
  Pt  Pt26  1  0.250000  0.616355  0.737259  1
  Pt  Pt27  1  0.750000  0.116082  0.762986  1
  Pt  Pt28  1  0.250000  0.164392  0.427924  1
  Pt  Pt29  1  0.750000  0.422908  0.584366  1
  Pt  Pt30  1  0.750000  0.077116  0.084272  1
  Pt  Pt31  1  0.250000  0.922369  0.915534  1
  Pt  Pt32  1  0.750000  0.835586  0.572099  1
  Pt  Pt33  1  0.250000  0.335571  0.927834  1
  Pt  Pt34  1  0.750000  0.664500  0.072098  1
  Pt  Pt35  1  0.250000  0.577201  0.415649  1
