# generated using pymatgen
data_Li4HoP12Ir19
_symmetry_space_group_name_H-M   'P 1'
_cell_length_a   12.58717460
_cell_length_b   12.58717369
_cell_length_c   3.91910900
_cell_angle_alpha   90.00000000
_cell_angle_beta   90.00000000
_cell_angle_gamma   120.09327531
_symmetry_Int_Tables_number   1
_chemical_formula_structural   Li4HoP12Ir19
_chemical_formula_sum   'Li4 Ho1 P12 Ir19'
_cell_volume   537.23647736
_cell_formula_units_Z   1
loop_
 _symmetry_equiv_pos_site_id
 _symmetry_equiv_pos_as_xyz
  1  'x, y, z'
loop_
 _atom_site_type_symbol
 _atom_site_label
 _atom_site_symmetry_multiplicity
 _atom_site_fract_x
 _atom_site_fract_y
 _atom_site_fract_z
 _atom_site_occupancy
  Li  Li0  1  0.334272  0.666603  0.000000  1
  Li  Li1  1  0.666603  0.334272  0.000000  1
  Li  Li2  1  0.822295  0.998851  0.500000  1
  Li  Li3  1  0.998851  0.822295  0.500000  1
  Ho  Ho4  1  0.175709  0.175709  0.500000  1
  P  P5  1  0.175521  0.992908  0.000000  1
  P  P6  1  0.992908  0.175521  0.000000  1
  P  P7  1  0.820125  0.820125  0.000000  1
  P  P8  1  0.176305  0.489211  0.500000  1
  P  P9  1  0.512517  0.688979  0.500000  1
  P  P10  1  0.313093  0.824089  0.500000  1
  P  P11  1  0.688979  0.512517  0.500000  1
  P  P12  1  0.824089  0.313093  0.500000  1
  P  P13  1  0.489211  0.176305  0.500000  1
  P  P14  1  0.641407  0.000260  0.000000  1
  P  P15  1  0.000260  0.641407  0.000000  1
  P  P16  1  0.359778  0.359778  0.000000  1
  Ir  Ir17  1  0.460113  0.004114  0.000000  1
  Ir  Ir18  1  0.004114  0.460113  0.000000  1
  Ir  Ir19  1  0.541689  0.541689  0.000000  1
  Ir  Ir20  1  0.359544  0.491767  0.500000  1
  Ir  Ir21  1  0.510249  0.870904  0.500000  1
  Ir  Ir22  1  0.132144  0.640659  0.500000  1
  Ir  Ir23  1  0.870904  0.510249  0.500000  1
  Ir  Ir24  1  0.640659  0.132144  0.500000  1
  Ir  Ir25  1  0.491767  0.359544  0.500000  1
  Ir  Ir26  1  0.179959  0.372550  0.000000  1
  Ir  Ir27  1  0.623563  0.806027  0.000000  1
  Ir  Ir28  1  0.195473  0.817260  0.000000  1
  Ir  Ir29  1  0.806027  0.623563  0.000000  1
  Ir  Ir30  1  0.817260  0.195473  0.000000  1
  Ir  Ir31  1  0.372550  0.179959  0.000000  1
  Ir  Ir32  1  0.291006  0.000811  0.500000  1
  Ir  Ir33  1  0.000811  0.291006  0.500000  1
  Ir  Ir34  1  0.709684  0.709684  0.500000  1
  Ir  Ir35  1  0.000563  0.000563  0.000000  1
