# generated using pymatgen
data_Sc12Re3Si12Tc
_symmetry_space_group_name_H-M   'P 1'
_cell_length_a   3.85531600
_cell_length_b   10.62684466
_cell_length_c   11.87814817
_cell_angle_alpha   90.03537592
_cell_angle_beta   90.00000000
_cell_angle_gamma   90.00000000
_symmetry_Int_Tables_number   1
_chemical_formula_structural   Sc12Re3Si12Tc
_chemical_formula_sum   'Sc12 Re3 Si12 Tc1'
_cell_volume   486.64578758
_cell_formula_units_Z   1
loop_
 _symmetry_equiv_pos_site_id
 _symmetry_equiv_pos_as_xyz
  1  'x, y, z'
loop_
 _atom_site_type_symbol
 _atom_site_label
 _atom_site_symmetry_multiplicity
 _atom_site_fract_x
 _atom_site_fract_y
 _atom_site_fract_z
 _atom_site_occupancy
  Sc  Sc0  1  0.250000  0.875994  0.015421  1
  Sc  Sc1  1  0.250000  0.624017  0.515369  1
  Sc  Sc2  1  0.750000  0.124194  0.984748  1
  Sc  Sc3  1  0.750000  0.376218  0.485007  1
  Sc  Sc4  1  0.250000  0.925087  0.607466  1
  Sc  Sc5  1  0.250000  0.574868  0.109132  1
  Sc  Sc6  1  0.750000  0.075211  0.390733  1
  Sc  Sc7  1  0.750000  0.424747  0.890758  1
  Sc  Sc8  1  0.250000  0.660957  0.798173  1
  Sc  Sc9  1  0.250000  0.840113  0.297855  1
  Sc  Sc10  1  0.750000  0.340141  0.202220  1
  Sc  Sc11  1  0.750000  0.159544  0.702357  1
  Re  Re12  1  0.250000  0.384294  0.677321  1
  Re  Re13  1  0.250000  0.115832  0.176888  1
  Re  Re14  1  0.750000  0.615810  0.323047  1
  Si  Si15  1  0.250000  0.022168  0.822818  1
  Si  Si16  1  0.250000  0.476059  0.323532  1
  Si  Si17  1  0.750000  0.975978  0.176398  1
  Si  Si18  1  0.750000  0.524959  0.676694  1
  Si  Si19  1  0.250000  0.250700  0.846207  1
  Si  Si20  1  0.250000  0.248536  0.346076  1
  Si  Si21  1  0.750000  0.748313  0.153982  1
  Si  Si22  1  0.750000  0.752421  0.654221  1
  Si  Si23  1  0.250000  0.190631  0.542647  1
  Si  Si24  1  0.250000  0.309342  0.042635  1
  Si  Si25  1  0.750000  0.809073  0.457289  1
  Si  Si26  1  0.750000  0.690119  0.957911  1
  Tc  Tc27  1  0.750000  0.884675  0.823092  1
