# generated using pymatgen
data_Pr3SnAuS7
_symmetry_space_group_name_H-M   'P 1'
_cell_length_a   10.37374400
_cell_length_b   10.37369457
_cell_length_c   6.07771900
_cell_angle_alpha   90.00000000
_cell_angle_beta   90.00000000
_cell_angle_gamma   119.99981801
_symmetry_Int_Tables_number   1
_chemical_formula_structural   Pr3SnAuS7
_chemical_formula_sum   'Pr6 Sn2 Au2 S14'
_cell_volume   566.42319352
_cell_formula_units_Z   2
loop_
 _symmetry_equiv_pos_site_id
 _symmetry_equiv_pos_as_xyz
  1  'x, y, z'
loop_
 _atom_site_type_symbol
 _atom_site_label
 _atom_site_symmetry_multiplicity
 _atom_site_fract_x
 _atom_site_fract_y
 _atom_site_fract_z
 _atom_site_occupancy
  Pr  Pr0  1  0.642064  0.774583  0.249172  1
  Pr  Pr1  1  0.225414  0.867482  0.249177  1
  Pr  Pr2  1  0.132516  0.357929  0.249179  1
  Pr  Pr3  1  0.357937  0.225418  0.749171  1
  Pr  Pr4  1  0.774586  0.132517  0.749176  1
  Pr  Pr5  1  0.867483  0.642070  0.749180  1
  Sn  Sn6  1  0.666679  0.333335  0.172488  1
  Sn  Sn7  1  0.333321  0.666665  0.672489  1
  Au  Au8  1  0.000000  0.999999  0.286654  1
  Au  Au9  1  0.000000  0.000001  0.786653  1
  S  S10  1  0.515446  0.092104  0.999701  1
  S  S11  1  0.907908  0.423344  0.999697  1
  S  S12  1  0.576662  0.484556  0.999701  1
  S  S13  1  0.333328  0.666663  0.064164  1
  S  S14  1  0.832985  0.102762  0.274691  1
  S  S15  1  0.269775  0.167011  0.274689  1
  S  S16  1  0.897232  0.730221  0.274690  1
  S  S17  1  0.484553  0.907895  0.499700  1
  S  S18  1  0.423339  0.515444  0.499701  1
  S  S19  1  0.092091  0.576656  0.499697  1
  S  S20  1  0.666671  0.333337  0.564165  1
  S  S21  1  0.102767  0.269779  0.774689  1
  S  S22  1  0.730225  0.832989  0.774688  1
  S  S23  1  0.167015  0.897238  0.774690  1
