# generated using pymatgen
data_Ca8TmPt6
_symmetry_space_group_name_H-M   'P 1'
_cell_length_a   7.60409300
_cell_length_b   7.60409185
_cell_length_c   7.60409284
_cell_angle_alpha   70.53657785
_cell_angle_beta   70.53657962
_cell_angle_gamma   70.53658762
_symmetry_Int_Tables_number   1
_chemical_formula_structural   Ca8TmPt6
_chemical_formula_sum   'Ca8 Tm1 Pt6'
_cell_volume   378.46478284
_cell_formula_units_Z   1
loop_
 _symmetry_equiv_pos_site_id
 _symmetry_equiv_pos_as_xyz
  1  'x, y, z'
loop_
 _atom_site_type_symbol
 _atom_site_label
 _atom_site_symmetry_multiplicity
 _atom_site_fract_x
 _atom_site_fract_y
 _atom_site_fract_z
 _atom_site_occupancy
  Ca  Ca0  1  0.400340  0.666302  0.152742  1
  Ca  Ca1  1  0.201406  0.201406  0.201406  1
  Ca  Ca2  1  0.847258  0.599660  0.333698  1
  Ca  Ca3  1  0.666302  0.152742  0.400340  1
  Ca  Ca4  1  0.333698  0.847258  0.599660  1
  Ca  Ca5  1  0.152742  0.400340  0.666302  1
  Ca  Ca6  1  0.798594  0.798594  0.798594  1
  Ca  Ca7  1  0.599660  0.333698  0.847258  1
  Tm  Tm8  1  0.000000  0.000000  0.000000  1
  Pt  Pt9  1  0.847626  0.396980  0.044953  1
  Pt  Pt10  1  0.603020  0.955047  0.152374  1
  Pt  Pt11  1  0.044953  0.847626  0.396980  1
  Pt  Pt12  1  0.955047  0.152374  0.603020  1
  Pt  Pt13  1  0.396980  0.044953  0.847626  1
  Pt  Pt14  1  0.152374  0.603020  0.955047  1
