# generated using pymatgen
data_Sr8Fe2CuN8
_symmetry_space_group_name_H-M   'P 1'
_cell_length_a   9.77577218
_cell_length_b   9.77577236
_cell_length_c   7.43976311
_cell_angle_alpha   75.19540759
_cell_angle_beta   75.19540759
_cell_angle_gamma   31.80074313
_symmetry_Int_Tables_number   1
_chemical_formula_structural   Sr8Fe2CuN8
_chemical_formula_sum   'Sr8 Fe2 Cu1 N8'
_cell_volume   361.20029524
_cell_formula_units_Z   1
loop_
 _symmetry_equiv_pos_site_id
 _symmetry_equiv_pos_as_xyz
  1  'x, y, z'
loop_
 _atom_site_type_symbol
 _atom_site_label
 _atom_site_symmetry_multiplicity
 _atom_site_fract_x
 _atom_site_fract_y
 _atom_site_fract_z
 _atom_site_occupancy
  Sr  Sr0  1  0.030227  0.030227  0.737702  1
  Sr  Sr1  1  0.798392  0.798392  0.809115  1
  Sr  Sr2  1  0.407137  0.407137  0.969914  1
  Sr  Sr3  1  0.665610  0.665610  0.533099  1
  Sr  Sr4  1  0.334390  0.334390  0.466901  1
  Sr  Sr5  1  0.592863  0.592863  0.030086  1
  Sr  Sr6  1  0.969773  0.969773  0.262298  1
  Sr  Sr7  1  0.201608  0.201608  0.190885  1
  Fe  Fe8  1  0.811518  0.811518  0.207931  1
  Fe  Fe9  1  0.188482  0.188482  0.792069  1
  Cu  Cu10  1  0.500000  0.500000  0.500000  1
  N  N11  1  0.276591  0.276591  0.828848  1
  N  N12  1  0.472440  0.472440  0.272762  1
  N  N13  1  0.527560  0.527560  0.727238  1
  N  N14  1  0.109541  0.109541  0.983445  1
  N  N15  1  0.890459  0.890459  0.016555  1
  N  N16  1  0.723409  0.723409  0.171152  1
  N  N17  1  0.821871  0.821871  0.432994  1
  N  N18  1  0.178129  0.178129  0.567006  1
