# generated using pymatgen
data_Y6Tm4(GaSb)3
_symmetry_space_group_name_H-M   'P 1'
_cell_length_a   8.73925000
_cell_length_b   8.74912077
_cell_length_c   6.43046000
_cell_angle_alpha   90.00000000
_cell_angle_beta   90.00000000
_cell_angle_gamma   119.96270152
_symmetry_Int_Tables_number   1
_chemical_formula_structural   Y6Tm4(GaSb)3
_chemical_formula_sum   'Y6 Tm4 Ga3 Sb3'
_cell_volume   425.96542737
_cell_formula_units_Z   1
loop_
 _symmetry_equiv_pos_site_id
 _symmetry_equiv_pos_as_xyz
  1  'x, y, z'
loop_
 _atom_site_type_symbol
 _atom_site_label
 _atom_site_symmetry_multiplicity
 _atom_site_fract_x
 _atom_site_fract_y
 _atom_site_fract_z
 _atom_site_occupancy
  Y  Y0  1  0.236049  0.000000  0.250000  1
  Y  Y1  1  0.243638  0.232322  0.750000  1
  Y  Y2  1  0.011316  0.767678  0.750000  1
  Y  Y3  1  0.012290  0.249552  0.250000  1
  Y  Y4  1  0.762736  0.750448  0.250000  1
  Y  Y5  1  0.753474  0.000000  0.750000  1
  Tm  Tm6  1  0.327189  0.666626  0.003241  1
  Tm  Tm7  1  0.660564  0.333374  0.496759  1
  Tm  Tm8  1  0.660564  0.333374  0.003241  1
  Tm  Tm9  1  0.327189  0.666626  0.496759  1
  Ga  Ga10  1  0.998716  0.602132  0.250000  1
  Ga  Ga11  1  0.396584  0.397868  0.250000  1
  Ga  Ga12  1  0.398814  0.000000  0.750000  1
  Sb  Sb13  1  0.608687  0.000000  0.250000  1
  Sb  Sb14  1  0.604364  0.606536  0.750000  1
  Sb  Sb15  1  0.997828  0.393464  0.750000  1
