# generated using pymatgen
data_Er13Lu3(ScBi3)4
_symmetry_space_group_name_H-M   'P 1'
_cell_length_a   8.06800293
_cell_length_b   9.35600840
_cell_length_c   11.86269286
_cell_angle_alpha   90.00399225
_cell_angle_beta   89.95634472
_cell_angle_gamma   89.96677458
_symmetry_Int_Tables_number   1
_chemical_formula_structural   Er13Lu3(ScBi3)4
_chemical_formula_sum   'Er13 Lu3 Sc4 Bi12'
_cell_volume   895.44669167
_cell_formula_units_Z   1
loop_
 _symmetry_equiv_pos_site_id
 _symmetry_equiv_pos_as_xyz
  1  'x, y, z'
loop_
 _atom_site_type_symbol
 _atom_site_label
 _atom_site_symmetry_multiplicity
 _atom_site_fract_x
 _atom_site_fract_y
 _atom_site_fract_z
 _atom_site_occupancy
  Er  Er0  1  0.355074  0.250739  0.283666  1
  Er  Er1  1  0.644338  0.749769  0.716226  1
  Er  Er2  1  0.145294  0.749863  0.783399  1
  Er  Er3  1  0.854956  0.250911  0.216336  1
  Er  Er4  1  0.185802  0.250265  0.781318  1
  Er  Er5  1  0.814048  0.749929  0.218847  1
  Er  Er6  1  0.313991  0.749759  0.281397  1
  Er  Er7  1  0.685850  0.250314  0.718678  1
  Er  Er8  1  0.195085  0.066119  0.058480  1
  Er  Er9  1  0.805138  0.934018  0.941494  1
  Er  Er10  1  0.304976  0.933878  0.558425  1
  Er  Er11  1  0.804434  0.565709  0.941410  1
  Er  Er12  1  0.694960  0.066198  0.441529  1
  Lu  Lu13  1  0.195681  0.432675  0.058552  1
  Lu  Lu14  1  0.695963  0.432730  0.441426  1
  Lu  Lu15  1  0.303949  0.567167  0.558579  1
  Sc  Sc16  1  0.023750  0.249998  0.511979  1
  Sc  Sc17  1  0.976361  0.750124  0.487948  1
  Sc  Sc18  1  0.475770  0.750402  0.012142  1
  Sc  Sc19  1  0.523558  0.249941  0.987943  1
  Bi  Bi20  1  0.400916  0.252009  0.543099  1
  Bi  Bi21  1  0.599159  0.747905  0.456835  1
  Bi  Bi22  1  0.099510  0.748343  0.043188  1
  Bi  Bi23  1  0.901392  0.250317  0.957224  1
  Bi  Bi24  1  0.065976  0.004091  0.330098  1
  Bi  Bi25  1  0.934126  0.996212  0.669826  1
  Bi  Bi26  1  0.434069  0.996219  0.829904  1
  Bi  Bi27  1  0.934666  0.504018  0.669714  1
  Bi  Bi28  1  0.565857  0.004071  0.170042  1
  Bi  Bi29  1  0.065639  0.496052  0.330335  1
  Bi  Bi30  1  0.565536  0.496204  0.170025  1
  Bi  Bi31  1  0.434173  0.504053  0.829934  1
