# generated using pymatgen
data_Dy3Er3Bi2Mo
_symmetry_space_group_name_H-M   'P 1'
_cell_length_a   4.35534700
_cell_length_b   8.25644105
_cell_length_c   8.25644100
_cell_angle_alpha   119.99999578
_cell_angle_beta   90.00000000
_cell_angle_gamma   90.00000000
_symmetry_Int_Tables_number   1
_chemical_formula_structural   Dy3Er3Bi2Mo
_chemical_formula_sum   'Dy3 Er3 Bi2 Mo1'
_cell_volume   257.12196499
_cell_formula_units_Z   1
loop_
 _symmetry_equiv_pos_site_id
 _symmetry_equiv_pos_as_xyz
  1  'x, y, z'
loop_
 _atom_site_type_symbol
 _atom_site_label
 _atom_site_symmetry_multiplicity
 _atom_site_fract_x
 _atom_site_fract_y
 _atom_site_fract_z
 _atom_site_occupancy
  Dy  Dy0  1  0.000000  0.392382  0.392382  1
  Dy  Dy1  1  0.000000  0.000000  0.607618  1
  Dy  Dy2  1  0.000000  0.607618  0.000000  1
  Er  Er3  1  0.500000  0.765666  0.765666  1
  Er  Er4  1  0.500000  0.000000  0.234334  1
  Er  Er5  1  0.500000  0.234334  0.000000  1
  Bi  Bi6  1  0.500000  0.666667  0.333333  1
  Bi  Bi7  1  0.500000  0.333333  0.666667  1
  Mo  Mo8  1  0.000000  0.000000  0.000000  1
