# generated using pymatgen
data_CaLaB4(IrRu)2
_symmetry_space_group_name_H-M   'P 1'
_cell_length_a   6.94832734
_cell_length_b   6.07620640
_cell_length_c   5.59736596
_cell_angle_alpha   72.92600050
_cell_angle_beta   56.71418397
_cell_angle_gamma   50.36845793
_symmetry_Int_Tables_number   1
_chemical_formula_structural   CaLaB4(IrRu)2
_chemical_formula_sum   'Ca1 La1 B4 Ir2 Ru2'
_cell_volume   151.55817090
_cell_formula_units_Z   1
loop_
 _symmetry_equiv_pos_site_id
 _symmetry_equiv_pos_as_xyz
  1  'x, y, z'
loop_
 _atom_site_type_symbol
 _atom_site_label
 _atom_site_symmetry_multiplicity
 _atom_site_fract_x
 _atom_site_fract_y
 _atom_site_fract_z
 _atom_site_occupancy
  Ca  Ca0  1  0.248685  0.248685  0.251315  1
  La  La1  1  0.998835  0.998835  0.001165  1
  B  B2  1  0.324987  0.675335  0.321985  1
  B  B3  1  0.571084  0.930571  0.566210  1
  B  B4  1  0.675335  0.324987  0.677692  1
  B  B5  1  0.930571  0.571084  0.932135  1
  Ir  Ir6  1  0.617658  0.617658  0.882342  1
  Ir  Ir7  1  0.364754  0.364754  0.635246  1
  Ru  Ru8  1  0.634669  0.634669  0.365331  1
  Ru  Ru9  1  0.883422  0.883422  0.616578  1
