# generated using pymatgen
data_CuP4PtO12
_symmetry_space_group_name_H-M   'P 1'
_cell_length_a   4.40609800
_cell_length_b   4.69527702
_cell_length_c   12.47562600
_cell_angle_alpha   90.00000000
_cell_angle_beta   90.00000000
_cell_angle_gamma   90.74162743
_symmetry_Int_Tables_number   1
_chemical_formula_structural   CuP4PtO12
_chemical_formula_sum   'Cu1 P4 Pt1 O12'
_cell_volume   258.07226751
_cell_formula_units_Z   1
loop_
 _symmetry_equiv_pos_site_id
 _symmetry_equiv_pos_as_xyz
  1  'x, y, z'
loop_
 _atom_site_type_symbol
 _atom_site_label
 _atom_site_symmetry_multiplicity
 _atom_site_fract_x
 _atom_site_fract_y
 _atom_site_fract_z
 _atom_site_occupancy
  Cu  Cu0  1  0.500000  0.000000  0.500000  1
  P  P1  1  0.500000  0.500000  0.330214  1
  P  P2  1  0.000000  0.500000  0.173124  1
  P  P3  1  0.500000  0.500000  0.669786  1
  P  P4  1  0.000000  0.500000  0.826876  1
  Pt  Pt5  1  0.000000  0.000000  0.000000  1
  O  O6  1  0.752411  0.637691  0.251441  1
  O  O7  1  0.247589  0.362309  0.251441  1
  O  O8  1  0.247589  0.362309  0.748559  1
  O  O9  1  0.752411  0.637691  0.748559  1
  O  O10  1  0.836163  0.262091  0.114393  1
  O  O11  1  0.353638  0.740393  0.389907  1
  O  O12  1  0.836163  0.262091  0.885607  1
  O  O13  1  0.353638  0.740393  0.610093  1
  O  O14  1  0.646362  0.259607  0.610093  1
  O  O15  1  0.163837  0.737909  0.885607  1
  O  O16  1  0.163837  0.737909  0.114393  1
  O  O17  1  0.646362  0.259607  0.389907  1
