# generated using pymatgen
data_SrAcCuN2
_symmetry_space_group_name_H-M   'P 1'
_cell_length_a   3.89724231
_cell_length_b   3.89725246
_cell_length_c   6.88870778
_cell_angle_alpha   106.42254024
_cell_angle_beta   106.43166304
_cell_angle_gamma   89.99999344
_symmetry_Int_Tables_number   1
_chemical_formula_structural   SrAcCuN2
_chemical_formula_sum   'Sr1 Ac1 Cu1 N2'
_cell_volume   95.89749285
_cell_formula_units_Z   1
loop_
 _symmetry_equiv_pos_site_id
 _symmetry_equiv_pos_as_xyz
  1  'x, y, z'
loop_
 _atom_site_type_symbol
 _atom_site_label
 _atom_site_symmetry_multiplicity
 _atom_site_fract_x
 _atom_site_fract_y
 _atom_site_fract_z
 _atom_site_occupancy
  Sr  Sr0  1  0.855523  0.855494  0.211047  1
  Ac  Ac1  1  0.157345  0.157280  0.814690  1
  Cu  Cu2  1  0.495619  0.495722  0.491240  1
  N  N3  1  0.644495  0.644474  0.788989  1
  N  N4  1  0.347018  0.347030  0.194036  1
