# generated using pymatgen
data_TbDyGa9Ru5
_symmetry_space_group_name_H-M   'P 1'
_cell_length_a   8.07637173
_cell_length_b   8.07637057
_cell_length_c   8.07637173
_cell_angle_alpha   134.91988711
_cell_angle_beta   134.84673473
_cell_angle_gamma   65.71157446
_symmetry_Int_Tables_number   1
_chemical_formula_structural   TbDyGa9Ru5
_chemical_formula_sum   'Tb1 Dy1 Ga9 Ru5'
_cell_volume   260.50702954
_cell_formula_units_Z   1
loop_
 _symmetry_equiv_pos_site_id
 _symmetry_equiv_pos_as_xyz
  1  'x, y, z'
loop_
 _atom_site_type_symbol
 _atom_site_label
 _atom_site_symmetry_multiplicity
 _atom_site_fract_x
 _atom_site_fract_y
 _atom_site_fract_z
 _atom_site_occupancy
  Tb  Tb0  1  0.000000  0.500000  0.500000  1
  Dy  Dy1  1  0.500000  0.000000  0.500000  1
  Ga  Ga2  1  0.439032  0.858798  0.000250  1
  Ga  Ga3  1  0.141452  0.141202  0.580235  1
  Ga  Ga4  1  0.858548  0.438782  0.999750  1
  Ga  Ga5  1  0.858548  0.858798  0.419765  1
  Ga  Ga6  1  0.560968  0.141202  0.999750  1
  Ga  Ga7  1  0.141452  0.561218  0.000250  1
  Ga  Ga8  1  0.560968  0.561218  0.419765  1
  Ga  Ga9  1  0.000000  0.000000  0.000000  1
  Ga  Ga10  1  0.439032  0.438782  0.580235  1
  Ru  Ru11  1  0.180506  0.180506  0.000000  1
  Ru  Ru12  1  0.819494  0.819494  0.000000  1
  Ru  Ru13  1  0.250016  0.750016  0.500000  1
  Ru  Ru14  1  0.749984  0.249984  0.500000  1
  Ru  Ru15  1  0.500000  0.500000  0.000000  1
