# generated using pymatgen
data_Tb3Ho5Re2(B12Ir)2
_symmetry_space_group_name_H-M   'P 1'
_cell_length_a   3.66862200
_cell_length_b   9.15730197
_cell_length_c   11.54772603
_cell_angle_alpha   90.32847313
_cell_angle_beta   90.00000000
_cell_angle_gamma   90.00000000
_symmetry_Int_Tables_number   1
_chemical_formula_structural   Tb3Ho5Re2(B12Ir)2
_chemical_formula_sum   'Tb3 Ho5 Re2 B24 Ir2'
_cell_volume   387.93577937
_cell_formula_units_Z   1
loop_
 _symmetry_equiv_pos_site_id
 _symmetry_equiv_pos_as_xyz
  1  'x, y, z'
loop_
 _atom_site_type_symbol
 _atom_site_label
 _atom_site_symmetry_multiplicity
 _atom_site_fract_x
 _atom_site_fract_y
 _atom_site_fract_z
 _atom_site_occupancy
  Tb  Tb0  1  0.000000  0.317475  0.409988  1
  Tb  Tb1  1  0.000000  0.682534  0.590026  1
  Tb  Tb2  1  0.000000  0.826461  0.082476  1
  Ho  Ho3  1  0.000000  0.173453  0.917810  1
  Ho  Ho4  1  0.000000  0.946216  0.372161  1
  Ho  Ho5  1  0.000000  0.053891  0.627871  1
  Ho  Ho6  1  0.000000  0.441613  0.125782  1
  Ho  Ho7  1  0.000000  0.558162  0.874099  1
  Re  Re8  1  0.000000  0.138554  0.179648  1
  Re  Re9  1  0.000000  0.861904  0.820213  1
  B  B10  1  0.500000  0.554375  0.433570  1
  B  B11  1  0.500000  0.445587  0.566453  1
  B  B12  1  0.500000  0.053707  0.067236  1
  B  B13  1  0.500000  0.946789  0.932509  1
  B  B14  1  0.500000  0.749491  0.420825  1
  B  B15  1  0.500000  0.250527  0.579217  1
  B  B16  1  0.500000  0.247819  0.080610  1
  B  B17  1  0.500000  0.752178  0.918952  1
  B  B18  1  0.500000  0.790755  0.266227  1
  B  B19  1  0.500000  0.209106  0.734059  1
  B  B20  1  0.500000  0.292035  0.233898  1
  B  B21  1  0.500000  0.707966  0.766022  1
  B  B22  1  0.500000  0.631544  0.184171  1
  B  B23  1  0.500000  0.368087  0.816016  1
  B  B24  1  0.500000  0.131513  0.314457  1
  B  B25  1  0.500000  0.868570  0.685561  1
  B  B26  1  0.500000  0.983407  0.213093  1
  B  B27  1  0.500000  0.017086  0.787025  1
  B  B28  1  0.500000  0.482880  0.287073  1
  B  B29  1  0.500000  0.517042  0.712944  1
  B  B30  1  0.500000  0.606642  0.029856  1
  B  B31  1  0.500000  0.392798  0.969989  1
  B  B32  1  0.500000  0.107264  0.470893  1
  B  B33  1  0.500000  0.892750  0.529124  1
  Ir  Ir34  1  0.000000  0.636831  0.321815  1
  Ir  Ir35  1  0.000000  0.362989  0.678332  1
