# generated using pymatgen
data_Tb2Fe9Mo3P7
_symmetry_space_group_name_H-M   'P 1'
_cell_length_a   9.14946500
_cell_length_b   9.14946551
_cell_length_c   3.72299900
_cell_angle_alpha   90.00000000
_cell_angle_beta   90.00000000
_cell_angle_gamma   119.99999454
_symmetry_Int_Tables_number   1
_chemical_formula_structural   Tb2Fe9Mo3P7
_chemical_formula_sum   'Tb2 Fe9 Mo3 P7'
_cell_volume   269.90752930
_cell_formula_units_Z   1
loop_
 _symmetry_equiv_pos_site_id
 _symmetry_equiv_pos_as_xyz
  1  'x, y, z'
loop_
 _atom_site_type_symbol
 _atom_site_label
 _atom_site_symmetry_multiplicity
 _atom_site_fract_x
 _atom_site_fract_y
 _atom_site_fract_z
 _atom_site_occupancy
  Tb  Tb0  1  0.666667  0.333333  0.000000  1
  Tb  Tb1  1  0.333333  0.666667  0.500000  1
  Fe  Fe2  1  0.051219  0.622673  0.000000  1
  Fe  Fe3  1  0.571454  0.948781  0.000000  1
  Fe  Fe4  1  0.377327  0.428546  0.000000  1
  Fe  Fe5  1  0.278049  0.119887  0.000000  1
  Fe  Fe6  1  0.841837  0.721951  0.000000  1
  Fe  Fe7  1  0.880113  0.158163  0.000000  1
  Fe  Fe8  1  0.437876  0.047315  0.500000  1
  Fe  Fe9  1  0.609439  0.562124  0.500000  1
  Fe  Fe10  1  0.952685  0.390561  0.500000  1
  Mo  Mo11  1  0.100889  0.880244  0.500000  1
  Mo  Mo12  1  0.779354  0.899111  0.500000  1
  Mo  Mo13  1  0.119756  0.220646  0.500000  1
  P  P14  1  0.300069  0.888146  0.000000  1
  P  P15  1  0.588078  0.699931  0.000000  1
  P  P16  1  0.111854  0.411922  0.000000  1
  P  P17  1  0.407964  0.284690  0.500000  1
  P  P18  1  0.876726  0.592036  0.500000  1
  P  P19  1  0.715310  0.123274  0.500000  1
  P  P20  1  0.000000  0.000000  0.000000  1
