# generated using pymatgen
data_NdHo5Al24Pd3Ru5
_symmetry_space_group_name_H-M   'P 1'
_cell_length_a   8.86002139
_cell_length_b   8.84364034
_cell_length_c   9.55595388
_cell_angle_alpha   90.16178262
_cell_angle_beta   89.85298570
_cell_angle_gamma   119.85610476
_symmetry_Int_Tables_number   1
_chemical_formula_structural   NdHo5Al24Pd3Ru5
_chemical_formula_sum   'Nd1 Ho5 Al24 Pd3 Ru5'
_cell_volume   649.37609161
_cell_formula_units_Z   1
loop_
 _symmetry_equiv_pos_site_id
 _symmetry_equiv_pos_as_xyz
  1  'x, y, z'
loop_
 _atom_site_type_symbol
 _atom_site_label
 _atom_site_symmetry_multiplicity
 _atom_site_fract_x
 _atom_site_fract_y
 _atom_site_fract_z
 _atom_site_occupancy
  Nd  Nd0  1  0.811375  0.189990  0.750443  1
  Ho  Ho1  1  0.194221  0.387808  0.250180  1
  Ho  Ho2  1  0.804195  0.611518  0.749793  1
  Ho  Ho3  1  0.614842  0.804874  0.252004  1
  Ho  Ho4  1  0.386339  0.196640  0.748033  1
  Ho  Ho5  1  0.189811  0.807250  0.250408  1
  Al  Al6  1  0.335588  0.664644  0.029780  1
  Al  Al7  1  0.663339  0.335948  0.975704  1
  Al  Al8  1  0.669317  0.339250  0.523261  1
  Al  Al9  1  0.330665  0.662392  0.472222  1
  Al  Al10  1  0.165863  0.328751  0.574394  1
  Al  Al11  1  0.836379  0.673258  0.423130  1
  Al  Al12  1  0.674338  0.829920  0.576562  1
  Al  Al13  1  0.831472  0.675314  0.080420  1
  Al  Al14  1  0.324418  0.168216  0.421331  1
  Al  Al15  1  0.170405  0.326024  0.921813  1
  Al  Al16  1  0.156276  0.832348  0.577152  1
  Al  Al17  1  0.323864  0.167892  0.078816  1
  Al  Al18  1  0.843944  0.168103  0.419563  1
  Al  Al19  1  0.674626  0.829733  0.923500  1
  Al  Al20  1  0.837694  0.160269  0.083356  1
  Al  Al21  1  0.162106  0.838961  0.919922  1
  Al  Al22  1  0.561699  0.125724  0.249871  1
  Al  Al23  1  0.435116  0.871991  0.749846  1
  Al  Al24  1  0.875214  0.438910  0.252678  1
  Al  Al25  1  0.126451  0.563843  0.746555  1
  Al  Al26  1  0.559894  0.439897  0.249601  1
  Al  Al27  1  0.439295  0.560770  0.750183  1
  Al  Al28  1  0.999383  0.999353  0.250404  1
  Al  Al29  1  0.003774  0.997842  0.749817  1
  Pd  Pd30  1  0.498367  0.998739  0.000876  1
  Pd  Pd31  1  0.000463  0.501369  0.001330  1
  Pd  Pd32  1  0.498973  0.000039  0.498838  1
  Ru  Ru33  1  0.499539  0.500241  0.000263  1
  Ru  Ru34  1  0.000964  0.501717  0.498474  1
  Ru  Ru35  1  0.499761  0.500361  0.499406  1
  Ru  Ru36  1  0.000035  0.999931  0.000271  1
  Ru  Ru37  1  0.999995  0.000170  0.499799  1
