# generated using pymatgen
data_La20NiBi8Ru3
_symmetry_space_group_name_H-M   'P 1'
_cell_length_a   8.54768967
_cell_length_b   9.28510800
_cell_length_c   13.06572635
_cell_angle_alpha   90.00000000
_cell_angle_beta   89.95261194
_cell_angle_gamma   90.00000000
_symmetry_Int_Tables_number   1
_chemical_formula_structural   La20NiBi8Ru3
_chemical_formula_sum   'La20 Ni1 Bi8 Ru3'
_cell_volume   1036.97697994
_cell_formula_units_Z   1
loop_
 _symmetry_equiv_pos_site_id
 _symmetry_equiv_pos_as_xyz
  1  'x, y, z'
loop_
 _atom_site_type_symbol
 _atom_site_label
 _atom_site_symmetry_multiplicity
 _atom_site_fract_x
 _atom_site_fract_y
 _atom_site_fract_z
 _atom_site_occupancy
  La  La0  1  0.347561  0.750000  0.702936  1
  La  La1  1  0.647213  0.250000  0.297851  1
  La  La2  1  0.852338  0.250000  0.799563  1
  La  La3  1  0.146145  0.750000  0.198360  1
  La  La4  1  0.877854  0.750000  0.805927  1
  La  La5  1  0.120083  0.250000  0.193023  1
  La  La6  1  0.378004  0.250000  0.692112  1
  La  La7  1  0.623530  0.750000  0.306979  1
  La  La8  1  0.683720  0.533007  0.562912  1
  La  La9  1  0.317717  0.458063  0.436917  1
  La  La10  1  0.181074  0.464284  0.935174  1
  La  La11  1  0.317717  0.041937  0.436917  1
  La  La12  1  0.817404  0.536679  0.064269  1
  La  La13  1  0.683720  0.966993  0.562912  1
  La  La14  1  0.817404  0.963321  0.064269  1
  La  La15  1  0.181074  0.035716  0.935174  1
  La  La16  1  0.058752  0.750000  0.494922  1
  La  La17  1  0.948103  0.250000  0.504076  1
  La  La18  1  0.552964  0.250000  0.004537  1
  La  La19  1  0.449357  0.750000  0.996199  1
  Ni  Ni20  1  0.427563  0.750000  0.493360  1
  Bi  Bi21  1  0.574049  0.505770  0.826426  1
  Bi  Bi22  1  0.424272  0.494651  0.174636  1
  Bi  Bi23  1  0.074506  0.493910  0.672223  1
  Bi  Bi24  1  0.424272  0.005349  0.174636  1
  Bi  Bi25  1  0.924679  0.506572  0.327620  1
  Bi  Bi26  1  0.574049  0.994230  0.826426  1
  Bi  Bi27  1  0.924679  0.993428  0.327620  1
  Bi  Bi28  1  0.074506  0.006090  0.672223  1
  Ru  Ru29  1  0.082889  0.750000  0.986083  1
  Ru  Ru30  1  0.918234  0.250000  0.013072  1
  Ru  Ru31  1  0.574568  0.250000  0.510648  1
