# generated using pymatgen
data_Er16Sc4AsRh11
_symmetry_space_group_name_H-M   'P 1'
_cell_length_a   10.69584362
_cell_length_b   10.69584370
_cell_length_c   6.23650800
_cell_angle_alpha   90.01958456
_cell_angle_beta   90.01958456
_cell_angle_gamma   89.92534591
_symmetry_Int_Tables_number   1
_chemical_formula_structural   Er16Sc4AsRh11
_chemical_formula_sum   'Er16 Sc4 As1 Rh11'
_cell_volume   713.46250984
_cell_formula_units_Z   1
loop_
 _symmetry_equiv_pos_site_id
 _symmetry_equiv_pos_as_xyz
  1  'x, y, z'
loop_
 _atom_site_type_symbol
 _atom_site_label
 _atom_site_symmetry_multiplicity
 _atom_site_fract_x
 _atom_site_fract_y
 _atom_site_fract_z
 _atom_site_occupancy
  Er  Er0  1  0.288912  0.088485  0.375371  1
  Er  Er1  1  0.288002  0.918355  0.873740  1
  Er  Er2  1  0.712437  0.086762  0.875887  1
  Er  Er3  1  0.713150  0.915276  0.378570  1
  Er  Er4  1  0.591183  0.788600  0.876763  1
  Er  Er5  1  0.586470  0.213155  0.373643  1
  Er  Er6  1  0.415389  0.792034  0.369117  1
  Er  Er7  1  0.415029  0.213440  0.874976  1
  Er  Er8  1  0.211400  0.408817  0.623237  1
  Er  Er9  1  0.207966  0.584611  0.130883  1
  Er  Er10  1  0.786845  0.413530  0.126357  1
  Er  Er11  1  0.786560  0.584971  0.625024  1
  Er  Er12  1  0.911515  0.711088  0.124629  1
  Er  Er13  1  0.913238  0.287563  0.624113  1
  Er  Er14  1  0.081645  0.711998  0.626260  1
  Er  Er15  1  0.084724  0.286850  0.121430  1
  Sc  Sc16  1  0.002243  0.000140  0.499900  1
  Sc  Sc17  1  0.999860  0.997757  0.000100  1
  Sc  Sc18  1  0.502152  0.496867  0.001650  1
  Sc  Sc19  1  0.503133  0.497848  0.498350  1
  As  As20  1  0.348463  0.651537  0.750000  1
  Rh  Rh21  1  0.851852  0.148148  0.250000  1
  Rh  Rh22  1  0.851566  0.850111  0.749698  1
  Rh  Rh23  1  0.149889  0.148434  0.750302  1
  Rh  Rh24  1  0.149506  0.850494  0.250000  1
  Rh  Rh25  1  0.649946  0.350054  0.750000  1
  Rh  Rh26  1  0.645667  0.650289  0.253256  1
  Rh  Rh27  1  0.349711  0.354333  0.246744  1
  Rh  Rh28  1  0.500544  0.999683  0.116234  1
  Rh  Rh29  1  0.501476  0.000787  0.617813  1
  Rh  Rh30  1  0.999213  0.498524  0.882187  1
  Rh  Rh31  1  0.000317  0.499456  0.383766  1
