# generated using pymatgen
data_LiLu3In3AgOs
_symmetry_space_group_name_H-M   'P 1'
_cell_length_a   7.94322400
_cell_length_b   7.94322333
_cell_length_c   3.58640300
_cell_angle_alpha   90.00000000
_cell_angle_beta   90.00000000
_cell_angle_gamma   120.00000278
_symmetry_Int_Tables_number   1
_chemical_formula_structural   LiLu3In3AgOs
_chemical_formula_sum   'Li1 Lu3 In3 Ag1 Os1'
_cell_volume   195.96715689
_cell_formula_units_Z   1
loop_
 _symmetry_equiv_pos_site_id
 _symmetry_equiv_pos_as_xyz
  1  'x, y, z'
loop_
 _atom_site_type_symbol
 _atom_site_label
 _atom_site_symmetry_multiplicity
 _atom_site_fract_x
 _atom_site_fract_y
 _atom_site_fract_z
 _atom_site_occupancy
  Li  Li0  1  0.000000  0.000000  0.500000  1
  Lu  Lu1  1  0.035814  0.612395  0.500000  1
  Lu  Lu2  1  0.576579  0.964186  0.500000  1
  Lu  Lu3  1  0.387605  0.423421  0.500000  1
  In  In4  1  0.995252  0.263134  0.000000  1
  In  In5  1  0.267881  0.004748  0.000000  1
  In  In6  1  0.736866  0.732119  0.000000  1
  Ag  Ag7  1  0.666667  0.333333  0.000000  1
  Os  Os8  1  0.333333  0.666667  0.000000  1
