# generated using pymatgen
data_Tm4Co17(TcP4)3
_symmetry_space_group_name_H-M   'P 1'
_cell_length_a   3.67459700
_cell_length_b   10.29165960
_cell_length_c   11.74095869
_cell_angle_alpha   89.96073769
_cell_angle_beta   90.00000000
_cell_angle_gamma   90.00000000
_symmetry_Int_Tables_number   1
_chemical_formula_structural   Tm4Co17(TcP4)3
_chemical_formula_sum   'Tm4 Co17 Tc3 P12'
_cell_volume   444.01596685
_cell_formula_units_Z   1
loop_
 _symmetry_equiv_pos_site_id
 _symmetry_equiv_pos_as_xyz
  1  'x, y, z'
loop_
 _atom_site_type_symbol
 _atom_site_label
 _atom_site_symmetry_multiplicity
 _atom_site_fract_x
 _atom_site_fract_y
 _atom_site_fract_z
 _atom_site_occupancy
  Tm  Tm0  1  0.250000  0.581679  0.702700  1
  Tm  Tm1  1  0.250000  0.915497  0.205008  1
  Tm  Tm2  1  0.750000  0.414808  0.295952  1
  Tm  Tm3  1  0.750000  0.083720  0.794940  1
  Co  Co4  1  0.750000  0.216489  0.509413  1
  Co  Co5  1  0.250000  0.406157  0.487601  1
  Co  Co6  1  0.250000  0.092679  0.988012  1
  Co  Co7  1  0.750000  0.591937  0.511275  1
  Co  Co8  1  0.750000  0.907671  0.011987  1
  Co  Co9  1  0.250000  0.220309  0.177633  1
  Co  Co10  1  0.250000  0.277651  0.676384  1
  Co  Co11  1  0.750000  0.778318  0.822289  1
  Co  Co12  1  0.750000  0.721661  0.322916  1
  Co  Co13  1  0.250000  0.886380  0.701552  1
  Co  Co14  1  0.250000  0.613432  0.202720  1
  Co  Co15  1  0.750000  0.116001  0.300902  1
  Co  Co16  1  0.750000  0.385952  0.797264  1
  Co  Co17  1  0.250000  0.464285  0.931767  1
  Co  Co18  1  0.250000  0.035784  0.431947  1
  Co  Co19  1  0.750000  0.536080  0.068965  1
  Co  Co20  1  0.750000  0.966845  0.568782  1
  Tc  Tc21  1  0.250000  0.711510  0.989338  1
  Tc  Tc22  1  0.250000  0.788903  0.489641  1
  Tc  Tc23  1  0.750000  0.288433  0.010669  1
  P  P24  1  0.250000  0.419490  0.114539  1
  P  P25  1  0.250000  0.081855  0.612427  1
  P  P26  1  0.750000  0.579221  0.885527  1
  P  P27  1  0.750000  0.921062  0.386379  1
  P  P28  1  0.250000  0.268399  0.864735  1
  P  P29  1  0.250000  0.231689  0.369226  1
  P  P30  1  0.750000  0.731789  0.134660  1
  P  P31  1  0.750000  0.769142  0.633282  1
  P  P32  1  0.250000  0.594770  0.390896  1
  P  P33  1  0.250000  0.904809  0.889895  1
  P  P34  1  0.750000  0.399397  0.607355  1
  P  P35  1  0.750000  0.096193  0.111421  1
