# generated using pymatgen
data_LiY(CoH3)2
_symmetry_space_group_name_H-M   'P 1'
_cell_length_a   4.78506970
_cell_length_b   4.78507008
_cell_length_c   4.78506978
_cell_angle_alpha   59.97998837
_cell_angle_beta   59.97999005
_cell_angle_gamma   59.97999481
_symmetry_Int_Tables_number   1
_chemical_formula_structural   LiY(CoH3)2
_chemical_formula_sum   'Li1 Y1 Co2 H6'
_cell_volume   77.43775603
_cell_formula_units_Z   1
loop_
 _symmetry_equiv_pos_site_id
 _symmetry_equiv_pos_as_xyz
  1  'x, y, z'
loop_
 _atom_site_type_symbol
 _atom_site_label
 _atom_site_symmetry_multiplicity
 _atom_site_fract_x
 _atom_site_fract_y
 _atom_site_fract_z
 _atom_site_occupancy
  Li  Li0  1  0.750000  0.750000  0.750000  1
  Y  Y1  1  0.250000  0.250000  0.250000  1
  Co  Co2  1  0.000129  0.000129  0.000129  1
  Co  Co3  1  0.499871  0.499871  0.499871  1
  H  H4  1  0.749999  0.263331  0.236670  1
  H  H5  1  0.747296  0.752702  0.250001  1
  H  H6  1  0.236668  0.750001  0.263331  1
  H  H7  1  0.752704  0.249999  0.747296  1
  H  H8  1  0.263330  0.236671  0.749999  1
  H  H9  1  0.250001  0.747296  0.752703  1
