# generated using pymatgen
data_Cs2Tc7Mo5Se14
_symmetry_space_group_name_H-M   'P 1'
_cell_length_a   9.91893174
_cell_length_b   9.93716369
_cell_length_c   9.90651228
_cell_angle_alpha   60.40336455
_cell_angle_beta   60.94175555
_cell_angle_gamma   60.71204590
_symmetry_Int_Tables_number   1
_chemical_formula_structural   Cs2Tc7Mo5Se14
_chemical_formula_sum   'Cs2 Tc7 Mo5 Se14'
_cell_volume   701.10794065
_cell_formula_units_Z   1
loop_
 _symmetry_equiv_pos_site_id
 _symmetry_equiv_pos_as_xyz
  1  'x, y, z'
loop_
 _atom_site_type_symbol
 _atom_site_label
 _atom_site_symmetry_multiplicity
 _atom_site_fract_x
 _atom_site_fract_y
 _atom_site_fract_z
 _atom_site_occupancy
  Cs  Cs0  1  0.377691  0.375666  0.378766  1
  Cs  Cs1  1  0.620566  0.622026  0.625093  1
  Tc  Tc2  1  0.302037  0.123583  0.993633  1
  Tc  Tc3  1  0.193428  0.887171  0.062140  1
  Tc  Tc4  1  0.887521  0.060558  0.192725  1
  Tc  Tc5  1  0.937798  0.804316  0.113586  1
  Tc  Tc6  1  0.803902  0.114203  0.938437  1
  Tc  Tc7  1  0.115047  0.938512  0.805985  1
  Tc  Tc8  1  0.992732  0.301312  0.124533  1
  Mo  Mo9  1  0.877766  0.004105  0.702096  1
  Mo  Mo10  1  0.123962  0.995879  0.297322  1
  Mo  Mo11  1  0.003842  0.702980  0.877591  1
  Mo  Mo12  1  0.703057  0.876817  0.001906  1
  Mo  Mo13  1  0.060889  0.190133  0.891836  1
  Se  Se14  1  0.983216  0.234881  0.646293  1
  Se  Se15  1  0.234597  0.647729  0.986370  1
  Se  Se16  1  0.647236  0.984190  0.233831  1
  Se  Se17  1  0.017888  0.767002  0.353655  1
  Se  Se18  1  0.762883  0.352610  0.021221  1
  Se  Se19  1  0.356878  0.012799  0.769580  1
  Se  Se20  1  0.168629  0.412955  0.820876  1
  Se  Se21  1  0.414762  0.817207  0.167163  1
  Se  Se22  1  0.814506  0.171679  0.409923  1
  Se  Se23  1  0.830714  0.582464  0.184207  1
  Se  Se24  1  0.583882  0.185460  0.826936  1
  Se  Se25  1  0.184892  0.832579  0.583582  1
  Se  Se26  1  0.778027  0.777274  0.775112  1
  Se  Se27  1  0.221649  0.223909  0.215602  1
