# generated using pymatgen
data_La7Tm13(SiPt)8
_symmetry_space_group_name_H-M   'P 1'
_cell_length_a   7.80760083
_cell_length_b   7.84554575
_cell_length_c   14.13715475
_cell_angle_alpha   90.04465796
_cell_angle_beta   89.75321542
_cell_angle_gamma   90.11199270
_symmetry_Int_Tables_number   1
_chemical_formula_structural   La7Tm13(SiPt)8
_chemical_formula_sum   'La7 Tm13 Si8 Pt8'
_cell_volume   865.95990793
_cell_formula_units_Z   1
loop_
 _symmetry_equiv_pos_site_id
 _symmetry_equiv_pos_as_xyz
  1  'x, y, z'
loop_
 _atom_site_type_symbol
 _atom_site_label
 _atom_site_symmetry_multiplicity
 _atom_site_fract_x
 _atom_site_fract_y
 _atom_site_fract_z
 _atom_site_occupancy
  La  La0  1  0.997273  0.351770  0.535178  1
  La  La1  1  0.648867  0.999751  0.967820  1
  La  La2  1  0.144683  0.499400  0.786436  1
  La  La3  1  0.853463  0.502360  0.283167  1
  La  La4  1  0.500895  0.146169  0.213006  1
  La  La5  1  0.500637  0.852513  0.716494  1
  La  La6  1  0.352429  0.998460  0.464343  1
  Tm  Tm7  1  0.347378  0.501865  0.375547  1
  Tm  Tm8  1  0.847554  0.997325  0.371379  1
  Tm  Tm9  1  0.002651  0.152984  0.125114  1
  Tm  Tm10  1  0.998237  0.846677  0.627924  1
  Tm  Tm11  1  0.654415  0.500976  0.879806  1
  Tm  Tm12  1  0.500784  0.347446  0.623295  1
  Tm  Tm13  1  0.498957  0.650344  0.122864  1
  Tm  Tm14  1  0.149456  0.000466  0.875413  1
  Tm  Tm15  1  0.006578  0.641311  0.037796  1
  Tm  Tm16  1  0.673591  0.673448  0.499923  1
  Tm  Tm17  1  0.824888  0.173280  0.751987  1
  Tm  Tm18  1  0.171634  0.825769  0.245639  1
  Tm  Tm19  1  0.322992  0.330973  0.999199  1
  Si  Si20  1  0.862105  0.793291  0.822746  1
  Si  Si21  1  0.139277  0.206307  0.317980  1
  Si  Si22  1  0.799725  0.858587  0.175441  1
  Si  Si23  1  0.294658  0.638087  0.569187  1
  Si  Si24  1  0.712067  0.366982  0.070104  1
  Si  Si25  1  0.636662  0.293001  0.429803  1
  Si  Si26  1  0.355613  0.704260  0.932813  1
  Si  Si27  1  0.204810  0.136892  0.681298  1
  Pt  Pt28  1  0.047975  0.708969  0.440669  1
  Pt  Pt29  1  0.954971  0.299521  0.941885  1
  Pt  Pt30  1  0.710264  0.048154  0.559647  1
  Pt  Pt31  1  0.204231  0.454054  0.187976  1
  Pt  Pt32  1  0.789158  0.549710  0.691222  1
  Pt  Pt33  1  0.452135  0.210132  0.810163  1
  Pt  Pt34  1  0.549562  0.790721  0.307639  1
  Pt  Pt35  1  0.289422  0.948043  0.059100  1
