# generated using pymatgen
data_TbLu7Hf11Si16Os
_symmetry_space_group_name_H-M   'P 1'
_cell_length_a   7.19763819
_cell_length_b   7.20072524
_cell_length_c   13.15274747
_cell_angle_alpha   89.89762563
_cell_angle_beta   90.05183529
_cell_angle_gamma   90.04558326
_symmetry_Int_Tables_number   1
_chemical_formula_structural   TbLu7Hf11Si16Os
_chemical_formula_sum   'Tb1 Lu7 Hf11 Si16 Os1'
_cell_volume   681.68184232
_cell_formula_units_Z   1
loop_
 _symmetry_equiv_pos_site_id
 _symmetry_equiv_pos_as_xyz
  1  'x, y, z'
loop_
 _atom_site_type_symbol
 _atom_site_label
 _atom_site_symmetry_multiplicity
 _atom_site_fract_x
 _atom_site_fract_y
 _atom_site_fract_z
 _atom_site_occupancy
  Tb  Tb0  1  0.654951  0.006459  0.282418  1
  Lu  Lu1  1  0.998936  0.344878  0.211556  1
  Lu  Lu2  1  0.005461  0.654280  0.717816  1
  Lu  Lu3  1  0.155334  0.495209  0.465656  1
  Lu  Lu4  1  0.501298  0.846303  0.032210  1
  Lu  Lu5  1  0.846791  0.501766  0.967020  1
  Lu  Lu6  1  0.494908  0.155078  0.535205  1
  Lu  Lu7  1  0.344376  0.998502  0.788133  1
  Hf  Hf8  1  0.824688  0.824165  0.500484  1
  Hf  Hf9  1  0.323915  0.675231  0.247402  1
  Hf  Hf10  1  0.675643  0.324207  0.752442  1
  Hf  Hf11  1  0.145799  0.998833  0.372236  1
  Hf  Hf12  1  0.854391  0.003845  0.878260  1
  Hf  Hf13  1  0.501767  0.645273  0.626213  1
  Hf  Hf14  1  0.353711  0.498231  0.875923  1
  Hf  Hf15  1  0.497158  0.353647  0.123133  1
  Hf  Hf16  1  0.645550  0.502042  0.374662  1
  Hf  Hf17  1  0.999170  0.144869  0.628559  1
  Hf  Hf18  1  0.003766  0.853288  0.120857  1
  Si  Si19  1  0.355790  0.296804  0.315983  1
  Si  Si20  1  0.642986  0.704819  0.819542  1
  Si  Si21  1  0.205420  0.858627  0.568124  1
  Si  Si22  1  0.139048  0.793476  0.929724  1
  Si  Si23  1  0.794754  0.139470  0.069224  1
  Si  Si24  1  0.860751  0.207116  0.433686  1
  Si  Si25  1  0.295123  0.357178  0.683701  1
  Si  Si26  1  0.705334  0.640619  0.179948  1
  Si  Si27  1  0.293086  0.054756  0.179170  1
  Si  Si28  1  0.701056  0.951116  0.686167  1
  Si  Si29  1  0.448499  0.798143  0.435599  1
  Si  Si30  1  0.203392  0.546464  0.063712  1
  Si  Si31  1  0.546201  0.203406  0.935702  1
  Si  Si32  1  0.799705  0.450263  0.565691  1
  Si  Si33  1  0.054159  0.295488  0.820123  1
  Si  Si34  1  0.952002  0.700488  0.313902  1
  Os  Os35  1  0.175083  0.175664  0.999817  1
