# generated using pymatgen
data_Pu3Ga3Ni2Ir
_symmetry_space_group_name_H-M   'P 1'
_cell_length_a   6.95670900
_cell_length_b   6.95670949
_cell_length_c   3.90162900
_cell_angle_alpha   90.00000000
_cell_angle_beta   90.00000000
_cell_angle_gamma   119.99999418
_symmetry_Int_Tables_number   1
_chemical_formula_structural   Pu3Ga3Ni2Ir
_chemical_formula_sum   'Pu3 Ga3 Ni2 Ir1'
_cell_volume   163.52506588
_cell_formula_units_Z   1
loop_
 _symmetry_equiv_pos_site_id
 _symmetry_equiv_pos_as_xyz
  1  'x, y, z'
loop_
 _atom_site_type_symbol
 _atom_site_label
 _atom_site_symmetry_multiplicity
 _atom_site_fract_x
 _atom_site_fract_y
 _atom_site_fract_z
 _atom_site_occupancy
  Pu  Pu0  1  0.420391  0.004375  0.500000  1
  Pu  Pu1  1  0.995625  0.416016  0.500000  1
  Pu  Pu2  1  0.583984  0.579609  0.500000  1
  Ga  Ga3  1  0.764852  0.004428  0.000000  1
  Ga  Ga4  1  0.995572  0.760424  0.000000  1
  Ga  Ga5  1  0.239576  0.235148  0.000000  1
  Ni  Ni6  1  0.666667  0.333333  0.000000  1
  Ni  Ni7  1  0.000000  0.000000  0.500000  1
  Ir  Ir8  1  0.333333  0.666667  0.000000  1
