# generated using pymatgen
data_AcCe(NbS2)6
_symmetry_space_group_name_H-M   'P 1'
_cell_length_a   5.86848100
_cell_length_b   5.86848071
_cell_length_c   14.48259800
_cell_angle_alpha   90.00000000
_cell_angle_beta   90.00000000
_cell_angle_gamma   120.00000729
_symmetry_Int_Tables_number   1
_chemical_formula_structural   AcCe(NbS2)6
_chemical_formula_sum   'Ac1 Ce1 Nb6 S12'
_cell_volume   431.94500845
_cell_formula_units_Z   1
loop_
 _symmetry_equiv_pos_site_id
 _symmetry_equiv_pos_as_xyz
  1  'x, y, z'
loop_
 _atom_site_type_symbol
 _atom_site_label
 _atom_site_symmetry_multiplicity
 _atom_site_fract_x
 _atom_site_fract_y
 _atom_site_fract_z
 _atom_site_occupancy
  Ac  Ac0  1  0.666667  0.333333  0.750000  1
  Ce  Ce1  1  0.333333  0.666667  0.250000  1
  Nb  Nb2  1  0.333333  0.666667  0.004993  1
  Nb  Nb3  1  0.000000  0.000000  0.004564  1
  Nb  Nb4  1  0.666667  0.333333  0.002870  1
  Nb  Nb5  1  0.333333  0.666667  0.495007  1
  Nb  Nb6  1  0.000000  0.000000  0.495436  1
  Nb  Nb7  1  0.666667  0.333333  0.497130  1
  S  S8  1  0.671375  0.665173  0.388044  1
  S  S9  1  0.666819  0.674890  0.603911  1
  S  S10  1  0.008072  0.674890  0.896089  1
  S  S11  1  0.666819  0.991928  0.896089  1
  S  S12  1  0.671375  0.006204  0.111956  1
  S  S13  1  0.334827  0.006204  0.388044  1
  S  S14  1  0.008072  0.333181  0.603911  1
  S  S15  1  0.325110  0.991928  0.603911  1
  S  S16  1  0.993796  0.665173  0.111956  1
  S  S17  1  0.325110  0.333181  0.896089  1
  S  S18  1  0.993796  0.328625  0.388044  1
  S  S19  1  0.334827  0.328625  0.111956  1
