# generated using pymatgen
data_NaHo5TmSn23Ir6
_symmetry_space_group_name_H-M   'P 1'
_cell_length_a   9.87516403
_cell_length_b   9.87516345
_cell_length_c   10.06555701
_cell_angle_alpha   90.01675402
_cell_angle_beta   89.98324611
_cell_angle_gamma   120.03127880
_symmetry_Int_Tables_number   1
_chemical_formula_structural   NaHo5TmSn23Ir6
_chemical_formula_sum   'Na1 Ho5 Tm1 Sn23 Ir6'
_cell_volume   849.80652520
_cell_formula_units_Z   1
loop_
 _symmetry_equiv_pos_site_id
 _symmetry_equiv_pos_as_xyz
  1  'x, y, z'
loop_
 _atom_site_type_symbol
 _atom_site_label
 _atom_site_symmetry_multiplicity
 _atom_site_fract_x
 _atom_site_fract_y
 _atom_site_fract_z
 _atom_site_occupancy
  Na  Na0  1  0.000398  0.999602  0.999723  1
  Ho  Ho1  1  0.516943  0.033480  0.696469  1
  Ho  Ho2  1  0.966520  0.483057  0.696469  1
  Ho  Ho3  1  0.033374  0.516622  0.303643  1
  Ho  Ho4  1  0.483378  0.966626  0.303643  1
  Ho  Ho5  1  0.483127  0.516873  0.303595  1
  Tm  Tm6  1  0.515650  0.484350  0.697176  1
  Sn  Sn7  1  0.666726  0.333274  0.172365  1
  Sn  Sn8  1  0.665685  0.334315  0.876980  1
  Sn  Sn9  1  0.333163  0.666837  0.122267  1
  Sn  Sn10  1  0.349418  0.349247  0.000004  1
  Sn  Sn11  1  0.999860  0.650436  0.000025  1
  Sn  Sn12  1  0.650606  0.999920  0.999904  1
  Sn  Sn13  1  0.650753  0.650582  0.000004  1
  Sn  Sn14  1  0.333173  0.666827  0.827559  1
  Sn  Sn15  1  0.446848  0.223798  0.463051  1
  Sn  Sn16  1  0.223456  0.776544  0.537313  1
  Sn  Sn17  1  0.223724  0.446526  0.537376  1
  Sn  Sn18  1  0.553474  0.776276  0.537376  1
  Sn  Sn19  1  0.116860  0.883140  0.281921  1
  Sn  Sn20  1  0.776202  0.553152  0.463051  1
  Sn  Sn21  1  0.776810  0.223190  0.462598  1
  Sn  Sn22  1  0.349564  0.000140  0.000025  1
  Sn  Sn23  1  0.116753  0.233222  0.281405  1
  Sn  Sn24  1  0.766778  0.883247  0.281405  1
  Sn  Sn25  1  0.233782  0.117006  0.718095  1
  Sn  Sn26  1  0.882994  0.766218  0.718095  1
  Sn  Sn27  1  0.883355  0.116645  0.718542  1
  Sn  Sn28  1  0.000102  0.999898  0.500084  1
  Sn  Sn29  1  0.000080  0.349394  0.999904  1
  Ir  Ir30  1  0.172346  0.827654  0.795544  1
  Ir  Ir31  1  0.173577  0.345444  0.795440  1
  Ir  Ir32  1  0.654556  0.826423  0.795440  1
  Ir  Ir33  1  0.344916  0.172437  0.204634  1
  Ir  Ir34  1  0.827563  0.655084  0.204634  1
  Ir  Ir35  1  0.827486  0.172514  0.204240  1
