# generated using pymatgen
data_Li3Ca(NpBr6)2
_symmetry_space_group_name_H-M   'P 1'
_cell_length_a   7.15515400
_cell_length_b   7.15515339
_cell_length_c   13.71422600
_cell_angle_alpha   90.00000000
_cell_angle_beta   90.00000000
_cell_angle_gamma   119.99999359
_symmetry_Int_Tables_number   1
_chemical_formula_structural   Li3Ca(NpBr6)2
_chemical_formula_sum   'Li3 Ca1 Np2 Br12'
_cell_volume   608.05084377
_cell_formula_units_Z   1
loop_
 _symmetry_equiv_pos_site_id
 _symmetry_equiv_pos_as_xyz
  1  'x, y, z'
loop_
 _atom_site_type_symbol
 _atom_site_label
 _atom_site_symmetry_multiplicity
 _atom_site_fract_x
 _atom_site_fract_y
 _atom_site_fract_z
 _atom_site_occupancy
  Li  Li0  1  0.666667  0.333333  0.750000  1
  Li  Li1  1  0.333333  0.666667  0.250000  1
  Li  Li2  1  0.000000  0.000000  0.250000  1
  Ca  Ca3  1  0.000000  0.000000  0.750000  1
  Np  Np4  1  0.333333  0.666667  0.750000  1
  Np  Np5  1  0.666667  0.333333  0.250000  1
  Br  Br6  1  0.994805  0.337918  0.634483  1
  Br  Br7  1  0.343115  0.005195  0.634483  1
  Br  Br8  1  0.662082  0.656885  0.634483  1
  Br  Br9  1  0.662082  0.005195  0.865517  1
  Br  Br10  1  0.343115  0.337918  0.865517  1
  Br  Br11  1  0.994805  0.656885  0.865517  1
  Br  Br12  1  0.997228  0.333232  0.138991  1
  Br  Br13  1  0.336003  0.002772  0.138991  1
  Br  Br14  1  0.666768  0.663997  0.138991  1
  Br  Br15  1  0.666768  0.002772  0.361009  1
  Br  Br16  1  0.336003  0.333232  0.361009  1
  Br  Br17  1  0.997228  0.663997  0.361009  1
