# generated using pymatgen
data_Ag3RhF12
_symmetry_space_group_name_H-M   'P 1'
_cell_length_a   5.46404735
_cell_length_b   5.74801748
_cell_length_c   8.14028089
_cell_angle_alpha   94.98688032
_cell_angle_beta   87.18344941
_cell_angle_gamma   90.77011235
_symmetry_Int_Tables_number   1
_chemical_formula_structural   Ag3RhF12
_chemical_formula_sum   'Ag3 Rh1 F12'
_cell_volume   254.37911287
_cell_formula_units_Z   1
loop_
 _symmetry_equiv_pos_site_id
 _symmetry_equiv_pos_as_xyz
  1  'x, y, z'
loop_
 _atom_site_type_symbol
 _atom_site_label
 _atom_site_symmetry_multiplicity
 _atom_site_fract_x
 _atom_site_fract_y
 _atom_site_fract_z
 _atom_site_occupancy
  Ag  Ag0  1  0.000000  0.000000  0.000000  1
  Ag  Ag1  1  0.500000  0.500000  0.500000  1
  Ag  Ag2  1  0.000000  0.000000  0.500000  1
  Rh  Rh3  1  0.500000  0.500000  0.000000  1
  F  F4  1  0.925690  0.998614  0.755286  1
  F  F5  1  0.185461  0.330145  0.553483  1
  F  F6  1  0.221157  0.653354  0.922998  1
  F  F7  1  0.337637  0.490556  0.210437  1
  F  F8  1  0.358102  0.198322  0.932280  1
  F  F9  1  0.329944  0.809527  0.533255  1
  F  F10  1  0.670056  0.190473  0.466745  1
  F  F11  1  0.641898  0.801678  0.067720  1
  F  F12  1  0.662363  0.509444  0.789563  1
  F  F13  1  0.778843  0.346646  0.077002  1
  F  F14  1  0.814539  0.669855  0.446517  1
  F  F15  1  0.074310  0.001386  0.244714  1
