# generated using pymatgen
data_Sm11Ho(ZnAu5)4
_symmetry_space_group_name_H-M   'P 1'
_cell_length_a   8.55644160
_cell_length_b   8.55644272
_cell_length_c   13.53120000
_cell_angle_alpha   90.03927514
_cell_angle_beta   89.96072471
_cell_angle_gamma   127.15374320
_symmetry_Int_Tables_number   1
_chemical_formula_structural   Sm11Ho(ZnAu5)4
_chemical_formula_sum   'Sm11 Ho1 Zn4 Au20'
_cell_volume   789.56998207
_cell_formula_units_Z   1
loop_
 _symmetry_equiv_pos_site_id
 _symmetry_equiv_pos_as_xyz
  1  'x, y, z'
loop_
 _atom_site_type_symbol
 _atom_site_label
 _atom_site_symmetry_multiplicity
 _atom_site_fract_x
 _atom_site_fract_y
 _atom_site_fract_z
 _atom_site_occupancy
  Sm  Sm0  1  0.928210  0.071790  0.250408  1
  Sm  Sm1  1  0.071089  0.928911  0.749452  1
  Sm  Sm2  1  0.319622  0.680378  0.250472  1
  Sm  Sm3  1  0.680341  0.319659  0.749531  1
  Sm  Sm4  1  0.370044  0.629956  0.538275  1
  Sm  Sm5  1  0.630038  0.369962  0.038289  1
  Sm  Sm6  1  0.369780  0.630220  0.961844  1
  Sm  Sm7  1  0.882639  0.117361  0.950926  1
  Sm  Sm8  1  0.117582  0.882418  0.049230  1
  Sm  Sm9  1  0.882267  0.117733  0.548983  1
  Sm  Sm10  1  0.117534  0.882466  0.450978  1
  Ho  Ho11  1  0.629970  0.370030  0.462773  1
  Zn  Zn12  1  0.719924  0.280076  0.250841  1
  Zn  Zn13  1  0.279186  0.720814  0.749420  1
  Zn  Zn14  1  0.533020  0.466980  0.250573  1
  Zn  Zn15  1  0.467619  0.532381  0.749741  1
  Au  Au16  1  0.320201  0.066049  0.249854  1
  Au  Au17  1  0.066637  0.320668  0.749708  1
  Au  Au18  1  0.679332  0.933363  0.749708  1
  Au  Au19  1  0.933951  0.679799  0.249854  1
  Au  Au20  1  0.570016  0.005915  0.396952  1
  Au  Au21  1  0.000545  0.567724  0.603131  1
  Au  Au22  1  0.569380  0.002608  0.104080  1
  Au  Au23  1  0.002211  0.568961  0.895951  1
  Au  Au24  1  0.432276  0.999455  0.603131  1
  Au  Au25  1  0.994085  0.429984  0.396952  1
  Au  Au26  1  0.431039  0.997789  0.895951  1
  Au  Au27  1  0.997392  0.430620  0.104080  1
  Au  Au28  1  0.686247  0.739745  0.394691  1
  Au  Au29  1  0.741227  0.683662  0.604607  1
  Au  Au30  1  0.686724  0.742297  0.106050  1
  Au  Au31  1  0.742512  0.686940  0.894109  1
  Au  Au32  1  0.316338  0.258773  0.604607  1
  Au  Au33  1  0.260255  0.313753  0.394691  1
  Au  Au34  1  0.313060  0.257488  0.894109  1
  Au  Au35  1  0.257703  0.313276  0.106050  1
