# generated using pymatgen
data_La8Nd4Ir3RuBr12
_symmetry_space_group_name_H-M   'P 1'
_cell_length_a   10.59216824
_cell_length_b   10.61255309
_cell_length_c   10.59216771
_cell_angle_alpha   108.67904093
_cell_angle_beta   110.83740714
_cell_angle_gamma   108.67904083
_symmetry_Int_Tables_number   1
_chemical_formula_structural   La8Nd4Ir3RuBr12
_chemical_formula_sum   'La8 Nd4 Ir3 Ru1 Br12'
_cell_volume   918.70571557
_cell_formula_units_Z   1
loop_
 _symmetry_equiv_pos_site_id
 _symmetry_equiv_pos_as_xyz
  1  'x, y, z'
loop_
 _atom_site_type_symbol
 _atom_site_label
 _atom_site_symmetry_multiplicity
 _atom_site_fract_x
 _atom_site_fract_y
 _atom_site_fract_z
 _atom_site_occupancy
  La  La0  1  0.230389  0.263953  0.742268  1
  La  La1  1  0.021292  0.487936  0.757583  1
  La  La2  1  0.476947  0.237325  0.466373  1
  La  La3  1  0.269096  0.014704  0.034998  1
  La  La4  1  0.757732  0.236047  0.269611  1
  La  La5  1  0.742417  0.012064  0.478708  1
  La  La6  1  0.465002  0.485296  0.230904  1
  La  La7  1  0.033627  0.262675  0.023053  1
  Nd  Nd8  1  0.265731  0.750000  0.234269  1
  Nd  Nd9  1  0.484558  0.750000  0.015442  1
  Nd  Nd10  1  0.235513  0.468871  0.482888  1
  Nd  Nd11  1  0.017112  0.031129  0.264487  1
  Ir  Ir12  1  0.500627  0.000644  0.250541  1
  Ir  Ir13  1  0.249459  0.499356  0.999373  1
  Ir  Ir14  1  0.000248  0.250000  0.499752  1
  Ru  Ru15  1  0.250730  0.250000  0.249270  1
  Br  Br16  1  0.244340  0.989507  0.498315  1
  Br  Br17  1  0.508767  0.510411  0.754502  1
  Br  Br18  1  0.255565  0.754287  0.746135  1
  Br  Br19  1  0.990948  0.745865  0.001237  1
  Br  Br20  1  0.001685  0.510493  0.255660  1
  Br  Br21  1  0.745498  0.989589  0.991233  1
  Br  Br22  1  0.753865  0.745713  0.244435  1
  Br  Br23  1  0.498763  0.754135  0.509052  1
  Br  Br24  1  0.503455  0.250000  0.996545  1
  Br  Br25  1  0.752904  0.506592  0.503188  1
  Br  Br26  1  0.746918  0.250000  0.753082  1
  Br  Br27  1  0.996812  0.993408  0.747096  1
