# generated using pymatgen
data_K2BaAs6PdRu5
_symmetry_space_group_name_H-M   'P 1'
_cell_length_a   9.22181172
_cell_length_b   9.22181143
_cell_length_c   7.14358638
_cell_angle_alpha   67.09371550
_cell_angle_beta   67.09371645
_cell_angle_gamma   36.84961214
_symmetry_Int_Tables_number   1
_chemical_formula_structural   K2BaAs6PdRu5
_chemical_formula_sum   'K2 Ba1 As6 Pd1 Ru5'
_cell_volume   332.25835972
_cell_formula_units_Z   1
loop_
 _symmetry_equiv_pos_site_id
 _symmetry_equiv_pos_as_xyz
  1  'x, y, z'
loop_
 _atom_site_type_symbol
 _atom_site_label
 _atom_site_symmetry_multiplicity
 _atom_site_fract_x
 _atom_site_fract_y
 _atom_site_fract_z
 _atom_site_occupancy
  K  K0  1  0.672225  0.668378  0.003369  1
  K  K1  1  0.331622  0.327775  0.996631  1
  Ba  Ba2  1  0.995892  0.004108  0.000000  1
  As  As3  1  0.889383  0.868952  0.702418  1
  As  As4  1  0.216380  0.217203  0.702131  1
  As  As5  1  0.542721  0.561947  0.704543  1
  As  As6  1  0.438053  0.457279  0.295457  1
  As  As7  1  0.782797  0.783620  0.297869  1
  As  As8  1  0.131048  0.110617  0.297582  1
  Pd  Pd9  1  0.750181  0.249819  0.500000  1
  Ru  Ru10  1  0.081919  0.582864  0.497031  1
  Ru  Ru11  1  0.417136  0.918081  0.502969  1
  Ru  Ru12  1  0.585360  0.084665  0.497327  1
  Ru  Ru13  1  0.915335  0.414640  0.502673  1
  Ru  Ru14  1  0.249949  0.750051  0.500000  1
