# generated using pymatgen
data_BeAl3V12(GaN)4
_symmetry_space_group_name_H-M   'P 1'
_cell_length_a   6.57852224
_cell_length_b   6.57852224
_cell_length_c   6.57852224
_cell_angle_alpha   90.04968575
_cell_angle_beta   90.04968575
_cell_angle_gamma   90.04968575
_symmetry_Int_Tables_number   1
_chemical_formula_structural   BeAl3V12(GaN)4
_chemical_formula_sum   'Be1 Al3 V12 Ga4 N4'
_cell_volume   284.69808836
_cell_formula_units_Z   1
loop_
 _symmetry_equiv_pos_site_id
 _symmetry_equiv_pos_as_xyz
  1  'x, y, z'
loop_
 _atom_site_type_symbol
 _atom_site_label
 _atom_site_symmetry_multiplicity
 _atom_site_fract_x
 _atom_site_fract_y
 _atom_site_fract_z
 _atom_site_occupancy
  Be  Be0  1  0.677787  0.677787  0.677787  1
  Al  Al1  1  0.179725  0.818928  0.323467  1
  Al  Al2  1  0.323467  0.179725  0.818928  1
  Al  Al3  1  0.818928  0.323467  0.179725  1
  V  V4  1  0.792824  0.958495  0.374879  1
  V  V5  1  0.707053  0.038562  0.873622  1
  V  V6  1  0.209077  0.458570  0.123686  1
  V  V7  1  0.293216  0.541109  0.625791  1
  V  V8  1  0.958495  0.374879  0.792824  1
  V  V9  1  0.038562  0.873622  0.707053  1
  V  V10  1  0.458570  0.123686  0.209077  1
  V  V11  1  0.541109  0.625791  0.293216  1
  V  V12  1  0.374879  0.792824  0.958495  1
  V  V13  1  0.873622  0.707053  0.038562  1
  V  V14  1  0.123686  0.209077  0.458570  1
  V  V15  1  0.625791  0.293216  0.541109  1
  Ga  Ga16  1  0.575847  0.442754  0.917085  1
  Ga  Ga17  1  0.442754  0.917085  0.575847  1
  Ga  Ga18  1  0.917085  0.575847  0.442754  1
  Ga  Ga19  1  0.069693  0.069693  0.069693  1
  N  N20  1  0.873843  0.123805  0.625308  1
  N  N21  1  0.625308  0.873843  0.123805  1
  N  N22  1  0.123805  0.625308  0.873843  1
  N  N23  1  0.374873  0.374873  0.374873  1
