# generated using pymatgen
data_SmTm4Pa3(ReB6)4
_symmetry_space_group_name_H-M   'P 1'
_cell_length_a   3.69739400
_cell_length_b   9.14307793
_cell_length_c   11.50830700
_cell_angle_alpha   90.13254066
_cell_angle_beta   90.00000000
_cell_angle_gamma   90.00000000
_symmetry_Int_Tables_number   1
_chemical_formula_structural   SmTm4Pa3(ReB6)4
_chemical_formula_sum   'Sm1 Tm4 Pa3 Re4 B24'
_cell_volume   389.04373915
_cell_formula_units_Z   1
loop_
 _symmetry_equiv_pos_site_id
 _symmetry_equiv_pos_as_xyz
  1  'x, y, z'
loop_
 _atom_site_type_symbol
 _atom_site_label
 _atom_site_symmetry_multiplicity
 _atom_site_fract_x
 _atom_site_fract_y
 _atom_site_fract_z
 _atom_site_occupancy
  Sm  Sm0  1  0.000000  0.179037  0.912945  1
  Tm  Tm1  1  0.000000  0.945378  0.374732  1
  Tm  Tm2  1  0.000000  0.055216  0.627029  1
  Tm  Tm3  1  0.000000  0.444017  0.125509  1
  Tm  Tm4  1  0.000000  0.553870  0.873846  1
  Pa  Pa5  1  0.000000  0.321149  0.413361  1
  Pa  Pa6  1  0.000000  0.678265  0.586993  1
  Pa  Pa7  1  0.000000  0.822962  0.086150  1
  Re  Re8  1  0.000000  0.638741  0.321559  1
  Re  Re9  1  0.000000  0.364227  0.675049  1
  Re  Re10  1  0.000000  0.138311  0.182119  1
  Re  Re11  1  0.000000  0.858095  0.820457  1
  B  B12  1  0.500000  0.553951  0.432398  1
  B  B13  1  0.500000  0.446878  0.566239  1
  B  B14  1  0.500000  0.052860  0.069102  1
  B  B15  1  0.500000  0.944213  0.932856  1
  B  B16  1  0.500000  0.749470  0.420133  1
  B  B17  1  0.500000  0.251077  0.580024  1
  B  B18  1  0.500000  0.249260  0.081276  1
  B  B19  1  0.500000  0.750688  0.920298  1
  B  B20  1  0.500000  0.792932  0.265699  1
  B  B21  1  0.500000  0.208251  0.732894  1
  B  B22  1  0.500000  0.292974  0.234187  1
  B  B23  1  0.500000  0.706635  0.765604  1
  B  B24  1  0.500000  0.632278  0.184442  1
  B  B25  1  0.500000  0.369224  0.813995  1
  B  B26  1  0.500000  0.132278  0.315779  1
  B  B27  1  0.500000  0.867377  0.685245  1
  B  B28  1  0.500000  0.982263  0.213853  1
  B  B29  1  0.500000  0.016369  0.785718  1
  B  B30  1  0.500000  0.482923  0.285752  1
  B  B31  1  0.500000  0.517307  0.713715  1
  B  B32  1  0.500000  0.607097  0.029782  1
  B  B33  1  0.500000  0.394453  0.970575  1
  B  B34  1  0.500000  0.108484  0.470494  1
  B  B35  1  0.500000  0.891490  0.530192  1
