# generated using pymatgen
data_Rb4Al3Ga(SiSe4)4
_symmetry_space_group_name_H-M   'P 1'
_cell_length_a   16.97326170
_cell_length_b   7.26235487
_cell_length_c   7.89838603
_cell_angle_alpha   70.23993255
_cell_angle_beta   90.08351514
_cell_angle_gamma   89.88074798
_symmetry_Int_Tables_number   1
_chemical_formula_structural   Rb4Al3Ga(SiSe4)4
_chemical_formula_sum   'Rb4 Al3 Ga1 Si4 Se16'
_cell_volume   916.26793647
_cell_formula_units_Z   1
loop_
 _symmetry_equiv_pos_site_id
 _symmetry_equiv_pos_as_xyz
  1  'x, y, z'
loop_
 _atom_site_type_symbol
 _atom_site_label
 _atom_site_symmetry_multiplicity
 _atom_site_fract_x
 _atom_site_fract_y
 _atom_site_fract_z
 _atom_site_occupancy
  Rb  Rb0  1  0.394180  0.955611  0.185623  1
  Rb  Rb1  1  0.895326  0.042263  0.815095  1
  Rb  Rb2  1  0.602936  0.521954  0.825415  1
  Rb  Rb3  1  0.104085  0.481836  0.174642  1
  Al  Al4  1  0.582660  0.164646  0.479925  1
  Al  Al5  1  0.082995  0.835356  0.520648  1
  Al  Al6  1  0.272585  0.587937  0.702015  1
  Ga  Ga7  1  0.772259  0.409509  0.297696  1
  Si  Si8  1  0.421076  0.318515  0.539309  1
  Si  Si9  1  0.921353  0.681774  0.461577  1
  Si  Si10  1  0.725711  0.913543  0.274591  1
  Si  Si11  1  0.226087  0.085921  0.723796  1
  Se  Se12  1  0.598706  0.886546  0.379751  1
  Se  Se13  1  0.098918  0.114582  0.619105  1
  Se  Se14  1  0.410801  0.590152  0.624655  1
  Se  Se15  1  0.912029  0.408783  0.378300  1
  Se  Se16  1  0.801305  0.788151  0.535488  1
  Se  Se17  1  0.301514  0.211932  0.463681  1
  Se  Se18  1  0.200754  0.721487  0.430982  1
  Se  Se19  1  0.699978  0.278497  0.571718  1
  Se  Se20  1  0.763467  0.219633  0.092820  1
  Se  Se21  1  0.263917  0.777943  0.903675  1
  Se  Se22  1  0.236914  0.267115  0.910908  1
  Se  Se23  1  0.736513  0.734400  0.086204  1
  Se  Se24  1  0.995601  0.919375  0.259176  1
  Se  Se25  1  0.496063  0.081609  0.742278  1
  Se  Se26  1  0.991598  0.608857  0.725792  1
  Se  Se27  1  0.490664  0.392072  0.275135  1
