# generated using pymatgen
data_Hf2Al3Re
_symmetry_space_group_name_H-M   'P 1'
_cell_length_a   5.23747500
_cell_length_b   5.23747527
_cell_length_c   8.70106300
_cell_angle_alpha   90.00000000
_cell_angle_beta   90.00000000
_cell_angle_gamma   119.99999199
_symmetry_Int_Tables_number   1
_chemical_formula_structural   Hf2Al3Re
_chemical_formula_sum   'Hf4 Al6 Re2'
_cell_volume   206.70307056
_cell_formula_units_Z   2
loop_
 _symmetry_equiv_pos_site_id
 _symmetry_equiv_pos_as_xyz
  1  'x, y, z'
loop_
 _atom_site_type_symbol
 _atom_site_label
 _atom_site_symmetry_multiplicity
 _atom_site_fract_x
 _atom_site_fract_y
 _atom_site_fract_z
 _atom_site_occupancy
  Hf  Hf0  1  0.333333  0.666667  0.053015  1
  Hf  Hf1  1  0.666667  0.333333  0.553015  1
  Hf  Hf2  1  0.666667  0.333333  0.946985  1
  Hf  Hf3  1  0.333333  0.666667  0.446985  1
  Al  Al4  1  0.833720  0.667441  0.250000  1
  Al  Al5  1  0.166280  0.833720  0.750000  1
  Al  Al6  1  0.667441  0.833720  0.750000  1
  Al  Al7  1  0.332559  0.166280  0.250000  1
  Al  Al8  1  0.833720  0.166280  0.250000  1
  Al  Al9  1  0.166280  0.332559  0.750000  1
  Re  Re10  1  0.000000  0.000000  0.000000  1
  Re  Re11  1  0.000000  0.000000  0.500000  1
