# generated using pymatgen
data_Er(NbS2)3
_symmetry_space_group_name_H-M   'P 1'
_cell_length_a   5.84515700
_cell_length_b   5.84515760
_cell_length_c   13.68191200
_cell_angle_alpha   90.00000000
_cell_angle_beta   90.00000000
_cell_angle_gamma   119.99987197
_symmetry_Int_Tables_number   1
_chemical_formula_structural   Er(NbS2)3
_chemical_formula_sum   'Er2 Nb6 S12'
_cell_volume   404.82785818
_cell_formula_units_Z   2
loop_
 _symmetry_equiv_pos_site_id
 _symmetry_equiv_pos_as_xyz
  1  'x, y, z'
loop_
 _atom_site_type_symbol
 _atom_site_label
 _atom_site_symmetry_multiplicity
 _atom_site_fract_x
 _atom_site_fract_y
 _atom_site_fract_z
 _atom_site_occupancy
  Er  Er0  1  0.000000  0.000000  0.000000  1
  Er  Er1  1  0.000000  0.000000  0.500000  1
  Nb  Nb2  1  0.000015  0.000016  0.250000  1
  Nb  Nb3  1  0.666674  0.333341  0.250000  1
  Nb  Nb4  1  0.333340  0.666675  0.250000  1
  Nb  Nb5  1  0.999985  0.999984  0.750000  1
  Nb  Nb6  1  0.666660  0.333325  0.750000  1
  Nb  Nb7  1  0.333326  0.666659  0.750000  1
  S  S8  1  0.337045  0.000009  0.134307  1
  S  S9  1  0.000009  0.337045  0.134307  1
  S  S10  1  0.662977  0.662978  0.134305  1
  S  S11  1  0.662977  0.662978  0.365694  1
  S  S12  1  0.337045  0.000009  0.365693  1
  S  S13  1  0.000009  0.337045  0.365693  1
  S  S14  1  0.662953  0.999989  0.634307  1
  S  S15  1  0.999991  0.662955  0.634307  1
  S  S16  1  0.337024  0.337024  0.634306  1
  S  S17  1  0.337024  0.337024  0.865694  1
  S  S18  1  0.662953  0.999989  0.865693  1
  S  S19  1  0.999991  0.662955  0.865693  1
