# generated using pymatgen
data_FeBi6(RuO9)2
_symmetry_space_group_name_H-M   'P 1'
_cell_length_a   9.23053800
_cell_length_b   9.23053642
_cell_length_c   5.20409600
_cell_angle_alpha   90.00000000
_cell_angle_beta   90.00000000
_cell_angle_gamma   119.99999420
_symmetry_Int_Tables_number   1
_chemical_formula_structural   FeBi6(RuO9)2
_chemical_formula_sum   'Fe1 Bi6 Ru2 O18'
_cell_volume   383.99883902
_cell_formula_units_Z   1
loop_
 _symmetry_equiv_pos_site_id
 _symmetry_equiv_pos_as_xyz
  1  'x, y, z'
loop_
 _atom_site_type_symbol
 _atom_site_label
 _atom_site_symmetry_multiplicity
 _atom_site_fract_x
 _atom_site_fract_y
 _atom_site_fract_z
 _atom_site_occupancy
  Fe  Fe0  1  0.666667  0.333333  0.996054  1
  Bi  Bi1  1  0.987560  0.374470  0.501438  1
  Bi  Bi2  1  0.292853  0.287893  0.005748  1
  Bi  Bi3  1  0.995038  0.707147  0.005748  1
  Bi  Bi4  1  0.625530  0.613090  0.501438  1
  Bi  Bi5  1  0.386910  0.012440  0.501438  1
  Bi  Bi6  1  0.712107  0.004962  0.005748  1
  Ru  Ru7  1  0.000000  0.000000  0.507439  1
  Ru  Ru8  1  0.333333  0.666667  0.000529  1
  O  O9  1  0.079387  0.195973  0.711803  1
  O  O10  1  0.230874  0.469628  0.215767  1
  O  O11  1  0.137179  0.600998  0.786599  1
  O  O12  1  0.399002  0.536180  0.786599  1
  O  O13  1  0.238755  0.769126  0.215767  1
  O  O14  1  0.116585  0.920613  0.711803  1
  O  O15  1  0.530372  0.761245  0.215767  1
  O  O16  1  0.197137  0.071550  0.281608  1
  O  O17  1  0.463820  0.862821  0.786599  1
  O  O18  1  0.804027  0.883415  0.711803  1
  O  O19  1  0.456346  0.229015  0.775231  1
  O  O20  1  0.596919  0.128586  0.220464  1
  O  O21  1  0.531667  0.403081  0.220464  1
  O  O22  1  0.770985  0.227331  0.775231  1
  O  O23  1  0.928450  0.125587  0.281608  1
  O  O24  1  0.772669  0.543654  0.775231  1
  O  O25  1  0.871414  0.468333  0.220464  1
  O  O26  1  0.874413  0.802863  0.281608  1
