# generated using pymatgen
data_YHo5ReB14Os
_symmetry_space_group_name_H-M   'P 1'
_cell_length_a   8.04029507
_cell_length_b   8.04029542
_cell_length_c   9.31369300
_cell_angle_alpha   90.00000000
_cell_angle_beta   90.00000000
_cell_angle_gamma   154.68692813
_symmetry_Int_Tables_number   1
_chemical_formula_structural   YHo5ReB14Os
_chemical_formula_sum   'Y1 Ho5 Re1 B14 Os1'
_cell_volume   257.43474453
_cell_formula_units_Z   1
loop_
 _symmetry_equiv_pos_site_id
 _symmetry_equiv_pos_as_xyz
  1  'x, y, z'
loop_
 _atom_site_type_symbol
 _atom_site_label
 _atom_site_symmetry_multiplicity
 _atom_site_fract_x
 _atom_site_fract_y
 _atom_site_fract_z
 _atom_site_occupancy
  Y  Y0  1  0.244163  0.755837  0.250000  1
  Ho  Ho1  1  0.894524  0.105476  0.059651  1
  Ho  Ho2  1  0.105695  0.894305  0.561041  1
  Ho  Ho3  1  0.105695  0.894305  0.938959  1
  Ho  Ho4  1  0.894524  0.105476  0.440349  1
  Ho  Ho5  1  0.756899  0.243101  0.750000  1
  Re  Re6  1  0.947391  0.052608  0.750000  1
  B  B7  1  0.456323  0.543677  0.250000  1
  B  B8  1  0.544108  0.455892  0.750000  1
  B  B9  1  0.726927  0.273073  0.034091  1
  B  B10  1  0.272389  0.727611  0.533948  1
  B  B11  1  0.272389  0.727611  0.966052  1
  B  B12  1  0.726927  0.273073  0.465909  1
  B  B13  1  0.631580  0.368420  0.349156  1
  B  B14  1  0.367649  0.632351  0.849168  1
  B  B15  1  0.367649  0.632351  0.650832  1
  B  B16  1  0.631580  0.368420  0.150844  1
  B  B17  1  0.520490  0.479510  0.404083  1
  B  B18  1  0.479519  0.520481  0.904821  1
  B  B19  1  0.479519  0.520481  0.595179  1
  B  B20  1  0.520490  0.479510  0.095917  1
  Os  Os21  1  0.053568  0.946432  0.250000  1
