# generated using pymatgen
data_Sr9Ca11Bi16
_symmetry_space_group_name_H-M   'P 1'
_cell_length_a   8.64129500
_cell_length_b   8.65302000
_cell_length_c   17.00408500
_cell_angle_alpha   90.00000000
_cell_angle_beta   90.00000000
_cell_angle_gamma   90.00000000
_symmetry_Int_Tables_number   1
_chemical_formula_structural   Sr9Ca11Bi16
_chemical_formula_sum   'Sr9 Ca11 Bi16'
_cell_volume   1271.45152276
_cell_formula_units_Z   1
loop_
 _symmetry_equiv_pos_site_id
 _symmetry_equiv_pos_as_xyz
  1  'x, y, z'
loop_
 _atom_site_type_symbol
 _atom_site_label
 _atom_site_symmetry_multiplicity
 _atom_site_fract_x
 _atom_site_fract_y
 _atom_site_fract_z
 _atom_site_occupancy
  Sr  Sr0  1  0.032418  0.180917  0.092545  1
  Sr  Sr1  1  0.531822  0.318127  0.407675  1
  Sr  Sr2  1  0.470633  0.681016  0.910213  1
  Sr  Sr3  1  0.967215  0.816883  0.589794  1
  Sr  Sr4  1  0.967215  0.816883  0.910206  1
  Sr  Sr5  1  0.470633  0.681016  0.589787  1
  Sr  Sr6  1  0.531822  0.318127  0.092325  1
  Sr  Sr7  1  0.032418  0.180917  0.407455  1
  Sr  Sr8  1  0.285377  0.009357  0.750000  1
  Ca  Ca9  1  0.874950  0.648889  0.113821  1
  Ca  Ca10  1  0.375122  0.850861  0.386129  1
  Ca  Ca11  1  0.626322  0.149809  0.888880  1
  Ca  Ca12  1  0.124642  0.351949  0.610749  1
  Ca  Ca13  1  0.124642  0.351949  0.889251  1
  Ca  Ca14  1  0.626322  0.149809  0.611120  1
  Ca  Ca15  1  0.375122  0.850861  0.113871  1
  Ca  Ca16  1  0.874950  0.648889  0.386179  1
  Ca  Ca17  1  0.715390  0.990678  0.250000  1
  Ca  Ca18  1  0.215127  0.509099  0.250000  1
  Ca  Ca19  1  0.785005  0.489479  0.750000  1
  Bi  Bi20  1  0.086241  0.885823  0.250000  1
  Bi  Bi21  1  0.586026  0.614330  0.250000  1
  Bi  Bi22  1  0.417926  0.397315  0.750000  1
  Bi  Bi23  1  0.904120  0.122321  0.750000  1
  Bi  Bi24  1  0.841938  0.359835  0.250000  1
  Bi  Bi25  1  0.343044  0.140472  0.250000  1
  Bi  Bi26  1  0.666726  0.853189  0.750000  1
  Bi  Bi27  1  0.145686  0.631895  0.750000  1
  Bi  Bi28  1  0.784661  0.457877  0.952411  1
  Bi  Bi29  1  0.284608  0.041898  0.546407  1
  Bi  Bi30  1  0.715637  0.958214  0.050072  1
  Bi  Bi31  1  0.215669  0.541663  0.449855  1
  Bi  Bi32  1  0.215669  0.541663  0.050145  1
  Bi  Bi33  1  0.715637  0.958214  0.449928  1
  Bi  Bi34  1  0.284608  0.041898  0.953593  1
  Bi  Bi35  1  0.784661  0.457877  0.547589  1
