# generated using pymatgen
data_Cs12Na8Ta(NbP4)3
_symmetry_space_group_name_H-M   'P 1'
_cell_length_a   10.48821207
_cell_length_b   10.48821362
_cell_length_c   16.79234033
_cell_angle_alpha   90.00740469
_cell_angle_beta   90.00740619
_cell_angle_gamma   141.94210813
_symmetry_Int_Tables_number   1
_chemical_formula_structural   Cs12Na8Ta(NbP4)3
_chemical_formula_sum   'Cs12 Na8 Ta1 Nb3 P12'
_cell_volume   1138.72072999
_cell_formula_units_Z   1
loop_
 _symmetry_equiv_pos_site_id
 _symmetry_equiv_pos_as_xyz
  1  'x, y, z'
loop_
 _atom_site_type_symbol
 _atom_site_label
 _atom_site_symmetry_multiplicity
 _atom_site_fract_x
 _atom_site_fract_y
 _atom_site_fract_z
 _atom_site_occupancy
  Cs  Cs0  1  0.944463  0.611799  0.827431  1
  Cs  Cs1  1  0.555645  0.888279  0.327386  1
  Cs  Cs2  1  0.388201  0.055537  0.172569  1
  Cs  Cs3  1  0.055756  0.388220  0.172541  1
  Cs  Cs4  1  0.888284  0.555654  0.327415  1
  Cs  Cs5  1  0.444346  0.111716  0.672585  1
  Cs  Cs6  1  0.611780  0.944244  0.827459  1
  Cs  Cs7  1  0.278986  0.278995  0.314629  1
  Cs  Cs8  1  0.778978  0.779099  0.185396  1
  Cs  Cs9  1  0.220901  0.221022  0.814604  1
  Cs  Cs10  1  0.721005  0.721014  0.685371  1
  Cs  Cs11  1  0.111721  0.444355  0.672614  1
  Na  Na12  1  0.921367  0.078633  0.000000  1
  Na  Na13  1  0.578621  0.421379  0.500000  1
  Na  Na14  1  0.078643  0.921357  0.000000  1
  Na  Na15  1  0.421374  0.578626  0.500000  1
  Na  Na16  1  0.755547  0.244453  0.000000  1
  Na  Na17  1  0.744505  0.255495  0.500000  1
  Na  Na18  1  0.244516  0.755484  0.000000  1
  Na  Na19  1  0.255510  0.744490  0.500000  1
  Ta  Ta20  1  0.581561  0.418439  0.000000  1
  Nb  Nb21  1  0.918072  0.081928  0.500000  1
  Nb  Nb22  1  0.417766  0.582234  0.000000  1
  Nb  Nb23  1  0.081925  0.918075  0.500000  1
  P  P24  1  0.856687  0.552640  0.085646  1
  P  P25  1  0.447360  0.143313  0.914354  1
  P  P26  1  0.641575  0.946350  0.586220  1
  P  P27  1  0.946352  0.641586  0.586225  1
  P  P28  1  0.141099  0.446141  0.913623  1
  P  P29  1  0.553859  0.858901  0.086377  1
  P  P30  1  0.358414  0.053648  0.413775  1
  P  P31  1  0.193541  0.193510  0.581256  1
  P  P32  1  0.693682  0.692183  0.919031  1
  P  P33  1  0.307817  0.306318  0.080969  1
  P  P34  1  0.053650  0.358425  0.413780  1
  P  P35  1  0.806490  0.806459  0.418744  1
