# generated using pymatgen
data_Zr8Fe2PdRh
_symmetry_space_group_name_H-M   'P 1'
_cell_length_a   8.70583153
_cell_length_b   8.70583251
_cell_length_c   8.70972100
_cell_angle_alpha   59.98523513
_cell_angle_beta   59.98523138
_cell_angle_gamma   59.97399184
_symmetry_Int_Tables_number   1
_chemical_formula_structural   Zr8Fe2PdRh
_chemical_formula_sum   'Zr16 Fe4 Pd2 Rh2'
_cell_volume   466.58142316
_cell_formula_units_Z   2
loop_
 _symmetry_equiv_pos_site_id
 _symmetry_equiv_pos_as_xyz
  1  'x, y, z'
loop_
 _atom_site_type_symbol
 _atom_site_label
 _atom_site_symmetry_multiplicity
 _atom_site_fract_x
 _atom_site_fract_y
 _atom_site_fract_z
 _atom_site_occupancy
  Zr  Zr0  1  0.059183  0.647139  0.646839  1
  Zr  Zr1  1  0.647139  0.059183  0.646839  1
  Zr  Zr2  1  0.646269  0.646269  0.060705  1
  Zr  Zr3  1  0.646269  0.646269  0.646759  1
  Zr  Zr4  1  0.807935  0.807935  0.192065  1
  Zr  Zr5  1  0.193022  0.193022  0.806978  1
  Zr  Zr6  1  0.807157  0.192347  0.807826  1
  Zr  Zr7  1  0.192347  0.807157  0.192668  1
  Zr  Zr8  1  0.192347  0.807157  0.807826  1
  Zr  Zr9  1  0.807157  0.192347  0.192668  1
  Zr  Zr10  1  0.439201  0.439201  0.060799  1
  Zr  Zr11  1  0.062243  0.062243  0.437757  1
  Zr  Zr12  1  0.439258  0.064878  0.438497  1
  Zr  Zr13  1  0.064878  0.439258  0.057367  1
  Zr  Zr14  1  0.064878  0.439258  0.438497  1
  Zr  Zr15  1  0.439258  0.064878  0.057367  1
  Fe  Fe16  1  0.424845  0.857914  0.858620  1
  Fe  Fe17  1  0.857914  0.424845  0.858620  1
  Fe  Fe18  1  0.858134  0.858134  0.424196  1
  Fe  Fe19  1  0.858134  0.858134  0.859534  1
  Pd  Pd20  1  0.749734  0.415978  0.417144  1
  Pd  Pd21  1  0.415978  0.749734  0.417144  1
  Rh  Rh22  1  0.413361  0.413361  0.757933  1
  Rh  Rh23  1  0.413361  0.413361  0.415348  1
