# generated using pymatgen
data_DyY2Ho4Tm(InAu2)4
_symmetry_space_group_name_H-M   'P 1'
_cell_length_a   8.03274951
_cell_length_b   8.02217183
_cell_length_c   7.32975000
_cell_angle_alpha   90.00000000
_cell_angle_beta   90.00000000
_cell_angle_gamma   89.97232569
_symmetry_Int_Tables_number   1
_chemical_formula_structural   DyY2Ho4Tm(InAu2)4
_chemical_formula_sum   'Dy1 Y2 Ho4 Tm1 In4 Au8'
_cell_volume   472.32974456
_cell_formula_units_Z   1
loop_
 _symmetry_equiv_pos_site_id
 _symmetry_equiv_pos_as_xyz
  1  'x, y, z'
loop_
 _atom_site_type_symbol
 _atom_site_label
 _atom_site_symmetry_multiplicity
 _atom_site_fract_x
 _atom_site_fract_y
 _atom_site_fract_z
 _atom_site_occupancy
  Dy  Dy0  1  0.839940  0.160067  0.500000  1
  Y  Y1  1  0.159961  0.840254  0.500000  1
  Y  Y2  1  0.679753  0.679051  0.500000  1
  Ho  Ho3  1  0.340595  0.339922  0.000000  1
  Ho  Ho4  1  0.659803  0.658980  0.000000  1
  Ho  Ho5  1  0.321422  0.320682  0.500000  1
  Ho  Ho6  1  0.178985  0.821810  0.000000  1
  Tm  Tm7  1  0.821811  0.178965  0.000000  1
  In  In8  1  0.500244  0.000161  0.249090  1
  In  In9  1  0.000292  0.499715  0.750743  1
  In  In10  1  0.500244  0.000161  0.750910  1
  In  In11  1  0.000292  0.499715  0.249257  1
  Au  Au12  1  0.629099  0.369693  0.266340  1
  Au  Au13  1  0.370688  0.627494  0.267527  1
  Au  Au14  1  0.128102  0.130339  0.771612  1
  Au  Au15  1  0.870441  0.872731  0.773800  1
  Au  Au16  1  0.370688  0.627494  0.732473  1
  Au  Au17  1  0.629099  0.369693  0.733660  1
  Au  Au18  1  0.870441  0.872731  0.226200  1
  Au  Au19  1  0.128102  0.130339  0.228388  1
