# generated using pymatgen
data_La2Pr2ErRu2
_symmetry_space_group_name_H-M   'P 1'
_cell_length_a   6.63804813
_cell_length_b   7.23991764
_cell_length_c   9.02087328
_cell_angle_alpha   95.45398540
_cell_angle_beta   111.58783085
_cell_angle_gamma   90.00000505
_symmetry_Int_Tables_number   1
_chemical_formula_structural   La2Pr2ErRu2
_chemical_formula_sum   'La4 Pr4 Er2 Ru4'
_cell_volume   401.01160772
_cell_formula_units_Z   2
loop_
 _symmetry_equiv_pos_site_id
 _symmetry_equiv_pos_as_xyz
  1  'x, y, z'
loop_
 _atom_site_type_symbol
 _atom_site_label
 _atom_site_symmetry_multiplicity
 _atom_site_fract_x
 _atom_site_fract_y
 _atom_site_fract_z
 _atom_site_occupancy
  La  La0  1  0.793322  0.591714  0.815117  1
  La  La1  1  0.978205  0.908286  0.184883  1
  La  La2  1  0.206678  0.408286  0.184883  1
  La  La3  1  0.021795  0.091714  0.815117  1
  Pr  Pr4  1  0.208719  0.685828  0.571389  1
  Pr  Pr5  1  0.637330  0.814172  0.428611  1
  Pr  Pr6  1  0.791281  0.314172  0.428611  1
  Pr  Pr7  1  0.362670  0.185828  0.571389  1
  Er  Er8  1  0.431989  0.750000  0.000000  1
  Er  Er9  1  0.568011  0.250000  0.000000  1
  Ru  Ru10  1  0.608322  0.919723  0.788802  1
  Ru  Ru11  1  0.819519  0.580277  0.211198  1
  Ru  Ru12  1  0.391678  0.080277  0.211198  1
  Ru  Ru13  1  0.180481  0.419723  0.788802  1
