# generated using pymatgen
data_Tm9Cd5Ni4
_symmetry_space_group_name_H-M   'P 1'
_cell_length_a   10.62130300
_cell_length_b   10.62130300
_cell_length_c   3.59339000
_cell_angle_alpha   90.00000000
_cell_angle_beta   90.00000000
_cell_angle_gamma   90.00000000
_symmetry_Int_Tables_number   1
_chemical_formula_structural   Tm9Cd5Ni4
_chemical_formula_sum   'Tm9 Cd5 Ni4'
_cell_volume   405.37779087
_cell_formula_units_Z   1
loop_
 _symmetry_equiv_pos_site_id
 _symmetry_equiv_pos_as_xyz
  1  'x, y, z'
loop_
 _atom_site_type_symbol
 _atom_site_label
 _atom_site_symmetry_multiplicity
 _atom_site_fract_x
 _atom_site_fract_y
 _atom_site_fract_z
 _atom_site_occupancy
  Tm  Tm0  1  0.325556  0.325556  0.500000  1
  Tm  Tm1  1  0.674444  0.674444  0.500000  1
  Tm  Tm2  1  0.325556  0.674444  0.500000  1
  Tm  Tm3  1  0.674444  0.325556  0.500000  1
  Tm  Tm4  1  0.000000  0.284075  0.500000  1
  Tm  Tm5  1  0.000000  0.715925  0.500000  1
  Tm  Tm6  1  0.284075  0.000000  0.500000  1
  Tm  Tm7  1  0.715925  0.000000  0.500000  1
  Tm  Tm8  1  0.000000  0.000000  0.000000  1
  Cd  Cd9  1  0.500000  0.144835  0.000000  1
  Cd  Cd10  1  0.500000  0.855165  0.000000  1
  Cd  Cd11  1  0.144835  0.500000  0.000000  1
  Cd  Cd12  1  0.855165  0.500000  0.000000  1
  Cd  Cd13  1  0.500000  0.500000  0.000000  1
  Ni  Ni14  1  0.188962  0.188962  0.000000  1
  Ni  Ni15  1  0.811038  0.811038  0.000000  1
  Ni  Ni16  1  0.188962  0.811038  0.000000  1
  Ni  Ni17  1  0.811038  0.188962  0.000000  1
