# generated using pymatgen
data_Li2Y9Tm9(Cd3Ru)2
_symmetry_space_group_name_H-M   'P 1'
_cell_length_a   9.42858700
_cell_length_b   9.42858687
_cell_length_c   9.66664600
_cell_angle_alpha   90.00000000
_cell_angle_beta   90.00000000
_cell_angle_gamma   119.99999695
_symmetry_Int_Tables_number   1
_chemical_formula_structural   Li2Y9Tm9(Cd3Ru)2
_chemical_formula_sum   'Li2 Y9 Tm9 Cd6 Ru2'
_cell_volume   744.21715914
_cell_formula_units_Z   1
loop_
 _symmetry_equiv_pos_site_id
 _symmetry_equiv_pos_as_xyz
  1  'x, y, z'
loop_
 _atom_site_type_symbol
 _atom_site_label
 _atom_site_symmetry_multiplicity
 _atom_site_fract_x
 _atom_site_fract_y
 _atom_site_fract_z
 _atom_site_occupancy
  Li  Li0  1  0.000000  0.000000  0.500342  1
  Li  Li1  1  0.000000  0.000000  0.999453  1
  Y  Y2  1  0.206858  0.793142  0.057932  1
  Y  Y3  1  0.206858  0.413716  0.057932  1
  Y  Y4  1  0.586284  0.793142  0.057932  1
  Y  Y5  1  0.542443  0.457557  0.251421  1
  Y  Y6  1  0.542443  0.084887  0.251421  1
  Y  Y7  1  0.915113  0.457557  0.251421  1
  Y  Y8  1  0.458708  0.541292  0.747890  1
  Y  Y9  1  0.458708  0.917415  0.747890  1
  Y  Y10  1  0.082585  0.541292  0.747890  1
  Tm  Tm11  1  0.208863  0.791137  0.442444  1
  Tm  Tm12  1  0.208863  0.417727  0.442444  1
  Tm  Tm13  1  0.582273  0.791137  0.442444  1
  Tm  Tm14  1  0.791102  0.208898  0.558415  1
  Tm  Tm15  1  0.791102  0.582202  0.558415  1
  Tm  Tm16  1  0.417798  0.208898  0.558415  1
  Tm  Tm17  1  0.790414  0.209586  0.940912  1
  Tm  Tm18  1  0.790414  0.580827  0.940912  1
  Tm  Tm19  1  0.419173  0.209586  0.940912  1
  Cd  Cd20  1  0.891632  0.108368  0.250456  1
  Cd  Cd21  1  0.891632  0.783266  0.250456  1
  Cd  Cd22  1  0.216734  0.108368  0.250456  1
  Cd  Cd23  1  0.108112  0.891888  0.749718  1
  Cd  Cd24  1  0.108112  0.216223  0.749718  1
  Cd  Cd25  1  0.783777  0.891888  0.749718  1
  Ru  Ru26  1  0.333333  0.666667  0.253090  1
  Ru  Ru27  1  0.666667  0.333333  0.749553  1
