# generated using pymatgen
data_Tb5SmEuRuI12
_symmetry_space_group_name_H-M   'P 1'
_cell_length_a   9.95627980
_cell_length_b   9.87646490
_cell_length_c   9.90466767
_cell_angle_alpha   106.46120928
_cell_angle_beta   106.56656199
_cell_angle_gamma   106.85626541
_symmetry_Int_Tables_number   1
_chemical_formula_structural   Tb5SmEuRuI12
_chemical_formula_sum   'Tb5 Sm1 Eu1 Ru1 I12'
_cell_volume   819.20164209
_cell_formula_units_Z   1
loop_
 _symmetry_equiv_pos_site_id
 _symmetry_equiv_pos_as_xyz
  1  'x, y, z'
loop_
 _atom_site_type_symbol
 _atom_site_label
 _atom_site_symmetry_multiplicity
 _atom_site_fract_x
 _atom_site_fract_y
 _atom_site_fract_z
 _atom_site_occupancy
  Tb  Tb0  1  0.976992  0.905235  0.703530  1
  Tb  Tb1  1  0.697560  0.977037  0.902411  1
  Tb  Tb2  1  0.091615  0.284340  0.022022  1
  Tb  Tb3  1  0.023413  0.096175  0.296638  1
  Tb  Tb4  1  0.302640  0.022989  0.097518  1
  Sm  Sm5  1  0.907357  0.711744  0.978012  1
  Eu  Eu6  1  0.500081  0.500240  0.499830  1
  Ru  Ru7  1  0.999792  0.999201  0.000160  1
  I  I8  1  0.629155  0.859054  0.548954  1
  I  I9  1  0.546986  0.627800  0.856443  1
  I  I10  1  0.856440  0.549075  0.625137  1
  I  I11  1  0.370842  0.141476  0.451165  1
  I  I12  1  0.448385  0.372005  0.141301  1
  I  I13  1  0.143076  0.450498  0.370557  1
  I  I14  1  0.680801  0.074068  0.222682  1
  I  I15  1  0.224449  0.682616  0.074279  1
  I  I16  1  0.074344  0.223492  0.683093  1
  I  I17  1  0.319335  0.926372  0.777363  1
  I  I18  1  0.779980  0.316939  0.926901  1
  I  I19  1  0.926755  0.779644  0.322004  1
