# generated using pymatgen
data_Tb3SnGeRu2
_symmetry_space_group_name_H-M   'P 1'
_cell_length_a   5.63542200
_cell_length_b   8.10310000
_cell_length_c   13.63970800
_cell_angle_alpha   90.00000000
_cell_angle_beta   90.00000000
_cell_angle_gamma   90.00000000
_symmetry_Int_Tables_number   1
_chemical_formula_structural   Tb3SnGeRu2
_chemical_formula_sum   'Tb12 Sn4 Ge4 Ru8'
_cell_volume   622.84891843
_cell_formula_units_Z   4
loop_
 _symmetry_equiv_pos_site_id
 _symmetry_equiv_pos_as_xyz
  1  'x, y, z'
loop_
 _atom_site_type_symbol
 _atom_site_label
 _atom_site_symmetry_multiplicity
 _atom_site_fract_x
 _atom_site_fract_y
 _atom_site_fract_z
 _atom_site_occupancy
  Tb  Tb0  1  0.842552  0.903368  0.598666  1
  Tb  Tb1  1  0.157448  0.403368  0.901334  1
  Tb  Tb2  1  0.842552  0.596632  0.098666  1
  Tb  Tb3  1  0.632251  0.272123  0.750000  1
  Tb  Tb4  1  0.632251  0.227877  0.250000  1
  Tb  Tb5  1  0.842552  0.596632  0.401334  1
  Tb  Tb6  1  0.367749  0.727877  0.250000  1
  Tb  Tb7  1  0.157448  0.096632  0.098666  1
  Tb  Tb8  1  0.157448  0.096632  0.401334  1
  Tb  Tb9  1  0.367749  0.772123  0.750000  1
  Tb  Tb10  1  0.157448  0.403368  0.598666  1
  Tb  Tb11  1  0.842552  0.903368  0.901334  1
  Sn  Sn12  1  0.354610  0.750000  0.500000  1
  Sn  Sn13  1  0.354610  0.750000  0.000000  1
  Sn  Sn14  1  0.645390  0.250000  0.500000  1
  Sn  Sn15  1  0.645390  0.250000  0.000000  1
  Ge  Ge16  1  0.125411  0.116439  0.750000  1
  Ge  Ge17  1  0.125411  0.383561  0.250000  1
  Ge  Ge18  1  0.874589  0.883561  0.250000  1
  Ge  Ge19  1  0.874589  0.616439  0.750000  1
  Ru  Ru20  1  0.346264  0.038908  0.903570  1
  Ru  Ru21  1  0.346264  0.461092  0.096430  1
  Ru  Ru22  1  0.653736  0.961092  0.096430  1
  Ru  Ru23  1  0.653736  0.538908  0.903570  1
  Ru  Ru24  1  0.653736  0.961092  0.403570  1
  Ru  Ru25  1  0.653736  0.538908  0.596430  1
  Ru  Ru26  1  0.346264  0.461092  0.403570  1
  Ru  Ru27  1  0.346264  0.038908  0.596430  1
