# generated using pymatgen
data_TaMn2(ZnRh2)3
_symmetry_space_group_name_H-M   'P 1'
_cell_length_a   4.31737500
_cell_length_b   6.14518700
_cell_length_c   12.95088500
_cell_angle_alpha   89.99996366
_cell_angle_beta   89.99987613
_cell_angle_gamma   90.00000932
_symmetry_Int_Tables_number   1
_chemical_formula_structural   TaMn2(ZnRh2)3
_chemical_formula_sum   'Ta2 Mn4 Zn6 Rh12'
_cell_volume   343.60092358
_cell_formula_units_Z   2
loop_
 _symmetry_equiv_pos_site_id
 _symmetry_equiv_pos_as_xyz
  1  'x, y, z'
loop_
 _atom_site_type_symbol
 _atom_site_label
 _atom_site_symmetry_multiplicity
 _atom_site_fract_x
 _atom_site_fract_y
 _atom_site_fract_z
 _atom_site_occupancy
  Ta  Ta0  1  0.000046  0.000000  0.661292  1
  Ta  Ta1  1  0.500050  0.500000  0.838749  1
  Mn  Mn2  1  0.000007  0.000000  0.004360  1
  Mn  Mn3  1  0.499987  0.500001  0.167378  1
  Mn  Mn4  1  0.999977  0.000000  0.332563  1
  Mn  Mn5  1  0.500011  0.500001  0.495660  1
  Zn  Zn6  1  0.000002  0.500001  0.005311  1
  Zn  Zn7  1  0.499971  0.000000  0.169206  1
  Zn  Zn8  1  0.999966  0.500000  0.330789  1
  Zn  Zn9  1  0.500006  0.999999  0.494688  1
  Zn  Zn10  1  0.000052  0.500000  0.664737  1
  Zn  Zn11  1  0.500055  0.000000  0.835266  1
  Rh  Rh12  1  0.500005  0.247509  0.999930  1
  Rh  Rh13  1  0.500010  0.752489  0.999931  1
  Rh  Rh14  1  0.999901  0.249393  0.167263  1
  Rh  Rh15  1  0.999889  0.750607  0.167264  1
  Rh  Rh16  1  0.499895  0.250457  0.332683  1
  Rh  Rh17  1  0.499894  0.749546  0.332680  1
  Rh  Rh18  1  0.000007  0.252469  0.500077  1
  Rh  Rh19  1  0.000001  0.747534  0.500075  1
  Rh  Rh20  1  0.500063  0.251553  0.666120  1
  Rh  Rh21  1  0.500065  0.748445  0.666120  1
  Rh  Rh22  1  0.000067  0.248431  0.833929  1
  Rh  Rh23  1  0.000070  0.751566  0.833928  1
