# generated using pymatgen
data_Lu3Zn4CdPt4
_symmetry_space_group_name_H-M   'P 1'
_cell_length_a   4.18767400
_cell_length_b   6.72095497
_cell_length_c   7.98358354
_cell_angle_alpha   91.49185985
_cell_angle_beta   90.00000000
_cell_angle_gamma   90.00000000
_symmetry_Int_Tables_number   1
_chemical_formula_structural   Lu3Zn4CdPt4
_chemical_formula_sum   'Lu3 Zn4 Cd1 Pt4'
_cell_volume   224.62313761
_cell_formula_units_Z   1
loop_
 _symmetry_equiv_pos_site_id
 _symmetry_equiv_pos_as_xyz
  1  'x, y, z'
loop_
 _atom_site_type_symbol
 _atom_site_label
 _atom_site_symmetry_multiplicity
 _atom_site_fract_x
 _atom_site_fract_y
 _atom_site_fract_z
 _atom_site_occupancy
  Lu  Lu0  1  0.750000  0.463375  0.831120  1
  Lu  Lu1  1  0.750000  0.963082  0.678473  1
  Lu  Lu2  1  0.250000  0.036769  0.314950  1
  Zn  Zn3  1  0.250000  0.641211  0.553269  1
  Zn  Zn4  1  0.750000  0.362721  0.442284  1
  Zn  Zn5  1  0.750000  0.856159  0.058323  1
  Zn  Zn6  1  0.250000  0.141511  0.941715  1
  Cd  Cd7  1  0.250000  0.533974  0.179486  1
  Pt  Pt8  1  0.250000  0.755692  0.869377  1
  Pt  Pt9  1  0.750000  0.239908  0.127394  1
  Pt  Pt10  1  0.750000  0.747969  0.373184  1
  Pt  Pt11  1  0.250000  0.257629  0.630426  1
