# generated using pymatgen
data_Mg7Mn(CoSb)8
_symmetry_space_group_name_H-M   'P 1'
_cell_length_a   8.53695930
_cell_length_b   8.53695895
_cell_length_c   8.53695900
_cell_angle_alpha   60.00000366
_cell_angle_beta   60.00000504
_cell_angle_gamma   60.00000199
_symmetry_Int_Tables_number   1
_chemical_formula_structural   Mg7Mn(CoSb)8
_chemical_formula_sum   'Mg7 Mn1 Co8 Sb8'
_cell_volume   439.94120168
_cell_formula_units_Z   1
loop_
 _symmetry_equiv_pos_site_id
 _symmetry_equiv_pos_as_xyz
  1  'x, y, z'
loop_
 _atom_site_type_symbol
 _atom_site_label
 _atom_site_symmetry_multiplicity
 _atom_site_fract_x
 _atom_site_fract_y
 _atom_site_fract_z
 _atom_site_occupancy
  Mg  Mg0  1  0.500000  0.500000  0.000000  1
  Mg  Mg1  1  0.500000  0.000000  0.500000  1
  Mg  Mg2  1  0.500000  0.500000  0.500000  1
  Mg  Mg3  1  0.000000  0.500000  0.000000  1
  Mg  Mg4  1  0.000000  0.000000  0.500000  1
  Mg  Mg5  1  0.000000  0.500000  0.500000  1
  Mg  Mg6  1  0.500000  0.000000  0.000000  1
  Mn  Mn7  1  0.000000  0.000000  0.000000  1
  Co  Co8  1  0.117547  0.117547  0.117547  1
  Co  Co9  1  0.647358  0.117547  0.117547  1
  Co  Co10  1  0.117547  0.117547  0.647358  1
  Co  Co11  1  0.882453  0.352642  0.882453  1
  Co  Co12  1  0.117547  0.647358  0.117547  1
  Co  Co13  1  0.352642  0.882453  0.882453  1
  Co  Co14  1  0.882453  0.882453  0.352642  1
  Co  Co15  1  0.882453  0.882453  0.882453  1
  Sb  Sb16  1  0.250000  0.250000  0.250000  1
  Sb  Sb17  1  0.251128  0.748872  0.251128  1
  Sb  Sb18  1  0.251128  0.251128  0.748872  1
  Sb  Sb19  1  0.748872  0.251128  0.251128  1
  Sb  Sb20  1  0.251128  0.748872  0.748872  1
  Sb  Sb21  1  0.748872  0.748872  0.251128  1
  Sb  Sb22  1  0.748872  0.251128  0.748872  1
  Sb  Sb23  1  0.750000  0.750000  0.750000  1
