# generated using pymatgen
data_Sm12Mg5Nb3(ReN4)12
_symmetry_space_group_name_H-M   'P 1'
_cell_length_a   11.22561775
_cell_length_b   11.22561805
_cell_length_c   11.22561830
_cell_angle_alpha   109.44357779
_cell_angle_beta   109.44357865
_cell_angle_gamma   109.44358505
_symmetry_Int_Tables_number   1
_chemical_formula_structural   Sm12Mg5Nb3(ReN4)12
_chemical_formula_sum   'Sm12 Mg5 Nb3 Re12 N48'
_cell_volume   1090.06534182
_cell_formula_units_Z   1
loop_
 _symmetry_equiv_pos_site_id
 _symmetry_equiv_pos_as_xyz
  1  'x, y, z'
loop_
 _atom_site_type_symbol
 _atom_site_label
 _atom_site_symmetry_multiplicity
 _atom_site_fract_x
 _atom_site_fract_y
 _atom_site_fract_z
 _atom_site_occupancy
  Sm  Sm0  1  0.373493  0.752182  0.123702  1
  Sm  Sm1  1  0.246040  0.372967  0.123648  1
  Sm  Sm2  1  0.372967  0.123648  0.246040  1
  Sm  Sm3  1  0.876298  0.626507  0.247818  1
  Sm  Sm4  1  0.752182  0.123702  0.373493  1
  Sm  Sm5  1  0.123648  0.246040  0.372967  1
  Sm  Sm6  1  0.876352  0.753960  0.627033  1
  Sm  Sm7  1  0.247818  0.876298  0.626507  1
  Sm  Sm8  1  0.123702  0.373493  0.752182  1
  Sm  Sm9  1  0.627033  0.876352  0.753960  1
  Sm  Sm10  1  0.626507  0.247818  0.876298  1
  Sm  Sm11  1  0.753960  0.627033  0.876352  1
  Mg  Mg12  1  0.000000  0.000000  0.000000  1
  Mg  Mg13  1  0.500001  0.000000  0.000000  1
  Mg  Mg14  1  0.000000  0.500001  0.000000  1
  Mg  Mg15  1  0.000000  0.000000  0.500001  1
  Mg  Mg16  1  0.500001  0.500001  0.500001  1
  Nb  Nb17  1  0.500000  0.500000  0.000000  1
  Nb  Nb18  1  0.500000  0.000000  0.500000  1
  Nb  Nb19  1  0.000000  0.500000  0.500000  1
  Re  Re20  1  0.874305  0.251189  0.125190  1
  Re  Re21  1  0.748811  0.874809  0.125695  1
  Re  Re22  1  0.624028  0.373929  0.250776  1
  Re  Re23  1  0.125190  0.874305  0.251189  1
  Re  Re24  1  0.250776  0.624028  0.373929  1
  Re  Re25  1  0.626071  0.749224  0.375972  1
  Re  Re26  1  0.373929  0.250776  0.624028  1
  Re  Re27  1  0.749224  0.375972  0.626071  1
  Re  Re28  1  0.874809  0.125695  0.748811  1
  Re  Re29  1  0.375972  0.626071  0.749224  1
  Re  Re30  1  0.251189  0.125190  0.874305  1
  Re  Re31  1  0.125695  0.748811  0.874809  1
  N  N32  1  0.213065  0.121241  0.018456  1
  N  N33  1  0.306979  0.898231  0.020667  1
  N  N34  1  0.877425  0.398268  0.089204  1
  N  N35  1  0.702792  0.683585  0.086907  1
  N  N36  1  0.614666  0.412484  0.099412  1
  N  N37  1  0.979332  0.693020  0.101768  1
  N  N38  1  0.018456  0.213065  0.121241  1
  N  N39  1  0.601732  0.910795  0.122574  1
  N  N40  1  0.211113  0.590768  0.192890  1
  N  N41  1  0.482731  0.599091  0.186128  1
  N  N42  1  0.590768  0.192890  0.211113  1
  N  N43  1  0.121241  0.018456  0.213065  1
  N  N44  1  0.482390  0.379528  0.290184  1
  N  N45  1  0.316414  0.913093  0.297208  1
  N  N46  1  0.898231  0.020667  0.306979  1
  N  N47  1  0.913093  0.297208  0.316414  1
  N  N48  1  0.290184  0.482390  0.379528  1
  N  N49  1  0.587515  0.900588  0.385334  1
  N  N50  1  0.813873  0.517270  0.400910  1
  N  N51  1  0.089204  0.877425  0.398268  1
  N  N52  1  0.099412  0.614666  0.412484  1
  N  N53  1  0.807110  0.788887  0.409231  1
  N  N54  1  0.599091  0.186128  0.482731  1
  N  N55  1  0.379528  0.290184  0.482390  1
  N  N56  1  0.620471  0.709816  0.517610  1
  N  N57  1  0.400910  0.813873  0.517270  1
  N  N58  1  0.192890  0.211113  0.590768  1
  N  N59  1  0.900588  0.385334  0.587515  1
  N  N60  1  0.910795  0.122574  0.601732  1
  N  N61  1  0.186128  0.482731  0.599091  1
  N  N62  1  0.412484  0.099412  0.614666  1
  N  N63  1  0.709816  0.517610  0.620471  1
  N  N64  1  0.086907  0.702792  0.683585  1
  N  N65  1  0.101768  0.979332  0.693020  1
  N  N66  1  0.683585  0.086907  0.702792  1
  N  N67  1  0.517610  0.620471  0.709816  1
  N  N68  1  0.409231  0.807110  0.788887  1
  N  N69  1  0.878760  0.981545  0.786937  1
  N  N70  1  0.517270  0.400910  0.813873  1
  N  N71  1  0.788887  0.409231  0.807110  1
  N  N72  1  0.398268  0.089204  0.877425  1
  N  N73  1  0.981545  0.786937  0.878760  1
  N  N74  1  0.020667  0.306979  0.898231  1
  N  N75  1  0.385334  0.587515  0.900588  1
  N  N76  1  0.297208  0.316414  0.913093  1
  N  N77  1  0.122574  0.601732  0.910795  1
  N  N78  1  0.693020  0.101768  0.979332  1
  N  N79  1  0.786937  0.878760  0.981545  1
