# generated using pymatgen
data_TbCeHo6AlPd24
_symmetry_space_group_name_H-M   'P 1'
_cell_length_a   8.34439715
_cell_length_b   8.34439728
_cell_length_c   8.34439700
_cell_angle_alpha   89.93059480
_cell_angle_beta   90.06940536
_cell_angle_gamma   90.06940730
_symmetry_Int_Tables_number   1
_chemical_formula_structural   TbCeHo6AlPd24
_chemical_formula_sum   'Tb1 Ce1 Ho6 Al1 Pd24'
_cell_volume   581.01044722
_cell_formula_units_Z   1
loop_
 _symmetry_equiv_pos_site_id
 _symmetry_equiv_pos_as_xyz
  1  'x, y, z'
loop_
 _atom_site_type_symbol
 _atom_site_label
 _atom_site_symmetry_multiplicity
 _atom_site_fract_x
 _atom_site_fract_y
 _atom_site_fract_z
 _atom_site_occupancy
  Tb  Tb0  1  0.252305  0.747695  0.747695  1
  Ce  Ce1  1  0.745741  0.254259  0.254259  1
  Ho  Ho2  1  0.251492  0.252058  0.252058  1
  Ho  Ho3  1  0.747792  0.747663  0.747663  1
  Ho  Ho4  1  0.747942  0.748508  0.252058  1
  Ho  Ho5  1  0.747942  0.252058  0.748508  1
  Ho  Ho6  1  0.252337  0.252208  0.747663  1
  Ho  Ho7  1  0.252337  0.747663  0.252208  1
  Al  Al8  1  0.000496  0.999504  0.999504  1
  Pd  Pd9  1  0.259806  0.499718  0.999975  1
  Pd  Pd10  1  0.740262  0.499111  0.001406  1
  Pd  Pd11  1  0.998594  0.259738  0.499111  1
  Pd  Pd12  1  0.500889  0.259738  0.001406  1
  Pd  Pd13  1  0.000025  0.740194  0.499718  1
  Pd  Pd14  1  0.500282  0.740194  0.999975  1
  Pd  Pd15  1  0.500889  0.001406  0.259738  1
  Pd  Pd16  1  0.259806  0.999975  0.499718  1
  Pd  Pd17  1  0.500282  0.999975  0.740194  1
  Pd  Pd18  1  0.740262  0.001406  0.499111  1
  Pd  Pd19  1  0.998594  0.499111  0.259738  1
  Pd  Pd20  1  0.000025  0.499718  0.740194  1
  Pd  Pd21  1  0.253012  0.499774  0.499774  1
  Pd  Pd22  1  0.746809  0.499112  0.499112  1
  Pd  Pd23  1  0.500888  0.253191  0.499112  1
  Pd  Pd24  1  0.500226  0.746988  0.499774  1
  Pd  Pd25  1  0.500888  0.499112  0.253191  1
  Pd  Pd26  1  0.500226  0.499774  0.746988  1
  Pd  Pd27  1  0.289184  0.000023  0.000023  1
  Pd  Pd28  1  0.711067  0.000176  0.000176  1
  Pd  Pd29  1  0.999824  0.288933  0.000176  1
  Pd  Pd30  1  0.999977  0.710816  0.000023  1
  Pd  Pd31  1  0.999824  0.000176  0.288933  1
  Pd  Pd32  1  0.999977  0.000023  0.710816  1
