# generated using pymatgen
data_LiRhO3
_symmetry_space_group_name_H-M   'P 1'
_cell_length_a   4.86718800
_cell_length_b   5.13852500
_cell_length_c   8.39356700
_cell_angle_alpha   90.00000000
_cell_angle_beta   90.00000000
_cell_angle_gamma   90.00000000
_symmetry_Int_Tables_number   1
_chemical_formula_structural   LiRhO3
_chemical_formula_sum   'Li4 Rh4 O12'
_cell_volume   209.92451422
_cell_formula_units_Z   4
loop_
 _symmetry_equiv_pos_site_id
 _symmetry_equiv_pos_as_xyz
  1  'x, y, z'
loop_
 _atom_site_type_symbol
 _atom_site_label
 _atom_site_symmetry_multiplicity
 _atom_site_fract_x
 _atom_site_fract_y
 _atom_site_fract_z
 _atom_site_occupancy
  Li  Li0  1  0.500000  0.750000  0.805021  1
  Li  Li1  1  0.000000  0.750000  0.694979  1
  Li  Li2  1  0.500000  0.250000  0.194979  1
  Li  Li3  1  0.000000  0.250000  0.305021  1
  Rh  Rh4  1  0.500000  0.750000  0.400977  1
  Rh  Rh5  1  0.000000  0.250000  0.900977  1
  Rh  Rh6  1  0.500000  0.250000  0.599023  1
  Rh  Rh7  1  0.000000  0.750000  0.099023  1
  O  O8  1  0.800309  0.581063  0.917876  1
  O  O9  1  0.699691  0.581063  0.582124  1
  O  O10  1  0.199691  0.918937  0.917876  1
  O  O11  1  0.250000  0.408753  0.750000  1
  O  O12  1  0.750000  0.591247  0.250000  1
  O  O13  1  0.250000  0.908753  0.250000  1
  O  O14  1  0.699691  0.081063  0.417876  1
  O  O15  1  0.750000  0.091247  0.750000  1
  O  O16  1  0.300309  0.418937  0.417876  1
  O  O17  1  0.199691  0.418937  0.082124  1
  O  O18  1  0.800309  0.081063  0.082124  1
  O  O19  1  0.300309  0.918937  0.582124  1
