# generated using pymatgen
data_Gd10AlSi4As
_symmetry_space_group_name_H-M   'P 1'
_cell_length_a   8.54864700
_cell_length_b   8.54627619
_cell_length_c   6.40179900
_cell_angle_alpha   90.00000000
_cell_angle_beta   90.00000000
_cell_angle_gamma   120.06035348
_symmetry_Int_Tables_number   1
_chemical_formula_structural   Gd10AlSi4As
_chemical_formula_sum   'Gd10 Al1 Si4 As1'
_cell_volume   404.80188969
_cell_formula_units_Z   1
loop_
 _symmetry_equiv_pos_site_id
 _symmetry_equiv_pos_as_xyz
  1  'x, y, z'
loop_
 _atom_site_type_symbol
 _atom_site_label
 _atom_site_symmetry_multiplicity
 _atom_site_fract_x
 _atom_site_fract_y
 _atom_site_fract_z
 _atom_site_occupancy
  Gd  Gd0  1  0.670701  0.334114  0.502973  1
  Gd  Gd1  1  0.327964  0.666965  0.503066  1
  Gd  Gd2  1  0.327964  0.666965  0.996934  1
  Gd  Gd3  1  0.670701  0.334114  0.997027  1
  Gd  Gd4  1  0.757951  0.753400  0.250000  1
  Gd  Gd5  1  0.250841  0.998415  0.250000  1
  Gd  Gd6  1  0.998941  0.252011  0.250000  1
  Gd  Gd7  1  0.248118  0.247000  0.750000  1
  Gd  Gd8  1  0.746971  0.999242  0.750000  1
  Gd  Gd9  1  0.996509  0.747762  0.750000  1
  Al  Al10  1  0.397473  0.398298  0.250000  1
  Si  Si11  1  0.001675  0.608693  0.250000  1
  Si  Si12  1  0.604196  0.606664  0.750000  1
  Si  Si13  1  0.389403  0.998534  0.750000  1
  Si  Si14  1  0.000548  0.390157  0.750000  1
  As  As15  1  0.610043  0.997668  0.250000  1
