# generated using pymatgen
data_Lu3Zn3Ge2Pt
_symmetry_space_group_name_H-M   'P 1'
_cell_length_a   6.82490400
_cell_length_b   6.82490379
_cell_length_c   4.23379400
_cell_angle_alpha   90.00000000
_cell_angle_beta   90.00000000
_cell_angle_gamma   120.00000102
_symmetry_Int_Tables_number   1
_chemical_formula_structural   Lu3Zn3Ge2Pt
_chemical_formula_sum   'Lu3 Zn3 Ge2 Pt1'
_cell_volume   170.78645768
_cell_formula_units_Z   1
loop_
 _symmetry_equiv_pos_site_id
 _symmetry_equiv_pos_as_xyz
  1  'x, y, z'
loop_
 _atom_site_type_symbol
 _atom_site_label
 _atom_site_symmetry_multiplicity
 _atom_site_fract_x
 _atom_site_fract_y
 _atom_site_fract_z
 _atom_site_occupancy
  Lu  Lu0  1  0.413556  0.000000  0.000000  1
  Lu  Lu1  1  0.000000  0.413555  0.000000  1
  Lu  Lu2  1  0.586444  0.586444  0.000000  1
  Zn  Zn3  1  0.761203  0.000000  0.500001  1
  Zn  Zn4  1  0.238797  0.238797  0.500001  1
  Zn  Zn5  1  0.000000  0.761202  0.500001  1
  Ge  Ge6  1  0.666667  0.333334  0.500001  1
  Ge  Ge7  1  0.333334  0.666667  0.500001  1
  Pt  Pt8  1  0.000000  0.000000  0.000000  1
