# generated using pymatgen
data_Dy2Bi(AsRh2)6
_symmetry_space_group_name_H-M   'P 1'
_cell_length_a   10.10267200
_cell_length_b   10.10267235
_cell_length_c   3.96562100
_cell_angle_alpha   90.00000000
_cell_angle_beta   90.00000000
_cell_angle_gamma   119.99999886
_symmetry_Int_Tables_number   1
_chemical_formula_structural   Dy2Bi(AsRh2)6
_chemical_formula_sum   'Dy2 Bi1 As6 Rh12'
_cell_volume   350.52125956
_cell_formula_units_Z   1
loop_
 _symmetry_equiv_pos_site_id
 _symmetry_equiv_pos_as_xyz
  1  'x, y, z'
loop_
 _atom_site_type_symbol
 _atom_site_label
 _atom_site_symmetry_multiplicity
 _atom_site_fract_x
 _atom_site_fract_y
 _atom_site_fract_z
 _atom_site_occupancy
  Dy  Dy0  1  0.333333  0.666667  0.753292  1
  Dy  Dy1  1  0.666667  0.333333  0.247287  1
  Bi  Bi2  1  0.000000  0.000000  0.595108  1
  As  As3  1  0.880550  0.590853  0.745596  1
  As  As4  1  0.409147  0.289696  0.745596  1
  As  As5  1  0.710304  0.119450  0.745596  1
  As  As6  1  0.117072  0.407010  0.255234  1
  As  As7  1  0.592990  0.710062  0.255234  1
  As  As8  1  0.289938  0.882928  0.255234  1
  Rh  Rh9  1  0.618119  0.550522  0.748469  1
  Rh  Rh10  1  0.449478  0.067597  0.748469  1
  Rh  Rh11  1  0.932403  0.381881  0.748469  1
  Rh  Rh12  1  0.385578  0.451089  0.253739  1
  Rh  Rh13  1  0.548911  0.934491  0.253739  1
  Rh  Rh14  1  0.065509  0.614422  0.253739  1
  Rh  Rh15  1  0.126676  0.834988  0.760944  1
  Rh  Rh16  1  0.165012  0.291687  0.760944  1
  Rh  Rh17  1  0.708313  0.873324  0.760944  1
  Rh  Rh18  1  0.877295  0.154378  0.238881  1
  Rh  Rh19  1  0.845622  0.722917  0.238881  1
  Rh  Rh20  1  0.277083  0.122705  0.238881  1
