# generated using pymatgen
data_NaMn3CrO8
_symmetry_space_group_name_H-M   'P 1'
_cell_length_a   5.87034366
_cell_length_b   5.87025410
_cell_length_c   12.00866963
_cell_angle_alpha   75.90131710
_cell_angle_beta   89.95658340
_cell_angle_gamma   120.00140054
_symmetry_Int_Tables_number   1
_chemical_formula_structural   NaMn3CrO8
_chemical_formula_sum   'Na2 Mn6 Cr2 O16'
_cell_volume   343.86138410
_cell_formula_units_Z   2
loop_
 _symmetry_equiv_pos_site_id
 _symmetry_equiv_pos_as_xyz
  1  'x, y, z'
loop_
 _atom_site_type_symbol
 _atom_site_label
 _atom_site_symmetry_multiplicity
 _atom_site_fract_x
 _atom_site_fract_y
 _atom_site_fract_z
 _atom_site_occupancy
  Na  Na0  1  0.249974  0.500129  0.250018  1
  Na  Na1  1  0.749930  0.499855  0.750044  1
  Mn  Mn2  1  0.500047  0.500277  0.999818  1
  Mn  Mn3  1  0.999816  0.500137  0.499835  1
  Mn  Mn4  1  0.499817  0.999660  0.000143  1
  Mn  Mn5  1  0.999699  0.999974  0.500016  1
  Mn  Mn6  1  0.000209  0.500272  0.999897  1
  Mn  Mn7  1  0.500067  0.500167  0.500168  1
  Cr  Cr8  1  0.499972  0.999859  0.499962  1
  Cr  Cr9  1  0.000160  0.999855  0.999984  1
  O  O10  1  0.638128  0.276578  0.085343  1
  O  O11  1  0.138071  0.276542  0.585402  1
  O  O12  1  0.861842  0.723510  0.414620  1
  O  O13  1  0.361898  0.723548  0.914574  1
  O  O14  1  0.143980  0.769931  0.085998  1
  O  O15  1  0.644042  0.770077  0.586025  1
  O  O16  1  0.874233  0.229963  0.414043  1
  O  O17  1  0.374280  0.229845  0.914065  1
  O  O18  1  0.356025  0.711686  0.414079  1
  O  O19  1  0.856047  0.711729  0.913984  1
  O  O20  1  0.144073  0.288323  0.085870  1
  O  O21  1  0.644053  0.288270  0.585973  1
  O  O22  1  0.625849  0.769967  0.085938  1
  O  O23  1  0.125804  0.770074  0.585926  1
  O  O24  1  0.356023  0.229961  0.414153  1
  O  O25  1  0.855961  0.229810  0.914125  1
