# generated using pymatgen
data_NaEr6Zn(Co3Sn11)2
_symmetry_space_group_name_H-M   'P 1'
_cell_length_a   9.62570300
_cell_length_b   9.62570297
_cell_length_c   9.95115800
_cell_angle_alpha   90.00000000
_cell_angle_beta   90.00000000
_cell_angle_gamma   120.00000355
_symmetry_Int_Tables_number   1
_chemical_formula_structural   NaEr6Zn(Co3Sn11)2
_chemical_formula_sum   'Na1 Er6 Zn1 Co6 Sn22'
_cell_volume   798.48939288
_cell_formula_units_Z   1
loop_
 _symmetry_equiv_pos_site_id
 _symmetry_equiv_pos_as_xyz
  1  'x, y, z'
loop_
 _atom_site_type_symbol
 _atom_site_label
 _atom_site_symmetry_multiplicity
 _atom_site_fract_x
 _atom_site_fract_y
 _atom_site_fract_z
 _atom_site_occupancy
  Na  Na0  1  0.000000  0.000000  0.000000  1
  Er  Er1  1  0.480274  0.519726  0.306093  1
  Er  Er2  1  0.519726  0.480274  0.693907  1
  Er  Er3  1  0.480274  0.960548  0.306093  1
  Er  Er4  1  0.519726  0.039452  0.693907  1
  Er  Er5  1  0.039452  0.519726  0.306093  1
  Er  Er6  1  0.960548  0.480274  0.693907  1
  Zn  Zn7  1  0.000000  0.000000  0.500000  1
  Co  Co8  1  0.829135  0.170865  0.201322  1
  Co  Co9  1  0.170865  0.829135  0.798678  1
  Co  Co10  1  0.829135  0.658272  0.201322  1
  Co  Co11  1  0.170865  0.341728  0.798678  1
  Co  Co12  1  0.341728  0.170865  0.201322  1
  Co  Co13  1  0.658272  0.829135  0.798678  1
  Sn  Sn14  1  0.114287  0.885713  0.273842  1
  Sn  Sn15  1  0.885713  0.114287  0.726158  1
  Sn  Sn16  1  0.114287  0.228573  0.273842  1
  Sn  Sn17  1  0.885713  0.771427  0.726158  1
  Sn  Sn18  1  0.771427  0.885713  0.273842  1
  Sn  Sn19  1  0.228573  0.114287  0.726158  1
  Sn  Sn20  1  0.782840  0.217160  0.454878  1
  Sn  Sn21  1  0.217160  0.782840  0.545122  1
  Sn  Sn22  1  0.782840  0.565680  0.454878  1
  Sn  Sn23  1  0.217160  0.434320  0.545122  1
  Sn  Sn24  1  0.434320  0.217160  0.454878  1
  Sn  Sn25  1  0.565680  0.782840  0.545122  1
  Sn  Sn26  1  0.343955  0.000000  0.000000  1
  Sn  Sn27  1  0.656045  0.000000  0.000000  1
  Sn  Sn28  1  0.000000  0.343955  0.000000  1
  Sn  Sn29  1  0.000000  0.656045  0.000000  1
  Sn  Sn30  1  0.656045  0.656045  0.000000  1
  Sn  Sn31  1  0.343955  0.343955  0.000000  1
  Sn  Sn32  1  0.333333  0.666667  0.120492  1
  Sn  Sn33  1  0.666667  0.333333  0.879508  1
  Sn  Sn34  1  0.333333  0.666667  0.817837  1
  Sn  Sn35  1  0.666667  0.333333  0.182163  1
