# generated using pymatgen
data_Lu4GeSb5Rh7
_symmetry_space_group_name_H-M   'P 1'
_cell_length_a   7.50710382
_cell_length_b   7.50468068
_cell_length_c   7.50710417
_cell_angle_alpha   110.05138132
_cell_angle_beta   108.33632121
_cell_angle_gamma   110.05138922
_symmetry_Int_Tables_number   1
_chemical_formula_structural   Lu4GeSb5Rh7
_chemical_formula_sum   'Lu4 Ge1 Sb5 Rh7'
_cell_volume   325.40332833
_cell_formula_units_Z   1
loop_
 _symmetry_equiv_pos_site_id
 _symmetry_equiv_pos_as_xyz
  1  'x, y, z'
loop_
 _atom_site_type_symbol
 _atom_site_label
 _atom_site_symmetry_multiplicity
 _atom_site_fract_x
 _atom_site_fract_y
 _atom_site_fract_z
 _atom_site_occupancy
  Lu  Lu0  1  0.480877  0.471370  0.480877  1
  Lu  Lu1  1  0.009578  0.528810  0.009578  1
  Lu  Lu2  1  0.480793  0.000030  0.009467  1
  Lu  Lu3  1  0.009467  0.000030  0.480793  1
  Ge  Ge4  1  0.336499  0.000058  0.336499  1
  Sb  Sb5  1  0.689461  0.999969  0.689461  1
  Sb  Sb6  1  0.678160  0.686030  0.992013  1
  Sb  Sb7  1  0.306109  0.314008  0.992196  1
  Sb  Sb8  1  0.992013  0.686030  0.678160  1
  Sb  Sb9  1  0.992196  0.314008  0.306109  1
  Rh  Rh10  1  0.744825  0.499923  0.244700  1
  Rh  Rh11  1  0.497609  0.247505  0.745250  1
  Rh  Rh12  1  0.745250  0.247505  0.497609  1
  Rh  Rh13  1  0.250294  0.752397  0.497912  1
  Rh  Rh14  1  0.244700  0.499923  0.744825  1
  Rh  Rh15  1  0.497912  0.752397  0.250294  1
  Rh  Rh16  1  0.044257  0.000011  0.044257  1
