# generated using pymatgen
data_Li8Y5Ho3Sn7Bi
_symmetry_space_group_name_H-M   'P 1'
_cell_length_a   9.41748700
_cell_length_b   9.41834343
_cell_length_c   7.27721900
_cell_angle_alpha   90.09512860
_cell_angle_beta   90.00065523
_cell_angle_gamma   119.99860083
_symmetry_Int_Tables_number   1
_chemical_formula_structural   Li8Y5Ho3Sn7Bi
_chemical_formula_sum   'Li8 Y5 Ho3 Sn7 Bi1'
_cell_volume   558.99889330
_cell_formula_units_Z   1
loop_
 _symmetry_equiv_pos_site_id
 _symmetry_equiv_pos_as_xyz
  1  'x, y, z'
loop_
 _atom_site_type_symbol
 _atom_site_label
 _atom_site_symmetry_multiplicity
 _atom_site_fract_x
 _atom_site_fract_y
 _atom_site_fract_z
 _atom_site_occupancy
  Li  Li0  1  0.166481  0.333126  0.284602  1
  Li  Li1  1  0.167943  0.833660  0.288377  1
  Li  Li2  1  0.665668  0.833747  0.288358  1
  Li  Li3  1  0.833500  0.666789  0.786943  1
  Li  Li4  1  0.829270  0.164840  0.791276  1
  Li  Li5  1  0.335558  0.164703  0.791139  1
  Li  Li6  1  0.335281  0.670646  0.669764  1
  Li  Li7  1  0.666115  0.332108  0.171895  1
  Y  Y8  1  0.512586  0.025105  0.493696  1
  Y  Y9  1  0.517107  0.490780  0.491047  1
  Y  Y10  1  0.973803  0.490804  0.490926  1
  Y  Y11  1  0.487404  0.974871  0.994597  1
  Y  Y12  1  0.493384  0.514475  0.996410  1
  Ho  Ho13  1  0.020964  0.514471  0.996454  1
  Ho  Ho14  1  0.997289  0.994590  0.497133  1
  Ho  Ho15  1  0.997718  0.995429  0.002497  1
  Sn  Sn16  1  0.166291  0.832923  0.730597  1
  Sn  Sn17  1  0.666789  0.833160  0.730288  1
  Sn  Sn18  1  0.833540  0.666734  0.230813  1
  Sn  Sn19  1  0.834222  0.167405  0.229958  1
  Sn  Sn20  1  0.333012  0.167135  0.230213  1
  Sn  Sn21  1  0.332376  0.665212  0.260598  1
  Sn  Sn22  1  0.667258  0.334149  0.761598  1
  Bi  Bi23  1  0.166442  0.333137  0.732794  1
