# generated using pymatgen
data_La3MgFeSb3O14
_symmetry_space_group_name_H-M   'P 1'
_cell_length_a   7.38745453
_cell_length_b   7.37273229
_cell_length_c   7.38744411
_cell_angle_alpha   118.06221522
_cell_angle_beta   62.06832437
_cell_angle_gamma   118.06169349
_symmetry_Int_Tables_number   1
_chemical_formula_structural   La3MgFeSb3O14
_chemical_formula_sum   'La3 Mg1 Fe1 Sb3 O14'
_cell_volume   297.12380415
_cell_formula_units_Z   1
loop_
 _symmetry_equiv_pos_site_id
 _symmetry_equiv_pos_as_xyz
  1  'x, y, z'
loop_
 _atom_site_type_symbol
 _atom_site_label
 _atom_site_symmetry_multiplicity
 _atom_site_fract_x
 _atom_site_fract_y
 _atom_site_fract_z
 _atom_site_occupancy
  La  La0  1  0.999965  0.500076  0.999985  1
  La  La1  1  0.500221  0.999445  0.000153  1
  La  La2  1  0.499920  0.500211  0.499596  1
  Mg  Mg3  1  0.000008  0.000196  0.500060  1
  Fe  Fe4  1  0.498621  0.495163  0.996749  1
  Sb  Sb5  1  0.500111  0.000240  0.500154  1
  Sb  Sb6  1  0.000026  0.500336  0.500199  1
  Sb  Sb7  1  0.000070  0.000170  0.000223  1
  O  O8  1  0.612219  0.388269  0.111960  1
  O  O9  1  0.387565  0.610800  0.887146  1
  O  O10  1  0.072493  0.320138  0.181146  1
  O  O11  1  0.679451  0.922052  0.179670  1
  O  O12  1  0.680669  0.320376  0.573225  1
  O  O13  1  0.928177  0.680586  0.819159  1
  O  O14  1  0.321383  0.080575  0.821513  1
  O  O15  1  0.318915  0.680692  0.428671  1
  O  O16  1  0.655833  0.915317  0.586984  1
  O  O17  1  0.084911  0.342479  0.584936  1
  O  O18  1  0.086980  0.915285  0.155940  1
  O  O19  1  0.344207  0.085089  0.413360  1
  O  O20  1  0.914865  0.657657  0.415077  1
  O  O21  1  0.913389  0.084850  0.844095  1
