# generated using pymatgen
data_Tb2Yb3Rh2
_symmetry_space_group_name_H-M   'P 1'
_cell_length_a   6.51624506
_cell_length_b   7.26545896
_cell_length_c   8.61655530
_cell_angle_alpha   96.70270089
_cell_angle_beta   112.21750881
_cell_angle_gamma   89.99999876
_symmetry_Int_Tables_number   1
_chemical_formula_structural   Tb2Yb3Rh2
_chemical_formula_sum   'Tb4 Yb6 Rh4'
_cell_volume   374.63712049
_cell_formula_units_Z   2
loop_
 _symmetry_equiv_pos_site_id
 _symmetry_equiv_pos_as_xyz
  1  'x, y, z'
loop_
 _atom_site_type_symbol
 _atom_site_label
 _atom_site_symmetry_multiplicity
 _atom_site_fract_x
 _atom_site_fract_y
 _atom_site_fract_z
 _atom_site_occupancy
  Tb  Tb0  1  0.368442  0.183009  0.567992  1
  Tb  Tb1  1  0.800449  0.316991  0.432008  1
  Tb  Tb2  1  0.425802  0.750000  0.000000  1
  Tb  Tb3  1  0.564175  0.250000  0.000000  1
  Yb  Yb4  1  0.979460  0.920588  0.180724  1
  Yb  Yb5  1  0.798736  0.579412  0.819276  1
  Yb  Yb6  1  0.013926  0.083875  0.815389  1
  Yb  Yb7  1  0.198538  0.416125  0.184611  1
  Yb  Yb8  1  0.644475  0.814769  0.435269  1
  Yb  Yb9  1  0.209206  0.685231  0.564731  1
  Rh  Rh10  1  0.810615  0.571428  0.212313  1
  Rh  Rh11  1  0.598300  0.928572  0.787687  1
  Rh  Rh12  1  0.178309  0.420723  0.768743  1
  Rh  Rh13  1  0.409566  0.079277  0.231257  1
