# generated using pymatgen
data_Pr4Co9As12Ru11
_symmetry_space_group_name_H-M   'P 1'
_cell_length_a   3.94792900
_cell_length_b   11.11183050
_cell_length_c   12.61024157
_cell_angle_alpha   89.96570242
_cell_angle_beta   90.00000000
_cell_angle_gamma   90.00000000
_symmetry_Int_Tables_number   1
_chemical_formula_structural   Pr4Co9As12Ru11
_chemical_formula_sum   'Pr4 Co9 As12 Ru11'
_cell_volume   553.19503030
_cell_formula_units_Z   1
loop_
 _symmetry_equiv_pos_site_id
 _symmetry_equiv_pos_as_xyz
  1  'x, y, z'
loop_
 _atom_site_type_symbol
 _atom_site_label
 _atom_site_symmetry_multiplicity
 _atom_site_fract_x
 _atom_site_fract_y
 _atom_site_fract_z
 _atom_site_occupancy
  Pr  Pr0  1  0.250000  0.586022  0.704460  1
  Pr  Pr1  1  0.250000  0.913170  0.205245  1
  Pr  Pr2  1  0.750000  0.414611  0.295249  1
  Pr  Pr3  1  0.750000  0.085914  0.795553  1
  Co  Co4  1  0.750000  0.720951  0.321611  1
  Co  Co5  1  0.250000  0.886546  0.694262  1
  Co  Co6  1  0.250000  0.616462  0.197223  1
  Co  Co7  1  0.750000  0.111163  0.305455  1
  Co  Co8  1  0.750000  0.387725  0.804226  1
  Co  Co9  1  0.250000  0.466420  0.934634  1
  Co  Co10  1  0.250000  0.032336  0.433527  1
  Co  Co11  1  0.750000  0.534427  0.067623  1
  Co  Co12  1  0.750000  0.966240  0.564379  1
  As  As13  1  0.250000  0.423276  0.111446  1
  As  As14  1  0.250000  0.077010  0.610217  1
  As  As15  1  0.750000  0.577370  0.890274  1
  As  As16  1  0.750000  0.918439  0.387609  1
  As  As17  1  0.250000  0.275061  0.872847  1
  As  As18  1  0.250000  0.224586  0.372821  1
  As  As19  1  0.750000  0.723906  0.133312  1
  As  As20  1  0.750000  0.775465  0.626406  1
  As  As21  1  0.250000  0.603726  0.385100  1
  As  As22  1  0.250000  0.897523  0.888551  1
  As  As23  1  0.750000  0.399738  0.610707  1
  As  As24  1  0.750000  0.101125  0.112620  1
  Ru  Ru25  1  0.250000  0.704428  0.987839  1
  Ru  Ru26  1  0.250000  0.795669  0.483072  1
  Ru  Ru27  1  0.750000  0.295454  0.013680  1
  Ru  Ru28  1  0.750000  0.204562  0.513119  1
  Ru  Ru29  1  0.250000  0.406399  0.487561  1
  Ru  Ru30  1  0.250000  0.094047  0.988368  1
  Ru  Ru31  1  0.750000  0.597848  0.507837  1
  Ru  Ru32  1  0.750000  0.902855  0.014270  1
  Ru  Ru33  1  0.250000  0.219941  0.179494  1
  Ru  Ru34  1  0.250000  0.279836  0.679018  1
  Ru  Ru35  1  0.750000  0.779749  0.820384  1
