# generated using pymatgen
data_Ta6VCdS12
_symmetry_space_group_name_H-M   'P 1'
_cell_length_a   5.79346600
_cell_length_b   5.79346673
_cell_length_c   13.08896300
_cell_angle_alpha   90.00000000
_cell_angle_beta   90.00000000
_cell_angle_gamma   120.00000724
_symmetry_Int_Tables_number   1
_chemical_formula_structural   Ta6VCdS12
_chemical_formula_sum   'Ta6 V1 Cd1 S12'
_cell_volume   380.46334344
_cell_formula_units_Z   1
loop_
 _symmetry_equiv_pos_site_id
 _symmetry_equiv_pos_as_xyz
  1  'x, y, z'
loop_
 _atom_site_type_symbol
 _atom_site_label
 _atom_site_symmetry_multiplicity
 _atom_site_fract_x
 _atom_site_fract_y
 _atom_site_fract_z
 _atom_site_occupancy
  Ta  Ta0  1  0.000000  0.000000  0.518092  1
  Ta  Ta1  1  0.000000  0.000000  0.981908  1
  Ta  Ta2  1  0.333333  0.666667  0.980076  1
  Ta  Ta3  1  0.666667  0.333333  0.984026  1
  Ta  Ta4  1  0.666667  0.333333  0.515974  1
  Ta  Ta5  1  0.333333  0.666667  0.519924  1
  V  V6  1  0.666667  0.333333  0.750000  1
  Cd  Cd7  1  0.333333  0.666667  0.250000  1
  S  S8  1  0.331483  0.331014  0.397447  1
  S  S9  1  0.668986  0.000469  0.397447  1
  S  S10  1  0.999531  0.668517  0.397447  1
  S  S11  1  0.333661  0.333004  0.637344  1
  S  S12  1  0.999343  0.666339  0.637344  1
  S  S13  1  0.666996  0.000657  0.637344  1
  S  S14  1  0.666996  0.666339  0.862656  1
  S  S15  1  0.333661  0.000657  0.862656  1
  S  S16  1  0.999343  0.333004  0.862656  1
  S  S17  1  0.668986  0.668517  0.102553  1
  S  S18  1  0.999531  0.331014  0.102553  1
  S  S19  1  0.331483  0.000469  0.102553  1
