# generated using pymatgen
data_YLu3InPt11
_symmetry_space_group_name_H-M   'P 1'
_cell_length_a   4.16539700
_cell_length_b   5.80563857
_cell_length_c   11.61416250
_cell_angle_alpha   87.91216847
_cell_angle_beta   90.00000000
_cell_angle_gamma   90.00000000
_symmetry_Int_Tables_number   1
_chemical_formula_structural   YLu3InPt11
_chemical_formula_sum   'Y1 Lu3 In1 Pt11'
_cell_volume   280.67639711
_cell_formula_units_Z   1
loop_
 _symmetry_equiv_pos_site_id
 _symmetry_equiv_pos_as_xyz
  1  'x, y, z'
loop_
 _atom_site_type_symbol
 _atom_site_label
 _atom_site_symmetry_multiplicity
 _atom_site_fract_x
 _atom_site_fract_y
 _atom_site_fract_z
 _atom_site_occupancy
  Y  Y0  1  0.500000  0.759060  0.375794  1
  Lu  Lu1  1  0.500000  0.714111  0.862818  1
  Lu  Lu2  1  0.500000  0.285594  0.137010  1
  Lu  Lu3  1  0.500000  0.241144  0.624764  1
  In  In4  1  0.000000  0.000424  0.999162  1
  Pt  Pt5  1  0.000000  0.021636  0.247629  1
  Pt  Pt6  1  0.000000  0.980628  0.751030  1
  Pt  Pt7  1  0.000000  0.499722  0.999241  1
  Pt  Pt8  1  0.000000  0.497732  0.502043  1
  Pt  Pt9  1  0.000000  0.519799  0.248057  1
  Pt  Pt10  1  0.000000  0.478018  0.750658  1
  Pt  Pt11  1  0.500000  0.258666  0.377543  1
  Pt  Pt12  1  0.500000  0.226570  0.879368  1
  Pt  Pt13  1  0.500000  0.773414  0.118187  1
  Pt  Pt14  1  0.500000  0.741601  0.624657  1
  Pt  Pt15  1  0.000000  0.001881  0.502040  1
