# generated using pymatgen
data_NbPt3Rh5
_symmetry_space_group_name_H-M   'P 1'
_cell_length_a   6.21099897
_cell_length_b   6.21099787
_cell_length_c   6.21099903
_cell_angle_alpha   95.81642196
_cell_angle_beta   95.49852880
_cell_angle_gamma   143.40200896
_symmetry_Int_Tables_number   1
_chemical_formula_structural   NbPt3Rh5
_chemical_formula_sum   'Nb1 Pt3 Rh5'
_cell_volume   135.62359266
_cell_formula_units_Z   1
loop_
 _symmetry_equiv_pos_site_id
 _symmetry_equiv_pos_as_xyz
  1  'x, y, z'
loop_
 _atom_site_type_symbol
 _atom_site_label
 _atom_site_symmetry_multiplicity
 _atom_site_fract_x
 _atom_site_fract_y
 _atom_site_fract_z
 _atom_site_occupancy
  Nb  Nb0  1  0.000000  0.002247  0.002247  1
  Pt  Pt1  1  0.000000  0.671240  0.671240  1
  Pt  Pt2  1  0.670798  0.998052  0.668849  1
  Pt  Pt3  1  0.329202  0.998052  0.327254  1
  Rh  Rh4  1  0.335402  0.337571  0.672973  1
  Rh  Rh5  1  0.660972  0.664237  0.325207  1
  Rh  Rh6  1  0.664598  0.337571  0.002169  1
  Rh  Rh7  1  0.339028  0.664237  0.003265  1
  Rh  Rh8  1  0.000000  0.326796  0.326796  1
