# generated using pymatgen
data_CeY3Ho4AlPd24
_symmetry_space_group_name_H-M   'P 1'
_cell_length_a   8.35924761
_cell_length_b   8.36003395
_cell_length_c   8.36003409
_cell_angle_alpha   89.91562081
_cell_angle_beta   90.06501183
_cell_angle_gamma   90.06501142
_symmetry_Int_Tables_number   1
_chemical_formula_structural   CeY3Ho4AlPd24
_chemical_formula_sum   'Ce1 Y3 Ho4 Al1 Pd24'
_cell_volume   584.22784172
_cell_formula_units_Z   1
loop_
 _symmetry_equiv_pos_site_id
 _symmetry_equiv_pos_as_xyz
  1  'x, y, z'
loop_
 _atom_site_type_symbol
 _atom_site_label
 _atom_site_symmetry_multiplicity
 _atom_site_fract_x
 _atom_site_fract_y
 _atom_site_fract_z
 _atom_site_occupancy
  Ce  Ce0  1  0.745670  0.254310  0.254310  1
  Y  Y1  1  0.252140  0.251940  0.747845  1
  Y  Y2  1  0.252140  0.747845  0.251940  1
  Y  Y3  1  0.252092  0.747918  0.747918  1
  Ho  Ho4  1  0.251168  0.251903  0.251903  1
  Ho  Ho5  1  0.747938  0.747758  0.747758  1
  Ho  Ho6  1  0.748060  0.748796  0.251944  1
  Ho  Ho7  1  0.748060  0.251944  0.748796  1
  Al  Al8  1  0.000797  0.999281  0.999281  1
  Pd  Pd9  1  0.259643  0.499252  0.000345  1
  Pd  Pd10  1  0.740431  0.499180  0.001541  1
  Pd  Pd11  1  0.997893  0.259556  0.498733  1
  Pd  Pd12  1  0.501331  0.259558  0.002056  1
  Pd  Pd13  1  0.999090  0.740349  0.499701  1
  Pd  Pd14  1  0.501262  0.740335  0.999824  1
  Pd  Pd15  1  0.501331  0.002056  0.259558  1
  Pd  Pd16  1  0.259643  0.000345  0.499252  1
  Pd  Pd17  1  0.501262  0.999824  0.740335  1
  Pd  Pd18  1  0.740431  0.001541  0.499180  1
  Pd  Pd19  1  0.997893  0.498733  0.259556  1
  Pd  Pd20  1  0.999090  0.499701  0.740349  1
  Pd  Pd21  1  0.252807  0.499323  0.499323  1
  Pd  Pd22  1  0.746876  0.499359  0.499359  1
  Pd  Pd23  1  0.501222  0.253114  0.498839  1
  Pd  Pd24  1  0.501266  0.747184  0.499850  1
  Pd  Pd25  1  0.501222  0.498839  0.253114  1
  Pd  Pd26  1  0.501266  0.499850  0.747184  1
  Pd  Pd27  1  0.289344  0.000338  0.000338  1
  Pd  Pd28  1  0.711596  0.000116  0.000116  1
  Pd  Pd29  1  0.999379  0.288516  0.000576  1
  Pd  Pd30  1  0.999140  0.710787  0.999872  1
  Pd  Pd31  1  0.999379  0.000576  0.288516  1
  Pd  Pd32  1  0.999140  0.999872  0.710787  1
