# generated using pymatgen
data_La2Al5SiPd2
_symmetry_space_group_name_H-M   'P 1'
_cell_length_a   6.12543175
_cell_length_b   6.12543103
_cell_length_c   6.02176400
_cell_angle_alpha   90.00000000
_cell_angle_beta   90.00000000
_cell_angle_gamma   116.43646088
_symmetry_Int_Tables_number   1
_chemical_formula_structural   La2Al5SiPd2
_chemical_formula_sum   'La2 Al5 Si1 Pd2'
_cell_volume   202.31499215
_cell_formula_units_Z   1
loop_
 _symmetry_equiv_pos_site_id
 _symmetry_equiv_pos_as_xyz
  1  'x, y, z'
loop_
 _atom_site_type_symbol
 _atom_site_label
 _atom_site_symmetry_multiplicity
 _atom_site_fract_x
 _atom_site_fract_y
 _atom_site_fract_z
 _atom_site_occupancy
  La  La0  1  0.235613  0.764387  0.750000  1
  La  La1  1  0.761435  0.238565  0.250000  1
  Al  Al2  1  0.336449  0.663551  0.250000  1
  Al  Al3  1  0.722490  0.719567  0.996925  1
  Al  Al4  1  0.722490  0.719567  0.503075  1
  Al  Al5  1  0.280433  0.277510  0.996925  1
  Al  Al6  1  0.280433  0.277510  0.503075  1
  Si  Si7  1  0.662712  0.337288  0.750000  1
  Pd  Pd8  1  0.900620  0.099380  0.750000  1
  Pd  Pd9  1  0.097324  0.902676  0.250000  1
