# generated using pymatgen
data_Ac11La(NiOs)2
_symmetry_space_group_name_H-M   'P 1'
_cell_length_a   6.85053267
_cell_length_b   7.66224581
_cell_length_c   10.65467500
_cell_angle_alpha   90.00000000
_cell_angle_beta   90.00000000
_cell_angle_gamma   89.36046678
_symmetry_Int_Tables_number   1
_chemical_formula_structural   Ac11La(NiOs)2
_chemical_formula_sum   'Ac11 La1 Ni2 Os2'
_cell_volume   559.23400856
_cell_formula_units_Z   1
loop_
 _symmetry_equiv_pos_site_id
 _symmetry_equiv_pos_as_xyz
  1  'x, y, z'
loop_
 _atom_site_type_symbol
 _atom_site_label
 _atom_site_symmetry_multiplicity
 _atom_site_fract_x
 _atom_site_fract_y
 _atom_site_fract_z
 _atom_site_occupancy
  Ac  Ac0  1  0.327501  0.672420  0.070007  1
  Ac  Ac1  1  0.179556  0.171190  0.428083  1
  Ac  Ac2  1  0.670008  0.329021  0.571364  1
  Ac  Ac3  1  0.820771  0.830901  0.926093  1
  Ac  Ac4  1  0.670008  0.329021  0.928636  1
  Ac  Ac5  1  0.820771  0.830901  0.573907  1
  Ac  Ac6  1  0.327501  0.672420  0.429993  1
  Ac  Ac7  1  0.179556  0.171190  0.071917  1
  Ac  Ac8  1  0.842717  0.539462  0.250000  1
  Ac  Ac9  1  0.660260  0.045696  0.250000  1
  Ac  Ac10  1  0.155261  0.457175  0.750000  1
  La  La11  1  0.343484  0.943103  0.750000  1
  Ni  Ni12  1  0.070100  0.881215  0.250000  1
  Ni  Ni13  1  0.941529  0.118003  0.750000  1
  Os  Os14  1  0.438449  0.382070  0.250000  1
  Os  Os15  1  0.552529  0.626211  0.750000  1
