# generated using pymatgen
data_La3Nd5(YIr2)2
_symmetry_space_group_name_H-M   'P 1'
_cell_length_a   6.69110175
_cell_length_b   7.28652573
_cell_length_c   9.03267454
_cell_angle_alpha   96.05093789
_cell_angle_beta   111.26362902
_cell_angle_gamma   90.67754006
_symmetry_Int_Tables_number   1
_chemical_formula_structural   La3Nd5(YIr2)2
_chemical_formula_sum   'La3 Nd5 Y2 Ir4'
_cell_volume   407.52390701
_cell_formula_units_Z   1
loop_
 _symmetry_equiv_pos_site_id
 _symmetry_equiv_pos_as_xyz
  1  'x, y, z'
loop_
 _atom_site_type_symbol
 _atom_site_label
 _atom_site_symmetry_multiplicity
 _atom_site_fract_x
 _atom_site_fract_y
 _atom_site_fract_z
 _atom_site_occupancy
  La  La0  1  0.983117  0.915636  0.187438  1
  La  La1  1  0.795648  0.582537  0.816152  1
  La  La2  1  0.018156  0.086378  0.817416  1
  Nd  Nd3  1  0.209479  0.422098  0.186094  1
  Nd  Nd4  1  0.640288  0.813205  0.427996  1
  Nd  Nd5  1  0.211614  0.684102  0.568433  1
  Nd  Nd6  1  0.357225  0.186391  0.571161  1
  Nd  Nd7  1  0.784632  0.314899  0.428508  1
  Y  Y8  1  0.434289  0.750728  0.999061  1
  Y  Y9  1  0.566487  0.248563  0.001220  1
  Ir  Ir10  1  0.812648  0.574754  0.214342  1
  Ir  Ir11  1  0.600212  0.924006  0.782261  1
  Ir  Ir12  1  0.184884  0.424140  0.784553  1
  Ir  Ir13  1  0.401320  0.072562  0.215364  1
