# generated using pymatgen
data_Nd2B4Ir3Rh
_symmetry_space_group_name_H-M   'P 1'
_cell_length_a   7.08283405
_cell_length_b   6.10726503
_cell_length_c   5.57871452
_cell_angle_alpha   74.46141317
_cell_angle_beta   56.17559294
_cell_angle_gamma   49.98096290
_symmetry_Int_Tables_number   1
_chemical_formula_structural   Nd2B4Ir3Rh
_chemical_formula_sum   'Nd2 B4 Ir3 Rh1'
_cell_volume   151.98271465
_cell_formula_units_Z   1
loop_
 _symmetry_equiv_pos_site_id
 _symmetry_equiv_pos_as_xyz
  1  'x, y, z'
loop_
 _atom_site_type_symbol
 _atom_site_label
 _atom_site_symmetry_multiplicity
 _atom_site_fract_x
 _atom_site_fract_y
 _atom_site_fract_z
 _atom_site_occupancy
  Nd  Nd0  1  0.500661  0.500661  0.499339  1
  Nd  Nd1  1  0.751696  0.751696  0.748304  1
  B  B2  1  0.189491  0.814881  0.171813  1
  B  B3  1  0.069003  0.427531  0.074937  1
  B  B4  1  0.814881  0.189491  0.823814  1
  B  B5  1  0.427531  0.069003  0.428529  1
  Ir  Ir6  1  0.129913  0.129913  0.870087  1
  Ir  Ir7  1  0.379296  0.379296  0.120704  1
  Ir  Ir8  1  0.117906  0.117906  0.382094  1
  Rh  Rh9  1  0.869622  0.869622  0.130378  1
