# generated using pymatgen
data_Ca3La7Si8O2F
_symmetry_space_group_name_H-M   'P 1'
_cell_length_a   10.80170283
_cell_length_b   10.87126691
_cell_length_c   4.59503300
_cell_angle_alpha   90.00000000
_cell_angle_beta   90.00000000
_cell_angle_gamma   120.21326964
_symmetry_Int_Tables_number   1
_chemical_formula_structural   Ca3La7Si8O2F
_chemical_formula_sum   'Ca3 La7 Si8 O2 F1'
_cell_volume   466.28808027
_cell_formula_units_Z   1
loop_
 _symmetry_equiv_pos_site_id
 _symmetry_equiv_pos_as_xyz
  1  'x, y, z'
loop_
 _atom_site_type_symbol
 _atom_site_label
 _atom_site_symmetry_multiplicity
 _atom_site_fract_x
 _atom_site_fract_y
 _atom_site_fract_z
 _atom_site_occupancy
  Ca  Ca0  1  0.000000  0.500000  0.500000  1
  Ca  Ca1  1  0.500000  0.500000  0.500000  1
  Ca  Ca2  1  0.500000  0.000000  0.500000  1
  La  La3  1  0.224001  0.800879  0.000000  1
  La  La4  1  0.573711  0.786856  0.000000  1
  La  La5  1  0.775999  0.576878  0.000000  1
  La  La6  1  0.000000  0.000000  0.000000  1
  La  La7  1  0.224001  0.423122  0.000000  1
  La  La8  1  0.426289  0.213144  0.000000  1
  La  La9  1  0.775999  0.199121  0.000000  1
  Si  Si10  1  0.000000  0.777582  0.500000  1
  Si  Si11  1  0.000000  0.222418  0.500000  1
  Si  Si12  1  0.218896  0.218682  0.500000  1
  Si  Si13  1  0.781104  0.999786  0.500000  1
  Si  Si14  1  0.329277  0.664639  0.500000  1
  Si  Si15  1  0.218896  0.000214  0.500000  1
  Si  Si16  1  0.670723  0.335361  0.500000  1
  Si  Si17  1  0.781104  0.781318  0.500000  1
  O  O18  1  0.500000  0.500000  0.000000  1
  O  O19  1  0.500000  0.000000  0.000000  1
  F  F20  1  0.000000  0.500000  0.000000  1
