# generated using pymatgen
data_Dy6NbNi17P12
_symmetry_space_group_name_H-M   'P 1'
_cell_length_a   3.77714500
_cell_length_b   10.58223900
_cell_length_c   12.33434900
_cell_angle_alpha   90.00000000
_cell_angle_beta   90.00000000
_cell_angle_gamma   90.00000000
_symmetry_Int_Tables_number   1
_chemical_formula_structural   Dy6NbNi17P12
_chemical_formula_sum   'Dy6 Nb1 Ni17 P12'
_cell_volume   493.01196077
_cell_formula_units_Z   1
loop_
 _symmetry_equiv_pos_site_id
 _symmetry_equiv_pos_as_xyz
  1  'x, y, z'
loop_
 _atom_site_type_symbol
 _atom_site_label
 _atom_site_symmetry_multiplicity
 _atom_site_fract_x
 _atom_site_fract_y
 _atom_site_fract_z
 _atom_site_occupancy
  Dy  Dy0  1  0.750000  0.250000  0.473962  1
  Dy  Dy1  1  0.250000  0.750000  0.520084  1
  Dy  Dy2  1  0.250000  0.931158  0.793264  1
  Dy  Dy3  1  0.250000  0.568842  0.793264  1
  Dy  Dy4  1  0.750000  0.066228  0.205181  1
  Dy  Dy5  1  0.750000  0.433772  0.205181  1
  Nb  Nb6  1  0.250000  0.250000  0.846871  1
  Ni  Ni7  1  0.750000  0.750000  0.161916  1
  Ni  Ni8  1  0.250000  0.250000  0.298590  1
  Ni  Ni9  1  0.750000  0.750000  0.699426  1
  Ni  Ni10  1  0.750000  0.250000  0.017285  1
  Ni  Ni11  1  0.250000  0.750000  0.983071  1
  Ni  Ni12  1  0.250000  0.423335  0.011103  1
  Ni  Ni13  1  0.250000  0.076665  0.011103  1
  Ni  Ni14  1  0.750000  0.589346  0.996680  1
  Ni  Ni15  1  0.750000  0.910654  0.996680  1
  Ni  Ni16  1  0.250000  0.449508  0.569982  1
  Ni  Ni17  1  0.250000  0.050492  0.569982  1
  Ni  Ni18  1  0.750000  0.551645  0.428341  1
  Ni  Ni19  1  0.750000  0.948355  0.428341  1
  Ni  Ni20  1  0.250000  0.871042  0.289570  1
  Ni  Ni21  1  0.250000  0.628958  0.289570  1
  Ni  Ni22  1  0.750000  0.128826  0.707686  1
  Ni  Ni23  1  0.750000  0.371174  0.707686  1
  P  P24  1  0.250000  0.250000  0.120356  1
  P  P25  1  0.750000  0.750000  0.876308  1
  P  P26  1  0.250000  0.250000  0.647092  1
  P  P27  1  0.750000  0.750000  0.345545  1
  P  P28  1  0.250000  0.437215  0.383944  1
  P  P29  1  0.250000  0.062785  0.383944  1
  P  P30  1  0.750000  0.564532  0.613316  1
  P  P31  1  0.750000  0.935468  0.613316  1
  P  P32  1  0.250000  0.898467  0.109445  1
  P  P33  1  0.250000  0.601533  0.109445  1
  P  P34  1  0.750000  0.089480  0.896236  1
  P  P35  1  0.750000  0.410520  0.896236  1
