# generated using pymatgen
data_Dy8Cd2CoOs
_symmetry_space_group_name_H-M   'P 1'
_cell_length_a   9.67914933
_cell_length_b   9.56961707
_cell_length_c   9.56961745
_cell_angle_alpha   59.35415668
_cell_angle_beta   59.62064656
_cell_angle_gamma   59.62064313
_symmetry_Int_Tables_number   1
_chemical_formula_structural   Dy8Cd2CoOs
_chemical_formula_sum   'Dy16 Cd4 Co2 Os2'
_cell_volume   620.09299685
_cell_formula_units_Z   2
loop_
 _symmetry_equiv_pos_site_id
 _symmetry_equiv_pos_as_xyz
  1  'x, y, z'
loop_
 _atom_site_type_symbol
 _atom_site_label
 _atom_site_symmetry_multiplicity
 _atom_site_fract_x
 _atom_site_fract_y
 _atom_site_fract_z
 _atom_site_occupancy
  Dy  Dy0  1  0.939466  0.939200  0.556458  1
  Dy  Dy1  1  0.811298  0.188702  0.188702  1
  Dy  Dy2  1  0.936057  0.563943  0.563943  1
  Dy  Dy3  1  0.939466  0.556458  0.939200  1
  Dy  Dy4  1  0.816141  0.806965  0.186447  1
  Dy  Dy5  1  0.339591  0.349658  0.349658  1
  Dy  Dy6  1  0.557269  0.942731  0.942731  1
  Dy  Dy7  1  0.564877  0.939200  0.556458  1
  Dy  Dy8  1  0.189592  0.810408  0.810408  1
  Dy  Dy9  1  0.190448  0.186447  0.806965  1
  Dy  Dy10  1  0.343365  0.353097  0.960174  1
  Dy  Dy11  1  0.343365  0.960174  0.353097  1
  Dy  Dy12  1  0.816141  0.186447  0.806965  1
  Dy  Dy13  1  0.564877  0.556458  0.939200  1
  Dy  Dy14  1  0.190448  0.806965  0.186447  1
  Dy  Dy15  1  0.961092  0.349658  0.349658  1
  Cd  Cd16  1  0.581058  0.579391  0.258494  1
  Cd  Cd17  1  0.259377  0.579599  0.579599  1
  Cd  Cd18  1  0.581427  0.579599  0.579599  1
  Cd  Cd19  1  0.581058  0.258494  0.579391  1
  Co  Co20  1  0.138004  0.581094  0.142899  1
  Co  Co21  1  0.138004  0.142899  0.581094  1
  Os  Os22  1  0.578867  0.141209  0.141209  1
  Os  Os23  1  0.138717  0.141209  0.141209  1
