# generated using pymatgen
data_Pr8Y12Si15Rh
_symmetry_space_group_name_H-M   'P 1'
_cell_length_a   7.57306600
_cell_length_b   7.81724025
_cell_length_c   14.89115128
_cell_angle_alpha   89.87261828
_cell_angle_beta   89.83743829
_cell_angle_gamma   90.29138481
_symmetry_Int_Tables_number   1
_chemical_formula_structural   Pr8Y12Si15Rh
_chemical_formula_sum   'Pr8 Y12 Si15 Rh1'
_cell_volume   881.54609421
_cell_formula_units_Z   1
loop_
 _symmetry_equiv_pos_site_id
 _symmetry_equiv_pos_as_xyz
  1  'x, y, z'
loop_
 _atom_site_type_symbol
 _atom_site_label
 _atom_site_symmetry_multiplicity
 _atom_site_fract_x
 _atom_site_fract_y
 _atom_site_fract_z
 _atom_site_occupancy
  Pr  Pr0  1  0.023035  0.182611  0.403359  1
  Pr  Pr1  1  0.523202  0.321029  0.400292  1
  Pr  Pr2  1  0.474781  0.678582  0.901286  1
  Pr  Pr3  1  0.473567  0.674726  0.599765  1
  Pr  Pr4  1  0.977288  0.817013  0.597386  1
  Pr  Pr5  1  0.974880  0.819951  0.901224  1
  Pr  Pr6  1  0.524195  0.321825  0.097885  1
  Pr  Pr7  1  0.024736  0.178781  0.098593  1
  Y  Y8  1  0.320408  0.186040  0.618812  1
  Y  Y9  1  0.677510  0.821571  0.376589  1
  Y  Y10  1  0.653341  0.989474  0.748151  1
  Y  Y11  1  0.177541  0.668157  0.380528  1
  Y  Y12  1  0.822566  0.318701  0.877641  1
  Y  Y13  1  0.825866  0.325736  0.621058  1
  Y  Y14  1  0.848391  0.489911  0.252077  1
  Y  Y15  1  0.347132  0.007857  0.250694  1
  Y  Y16  1  0.319721  0.180040  0.877473  1
  Y  Y17  1  0.178588  0.680428  0.122783  1
  Y  Y18  1  0.681202  0.822240  0.123532  1
  Y  Y19  1  0.154632  0.508992  0.744424  1
  Si  Si20  1  0.270447  0.882679  0.750675  1
  Si  Si21  1  0.471751  0.611413  0.248673  1
  Si  Si22  1  0.028213  0.110617  0.750645  1
  Si  Si23  1  0.531860  0.386912  0.752730  1
  Si  Si24  1  0.974914  0.886599  0.251236  1
  Si  Si25  1  0.730246  0.121017  0.249257  1
  Si  Si26  1  0.854828  0.531137  0.039360  1
  Si  Si27  1  0.356404  0.969442  0.039443  1
  Si  Si28  1  0.143560  0.469580  0.961563  1
  Si  Si29  1  0.645435  0.031633  0.538747  1
  Si  Si30  1  0.356806  0.968963  0.459846  1
  Si  Si31  1  0.847144  0.531923  0.458402  1
  Si  Si32  1  0.768579  0.619586  0.752426  1
  Si  Si33  1  0.231862  0.378571  0.248867  1
  Si  Si34  1  0.644400  0.030033  0.960959  1
  Rh  Rh35  1  0.140971  0.476233  0.543618  1
