# generated using pymatgen
data_Sr3(LaPb2)2
_symmetry_space_group_name_H-M   'P 1'
_cell_length_a   8.49168000
_cell_length_b   8.98638800
_cell_length_c   17.21352900
_cell_angle_alpha   90.00000000
_cell_angle_beta   90.00000000
_cell_angle_gamma   90.00000000
_symmetry_Int_Tables_number   1
_chemical_formula_structural   Sr3(LaPb2)2
_chemical_formula_sum   'Sr12 La8 Pb16'
_cell_volume   1313.55632918
_cell_formula_units_Z   4
loop_
 _symmetry_equiv_pos_site_id
 _symmetry_equiv_pos_as_xyz
  1  'x, y, z'
loop_
 _atom_site_type_symbol
 _atom_site_label
 _atom_site_symmetry_multiplicity
 _atom_site_fract_x
 _atom_site_fract_y
 _atom_site_fract_z
 _atom_site_occupancy
  Sr  Sr0  1  0.500692  0.684408  0.592926  1
  Sr  Sr1  1  0.000692  0.815592  0.907074  1
  Sr  Sr2  1  0.499308  0.315592  0.092926  1
  Sr  Sr3  1  0.999308  0.184408  0.407074  1
  Sr  Sr4  1  0.499308  0.315592  0.407074  1
  Sr  Sr5  1  0.999308  0.184408  0.092926  1
  Sr  Sr6  1  0.500692  0.684408  0.907074  1
  Sr  Sr7  1  0.000692  0.815592  0.592926  1
  Sr  Sr8  1  0.826627  0.513035  0.750000  1
  Sr  Sr9  1  0.326627  0.986965  0.750000  1
  Sr  Sr10  1  0.173373  0.486965  0.250000  1
  Sr  Sr11  1  0.673373  0.013035  0.250000  1
  La  La12  1  0.667861  0.167328  0.620998  1
  La  La13  1  0.167861  0.332672  0.879002  1
  La  La14  1  0.332139  0.832672  0.120998  1
  La  La15  1  0.832139  0.667328  0.379002  1
  La  La16  1  0.332139  0.832672  0.379002  1
  La  La17  1  0.832139  0.667328  0.120998  1
  La  La18  1  0.667861  0.167328  0.879002  1
  La  La19  1  0.167861  0.332672  0.620998  1
  Pb  Pb20  1  0.669551  0.961746  0.459425  1
  Pb  Pb21  1  0.169551  0.538254  0.040575  1
  Pb  Pb22  1  0.330449  0.038254  0.959425  1
  Pb  Pb23  1  0.830449  0.461746  0.540575  1
  Pb  Pb24  1  0.330449  0.038254  0.540575  1
  Pb  Pb25  1  0.830449  0.461746  0.959425  1
  Pb  Pb26  1  0.669551  0.961746  0.040575  1
  Pb  Pb27  1  0.169551  0.538254  0.459425  1
  Pb  Pb28  1  0.460907  0.377891  0.750000  1
  Pb  Pb29  1  0.960907  0.122109  0.750000  1
  Pb  Pb30  1  0.539093  0.622109  0.250000  1
  Pb  Pb31  1  0.039093  0.877891  0.250000  1
  Pb  Pb32  1  0.706621  0.876383  0.750000  1
  Pb  Pb33  1  0.206621  0.623617  0.750000  1
  Pb  Pb34  1  0.293379  0.123617  0.250000  1
  Pb  Pb35  1  0.793379  0.376383  0.250000  1
