# generated using pymatgen
data_Pr8Zn3Si12Os
_symmetry_space_group_name_H-M   'P 1'
_cell_length_a   8.27068800
_cell_length_b   8.27069527
_cell_length_c   8.61093200
_cell_angle_alpha   89.99996104
_cell_angle_beta   90.00002716
_cell_angle_gamma   120.00002370
_symmetry_Int_Tables_number   1
_chemical_formula_structural   Pr8Zn3Si12Os
_chemical_formula_sum   'Pr8 Zn3 Si12 Os1'
_cell_volume   510.11059666
_cell_formula_units_Z   1
loop_
 _symmetry_equiv_pos_site_id
 _symmetry_equiv_pos_as_xyz
  1  'x, y, z'
loop_
 _atom_site_type_symbol
 _atom_site_label
 _atom_site_symmetry_multiplicity
 _atom_site_fract_x
 _atom_site_fract_y
 _atom_site_fract_z
 _atom_site_occupancy
  Pr  Pr0  1  0.501214  0.498786  0.747548  1
  Pr  Pr1  1  0.501840  0.498160  0.252493  1
  Pr  Pr2  1  0.997572  0.498786  0.747548  1
  Pr  Pr3  1  0.996319  0.498160  0.252493  1
  Pr  Pr4  1  0.501214  0.002428  0.747548  1
  Pr  Pr5  1  0.501840  0.003680  0.252493  1
  Pr  Pr6  1  0.000000  0.000000  0.750976  1
  Pr  Pr7  1  0.000000  0.000000  0.249193  1
  Zn  Zn8  1  0.666667  0.333333  0.997124  1
  Zn  Zn9  1  0.333333  0.666667  0.002096  1
  Zn  Zn10  1  0.333333  0.666667  0.499002  1
  Si  Si11  1  0.833416  0.166584  0.000760  1
  Si  Si12  1  0.165401  0.834599  0.999459  1
  Si  Si13  1  0.333167  0.166584  0.000760  1
  Si  Si14  1  0.162875  0.837125  0.499667  1
  Si  Si15  1  0.669197  0.834599  0.999459  1
  Si  Si16  1  0.829860  0.170140  0.500520  1
  Si  Si17  1  0.833416  0.666833  0.000760  1
  Si  Si18  1  0.674251  0.837125  0.499667  1
  Si  Si19  1  0.165401  0.330803  0.999459  1
  Si  Si20  1  0.340280  0.170140  0.500520  1
  Si  Si21  1  0.162875  0.325749  0.499667  1
  Si  Si22  1  0.829860  0.659720  0.500520  1
  Os  Os23  1  0.666667  0.333333  0.500269  1
