# generated using pymatgen
data_Ca3Sc4V6O24
_symmetry_space_group_name_H-M   'P 1'
_cell_length_a   6.98710985
_cell_length_b   8.79200064
_cell_length_c   10.29381136
_cell_angle_alpha   105.84665063
_cell_angle_beta   106.93693373
_cell_angle_gamma   103.17813395
_symmetry_Int_Tables_number   1
_chemical_formula_structural   Ca3Sc4V6O24
_chemical_formula_sum   'Ca3 Sc4 V6 O24'
_cell_volume   548.48402725
_cell_formula_units_Z   1
loop_
 _symmetry_equiv_pos_site_id
 _symmetry_equiv_pos_as_xyz
  1  'x, y, z'
loop_
 _atom_site_type_symbol
 _atom_site_label
 _atom_site_symmetry_multiplicity
 _atom_site_fract_x
 _atom_site_fract_y
 _atom_site_fract_z
 _atom_site_occupancy
  Ca  Ca0  1  0.000000  0.500000  0.500000  1
  Ca  Ca1  1  0.288782  0.308350  0.793457  1
  Ca  Ca2  1  0.711218  0.691650  0.206543  1
  Sc  Sc3  1  0.377988  0.954740  0.607333  1
  Sc  Sc4  1  0.622012  0.045260  0.392667  1
  Sc  Sc5  1  0.044372  0.210724  0.024900  1
  Sc  Sc6  1  0.955628  0.789276  0.975100  1
  V  V7  1  0.783115  0.339741  0.735079  1
  V  V8  1  0.216885  0.660259  0.264921  1
  V  V9  1  0.893835  0.908764  0.668033  1
  V  V10  1  0.396398  0.736990  0.865628  1
  V  V11  1  0.106165  0.091236  0.331967  1
  V  V12  1  0.603602  0.263010  0.134372  1
  O  O13  1  0.854953  0.706362  0.584317  1
  O  O14  1  0.145047  0.293638  0.415683  1
  O  O15  1  0.253666  0.536695  0.736124  1
  O  O16  1  0.746334  0.463305  0.263876  1
  O  O17  1  0.789909  0.290292  0.558166  1
  O  O18  1  0.210091  0.709708  0.441834  1
  O  O19  1  0.671626  0.961810  0.579056  1
  O  O20  1  0.328374  0.038190  0.420944  1
  O  O21  1  0.637690  0.733970  0.983988  1
  O  O22  1  0.362310  0.266030  0.016012  1
  O  O23  1  0.461743  0.779041  0.274987  1
  O  O24  1  0.538257  0.220959  0.725013  1
  O  O25  1  0.124473  0.023153  0.653950  1
  O  O26  1  0.067289  0.048534  0.144984  1
  O  O27  1  0.932711  0.951466  0.855016  1
  O  O28  1  0.563437  0.132697  0.230155  1
  O  O29  1  0.436563  0.867303  0.769845  1
  O  O30  1  0.181674  0.453186  0.186944  1
  O  O31  1  0.818326  0.546814  0.813056  1
  O  O32  1  0.984022  0.288194  0.845098  1
  O  O33  1  0.015978  0.711806  0.154902  1
  O  O34  1  0.242187  0.790277  0.962283  1
  O  O35  1  0.757813  0.209723  0.037717  1
  O  O36  1  0.875527  0.976847  0.346050  1
