# generated using pymatgen
data_Ta3MoW12
_symmetry_space_group_name_H-M   'P 1'
_cell_length_a   6.40992737
_cell_length_b   6.40992737
_cell_length_c   6.40992737
_cell_angle_alpha   89.97248369
_cell_angle_beta   89.97248369
_cell_angle_gamma   89.97248369
_symmetry_Int_Tables_number   1
_chemical_formula_structural   Ta3MoW12
_chemical_formula_sum   'Ta3 Mo1 W12'
_cell_volume   263.36567727
_cell_formula_units_Z   1
loop_
 _symmetry_equiv_pos_site_id
 _symmetry_equiv_pos_as_xyz
  1  'x, y, z'
loop_
 _atom_site_type_symbol
 _atom_site_label
 _atom_site_symmetry_multiplicity
 _atom_site_fract_x
 _atom_site_fract_y
 _atom_site_fract_z
 _atom_site_occupancy
  Ta  Ta0  1  0.500631  0.999437  0.999437  1
  Ta  Ta1  1  0.999437  0.500631  0.999437  1
  Ta  Ta2  1  0.999437  0.999437  0.500631  1
  Mo  Mo3  1  0.749192  0.749192  0.749192  1
  W  W4  1  0.999899  0.999899  0.999899  1
  W  W5  1  0.500077  0.500077  0.000029  1
  W  W6  1  0.251233  0.251233  0.251233  1
  W  W7  1  0.748829  0.251086  0.251086  1
  W  W8  1  0.251086  0.748829  0.251086  1
  W  W9  1  0.748845  0.748845  0.251121  1
  W  W10  1  0.500077  0.000029  0.500077  1
  W  W11  1  0.000029  0.500077  0.500077  1
  W  W12  1  0.500172  0.500172  0.500172  1
  W  W13  1  0.251086  0.251086  0.748829  1
  W  W14  1  0.748845  0.251121  0.748845  1
  W  W15  1  0.251121  0.748845  0.748845  1
