# generated using pymatgen
data_Sc3Ta3Re5Si6Os
_symmetry_space_group_name_H-M   'P 1'
_cell_length_a   7.65660455
_cell_length_b   7.68086906
_cell_length_c   7.65678935
_cell_angle_alpha   126.14779182
_cell_angle_beta   128.31711766
_cell_angle_gamma   77.80532686
_symmetry_Int_Tables_number   1
_chemical_formula_structural   Sc3Ta3Re5Si6Os
_chemical_formula_sum   'Sc3 Ta3 Re5 Si6 Os1'
_cell_volume   276.67253646
_cell_formula_units_Z   1
loop_
 _symmetry_equiv_pos_site_id
 _symmetry_equiv_pos_as_xyz
  1  'x, y, z'
loop_
 _atom_site_type_symbol
 _atom_site_label
 _atom_site_symmetry_multiplicity
 _atom_site_fract_x
 _atom_site_fract_y
 _atom_site_fract_z
 _atom_site_occupancy
  Sc  Sc0  1  0.548541  0.092325  0.044296  1
  Sc  Sc1  1  0.452363  0.499309  0.544905  1
  Sc  Sc2  1  0.951544  0.496676  0.046402  1
  Ta  Ta3  1  0.044674  0.092654  0.544523  1
  Ta  Ta4  1  0.752382  0.900050  0.651560  1
  Ta  Ta5  1  0.249878  0.894601  0.141810  1
  Re  Re6  1  0.001078  0.234036  0.239281  1
  Re  Re7  1  0.122004  0.758533  0.626527  1
  Re  Re8  1  0.878235  0.500544  0.631276  1
  Re  Re9  1  0.632130  0.757134  0.136192  1
  Re  Re10  1  0.369765  0.500196  0.121315  1
  Si  Si11  1  0.748956  0.493477  0.245614  1
  Si  Si12  1  0.252343  0.496606  0.744494  1
  Si  Si13  1  0.331886  0.831743  0.494577  1
  Si  Si14  1  0.665360  0.164270  0.497847  1
  Si  Si15  1  0.835571  0.829764  0.998160  1
  Si  Si16  1  0.166729  0.164607  0.998103  1
  Os  Os17  1  0.496560  0.235674  0.735320  1
