# generated using pymatgen
data_Th4Al23ZnPd9
_symmetry_space_group_name_H-M   'P 1'
_cell_length_a   7.64039246
_cell_length_b   7.64408152
_cell_length_c   13.28604022
_cell_angle_alpha   84.55739296
_cell_angle_beta   100.96054256
_cell_angle_gamma   119.79770707
_symmetry_Int_Tables_number   1
_chemical_formula_structural   Th4Al23ZnPd9
_chemical_formula_sum   'Th4 Al23 Zn1 Pd9'
_cell_volume   661.07908178
_cell_formula_units_Z   1
loop_
 _symmetry_equiv_pos_site_id
 _symmetry_equiv_pos_as_xyz
  1  'x, y, z'
loop_
 _atom_site_type_symbol
 _atom_site_label
 _atom_site_symmetry_multiplicity
 _atom_site_fract_x
 _atom_site_fract_y
 _atom_site_fract_z
 _atom_site_occupancy
  Th  Th0  1  0.437160  0.832986  0.807526  1
  Th  Th1  1  0.562399  0.167741  0.191135  1
  Th  Th2  1  0.767530  0.501682  0.807544  1
  Th  Th3  1  0.232046  0.497556  0.192938  1
  Al  Al4  1  0.521006  0.836610  0.053285  1
  Al  Al5  1  0.021005  0.165739  0.560304  1
  Al  Al6  1  0.978708  0.834358  0.440040  1
  Al  Al7  1  0.353139  0.833433  0.558254  1
  Al  Al8  1  0.647250  0.166792  0.441935  1
  Al  Al9  1  0.622368  0.834921  0.335636  1
  Al  Al10  1  0.377494  0.165521  0.664384  1
  Al  Al11  1  0.055318  0.489941  0.664558  1
  Al  Al12  1  0.944447  0.509874  0.335909  1
  Al  Al13  1  0.733344  0.844406  0.663303  1
  Al  Al14  1  0.266657  0.155157  0.336849  1
  Al  Al15  1  0.147755  0.495769  0.946033  1
  Al  Al16  1  0.848138  0.500739  0.052614  1
  Al  Al17  1  0.820249  0.835830  0.956321  1
  Al  Al18  1  0.182511  0.164493  0.041425  1
  Al  Al19  1  0.311659  0.498655  0.441757  1
  Al  Al20  1  0.688451  0.501151  0.558684  1
  Al  Al21  1  0.099379  0.835913  0.184112  1
  Al  Al22  1  0.901110  0.163873  0.815970  1
  Al  Al23  1  0.304493  0.365142  0.815476  1
  Al  Al24  1  0.697449  0.634739  0.185977  1
  Al  Al25  1  0.103605  0.963611  0.817072  1
  Al  Al26  1  0.899387  0.037137  0.184528  1
  Zn  Zn27  1  0.476426  0.166608  0.942551  1
  Pd  Pd28  1  0.387132  0.507398  0.637539  1
  Pd  Pd29  1  0.612062  0.491983  0.362606  1
  Pd  Pd30  1  0.166684  0.822643  0.000397  1
  Pd  Pd31  1  0.833519  0.171395  0.001865  1
  Pd  Pd32  1  0.294715  0.833144  0.362685  1
  Pd  Pd33  1  0.705798  0.166882  0.637437  1
  Pd  Pd34  1  0.047050  0.825842  0.638020  1
  Pd  Pd35  1  0.952621  0.174426  0.362270  1
  Pd  Pd36  1  0.499936  0.505910  0.001060  1
