# generated using pymatgen
data_YTm5Mn2(Co4P3)4
_symmetry_space_group_name_H-M   'P 1'
_cell_length_a   3.67576400
_cell_length_b   10.51349400
_cell_length_c   12.15774500
_cell_angle_alpha   90.00000000
_cell_angle_beta   90.00000000
_cell_angle_gamma   90.00000000
_symmetry_Int_Tables_number   1
_chemical_formula_structural   YTm5Mn2(Co4P3)4
_chemical_formula_sum   'Y1 Tm5 Mn2 Co16 P12'
_cell_volume   469.83754800
_cell_formula_units_Z   1
loop_
 _symmetry_equiv_pos_site_id
 _symmetry_equiv_pos_as_xyz
  1  'x, y, z'
loop_
 _atom_site_type_symbol
 _atom_site_label
 _atom_site_symmetry_multiplicity
 _atom_site_fract_x
 _atom_site_fract_y
 _atom_site_fract_z
 _atom_site_occupancy
  Y  Y0  1  0.500000  0.000000  0.477081  1
  Tm  Tm1  1  0.000000  0.500000  0.522915  1
  Tm  Tm2  1  0.500000  0.818364  0.204948  1
  Tm  Tm3  1  0.500000  0.181636  0.204948  1
  Tm  Tm4  1  0.000000  0.681501  0.794807  1
  Tm  Tm5  1  0.000000  0.318499  0.794807  1
  Mn  Mn6  1  0.500000  0.500000  0.159254  1
  Mn  Mn7  1  0.000000  0.000000  0.841485  1
  Co  Co8  1  0.500000  0.500000  0.702618  1
  Co  Co9  1  0.000000  0.000000  0.296238  1
  Co  Co10  1  0.000000  0.500000  0.985979  1
  Co  Co11  1  0.500000  0.000000  0.013826  1
  Co  Co12  1  0.500000  0.333055  0.993450  1
  Co  Co13  1  0.500000  0.666945  0.993450  1
  Co  Co14  1  0.000000  0.167131  0.006528  1
  Co  Co15  1  0.000000  0.832869  0.006528  1
  Co  Co16  1  0.500000  0.297525  0.430493  1
  Co  Co17  1  0.500000  0.702475  0.430493  1
  Co  Co18  1  0.000000  0.204440  0.569654  1
  Co  Co19  1  0.000000  0.795560  0.569654  1
  Co  Co20  1  0.500000  0.878528  0.709582  1
  Co  Co21  1  0.500000  0.121472  0.709582  1
  Co  Co22  1  0.000000  0.620996  0.290766  1
  Co  Co23  1  0.000000  0.379004  0.290766  1
  P  P24  1  0.500000  0.500000  0.881780  1
  P  P25  1  0.000000  0.000000  0.117751  1
  P  P26  1  0.500000  0.500000  0.346147  1
  P  P27  1  0.000000  0.000000  0.655416  1
  P  P28  1  0.500000  0.312432  0.616669  1
  P  P29  1  0.500000  0.687568  0.616669  1
  P  P30  1  0.000000  0.188886  0.382785  1
  P  P31  1  0.000000  0.811114  0.382785  1
  P  P32  1  0.500000  0.846822  0.892318  1
  P  P33  1  0.500000  0.153178  0.892318  1
  P  P34  1  0.000000  0.652959  0.107754  1
  P  P35  1  0.000000  0.347041  0.107754  1
