# generated using pymatgen
data_LiTh3Pd5
_symmetry_space_group_name_H-M   'P 1'
_cell_length_a   8.42253209
_cell_length_b   8.42253366
_cell_length_c   8.42253288
_cell_angle_alpha   127.52895802
_cell_angle_beta   126.29287062
_cell_angle_gamma   78.40014937
_symmetry_Int_Tables_number   1
_chemical_formula_structural   LiTh3Pd5
_chemical_formula_sum   'Li2 Th6 Pd10'
_cell_volume   369.83066863
_cell_formula_units_Z   2
loop_
 _symmetry_equiv_pos_site_id
 _symmetry_equiv_pos_as_xyz
  1  'x, y, z'
loop_
 _atom_site_type_symbol
 _atom_site_label
 _atom_site_symmetry_multiplicity
 _atom_site_fract_x
 _atom_site_fract_y
 _atom_site_fract_z
 _atom_site_occupancy
  Li  Li0  1  0.784920  0.250000  0.534920  1
  Li  Li1  1  0.215080  0.750000  0.465080  1
  Th  Th2  1  0.215479  0.448128  0.767352  1
  Th  Th3  1  0.784521  0.551872  0.232648  1
  Th  Th4  1  0.819224  0.051872  0.767352  1
  Th  Th5  1  0.180776  0.948128  0.232648  1
  Th  Th6  1  0.389158  0.250000  0.139158  1
  Th  Th7  1  0.610842  0.750000  0.860842  1
  Pd  Pd8  1  0.168035  0.392003  0.350924  1
  Pd  Pd9  1  0.831965  0.182889  0.223968  1
  Pd  Pd10  1  0.458922  0.107997  0.776032  1
  Pd  Pd11  1  0.541078  0.317111  0.649076  1
  Pd  Pd12  1  0.000000  0.500000  0.000000  1
  Pd  Pd13  1  0.000000  0.000000  0.500000  1
  Pd  Pd14  1  0.458922  0.682889  0.350924  1
  Pd  Pd15  1  0.541078  0.892003  0.223968  1
  Pd  Pd16  1  0.168035  0.817111  0.776032  1
  Pd  Pd17  1  0.831965  0.607997  0.649076  1
