# generated using pymatgen
data_Ho2Al3Si2Pt3
_symmetry_space_group_name_H-M   'P 1'
_cell_length_a   8.33027587
_cell_length_b   8.33027634
_cell_length_c   8.33027587
_cell_angle_alpha   138.14738566
_cell_angle_beta   101.64076931
_cell_angle_gamma   93.05883888
_symmetry_Int_Tables_number   1
_chemical_formula_structural   Ho2Al3Si2Pt3
_chemical_formula_sum   'Ho4 Al6 Si4 Pt6'
_cell_volume   358.95016579
_cell_formula_units_Z   2
loop_
 _symmetry_equiv_pos_site_id
 _symmetry_equiv_pos_as_xyz
  1  'x, y, z'
loop_
 _atom_site_type_symbol
 _atom_site_label
 _atom_site_symmetry_multiplicity
 _atom_site_fract_x
 _atom_site_fract_y
 _atom_site_fract_z
 _atom_site_occupancy
  Ho  Ho0  1  0.871144  0.629164  0.241981  1
  Ho  Ho1  1  0.128856  0.370836  0.758019  1
  Ho  Ho2  1  0.387183  0.129164  0.258019  1
  Ho  Ho3  1  0.612817  0.870836  0.741981  1
  Al  Al4  1  0.500000  0.750000  0.250000  1
  Al  Al5  1  0.500000  0.250000  0.750000  1
  Al  Al6  1  0.238368  0.988368  0.750000  1
  Al  Al7  1  0.761632  0.511632  0.750000  1
  Al  Al8  1  0.761632  0.011632  0.250000  1
  Al  Al9  1  0.238368  0.488368  0.250000  1
  Si  Si10  1  0.035791  0.889448  0.146344  1
  Si  Si11  1  0.964209  0.110552  0.853656  1
  Si  Si12  1  0.743103  0.389448  0.353656  1
  Si  Si13  1  0.256897  0.610552  0.646344  1
  Pt  Pt14  1  0.000000  0.750000  0.750000  1
  Pt  Pt15  1  0.000000  0.250000  0.250000  1
  Pt  Pt16  1  0.236534  0.867567  0.368969  1
  Pt  Pt17  1  0.763466  0.132433  0.631031  1
  Pt  Pt18  1  0.498598  0.367567  0.131031  1
  Pt  Pt19  1  0.501402  0.632433  0.868969  1
