# generated using pymatgen
data_KY(PS3)2
_symmetry_space_group_name_H-M   'P 1'
_cell_length_a   7.38991600
_cell_length_b   6.55345670
_cell_length_c   10.32455312
_cell_angle_alpha   86.11057941
_cell_angle_beta   90.00000000
_cell_angle_gamma   90.00000000
_symmetry_Int_Tables_number   1
_chemical_formula_structural   KY(PS3)2
_chemical_formula_sum   'K2 Y2 P4 S12'
_cell_volume   498.86126886
_cell_formula_units_Z   2
loop_
 _symmetry_equiv_pos_site_id
 _symmetry_equiv_pos_as_xyz
  1  'x, y, z'
loop_
 _atom_site_type_symbol
 _atom_site_label
 _atom_site_symmetry_multiplicity
 _atom_site_fract_x
 _atom_site_fract_y
 _atom_site_fract_z
 _atom_site_occupancy
  K  K0  1  0.474161  0.690916  0.500594  1
  K  K1  1  0.974161  0.309084  0.499406  1
  Y  Y2  1  0.202079  0.214993  0.998462  1
  Y  Y3  1  0.702079  0.785007  0.001538  1
  P  P4  1  0.686595  0.333205  0.835134  1
  P  P5  1  0.962796  0.798530  0.280755  1
  P  P6  1  0.186595  0.666795  0.164866  1
  P  P7  1  0.462796  0.201470  0.719245  1
  S  S8  1  0.773249  0.603964  0.754545  1
  S  S9  1  0.548552  0.167996  0.539652  1
  S  S10  1  0.756387  0.601088  0.261670  1
  S  S11  1  0.566931  0.375761  0.011990  1
  S  S12  1  0.398266  0.948177  0.841195  1
  S  S13  1  0.256387  0.398912  0.738330  1
  S  S14  1  0.066931  0.624239  0.988010  1
  S  S15  1  0.898266  0.051823  0.158805  1
  S  S16  1  0.048552  0.832004  0.460348  1
  S  S17  1  0.379875  0.894476  0.157357  1
  S  S18  1  0.879875  0.105524  0.842643  1
  S  S19  1  0.273249  0.396036  0.245455  1
