# generated using pymatgen
data_Ho4Al4IrRu3
_symmetry_space_group_name_H-M   'P 1'
_cell_length_a   4.03231300
_cell_length_b   7.01156756
_cell_length_c   8.07001128
_cell_angle_alpha   90.03801776
_cell_angle_beta   90.00000000
_cell_angle_gamma   90.00000000
_symmetry_Int_Tables_number   1
_chemical_formula_structural   Ho4Al4IrRu3
_chemical_formula_sum   'Ho4 Al4 Ir1 Ru3'
_cell_volume   228.16204737
_cell_formula_units_Z   1
loop_
 _symmetry_equiv_pos_site_id
 _symmetry_equiv_pos_as_xyz
  1  'x, y, z'
loop_
 _atom_site_type_symbol
 _atom_site_label
 _atom_site_symmetry_multiplicity
 _atom_site_fract_x
 _atom_site_fract_y
 _atom_site_fract_z
 _atom_site_occupancy
  Ho  Ho0  1  0.250000  0.533398  0.178248  1
  Ho  Ho1  1  0.750000  0.467880  0.822899  1
  Ho  Ho2  1  0.750000  0.965189  0.679373  1
  Ho  Ho3  1  0.250000  0.032286  0.320190  1
  Al  Al4  1  0.250000  0.638594  0.558981  1
  Al  Al5  1  0.750000  0.363559  0.439585  1
  Al  Al6  1  0.750000  0.862723  0.058712  1
  Al  Al7  1  0.250000  0.136805  0.941034  1
  Ir  Ir8  1  0.250000  0.269561  0.623885  1
  Ru  Ru9  1  0.250000  0.767144  0.876277  1
  Ru  Ru10  1  0.750000  0.231877  0.124284  1
  Ru  Ru11  1  0.750000  0.730986  0.376532  1
