# generated using pymatgen
data_Ho4Hg2RhAu3
_symmetry_space_group_name_H-M   'P 1'
_cell_length_a   7.84417379
_cell_length_b   7.84417381
_cell_length_c   3.72885300
_cell_angle_alpha   90.00000000
_cell_angle_beta   90.00000000
_cell_angle_gamma   90.08631497
_symmetry_Int_Tables_number   1
_chemical_formula_structural   Ho4Hg2RhAu3
_chemical_formula_sum   'Ho4 Hg2 Rh1 Au3'
_cell_volume   229.44002703
_cell_formula_units_Z   1
loop_
 _symmetry_equiv_pos_site_id
 _symmetry_equiv_pos_as_xyz
  1  'x, y, z'
loop_
 _atom_site_type_symbol
 _atom_site_label
 _atom_site_symmetry_multiplicity
 _atom_site_fract_x
 _atom_site_fract_y
 _atom_site_fract_z
 _atom_site_occupancy
  Ho  Ho0  1  0.152106  0.320697  0.500000  1
  Ho  Ho1  1  0.686147  0.186147  0.500000  1
  Ho  Ho2  1  0.820697  0.652106  0.500000  1
  Ho  Ho3  1  0.330051  0.830051  0.500000  1
  Hg  Hg4  1  0.998821  0.004635  0.000000  1
  Hg  Hg5  1  0.504635  0.498821  0.000000  1
  Rh  Rh6  1  0.872565  0.372565  0.000000  1
  Au  Au7  1  0.126917  0.626917  0.000000  1
  Au  Au8  1  0.632405  0.875655  0.000000  1
  Au  Au9  1  0.375655  0.132405  0.000000  1
