# generated using pymatgen
data_Nd2Ga5IrRh2
_symmetry_space_group_name_H-M   'P 1'
_cell_length_a   8.65893703
_cell_length_b   8.68733589
_cell_length_c   8.68733677
_cell_angle_alpha   141.13983132
_cell_angle_beta   108.04241377
_cell_angle_gamma   84.97016790
_symmetry_Int_Tables_number   1
_chemical_formula_structural   Nd2Ga5IrRh2
_chemical_formula_sum   'Nd4 Ga10 Ir2 Rh4'
_cell_volume   376.72559030
_cell_formula_units_Z   2
loop_
 _symmetry_equiv_pos_site_id
 _symmetry_equiv_pos_as_xyz
  1  'x, y, z'
loop_
 _atom_site_type_symbol
 _atom_site_label
 _atom_site_symmetry_multiplicity
 _atom_site_fract_x
 _atom_site_fract_y
 _atom_site_fract_z
 _atom_site_occupancy
  Nd  Nd0  1  0.634255  0.863584  0.770671  1
  Nd  Nd1  1  0.365745  0.136416  0.229329  1
  Nd  Nd2  1  0.092960  0.364656  0.728304  1
  Nd  Nd3  1  0.907040  0.635344  0.271696  1
  Ga  Ga4  1  0.291920  0.043310  0.749648  1
  Ga  Ga5  1  0.708080  0.956690  0.250352  1
  Ga  Ga6  1  0.708080  0.457728  0.751390  1
  Ga  Ga7  1  0.291920  0.542272  0.248610  1
  Ga  Ga8  1  0.421941  0.592192  0.829746  1
  Ga  Ga9  1  0.578059  0.407808  0.170254  1
  Ga  Ga10  1  0.762360  0.091658  0.670704  1
  Ga  Ga11  1  0.237640  0.908342  0.329296  1
  Ga  Ga12  1  0.000000  0.748862  0.748862  1
  Ga  Ga13  1  0.000000  0.251138  0.251138  1
  Ir  Ir14  1  0.243310  0.648236  0.595074  1
  Ir  Ir15  1  0.756690  0.351764  0.404926  1
  Rh  Rh16  1  0.052734  0.146593  0.906141  1
  Rh  Rh17  1  0.947266  0.853407  0.093859  1
  Rh  Rh18  1  0.500000  0.749672  0.249672  1
  Rh  Rh19  1  0.500000  0.250328  0.750328  1
