# generated using pymatgen
data_Ce3Dy(Er2Co)4
_symmetry_space_group_name_H-M   'P 1'
_cell_length_a   6.26354877
_cell_length_b   6.78462894
_cell_length_c   9.41641300
_cell_angle_alpha   90.00000000
_cell_angle_beta   90.00000000
_cell_angle_gamma   91.97494425
_symmetry_Int_Tables_number   1
_chemical_formula_structural   Ce3Dy(Er2Co)4
_chemical_formula_sum   'Ce3 Dy1 Er8 Co4'
_cell_volume   399.92081754
_cell_formula_units_Z   1
loop_
 _symmetry_equiv_pos_site_id
 _symmetry_equiv_pos_as_xyz
  1  'x, y, z'
loop_
 _atom_site_type_symbol
 _atom_site_label
 _atom_site_symmetry_multiplicity
 _atom_site_fract_x
 _atom_site_fract_y
 _atom_site_fract_z
 _atom_site_occupancy
  Ce  Ce0  1  0.148052  0.438790  0.750000  1
  Ce  Ce1  1  0.356602  0.938225  0.750000  1
  Ce  Ce2  1  0.849365  0.558304  0.250000  1
  Dy  Dy3  1  0.640280  0.045228  0.250000  1
  Er  Er4  1  0.673131  0.327757  0.933489  1
  Er  Er5  1  0.175051  0.170561  0.429130  1
  Er  Er6  1  0.830078  0.828537  0.568113  1
  Er  Er7  1  0.175051  0.170561  0.070870  1
  Er  Er8  1  0.830078  0.828537  0.931887  1
  Er  Er9  1  0.673131  0.327757  0.566511  1
  Er  Er10  1  0.324118  0.670690  0.066609  1
  Er  Er11  1  0.324118  0.670690  0.433391  1
  Co  Co12  1  0.516395  0.632621  0.750000  1
  Co  Co13  1  0.979408  0.136157  0.750000  1
  Co  Co14  1  0.028305  0.858191  0.250000  1
  Co  Co15  1  0.476837  0.397399  0.250000  1
