# generated using pymatgen
data_YbCo3Si4Ni3
_symmetry_space_group_name_H-M   'P 1'
_cell_length_a   6.64141200
_cell_length_b   6.64141106
_cell_length_c   3.57610900
_cell_angle_alpha   90.00000000
_cell_angle_beta   90.00000000
_cell_angle_gamma   119.99999472
_symmetry_Int_Tables_number   1
_chemical_formula_structural   YbCo3Si4Ni3
_chemical_formula_sum   'Yb1 Co3 Si4 Ni3'
_cell_volume   136.60361297
_cell_formula_units_Z   1
loop_
 _symmetry_equiv_pos_site_id
 _symmetry_equiv_pos_as_xyz
  1  'x, y, z'
loop_
 _atom_site_type_symbol
 _atom_site_label
 _atom_site_symmetry_multiplicity
 _atom_site_fract_x
 _atom_site_fract_y
 _atom_site_fract_z
 _atom_site_occupancy
  Yb  Yb0  1  0.000000  0.000000  0.000000  1
  Co  Co1  1  0.534274  0.068549  0.000000  1
  Co  Co2  1  0.931452  0.465726  0.000000  1
  Co  Co3  1  0.534274  0.465726  0.000000  1
  Si  Si4  1  0.333333  0.666666  0.000000  1
  Si  Si5  1  0.399719  0.199859  0.500001  1
  Si  Si6  1  0.800141  0.199859  0.500001  1
  Si  Si7  1  0.800141  0.600282  0.500001  1
  Ni  Ni8  1  0.203149  0.406298  0.500001  1
  Ni  Ni9  1  0.203149  0.796851  0.500001  1
  Ni  Ni10  1  0.593703  0.796851  0.500001  1
