# generated using pymatgen
data_La4Ho16Si15Au
_symmetry_space_group_name_H-M   'P 1'
_cell_length_a   7.53810594
_cell_length_b   7.78631652
_cell_length_c   14.83760600
_cell_angle_alpha   90.11307112
_cell_angle_beta   89.31042184
_cell_angle_gamma   89.85805649
_symmetry_Int_Tables_number   1
_chemical_formula_structural   La4Ho16Si15Au
_chemical_formula_sum   'La4 Ho16 Si15 Au1'
_cell_volume   870.81212342
_cell_formula_units_Z   1
loop_
 _symmetry_equiv_pos_site_id
 _symmetry_equiv_pos_as_xyz
  1  'x, y, z'
loop_
 _atom_site_type_symbol
 _atom_site_label
 _atom_site_symmetry_multiplicity
 _atom_site_fract_x
 _atom_site_fract_y
 _atom_site_fract_z
 _atom_site_occupancy
  La  La0  1  0.228406  0.679286  0.153900  1
  La  La1  1  0.734626  0.821534  0.847930  1
  La  La2  1  0.267703  0.326845  0.654227  1
  La  La3  1  0.770988  0.178755  0.344799  1
  Ho  Ho4  1  0.920516  0.675784  0.624815  1
  Ho  Ho5  1  0.428445  0.821871  0.373331  1
  Ho  Ho6  1  0.570990  0.323732  0.125150  1
  Ho  Ho7  1  0.075413  0.172448  0.875721  1
  Ho  Ho8  1  0.577309  0.320815  0.873195  1
  Ho  Ho9  1  0.073819  0.179897  0.128403  1
  Ho  Ho10  1  0.927334  0.679547  0.371120  1
  Ho  Ho11  1  0.425257  0.822271  0.628562  1
  Ho  Ho12  1  0.091579  0.008703  0.501419  1
  Ho  Ho13  1  0.590781  0.489273  0.499433  1
  Ho  Ho14  1  0.407197  0.990175  0.999455  1
  Ho  Ho15  1  0.906082  0.506628  0.998350  1
  Ho  Ho16  1  0.277068  0.317609  0.352703  1
  Ho  Ho17  1  0.767851  0.182170  0.646084  1
  Ho  Ho18  1  0.231401  0.679112  0.854872  1
  Ho  Ho19  1  0.723346  0.815795  0.147097  1
  Si  Si20  1  0.598233  0.535852  0.287031  1
  Si  Si21  1  0.403429  0.036502  0.212657  1
  Si  Si22  1  0.907113  0.463345  0.788770  1
  Si  Si23  1  0.404306  0.026938  0.793555  1
  Si  Si24  1  0.887282  0.477244  0.206684  1
  Si  Si25  1  0.113441  0.978009  0.292279  1
  Si  Si26  1  0.605809  0.526495  0.709583  1
  Si  Si27  1  0.976089  0.377697  0.497458  1
  Si  Si28  1  0.474247  0.123814  0.499027  1
  Si  Si29  1  0.524946  0.624390  0.000081  1
  Si  Si30  1  0.024196  0.873568  0.003254  1
  Si  Si31  1  0.219418  0.613327  0.497070  1
  Si  Si32  1  0.718098  0.888097  0.498534  1
  Si  Si33  1  0.277907  0.387622  0.000365  1
  Si  Si34  1  0.779506  0.109845  0.003090  1
  Au  Au35  1  0.089878  0.965003  0.709995  1
