# generated using pymatgen
data_Ba2BiSbPt2
_symmetry_space_group_name_H-M   'P 1'
_cell_length_a   9.92806700
_cell_length_b   4.66500988
_cell_length_c   8.14466701
_cell_angle_alpha   90.17856219
_cell_angle_beta   90.00000000
_cell_angle_gamma   90.00000000
_symmetry_Int_Tables_number   1
_chemical_formula_structural   Ba2BiSbPt2
_chemical_formula_sum   'Ba4 Bi2 Sb2 Pt4'
_cell_volume   377.21459783
_cell_formula_units_Z   2
loop_
 _symmetry_equiv_pos_site_id
 _symmetry_equiv_pos_as_xyz
  1  'x, y, z'
loop_
 _atom_site_type_symbol
 _atom_site_label
 _atom_site_symmetry_multiplicity
 _atom_site_fract_x
 _atom_site_fract_y
 _atom_site_fract_z
 _atom_site_occupancy
  Ba  Ba0  1  0.161151  0.251216  0.753327  1
  Ba  Ba1  1  0.661151  0.748784  0.246673  1
  Ba  Ba2  1  0.168437  0.750484  0.248066  1
  Ba  Ba3  1  0.668437  0.249516  0.751934  1
  Bi  Bi4  1  0.914415  0.252082  0.414749  1
  Bi  Bi5  1  0.414415  0.747918  0.585251  1
  Sb  Sb6  1  0.915323  0.752699  0.922591  1
  Sb  Sb7  1  0.415323  0.247301  0.077409  1
  Pt  Pt8  1  0.422097  0.247267  0.400527  1
  Pt  Pt9  1  0.922097  0.752733  0.599473  1
  Pt  Pt10  1  0.418578  0.746760  0.925371  1
  Pt  Pt11  1  0.918578  0.253240  0.074629  1
