# generated using pymatgen
data_Yb2Tm2Ni13C4
_symmetry_space_group_name_H-M   'P 1'
_cell_length_a   8.30326484
_cell_length_b   8.30326498
_cell_length_c   3.84049100
_cell_angle_alpha   90.00000000
_cell_angle_beta   90.00000000
_cell_angle_gamma   90.63733178
_symmetry_Int_Tables_number   1
_chemical_formula_structural   Yb2Tm2Ni13C4
_chemical_formula_sum   'Yb2 Tm2 Ni13 C4'
_cell_volume   264.76323024
_cell_formula_units_Z   1
loop_
 _symmetry_equiv_pos_site_id
 _symmetry_equiv_pos_as_xyz
  1  'x, y, z'
loop_
 _atom_site_type_symbol
 _atom_site_label
 _atom_site_symmetry_multiplicity
 _atom_site_fract_x
 _atom_site_fract_y
 _atom_site_fract_z
 _atom_site_occupancy
  Yb  Yb0  1  0.349756  0.349756  0.500000  1
  Yb  Yb1  1  0.650244  0.650244  0.500000  1
  Tm  Tm2  1  0.812955  0.187045  0.500000  1
  Tm  Tm3  1  0.187045  0.812955  0.500000  1
  Ni  Ni4  1  0.000000  0.000000  0.000000  1
  Ni  Ni5  1  0.215575  0.572650  0.000000  1
  Ni  Ni6  1  0.784425  0.427350  0.000000  1
  Ni  Ni7  1  0.427350  0.784425  0.000000  1
  Ni  Ni8  1  0.572650  0.215575  0.000000  1
  Ni  Ni9  1  0.000000  0.500000  0.500000  1
  Ni  Ni10  1  0.500000  0.000000  0.500000  1
  Ni  Ni11  1  0.073582  0.289710  0.000000  1
  Ni  Ni12  1  0.926418  0.710290  0.000000  1
  Ni  Ni13  1  0.710290  0.926418  0.000000  1
  Ni  Ni14  1  0.289710  0.073582  0.000000  1
  Ni  Ni15  1  0.125240  0.125240  0.500000  1
  Ni  Ni16  1  0.874760  0.874760  0.500000  1
  C  C17  1  0.000000  0.500000  0.000000  1
  C  C18  1  0.500000  0.000000  0.000000  1
  C  C19  1  0.443557  0.556443  0.000000  1
  C  C20  1  0.556443  0.443557  0.000000  1
