# generated using pymatgen
data_Hf3Th4Nb3Si8
_symmetry_space_group_name_H-M   'P 1'
_cell_length_a   7.29778157
_cell_length_b   7.29956757
_cell_length_c   13.50163500
_cell_angle_alpha   90.00000000
_cell_angle_beta   90.00000000
_cell_angle_gamma   90.04527974
_symmetry_Int_Tables_number   1
_chemical_formula_structural   Hf3Th4Nb3Si8
_chemical_formula_sum   'Hf6 Th8 Nb6 Si16'
_cell_volume   719.24064357
_cell_formula_units_Z   2
loop_
 _symmetry_equiv_pos_site_id
 _symmetry_equiv_pos_as_xyz
  1  'x, y, z'
loop_
 _atom_site_type_symbol
 _atom_site_label
 _atom_site_symmetry_multiplicity
 _atom_site_fract_x
 _atom_site_fract_y
 _atom_site_fract_z
 _atom_site_occupancy
  Hf  Hf0  1  0.155454  0.995869  0.374480  1
  Hf  Hf1  1  0.844546  0.004131  0.874480  1
  Hf  Hf2  1  0.506256  0.655228  0.623919  1
  Hf  Hf3  1  0.343104  0.493735  0.876348  1
  Hf  Hf4  1  0.493744  0.344772  0.123919  1
  Hf  Hf5  1  0.656896  0.506265  0.376348  1
  Th  Th6  1  0.999890  0.339897  0.216302  1
  Th  Th7  1  0.000110  0.660103  0.716302  1
  Th  Th8  1  0.159520  0.501231  0.467313  1
  Th  Th9  1  0.500177  0.839369  0.033273  1
  Th  Th10  1  0.840480  0.498769  0.967313  1
  Th  Th11  1  0.499823  0.160631  0.533273  1
  Th  Th12  1  0.337934  0.999036  0.783118  1
  Th  Th13  1  0.662066  0.000964  0.283118  1
  Nb  Nb14  1  0.168752  0.167487  0.000239  1
  Nb  Nb15  1  0.831248  0.832513  0.500239  1
  Nb  Nb16  1  0.328714  0.672133  0.249004  1
  Nb  Nb17  1  0.671286  0.327867  0.749004  1
  Nb  Nb18  1  0.993476  0.155196  0.626167  1
  Nb  Nb19  1  0.006524  0.844804  0.126167  1
  Si  Si20  1  0.289093  0.039970  0.184168  1
  Si  Si21  1  0.710907  0.960030  0.684168  1
  Si  Si22  1  0.455861  0.793024  0.433996  1
  Si  Si23  1  0.206064  0.547377  0.065877  1
  Si  Si24  1  0.544139  0.206976  0.933996  1
  Si  Si25  1  0.793936  0.452623  0.565877  1
  Si  Si26  1  0.041362  0.291050  0.812863  1
  Si  Si27  1  0.958638  0.708950  0.312863  1
  Si  Si28  1  0.370001  0.299186  0.315353  1
  Si  Si29  1  0.629999  0.700814  0.815353  1
  Si  Si30  1  0.198639  0.874423  0.566237  1
  Si  Si31  1  0.129277  0.798789  0.937362  1
  Si  Si32  1  0.801361  0.125577  0.066237  1
  Si  Si33  1  0.870723  0.201211  0.437362  1
  Si  Si34  1  0.293627  0.369660  0.683981  1
  Si  Si35  1  0.706373  0.630340  0.183981  1
