# generated using pymatgen
data_CsCr(SnO3)2
_symmetry_space_group_name_H-M   'P 1'
_cell_length_a   5.38724982
_cell_length_b   5.48591432
_cell_length_c   7.17926500
_cell_angle_alpha   75.16777943
_cell_angle_beta   97.36799788
_cell_angle_gamma   120.57651274
_symmetry_Int_Tables_number   1
_chemical_formula_structural   CsCr(SnO3)2
_chemical_formula_sum   'Cs1 Cr1 Sn2 O6'
_cell_volume   176.58576328
_cell_formula_units_Z   1
loop_
 _symmetry_equiv_pos_site_id
 _symmetry_equiv_pos_as_xyz
  1  'x, y, z'
loop_
 _atom_site_type_symbol
 _atom_site_label
 _atom_site_symmetry_multiplicity
 _atom_site_fract_x
 _atom_site_fract_y
 _atom_site_fract_z
 _atom_site_occupancy
  Cs  Cs0  1  0.327470  0.163939  0.500015  1
  Cr  Cr1  1  0.999295  0.999634  0.000045  1
  Sn  Sn2  1  0.667626  0.333792  0.999829  1
  Sn  Sn3  1  0.335065  0.667470  0.000135  1
  O  O4  1  0.325253  0.949151  0.150381  1
  O  O5  1  0.000293  0.274550  0.149958  1
  O  O6  1  0.674930  0.623057  0.151228  1
  O  O7  1  0.675645  0.052156  0.848698  1
  O  O8  1  0.326278  0.376759  0.849623  1
  O  O9  1  0.001478  0.726160  0.850086  1
