# generated using pymatgen
data_Ho3Mg2ZnSn2Au
_symmetry_space_group_name_H-M   'P 1'
_cell_length_a   7.35002200
_cell_length_b   7.35002073
_cell_length_c   4.50339500
_cell_angle_alpha   90.00000000
_cell_angle_beta   90.00000000
_cell_angle_gamma   120.29695845
_symmetry_Int_Tables_number   1
_chemical_formula_structural   Ho3Mg2ZnSn2Au
_chemical_formula_sum   'Ho3 Mg2 Zn1 Sn2 Au1'
_cell_volume   210.05862683
_cell_formula_units_Z   1
loop_
 _symmetry_equiv_pos_site_id
 _symmetry_equiv_pos_as_xyz
  1  'x, y, z'
loop_
 _atom_site_type_symbol
 _atom_site_label
 _atom_site_symmetry_multiplicity
 _atom_site_fract_x
 _atom_site_fract_y
 _atom_site_fract_z
 _atom_site_occupancy
  Ho  Ho0  1  0.592554  0.997258  0.000000  1
  Ho  Ho1  1  0.997258  0.592554  0.000000  1
  Ho  Ho2  1  0.416645  0.416645  0.000000  1
  Mg  Mg3  1  0.228798  0.996700  0.500000  1
  Mg  Mg4  1  0.996700  0.228798  0.500000  1
  Zn  Zn5  1  0.761509  0.761509  0.500000  1
  Sn  Sn6  1  0.336460  0.667305  0.500000  1
  Sn  Sn7  1  0.667305  0.336460  0.500000  1
  Au  Au8  1  0.002773  0.002773  0.000000  1
