# generated using pymatgen
data_Ta3Ti16Si16W
_symmetry_space_group_name_H-M   'P 1'
_cell_length_a   6.70015660
_cell_length_b   6.70015628
_cell_length_c   12.27983003
_cell_angle_alpha   90.03815257
_cell_angle_beta   89.96184573
_cell_angle_gamma   90.03618582
_symmetry_Int_Tables_number   1
_chemical_formula_structural   Ta3Ti16Si16W
_chemical_formula_sum   'Ta3 Ti16 Si16 W1'
_cell_volume   551.26695843
_cell_formula_units_Z   1
loop_
 _symmetry_equiv_pos_site_id
 _symmetry_equiv_pos_as_xyz
  1  'x, y, z'
loop_
 _atom_site_type_symbol
 _atom_site_label
 _atom_site_symmetry_multiplicity
 _atom_site_fract_x
 _atom_site_fract_y
 _atom_site_fract_z
 _atom_site_occupancy
  Ta  Ta0  1  0.170302  0.170302  0.000000  1
  Ta  Ta1  1  0.329200  0.670643  0.250938  1
  Ta  Ta2  1  0.670643  0.329200  0.749062  1
  Ti  Ti3  1  0.994384  0.149360  0.620549  1
  Ti  Ti4  1  0.350502  0.494712  0.871296  1
  Ti  Ti5  1  0.649789  0.504683  0.371753  1
  Ti  Ti6  1  0.494712  0.350502  0.128704  1
  Ti  Ti7  1  0.504683  0.649789  0.628247  1
  Ti  Ti8  1  0.004882  0.850413  0.122389  1
  Ti  Ti9  1  0.149360  0.994384  0.379451  1
  Ti  Ti10  1  0.850413  0.004882  0.877611  1
  Ti  Ti11  1  0.003781  0.344396  0.220437  1
  Ti  Ti12  1  0.157254  0.503789  0.469712  1
  Ti  Ti13  1  0.843531  0.495747  0.969540  1
  Ti  Ti14  1  0.503789  0.157254  0.530288  1
  Ti  Ti15  1  0.495747  0.843531  0.030460  1
  Ti  Ti16  1  0.995808  0.655912  0.719888  1
  Ti  Ti17  1  0.344396  0.003781  0.779563  1
  Ti  Ti18  1  0.655912  0.995808  0.280112  1
  Si  Si19  1  0.045970  0.301880  0.812077  1
  Si  Si20  1  0.197856  0.546213  0.062197  1
  Si  Si21  1  0.802880  0.457628  0.561819  1
  Si  Si22  1  0.546213  0.197856  0.937803  1
  Si  Si23  1  0.457628  0.802880  0.438181  1
  Si  Si24  1  0.952570  0.699675  0.313591  1
  Si  Si25  1  0.301880  0.045970  0.187923  1
  Si  Si26  1  0.699675  0.952570  0.686409  1
  Si  Si27  1  0.292683  0.359016  0.671694  1
  Si  Si28  1  0.140468  0.792502  0.921805  1
  Si  Si29  1  0.858358  0.205810  0.421894  1
  Si  Si30  1  0.792502  0.140468  0.078195  1
  Si  Si31  1  0.205810  0.858358  0.578106  1
  Si  Si32  1  0.707206  0.640776  0.172289  1
  Si  Si33  1  0.359016  0.292683  0.328306  1
  Si  Si34  1  0.640776  0.707206  0.827711  1
  W  W35  1  0.829415  0.829415  0.500000  1
