# generated using pymatgen
data_Eu4ScTa3O14
_symmetry_space_group_name_H-M   'P 1'
_cell_length_a   7.53778586
_cell_length_b   7.52708257
_cell_length_c   7.53778600
_cell_angle_alpha   59.95294982
_cell_angle_beta   59.99999938
_cell_angle_gamma   59.95295257
_symmetry_Int_Tables_number   1
_chemical_formula_structural   Eu4ScTa3O14
_chemical_formula_sum   'Eu4 Sc1 Ta3 O14'
_cell_volume   302.19694358
_cell_formula_units_Z   1
loop_
 _symmetry_equiv_pos_site_id
 _symmetry_equiv_pos_as_xyz
  1  'x, y, z'
loop_
 _atom_site_type_symbol
 _atom_site_label
 _atom_site_symmetry_multiplicity
 _atom_site_fract_x
 _atom_site_fract_y
 _atom_site_fract_z
 _atom_site_occupancy
  Eu  Eu0  1  0.625000  0.125000  0.125000  1
  Eu  Eu1  1  0.125000  0.625000  0.125000  1
  Eu  Eu2  1  0.125000  0.125000  0.625000  1
  Eu  Eu3  1  0.125000  0.125000  0.125000  1
  Sc  Sc4  1  0.625000  0.125000  0.625000  1
  Ta  Ta5  1  0.125000  0.625000  0.625000  1
  Ta  Ta6  1  0.625000  0.625000  0.125000  1
  Ta  Ta7  1  0.625000  0.625000  0.625000  1
  O  O8  1  0.248672  0.253983  0.248672  1
  O  O9  1  0.001328  0.996017  0.001328  1
  O  O10  1  0.698608  0.684374  0.308509  1
  O  O11  1  0.286863  0.308171  0.702483  1
  O  O12  1  0.702483  0.308171  0.702483  1
  O  O13  1  0.308509  0.684374  0.308509  1
  O  O14  1  0.308509  0.684374  0.698608  1
  O  O15  1  0.702483  0.308171  0.286863  1
  O  O16  1  0.551392  0.565626  0.941491  1
  O  O17  1  0.963137  0.941829  0.547517  1
  O  O18  1  0.547517  0.941829  0.547517  1
  O  O19  1  0.941491  0.565626  0.941491  1
  O  O20  1  0.941491  0.565626  0.551392  1
  O  O21  1  0.547517  0.941829  0.963137  1
