# generated using pymatgen
data_Dy3HoCd3Ni2
_symmetry_space_group_name_H-M   'P 1'
_cell_length_a   3.64667800
_cell_length_b   7.38441898
_cell_length_c   8.07313907
_cell_angle_alpha   72.31490610
_cell_angle_beta   90.00000000
_cell_angle_gamma   90.00000000
_symmetry_Int_Tables_number   1
_chemical_formula_structural   Dy3HoCd3Ni2
_chemical_formula_sum   'Dy3 Ho1 Cd3 Ni2'
_cell_volume   207.12419287
_cell_formula_units_Z   1
loop_
 _symmetry_equiv_pos_site_id
 _symmetry_equiv_pos_as_xyz
  1  'x, y, z'
loop_
 _atom_site_type_symbol
 _atom_site_label
 _atom_site_symmetry_multiplicity
 _atom_site_fract_x
 _atom_site_fract_y
 _atom_site_fract_z
 _atom_site_occupancy
  Dy  Dy0  1  0.500000  0.084826  0.780798  1
  Dy  Dy1  1  0.500000  0.394500  0.317346  1
  Dy  Dy2  1  0.500000  0.605732  0.682384  1
  Ho  Ho3  1  0.500000  0.914529  0.219679  1
  Cd  Cd4  1  0.000000  0.702515  0.005734  1
  Cd  Cd5  1  0.000000  0.297430  0.995030  1
  Cd  Cd6  1  0.000000  0.000097  0.499320  1
  Ni  Ni7  1  0.000000  0.656762  0.390710  1
  Ni  Ni8  1  0.000000  0.343609  0.609000  1
