# generated using pymatgen
data_Pr16Nd4Si15Ge
_symmetry_space_group_name_H-M   'P 1'
_cell_length_a   7.92221578
_cell_length_b   7.92714223
_cell_length_c   15.37958813
_cell_angle_alpha   89.99090974
_cell_angle_beta   90.04331730
_cell_angle_gamma   90.02603714
_symmetry_Int_Tables_number   1
_chemical_formula_structural   Pr16Nd4Si15Ge
_chemical_formula_sum   'Pr16 Nd4 Si15 Ge1'
_cell_volume   965.84591720
_cell_formula_units_Z   1
loop_
 _symmetry_equiv_pos_site_id
 _symmetry_equiv_pos_as_xyz
  1  'x, y, z'
loop_
 _atom_site_type_symbol
 _atom_site_label
 _atom_site_symmetry_multiplicity
 _atom_site_fract_x
 _atom_site_fract_y
 _atom_site_fract_z
 _atom_site_occupancy
  Pr  Pr0  1  0.479499  0.373459  0.127007  1
  Pr  Pr1  1  0.976988  0.128316  0.624304  1
  Pr  Pr2  1  0.873493  0.020987  0.876976  1
  Pr  Pr3  1  0.126393  0.979781  0.376872  1
  Pr  Pr4  1  0.520480  0.625466  0.626850  1
  Pr  Pr5  1  0.374118  0.479377  0.873085  1
  Pr  Pr6  1  0.628295  0.519442  0.372390  1
  Pr  Pr7  1  0.020276  0.874170  0.122536  1
  Pr  Pr8  1  0.621282  0.988196  0.445688  1
  Pr  Pr9  1  0.380602  0.011536  0.946848  1
  Pr  Pr10  1  0.987899  0.618596  0.553245  1
  Pr  Pr11  1  0.488242  0.880357  0.196374  1
  Pr  Pr12  1  0.513905  0.122765  0.698988  1
  Pr  Pr13  1  0.879837  0.487926  0.803523  1
  Pr  Pr14  1  0.119114  0.510754  0.302725  1
  Pr  Pr15  1  0.011482  0.380186  0.053602  1
  Nd  Nd16  1  0.308528  0.312428  0.499281  1
  Nd  Nd17  1  0.190642  0.807824  0.752130  1
  Nd  Nd18  1  0.808915  0.190486  0.249685  1
  Nd  Nd19  1  0.691214  0.690968  0.999858  1
  Si  Si20  1  0.712492  0.079499  0.060621  1
  Si  Si21  1  0.920643  0.285959  0.439562  1
  Si  Si22  1  0.420441  0.212098  0.310796  1
  Si  Si23  1  0.578928  0.786897  0.810324  1
  Si  Si24  1  0.213102  0.420226  0.689152  1
  Si  Si25  1  0.786761  0.580220  0.188860  1
  Si  Si26  1  0.079311  0.713059  0.939740  1
  Si  Si27  1  0.805970  0.830386  0.704491  1
  Si  Si28  1  0.193754  0.169392  0.204449  1
  Si  Si29  1  0.831122  0.806175  0.295247  1
  Si  Si30  1  0.330363  0.690516  0.452031  1
  Si  Si31  1  0.668981  0.305857  0.954403  1
  Si  Si32  1  0.693540  0.330404  0.545239  1
  Si  Si33  1  0.306325  0.669289  0.045552  1
  Si  Si34  1  0.169593  0.193528  0.795384  1
  Ge  Ge35  1  0.287468  0.923472  0.562182  1
