# generated using pymatgen
data_Tb2Al8ZnPd2Pt
_symmetry_space_group_name_H-M   'P 1'
_cell_length_a   7.60023302
_cell_length_b   7.60023360
_cell_length_c   9.50686403
_cell_angle_alpha   89.99504404
_cell_angle_beta   89.99504301
_cell_angle_gamma   119.18255224
_symmetry_Int_Tables_number   1
_chemical_formula_structural   Tb2Al8ZnPd2Pt
_chemical_formula_sum   'Tb4 Al16 Zn2 Pd4 Pt2'
_cell_volume   479.44687167
_cell_formula_units_Z   2
loop_
 _symmetry_equiv_pos_site_id
 _symmetry_equiv_pos_as_xyz
  1  'x, y, z'
loop_
 _atom_site_type_symbol
 _atom_site_label
 _atom_site_symmetry_multiplicity
 _atom_site_fract_x
 _atom_site_fract_y
 _atom_site_fract_z
 _atom_site_occupancy
  Tb  Tb0  1  0.993496  0.670384  0.249824  1
  Tb  Tb1  1  0.006504  0.329616  0.750176  1
  Tb  Tb2  1  0.670384  0.993496  0.249824  1
  Tb  Tb3  1  0.329616  0.006504  0.750176  1
  Al  Al4  1  0.001537  0.332235  0.077326  1
  Al  Al5  1  0.998463  0.667765  0.922674  1
  Al  Al6  1  0.998067  0.667613  0.577665  1
  Al  Al7  1  0.332387  0.001933  0.422335  1
  Al  Al8  1  0.001933  0.332387  0.422335  1
  Al  Al9  1  0.667613  0.998067  0.577665  1
  Al  Al10  1  0.667765  0.998463  0.922674  1
  Al  Al11  1  0.332235  0.001537  0.077326  1
  Al  Al12  1  0.333058  0.333058  0.555993  1
  Al  Al13  1  0.666942  0.666942  0.444007  1
  Al  Al14  1  0.667405  0.667405  0.055660  1
  Al  Al15  1  0.332595  0.332595  0.944340  1
  Al  Al16  1  0.338247  0.545074  0.250285  1
  Al  Al17  1  0.661753  0.454926  0.749715  1
  Al  Al18  1  0.545074  0.338247  0.250285  1
  Al  Al19  1  0.454926  0.661753  0.749715  1
  Zn  Zn20  1  0.138991  0.138991  0.250000  1
  Zn  Zn21  1  0.861009  0.861009  0.750000  1
  Pd  Pd22  1  0.327533  0.672467  0.500000  1
  Pd  Pd23  1  0.672467  0.327533  0.500000  1
  Pd  Pd24  1  0.000000  0.000000  0.000000  1
  Pd  Pd25  1  0.000000  0.000000  0.500000  1
  Pt  Pt26  1  0.672427  0.327573  0.000000  1
  Pt  Pt27  1  0.327573  0.672427  0.000000  1
