# generated using pymatgen
data_Ho3VFeC6
_symmetry_space_group_name_H-M   'P 1'
_cell_length_a   8.14285500
_cell_length_b   8.14285500
_cell_length_c   4.92204800
_cell_angle_alpha   90.00000000
_cell_angle_beta   90.00000000
_cell_angle_gamma   120.00000406
_symmetry_Int_Tables_number   1
_chemical_formula_structural   Ho3VFeC6
_chemical_formula_sum   'Ho6 V2 Fe2 C12'
_cell_volume   282.63755093
_cell_formula_units_Z   2
loop_
 _symmetry_equiv_pos_site_id
 _symmetry_equiv_pos_as_xyz
  1  'x, y, z'
loop_
 _atom_site_type_symbol
 _atom_site_label
 _atom_site_symmetry_multiplicity
 _atom_site_fract_x
 _atom_site_fract_y
 _atom_site_fract_z
 _atom_site_occupancy
  Ho  Ho0  1  0.626103  0.678635  0.750000  1
  Ho  Ho1  1  0.947468  0.626103  0.250000  1
  Ho  Ho2  1  0.678635  0.052532  0.250000  1
  Ho  Ho3  1  0.321365  0.947468  0.750000  1
  Ho  Ho4  1  0.052532  0.373897  0.750000  1
  Ho  Ho5  1  0.373897  0.321365  0.250000  1
  V  V6  1  0.000000  0.000000  0.500000  1
  V  V7  1  0.000000  0.000000  0.000000  1
  Fe  Fe8  1  0.666667  0.333333  0.750000  1
  Fe  Fe9  1  0.333333  0.666667  0.250000  1
  C  C10  1  0.963915  0.764386  0.750000  1
  C  C11  1  0.199530  0.963915  0.250000  1
  C  C12  1  0.764386  0.800470  0.250000  1
  C  C13  1  0.235614  0.199530  0.750000  1
  C  C14  1  0.800470  0.036085  0.750000  1
  C  C15  1  0.036085  0.235614  0.250000  1
  C  C16  1  0.869107  0.571313  0.750000  1
  C  C17  1  0.297794  0.869107  0.250000  1
  C  C18  1  0.571313  0.702206  0.250000  1
  C  C19  1  0.428687  0.297794  0.750000  1
  C  C20  1  0.130893  0.428687  0.250000  1
  C  C21  1  0.702206  0.130893  0.750000  1
