# generated using pymatgen
data_Th7Re2Pd
_symmetry_space_group_name_H-M   'P 1'
_cell_length_a   10.07538300
_cell_length_b   10.10171506
_cell_length_c   6.32108948
_cell_angle_alpha   89.56227721
_cell_angle_beta   90.00000000
_cell_angle_gamma   119.91380546
_symmetry_Int_Tables_number   1
_chemical_formula_structural   Th7Re2Pd
_chemical_formula_sum   'Th14 Re4 Pd2'
_cell_volume   557.62075687
_cell_formula_units_Z   2
loop_
 _symmetry_equiv_pos_site_id
 _symmetry_equiv_pos_as_xyz
  1  'x, y, z'
loop_
 _atom_site_type_symbol
 _atom_site_label
 _atom_site_symmetry_multiplicity
 _atom_site_fract_x
 _atom_site_fract_y
 _atom_site_fract_z
 _atom_site_occupancy
  Th  Th0  1  0.668731  0.337461  0.558461  1
  Th  Th1  1  0.332718  0.665437  0.032833  1
  Th  Th2  1  0.876308  0.752616  0.752619  1
  Th  Th3  1  0.246666  0.124814  0.758447  1
  Th  Th4  1  0.878148  0.124814  0.758447  1
  Th  Th5  1  0.132934  0.265870  0.253168  1
  Th  Th6  1  0.747374  0.867068  0.253274  1
  Th  Th7  1  0.119693  0.867068  0.253274  1
  Th  Th8  1  0.457795  0.915590  0.542331  1
  Th  Th9  1  0.080668  0.544777  0.546486  1
  Th  Th10  1  0.464109  0.544777  0.546486  1
  Th  Th11  1  0.533849  0.067696  0.031727  1
  Th  Th12  1  0.922044  0.465027  0.040059  1
  Th  Th13  1  0.542984  0.465027  0.040059  1
  Re  Re14  1  0.185104  0.370207  0.800060  1
  Re  Re15  1  0.629767  0.818762  0.803600  1
  Re  Re16  1  0.188996  0.818762  0.803600  1
  Re  Re17  1  0.808266  0.616533  0.307962  1
  Pd  Pd18  1  0.376658  0.183846  0.302602  1
  Pd  Pd19  1  0.807187  0.183846  0.302602  1
