# generated using pymatgen
data_TmLu9Ir4
_symmetry_space_group_name_H-M   'P 1'
_cell_length_a   6.37579145
_cell_length_b   7.12191501
_cell_length_c   8.29093539
_cell_angle_alpha   96.70798524
_cell_angle_beta   112.52468704
_cell_angle_gamma   89.96169168
_symmetry_Int_Tables_number   1
_chemical_formula_structural   TmLu9Ir4
_chemical_formula_sum   'Tm1 Lu9 Ir4'
_cell_volume   344.97457133
_cell_formula_units_Z   1
loop_
 _symmetry_equiv_pos_site_id
 _symmetry_equiv_pos_as_xyz
  1  'x, y, z'
loop_
 _atom_site_type_symbol
 _atom_site_label
 _atom_site_symmetry_multiplicity
 _atom_site_fract_x
 _atom_site_fract_y
 _atom_site_fract_z
 _atom_site_occupancy
  Tm  Tm0  1  0.527787  0.080043  0.816814  1
  Lu  Lu1  1  0.472416  0.919480  0.183254  1
  Lu  Lu2  1  0.710736  0.418719  0.182514  1
  Lu  Lu3  1  0.289917  0.581717  0.818296  1
  Lu  Lu4  1  0.289074  0.318805  0.441545  1
  Lu  Lu5  1  0.711228  0.681759  0.558124  1
  Lu  Lu6  1  0.849297  0.183512  0.558503  1
  Lu  Lu7  1  0.150986  0.816238  0.440788  1
  Lu  Lu8  1  0.072888  0.249987  0.000097  1
  Lu  Lu9  1  0.927849  0.749677  0.000362  1
  Ir  Ir10  1  0.325854  0.573927  0.217916  1
  Ir  Ir11  1  0.674185  0.426833  0.781764  1
  Ir  Ir12  1  0.104331  0.925246  0.781132  1
  Ir  Ir13  1  0.893451  0.074057  0.218892  1
