# generated using pymatgen
data_DyHoGaCo2
_symmetry_space_group_name_H-M   'P 1'
_cell_length_a   4.09085323
_cell_length_b   5.32292572
_cell_length_c   5.32292609
_cell_angle_alpha   60.84209647
_cell_angle_beta   67.40175046
_cell_angle_gamma   67.40174337
_symmetry_Int_Tables_number   1
_chemical_formula_structural   DyHoGaCo2
_chemical_formula_sum   'Dy1 Ho1 Ga1 Co2'
_cell_volume   90.61501585
_cell_formula_units_Z   1
loop_
 _symmetry_equiv_pos_site_id
 _symmetry_equiv_pos_as_xyz
  1  'x, y, z'
loop_
 _atom_site_type_symbol
 _atom_site_label
 _atom_site_symmetry_multiplicity
 _atom_site_fract_x
 _atom_site_fract_y
 _atom_site_fract_z
 _atom_site_occupancy
  Dy  Dy0  1  0.206834  0.293166  0.293166  1
  Ho  Ho1  1  0.793467  0.706533  0.706533  1
  Ga  Ga2  1  0.000146  0.999854  0.999854  1
  Co  Co3  1  0.499776  0.283516  0.716931  1
  Co  Co4  1  0.499776  0.716931  0.283516  1
