# generated using pymatgen
data_NaCo2(PRh)3
_symmetry_space_group_name_H-M   'P 1'
_cell_length_a   3.71886300
_cell_length_b   10.67908800
_cell_length_c   12.18611200
_cell_angle_alpha   90.00000000
_cell_angle_beta   90.00000000
_cell_angle_gamma   90.00000000
_symmetry_Int_Tables_number   1
_chemical_formula_structural   NaCo2(PRh)3
_chemical_formula_sum   'Na4 Co8 P12 Rh12'
_cell_volume   483.96004695
_cell_formula_units_Z   4
loop_
 _symmetry_equiv_pos_site_id
 _symmetry_equiv_pos_as_xyz
  1  'x, y, z'
loop_
 _atom_site_type_symbol
 _atom_site_label
 _atom_site_symmetry_multiplicity
 _atom_site_fract_x
 _atom_site_fract_y
 _atom_site_fract_z
 _atom_site_occupancy
  Na  Na0  1  0.250000  0.583409  0.708760  1
  Na  Na1  1  0.250000  0.916591  0.208760  1
  Na  Na2  1  0.750000  0.416591  0.291240  1
  Na  Na3  1  0.750000  0.083409  0.791240  1
  Co  Co4  1  0.250000  0.884093  0.696550  1
  Co  Co5  1  0.250000  0.615907  0.196550  1
  Co  Co6  1  0.750000  0.115907  0.303450  1
  Co  Co7  1  0.750000  0.384093  0.803450  1
  Co  Co8  1  0.250000  0.463900  0.933529  1
  Co  Co9  1  0.250000  0.036100  0.433529  1
  Co  Co10  1  0.750000  0.536100  0.066471  1
  Co  Co11  1  0.750000  0.963900  0.566471  1
  P  P12  1  0.250000  0.430579  0.111696  1
  P  P13  1  0.250000  0.069421  0.611696  1
  P  P14  1  0.750000  0.569421  0.888304  1
  P  P15  1  0.750000  0.930579  0.388304  1
  P  P16  1  0.250000  0.273869  0.871719  1
  P  P17  1  0.250000  0.226131  0.371719  1
  P  P18  1  0.750000  0.726131  0.128281  1
  P  P19  1  0.750000  0.773869  0.628281  1
  P  P20  1  0.250000  0.601229  0.383068  1
  P  P21  1  0.250000  0.898771  0.883068  1
  P  P22  1  0.750000  0.398771  0.616932  1
  P  P23  1  0.750000  0.101229  0.116932  1
  Rh  Rh24  1  0.250000  0.713328  0.989874  1
  Rh  Rh25  1  0.250000  0.786672  0.489874  1
  Rh  Rh26  1  0.750000  0.286672  0.010126  1
  Rh  Rh27  1  0.750000  0.213328  0.510126  1
  Rh  Rh28  1  0.250000  0.408319  0.483954  1
  Rh  Rh29  1  0.250000  0.091681  0.983954  1
  Rh  Rh30  1  0.750000  0.591681  0.516046  1
  Rh  Rh31  1  0.750000  0.908319  0.016046  1
  Rh  Rh32  1  0.250000  0.227601  0.181635  1
  Rh  Rh33  1  0.250000  0.272399  0.681635  1
  Rh  Rh34  1  0.750000  0.772399  0.818365  1
  Rh  Rh35  1  0.750000  0.727601  0.318365  1
