# generated using pymatgen
data_K12Ta3VTe16
_symmetry_space_group_name_H-M   'P 1'
_cell_length_a   10.42185646
_cell_length_b   10.42362061
_cell_length_c   11.95756500
_cell_angle_alpha   90.00000000
_cell_angle_beta   90.00000000
_cell_angle_gamma   90.14666503
_symmetry_Int_Tables_number   1
_chemical_formula_structural   K12Ta3VTe16
_chemical_formula_sum   'K12 Ta3 V1 Te16'
_cell_volume   1298.98761654
_cell_formula_units_Z   1
loop_
 _symmetry_equiv_pos_site_id
 _symmetry_equiv_pos_as_xyz
  1  'x, y, z'
loop_
 _atom_site_type_symbol
 _atom_site_label
 _atom_site_symmetry_multiplicity
 _atom_site_fract_x
 _atom_site_fract_y
 _atom_site_fract_z
 _atom_site_occupancy
  K  K0  1  0.056466  0.201309  0.047556  1
  K  K1  1  0.126808  0.413548  0.750000  1
  K  K2  1  0.374251  0.908476  0.250000  1
  K  K3  1  0.626507  0.089930  0.750000  1
  K  K4  1  0.874974  0.591064  0.250000  1
  K  K5  1  0.948004  0.799318  0.551808  1
  K  K6  1  0.552924  0.294261  0.451730  1
  K  K7  1  0.442965  0.705019  0.948135  1
  K  K8  1  0.552924  0.294261  0.048270  1
  K  K9  1  0.056466  0.201309  0.452444  1
  K  K10  1  0.442965  0.705019  0.551865  1
  K  K11  1  0.948004  0.799318  0.948192  1
  Ta  Ta12  1  0.785504  0.014346  0.250000  1
  Ta  Ta13  1  0.712640  0.513437  0.750000  1
  Ta  Ta14  1  0.287675  0.485299  0.250000  1
  V  V15  1  0.212799  0.985298  0.750000  1
  Te  Te16  1  0.331937  0.052756  0.922563  1
  Te  Te17  1  0.192944  0.744788  0.750000  1
  Te  Te18  1  0.307830  0.234480  0.250000  1
  Te  Te19  1  0.693066  0.763904  0.750000  1
  Te  Te20  1  0.808522  0.264064  0.250000  1
  Te  Te21  1  0.991036  0.084022  0.750000  1
  Te  Te22  1  0.518774  0.587243  0.250000  1
  Te  Te23  1  0.480887  0.411401  0.750000  1
  Te  Te24  1  0.016684  0.912556  0.250000  1
  Te  Te25  1  0.661665  0.946289  0.431904  1
  Te  Te26  1  0.835934  0.443601  0.569095  1
  Te  Te27  1  0.164656  0.555519  0.068890  1
  Te  Te28  1  0.661665  0.946289  0.068096  1
  Te  Te29  1  0.331937  0.052756  0.577437  1
  Te  Te30  1  0.164656  0.555519  0.431110  1
  Te  Te31  1  0.835934  0.443601  0.930905  1
