# generated using pymatgen
data_LiY3Ag2Pb3
_symmetry_space_group_name_H-M   'P 1'
_cell_length_a   7.44155900
_cell_length_b   7.50512964
_cell_length_c   4.61277400
_cell_angle_alpha   90.00000000
_cell_angle_beta   90.00000000
_cell_angle_gamma   119.72021150
_symmetry_Int_Tables_number   1
_chemical_formula_structural   LiY3Ag2Pb3
_chemical_formula_sum   'Li1 Y3 Ag2 Pb3'
_cell_volume   223.73424718
_cell_formula_units_Z   1
loop_
 _symmetry_equiv_pos_site_id
 _symmetry_equiv_pos_as_xyz
  1  'x, y, z'
loop_
 _atom_site_type_symbol
 _atom_site_label
 _atom_site_symmetry_multiplicity
 _atom_site_fract_x
 _atom_site_fract_y
 _atom_site_fract_z
 _atom_site_occupancy
  Li  Li0  1  0.230918  0.000000  0.000000  1
  Y  Y1  1  0.580582  0.000000  0.500000  1
  Y  Y2  1  0.433962  0.438458  0.500000  1
  Y  Y3  1  0.995504  0.561542  0.500000  1
  Ag  Ag4  1  0.758066  0.757032  0.000000  1
  Ag  Ag5  1  0.001034  0.242968  0.000000  1
  Pb  Pb6  1  0.016291  0.000000  0.500000  1
  Pb  Pb7  1  0.330579  0.677517  0.000000  1
  Pb  Pb8  1  0.653063  0.322483  0.000000  1
