# generated using pymatgen
data_Ce3PrNp2O12
_symmetry_space_group_name_H-M   'P 1'
_cell_length_a   5.67379000
_cell_length_b   8.00194548
_cell_length_c   12.09608600
_cell_angle_alpha   74.07428854
_cell_angle_beta   90.00000000
_cell_angle_gamma   90.00000000
_symmetry_Int_Tables_number   1
_chemical_formula_structural   Ce3PrNp2O12
_chemical_formula_sum   'Ce6 Pr2 Np4 O24'
_cell_volume   528.10030608
_cell_formula_units_Z   2
loop_
 _symmetry_equiv_pos_site_id
 _symmetry_equiv_pos_as_xyz
  1  'x, y, z'
loop_
 _atom_site_type_symbol
 _atom_site_label
 _atom_site_symmetry_multiplicity
 _atom_site_fract_x
 _atom_site_fract_y
 _atom_site_fract_z
 _atom_site_occupancy
  Ce  Ce0  1  0.749407  0.000000  0.750000  1
  Ce  Ce1  1  0.250593  0.000000  0.250000  1
  Ce  Ce2  1  0.200193  0.801019  0.580976  1
  Ce  Ce3  1  0.799807  0.801019  0.080976  1
  Ce  Ce4  1  0.200193  0.198981  0.919024  1
  Ce  Ce5  1  0.799807  0.198981  0.419024  1
  Pr  Pr6  1  0.702718  0.500000  0.750000  1
  Pr  Pr7  1  0.297282  0.500000  0.250000  1
  Np  Np8  1  0.257623  0.713340  0.893064  1
  Np  Np9  1  0.742377  0.713340  0.393064  1
  Np  Np10  1  0.257623  0.286660  0.606936  1
  Np  Np11  1  0.742377  0.286660  0.106936  1
  O  O12  1  0.039288  0.939106  0.900834  1
  O  O13  1  0.552050  0.866322  0.929401  1
  O  O14  1  0.960712  0.939106  0.400834  1
  O  O15  1  0.460820  0.789875  0.732621  1
  O  O16  1  0.447950  0.866322  0.429401  1
  O  O17  1  0.978721  0.728360  0.760837  1
  O  O18  1  0.539180  0.789875  0.232621  1
  O  O19  1  0.887515  0.629245  0.556643  1
  O  O20  1  0.384940  0.470686  0.890207  1
  O  O21  1  0.021279  0.728360  0.260837  1
  O  O22  1  0.384940  0.529314  0.609793  1
  O  O23  1  0.887515  0.370755  0.943357  1
  O  O24  1  0.112485  0.629245  0.056643  1
  O  O25  1  0.615060  0.470686  0.390207  1
  O  O26  1  0.978721  0.271640  0.739163  1
  O  O27  1  0.615060  0.529314  0.109793  1
  O  O28  1  0.112485  0.370755  0.443357  1
  O  O29  1  0.460820  0.210125  0.767379  1
  O  O30  1  0.021279  0.271640  0.239163  1
  O  O31  1  0.552050  0.133678  0.570599  1
  O  O32  1  0.539180  0.210125  0.267379  1
  O  O33  1  0.039288  0.060894  0.599166  1
  O  O34  1  0.447950  0.133678  0.070599  1
  O  O35  1  0.960712  0.060894  0.099166  1
