# generated using pymatgen
data_Hf6Al16Co2CuPt4
_symmetry_space_group_name_H-M   'P 1'
_cell_length_a   8.65280722
_cell_length_b   8.65107316
_cell_length_c   8.65671525
_cell_angle_alpha   60.30433901
_cell_angle_beta   59.99131763
_cell_angle_gamma   60.08086764
_symmetry_Int_Tables_number   1
_chemical_formula_structural   Hf6Al16Co2CuPt4
_chemical_formula_sum   'Hf6 Al16 Co2 Cu1 Pt4'
_cell_volume   459.50619931
_cell_formula_units_Z   1
loop_
 _symmetry_equiv_pos_site_id
 _symmetry_equiv_pos_as_xyz
  1  'x, y, z'
loop_
 _atom_site_type_symbol
 _atom_site_label
 _atom_site_symmetry_multiplicity
 _atom_site_fract_x
 _atom_site_fract_y
 _atom_site_fract_z
 _atom_site_occupancy
  Hf  Hf0  1  0.684528  0.684145  0.315800  1
  Hf  Hf1  1  0.317127  0.682299  0.316025  1
  Hf  Hf2  1  0.683590  0.316456  0.314667  1
  Hf  Hf3  1  0.315472  0.315855  0.684200  1
  Hf  Hf4  1  0.682873  0.317701  0.683975  1
  Hf  Hf5  1  0.316410  0.683544  0.685333  1
  Al  Al6  1  0.882780  0.883187  0.347786  1
  Al  Al7  1  0.874203  0.349493  0.888809  1
  Al  Al8  1  0.351347  0.873344  0.887222  1
  Al  Al9  1  0.882887  0.882198  0.885393  1
  Al  Al10  1  0.117220  0.116813  0.652214  1
  Al  Al11  1  0.125797  0.650507  0.111191  1
  Al  Al12  1  0.648653  0.126656  0.112778  1
  Al  Al13  1  0.117113  0.117802  0.114607  1
  Al  Al14  1  0.659679  0.659449  0.004359  1
  Al  Al15  1  0.664720  0.004767  0.665247  1
  Al  Al16  1  0.002904  0.662811  0.663341  1
  Al  Al17  1  0.664330  0.658172  0.674426  1
  Al  Al18  1  0.340321  0.340551  0.995641  1
  Al  Al19  1  0.335280  0.995233  0.334753  1
  Al  Al20  1  0.997096  0.337189  0.336659  1
  Al  Al21  1  0.335670  0.341828  0.325574  1
  Co  Co22  1  0.000000  0.000000  0.000000  1
  Co  Co23  1  0.500000  0.500000  0.000000  1
  Cu  Cu24  1  0.000000  0.500000  0.500000  1
  Pt  Pt25  1  0.000000  0.000000  0.500000  1
  Pt  Pt26  1  0.500000  0.000000  0.500000  1
  Pt  Pt27  1  0.000000  0.500000  0.000000  1
  Pt  Pt28  1  0.500000  0.000000  0.000000  1
