# generated using pymatgen
data_Tb2Lu3AlSb2
_symmetry_space_group_name_H-M   'P 1'
_cell_length_a   8.67349500
_cell_length_b   8.68437429
_cell_length_c   6.28351900
_cell_angle_alpha   90.00000000
_cell_angle_beta   90.00000000
_cell_angle_gamma   119.95856442
_symmetry_Int_Tables_number   1
_chemical_formula_structural   Tb2Lu3AlSb2
_chemical_formula_sum   'Tb4 Lu6 Al2 Sb4'
_cell_volume   410.06000291
_cell_formula_units_Z   2
loop_
 _symmetry_equiv_pos_site_id
 _symmetry_equiv_pos_as_xyz
  1  'x, y, z'
loop_
 _atom_site_type_symbol
 _atom_site_label
 _atom_site_symmetry_multiplicity
 _atom_site_fract_x
 _atom_site_fract_y
 _atom_site_fract_z
 _atom_site_occupancy
  Tb  Tb0  1  0.988373  0.233036  0.250000  1
  Tb  Tb1  1  0.755339  0.766964  0.250000  1
  Tb  Tb2  1  0.244661  0.233036  0.750000  1
  Tb  Tb3  1  0.011627  0.766964  0.750000  1
  Lu  Lu4  1  0.340272  0.680546  0.000000  1
  Lu  Lu5  1  0.659728  0.319454  0.500000  1
  Lu  Lu6  1  0.659728  0.319454  0.000000  1
  Lu  Lu7  1  0.340272  0.680546  0.500000  1
  Lu  Lu8  1  0.245141  0.000000  0.250000  1
  Lu  Lu9  1  0.754859  0.000000  0.750000  1
  Al  Al10  1  0.596305  0.000000  0.250000  1
  Al  Al11  1  0.403695  0.000000  0.750000  1
  Sb  Sb12  1  0.996006  0.605971  0.250000  1
  Sb  Sb13  1  0.390035  0.394029  0.250000  1
  Sb  Sb14  1  0.609965  0.605971  0.750000  1
  Sb  Sb15  1  0.003994  0.394029  0.750000  1
