# generated using pymatgen
data_ErTm7Si12PtRh3
_symmetry_space_group_name_H-M   'P 1'
_cell_length_a   8.13775000
_cell_length_b   8.13775117
_cell_length_c   7.78407000
_cell_angle_alpha   90.00000000
_cell_angle_beta   90.00000000
_cell_angle_gamma   120.00000339
_symmetry_Int_Tables_number   1
_chemical_formula_structural   ErTm7Si12PtRh3
_chemical_formula_sum   'Er1 Tm7 Si12 Pt1 Rh3'
_cell_volume   446.42252490
_cell_formula_units_Z   1
loop_
 _symmetry_equiv_pos_site_id
 _symmetry_equiv_pos_as_xyz
  1  'x, y, z'
loop_
 _atom_site_type_symbol
 _atom_site_label
 _atom_site_symmetry_multiplicity
 _atom_site_fract_x
 _atom_site_fract_y
 _atom_site_fract_z
 _atom_site_occupancy
  Er  Er0  1  0.000000  0.000000  0.250466  1
  Tm  Tm1  1  0.979248  0.489625  0.252168  1
  Tm  Tm2  1  0.510375  0.489625  0.252168  1
  Tm  Tm3  1  0.491398  0.982793  0.748081  1
  Tm  Tm4  1  0.017207  0.508602  0.748081  1
  Tm  Tm5  1  0.491398  0.508602  0.748081  1
  Tm  Tm6  1  0.510375  0.020752  0.252168  1
  Tm  Tm7  1  0.000000  0.000000  0.748628  1
  Si  Si8  1  0.166807  0.833193  0.499935  1
  Si  Si9  1  0.166807  0.333612  0.499935  1
  Si  Si10  1  0.666388  0.833193  0.499935  1
  Si  Si11  1  0.335519  0.167759  0.999968  1
  Si  Si12  1  0.833313  0.666626  0.500604  1
  Si  Si13  1  0.832241  0.167759  0.999968  1
  Si  Si14  1  0.832241  0.664481  0.999968  1
  Si  Si15  1  0.164330  0.328658  0.999575  1
  Si  Si16  1  0.671342  0.835670  0.999575  1
  Si  Si17  1  0.333374  0.166687  0.500604  1
  Si  Si18  1  0.833313  0.166687  0.500604  1
  Si  Si19  1  0.164330  0.835670  0.999575  1
  Pt  Pt20  1  0.333333  0.666667  0.034820  1
  Rh  Rh21  1  0.666667  0.333333  0.963942  1
  Rh  Rh22  1  0.666667  0.333333  0.535872  1
  Rh  Rh23  1  0.333333  0.666667  0.465282  1
