# generated using pymatgen
data_Y2Er2Re5Os3
_symmetry_space_group_name_H-M   'P 1'
_cell_length_a   5.35775763
_cell_length_b   5.27734503
_cell_length_c   8.99944606
_cell_angle_alpha   90.00000316
_cell_angle_beta   90.01112905
_cell_angle_gamma   119.50476491
_symmetry_Int_Tables_number   1
_chemical_formula_structural   Y2Er2Re5Os3
_chemical_formula_sum   'Y2 Er2 Re5 Os3'
_cell_volume   221.45763573
_cell_formula_units_Z   1
loop_
 _symmetry_equiv_pos_site_id
 _symmetry_equiv_pos_as_xyz
  1  'x, y, z'
loop_
 _atom_site_type_symbol
 _atom_site_label
 _atom_site_symmetry_multiplicity
 _atom_site_fract_x
 _atom_site_fract_y
 _atom_site_fract_z
 _atom_site_occupancy
  Y  Y0  1  0.333462  0.666731  0.436608  1
  Y  Y1  1  0.669122  0.334561  0.564602  1
  Er  Er2  1  0.669268  0.334634  0.935792  1
  Er  Er3  1  0.333411  0.666705  0.062977  1
  Re  Re4  1  0.829345  0.169869  0.248733  1
  Re  Re5  1  0.829345  0.659476  0.248733  1
  Re  Re6  1  0.344530  0.172265  0.248723  1
  Re  Re7  1  0.163275  0.829099  0.751149  1
  Re  Re8  1  0.163275  0.334176  0.751149  1
  Os  Os9  1  0.010523  0.005261  0.500166  1
  Os  Os10  1  0.010697  0.005349  0.999836  1
  Os  Os11  1  0.643746  0.821873  0.751534  1
