# generated using pymatgen
data_Tb2Ga9CuRu2
_symmetry_space_group_name_H-M   'P 1'
_cell_length_a   7.55270090
_cell_length_b   7.55270074
_cell_length_c   9.54818100
_cell_angle_alpha   90.00000000
_cell_angle_beta   90.00000000
_cell_angle_gamma   119.99754126
_symmetry_Int_Tables_number   1
_chemical_formula_structural   Tb2Ga9CuRu2
_chemical_formula_sum   'Tb4 Ga18 Cu2 Ru4'
_cell_volume   471.70078365
_cell_formula_units_Z   2
loop_
 _symmetry_equiv_pos_site_id
 _symmetry_equiv_pos_as_xyz
  1  'x, y, z'
loop_
 _atom_site_type_symbol
 _atom_site_label
 _atom_site_symmetry_multiplicity
 _atom_site_fract_x
 _atom_site_fract_y
 _atom_site_fract_z
 _atom_site_occupancy
  Tb  Tb0  1  0.996127  0.668920  0.250000  1
  Tb  Tb1  1  0.003873  0.331080  0.750000  1
  Tb  Tb2  1  0.668920  0.996127  0.250000  1
  Tb  Tb3  1  0.331080  0.003873  0.750000  1
  Ga  Ga4  1  0.126668  0.126668  0.250000  1
  Ga  Ga5  1  0.873332  0.873332  0.750000  1
  Ga  Ga6  1  0.001685  0.336480  0.076421  1
  Ga  Ga7  1  0.998315  0.663520  0.923579  1
  Ga  Ga8  1  0.998315  0.663520  0.576421  1
  Ga  Ga9  1  0.336480  0.001685  0.423579  1
  Ga  Ga10  1  0.001685  0.336480  0.423579  1
  Ga  Ga11  1  0.663520  0.998315  0.576421  1
  Ga  Ga12  1  0.663520  0.998315  0.923579  1
  Ga  Ga13  1  0.336480  0.001685  0.076421  1
  Ga  Ga14  1  0.339129  0.339129  0.562798  1
  Ga  Ga15  1  0.660871  0.660871  0.437202  1
  Ga  Ga16  1  0.660871  0.660871  0.062798  1
  Ga  Ga17  1  0.339129  0.339129  0.937202  1
  Ga  Ga18  1  0.334366  0.547546  0.250000  1
  Ga  Ga19  1  0.665634  0.452454  0.750000  1
  Ga  Ga20  1  0.547546  0.334366  0.250000  1
  Ga  Ga21  1  0.452454  0.665634  0.750000  1
  Cu  Cu22  1  0.000000  0.000000  0.000000  1
  Cu  Cu23  1  0.000000  0.000000  0.500000  1
  Ru  Ru24  1  0.673077  0.326923  0.000000  1
  Ru  Ru25  1  0.326923  0.673077  0.000000  1
  Ru  Ru26  1  0.326923  0.673077  0.500000  1
  Ru  Ru27  1  0.673077  0.326923  0.500000  1
