# generated using pymatgen
data_HfAl5Fe6Sb
_symmetry_space_group_name_H-M   'P 1'
_cell_length_a   6.57097518
_cell_length_b   6.57097456
_cell_length_c   6.57097400
_cell_angle_alpha   134.90249732
_cell_angle_beta   99.87557256
_cell_angle_gamma   97.04150966
_symmetry_Int_Tables_number   1
_chemical_formula_structural   HfAl5Fe6Sb
_chemical_formula_sum   'Hf1 Al5 Fe6 Sb1'
_cell_volume   185.52208985
_cell_formula_units_Z   1
loop_
 _symmetry_equiv_pos_site_id
 _symmetry_equiv_pos_as_xyz
  1  'x, y, z'
loop_
 _atom_site_type_symbol
 _atom_site_label
 _atom_site_symmetry_multiplicity
 _atom_site_fract_x
 _atom_site_fract_y
 _atom_site_fract_z
 _atom_site_occupancy
  Hf  Hf0  1  0.993094  0.000000  0.993094  1
  Al  Al1  1  0.661032  0.000000  0.661032  1
  Al  Al2  1  0.664182  0.661084  0.003098  1
  Al  Al3  1  0.342014  0.338916  0.003098  1
  Al  Al4  1  0.175771  0.674512  0.501258  1
  Al  Al5  1  0.826746  0.325488  0.501258  1
  Fe  Fe6  1  0.756782  0.500000  0.256782  1
  Fe  Fe7  1  0.240745  0.500000  0.740745  1
  Fe  Fe8  1  0.994681  0.000025  0.505610  1
  Fe  Fe9  1  0.994681  0.489071  0.994656  1
  Fe  Fe10  1  0.505585  0.999975  0.994656  1
  Fe  Fe11  1  0.505585  0.510929  0.505610  1
  Sb  Sb12  1  0.339104  0.000000  0.339104  1
