# generated using pymatgen
data_La2B4RuRh4
_symmetry_space_group_name_H-M   'P 1'
_cell_length_a   7.59301049
_cell_length_b   6.38286611
_cell_length_c   5.69828685
_cell_angle_alpha   77.65066428
_cell_angle_beta   55.20241784
_cell_angle_gamma   47.14692627
_symmetry_Int_Tables_number   1
_chemical_formula_structural   La2B4RuRh4
_chemical_formula_sum   'La2 B4 Ru1 Rh4'
_cell_volume   159.13643486
_cell_formula_units_Z   1
loop_
 _symmetry_equiv_pos_site_id
 _symmetry_equiv_pos_as_xyz
  1  'x, y, z'
loop_
 _atom_site_type_symbol
 _atom_site_label
 _atom_site_symmetry_multiplicity
 _atom_site_fract_x
 _atom_site_fract_y
 _atom_site_fract_z
 _atom_site_occupancy
  La  La0  1  0.857602  0.857602  0.142398  1
  La  La1  1  0.142398  0.142398  0.857602  1
  B  B2  1  0.787356  0.474175  0.538038  1
  B  B3  1  0.200431  0.538038  0.474175  1
  B  B4  1  0.538038  0.200431  0.787356  1
  B  B5  1  0.474175  0.787356  0.200431  1
  Ru  Ru6  1  0.750000  0.750000  0.750000  1
  Rh  Rh7  1  0.498926  0.498926  0.001074  1
  Rh  Rh8  1  0.500000  0.500000  0.500000  1
  Rh  Rh9  1  0.001074  0.001074  0.498926  1
  Rh  Rh10  1  0.250000  0.250000  0.250000  1
