# generated using pymatgen
data_ZnCuBi3Ir3O14
_symmetry_space_group_name_H-M   'P 1'
_cell_length_a   7.20619883
_cell_length_b   7.20619957
_cell_length_c   7.20619897
_cell_angle_alpha   61.16712408
_cell_angle_beta   61.16712179
_cell_angle_gamma   61.16712123
_symmetry_Int_Tables_number   1
_chemical_formula_structural   ZnCuBi3Ir3O14
_chemical_formula_sum   'Zn1 Cu1 Bi3 Ir3 O14'
_cell_volume   271.55694968
_cell_formula_units_Z   1
loop_
 _symmetry_equiv_pos_site_id
 _symmetry_equiv_pos_as_xyz
  1  'x, y, z'
loop_
 _atom_site_type_symbol
 _atom_site_label
 _atom_site_symmetry_multiplicity
 _atom_site_fract_x
 _atom_site_fract_y
 _atom_site_fract_z
 _atom_site_occupancy
  Zn  Zn0  1  0.500000  0.500000  0.500000  1
  Cu  Cu1  1  0.000000  0.000000  0.000000  1
  Bi  Bi2  1  0.000000  0.500000  0.000000  1
  Bi  Bi3  1  0.500000  0.000000  0.000000  1
  Bi  Bi4  1  0.000000  0.000000  0.500000  1
  Ir  Ir5  1  0.500000  0.000000  0.500000  1
  Ir  Ir6  1  0.000000  0.500000  0.500000  1
  Ir  Ir7  1  0.500000  0.500000  0.000000  1
  O  O8  1  0.405326  0.405326  0.853089  1
  O  O9  1  0.853089  0.405326  0.405326  1
  O  O10  1  0.405326  0.853089  0.405326  1
  O  O11  1  0.821114  0.821114  0.418837  1
  O  O12  1  0.418837  0.821114  0.821114  1
  O  O13  1  0.821114  0.418837  0.821114  1
  O  O14  1  0.594674  0.594674  0.146911  1
  O  O15  1  0.146911  0.594674  0.594674  1
  O  O16  1  0.594674  0.146911  0.594674  1
  O  O17  1  0.178886  0.178886  0.581163  1
  O  O18  1  0.581163  0.178886  0.178886  1
  O  O19  1  0.178886  0.581163  0.178886  1
  O  O20  1  0.107179  0.107179  0.107179  1
  O  O21  1  0.892821  0.892821  0.892821  1
