# generated using pymatgen
data_CeY3(AlAu)4
_symmetry_space_group_name_H-M   'P 1'
_cell_length_a   4.53072700
_cell_length_b   7.30383993
_cell_length_c   7.83071846
_cell_angle_alpha   90.25469456
_cell_angle_beta   90.00000000
_cell_angle_gamma   90.00000000
_symmetry_Int_Tables_number   1
_chemical_formula_structural   CeY3(AlAu)4
_chemical_formula_sum   'Ce1 Y3 Al4 Au4'
_cell_volume   259.12926323
_cell_formula_units_Z   1
loop_
 _symmetry_equiv_pos_site_id
 _symmetry_equiv_pos_as_xyz
  1  'x, y, z'
loop_
 _atom_site_type_symbol
 _atom_site_label
 _atom_site_symmetry_multiplicity
 _atom_site_fract_x
 _atom_site_fract_y
 _atom_site_fract_z
 _atom_site_occupancy
  Ce  Ce0  1  0.250000  0.006104  0.303164  1
  Y  Y1  1  0.250000  0.507524  0.196140  1
  Y  Y2  1  0.750000  0.992462  0.701481  1
  Y  Y3  1  0.750000  0.493345  0.801825  1
  Al  Al4  1  0.250000  0.175784  0.919794  1
  Al  Al5  1  0.250000  0.671294  0.577611  1
  Al  Al6  1  0.750000  0.826959  0.077413  1
  Al  Al7  1  0.750000  0.326360  0.421222  1
  Au  Au8  1  0.250000  0.290992  0.597105  1
  Au  Au9  1  0.250000  0.786550  0.904044  1
  Au  Au10  1  0.750000  0.708720  0.408699  1
  Au  Au11  1  0.750000  0.213907  0.091501  1
