# generated using pymatgen
data_BaHf(ReO4)6
_symmetry_space_group_name_H-M   'P 1'
_cell_length_a   10.60981700
_cell_length_b   10.60981584
_cell_length_c   6.27120100
_cell_angle_alpha   90.00000000
_cell_angle_beta   90.00000000
_cell_angle_gamma   119.99998970
_symmetry_Int_Tables_number   1
_chemical_formula_structural   BaHf(ReO4)6
_chemical_formula_sum   'Ba1 Hf1 Re6 O24'
_cell_volume   611.36016324
_cell_formula_units_Z   1
loop_
 _symmetry_equiv_pos_site_id
 _symmetry_equiv_pos_as_xyz
  1  'x, y, z'
loop_
 _atom_site_type_symbol
 _atom_site_label
 _atom_site_symmetry_multiplicity
 _atom_site_fract_x
 _atom_site_fract_y
 _atom_site_fract_z
 _atom_site_occupancy
  Ba  Ba0  1  0.333333  0.666667  0.250000  1
  Hf  Hf1  1  0.666667  0.333333  0.750000  1
  Re  Re2  1  0.048271  0.375613  0.750000  1
  Re  Re3  1  0.418472  0.298695  0.250000  1
  Re  Re4  1  0.624387  0.672656  0.750000  1
  Re  Re5  1  0.880222  0.581528  0.250000  1
  Re  Re6  1  0.327344  0.951729  0.750000  1
  Re  Re7  1  0.701305  0.119778  0.250000  1
  O  O8  1  0.514199  0.641633  0.527256  1
  O  O9  1  0.358367  0.872566  0.527256  1
  O  O10  1  0.803827  0.691960  0.250000  1
  O  O11  1  0.148595  0.911423  0.750000  1
  O  O12  1  0.308040  0.111867  0.250000  1
  O  O13  1  0.088577  0.237172  0.750000  1
  O  O14  1  0.529399  0.352285  0.017259  1
  O  O15  1  0.888133  0.196173  0.250000  1
  O  O16  1  0.068647  0.691166  0.250000  1
  O  O17  1  0.127434  0.485801  0.972744  1
  O  O18  1  0.127434  0.485801  0.527256  1
  O  O19  1  0.855250  0.303626  0.750000  1
  O  O20  1  0.308834  0.377482  0.250000  1
  O  O21  1  0.696374  0.551624  0.750000  1
  O  O22  1  0.822887  0.470601  0.482741  1
  O  O23  1  0.448376  0.144750  0.750000  1
  O  O24  1  0.647715  0.177113  0.017259  1
  O  O25  1  0.514199  0.641633  0.972744  1
  O  O26  1  0.358367  0.872566  0.972744  1
  O  O27  1  0.647715  0.177113  0.482741  1
  O  O28  1  0.529399  0.352285  0.482741  1
  O  O29  1  0.822887  0.470601  0.017259  1
  O  O30  1  0.762828  0.851405  0.750000  1
  O  O31  1  0.622518  0.931353  0.250000  1
