# generated using pymatgen
data_Ca9Yb(Bi3Br)2
_symmetry_space_group_name_H-M   'P 1'
_cell_length_a   9.39444213
_cell_length_b   9.38115254
_cell_length_c   7.24020200
_cell_angle_alpha   90.00000000
_cell_angle_beta   90.00000000
_cell_angle_gamma   119.95321435
_symmetry_Int_Tables_number   1
_chemical_formula_structural   Ca9Yb(Bi3Br)2
_chemical_formula_sum   'Ca9 Yb1 Bi6 Br2'
_cell_volume   552.85731542
_cell_formula_units_Z   1
loop_
 _symmetry_equiv_pos_site_id
 _symmetry_equiv_pos_as_xyz
  1  'x, y, z'
loop_
 _atom_site_type_symbol
 _atom_site_label
 _atom_site_symmetry_multiplicity
 _atom_site_fract_x
 _atom_site_fract_y
 _atom_site_fract_z
 _atom_site_occupancy
  Ca  Ca0  1  0.738410  0.000014  0.750000  1
  Ca  Ca1  1  0.000000  0.261494  0.250000  1
  Ca  Ca2  1  0.738438  0.738337  0.250000  1
  Ca  Ca3  1  0.333175  0.666632  0.500153  1
  Ca  Ca4  1  0.333175  0.666632  0.999847  1
  Ca  Ca5  1  0.666825  0.333456  0.500153  1
  Ca  Ca6  1  0.666825  0.333456  0.999847  1
  Ca  Ca7  1  0.261562  0.999899  0.250000  1
  Ca  Ca8  1  0.261590  0.261604  0.750000  1
  Yb  Yb9  1  0.000000  0.740118  0.750000  1
  Bi  Bi10  1  0.391878  0.999899  0.750000  1
  Bi  Bi11  1  0.607981  0.000003  0.250000  1
  Bi  Bi12  1  0.000000  0.608121  0.250000  1
  Bi  Bi13  1  0.608122  0.608022  0.750000  1
  Bi  Bi14  1  0.000000  0.392589  0.750000  1
  Bi  Bi15  1  0.392019  0.392022  0.250000  1
  Br  Br16  1  0.000000  0.998850  0.501036  1
  Br  Br17  1  0.000000  0.998850  0.998964  1
