# generated using pymatgen
data_Y16Tl5InCoOs
_symmetry_space_group_name_H-M   'P 1'
_cell_length_a   10.40383300
_cell_length_b   10.39725072
_cell_length_c   7.15757602
_cell_angle_alpha   90.00724366
_cell_angle_beta   90.00000000
_cell_angle_gamma   120.02094746
_symmetry_Int_Tables_number   1
_chemical_formula_structural   Y16Tl5InCoOs
_chemical_formula_sum   'Y16 Tl5 In1 Co1 Os1'
_cell_volume   670.37340348
_cell_formula_units_Z   1
loop_
 _symmetry_equiv_pos_site_id
 _symmetry_equiv_pos_as_xyz
  1  'x, y, z'
loop_
 _atom_site_type_symbol
 _atom_site_label
 _atom_site_symmetry_multiplicity
 _atom_site_fract_x
 _atom_site_fract_y
 _atom_site_fract_z
 _atom_site_occupancy
  Y  Y0  1  0.465095  0.536893  0.480747  1
  Y  Y1  1  0.071799  0.536893  0.480747  1
  Y  Y2  1  0.463492  0.926982  0.479600  1
  Y  Y3  1  0.537824  0.462105  0.978855  1
  Y  Y4  1  0.924281  0.462105  0.978855  1
  Y  Y5  1  0.538147  0.076293  0.979377  1
  Y  Y6  1  0.822335  0.178188  0.279660  1
  Y  Y7  1  0.355853  0.178188  0.279660  1
  Y  Y8  1  0.821925  0.643851  0.277745  1
  Y  Y9  1  0.176753  0.824231  0.781233  1
  Y  Y10  1  0.647477  0.824231  0.781233  1
  Y  Y11  1  0.176076  0.352154  0.780886  1
  Y  Y12  1  0.333074  0.666149  0.100203  1
  Y  Y13  1  0.666915  0.333830  0.590578  1
  Y  Y14  1  0.999119  0.998239  0.496591  1
  Y  Y15  1  0.999123  0.998246  0.998532  1
  Tl  Tl16  1  0.162551  0.837637  0.230896  1
  Tl  Tl17  1  0.675087  0.837637  0.230896  1
  Tl  Tl18  1  0.162525  0.325049  0.231206  1
  Tl  Tl19  1  0.835951  0.164138  0.728810  1
  Tl  Tl20  1  0.328186  0.164138  0.728810  1
  In  In21  1  0.836506  0.673013  0.730002  1
  Co  Co22  1  0.666570  0.333139  0.209120  1
  Os  Os23  1  0.333335  0.666672  0.710309  1
