# generated using pymatgen
data_Ru2RhO6
_symmetry_space_group_name_H-M   'P 1'
_cell_length_a   4.55132600
_cell_length_b   4.55132600
_cell_length_c   9.40944000
_cell_angle_alpha   90.00000000
_cell_angle_beta   90.00000000
_cell_angle_gamma   90.00000000
_symmetry_Int_Tables_number   1
_chemical_formula_structural   Ru2RhO6
_chemical_formula_sum   'Ru4 Rh2 O12'
_cell_volume   194.91248809
_cell_formula_units_Z   2
loop_
 _symmetry_equiv_pos_site_id
 _symmetry_equiv_pos_as_xyz
  1  'x, y, z'
loop_
 _atom_site_type_symbol
 _atom_site_label
 _atom_site_symmetry_multiplicity
 _atom_site_fract_x
 _atom_site_fract_y
 _atom_site_fract_z
 _atom_site_occupancy
  Ru  Ru0  1  0.500000  0.500000  0.833306  1
  Ru  Ru1  1  0.000000  0.000000  0.666694  1
  Ru  Ru2  1  0.500000  0.500000  0.166694  1
  Ru  Ru3  1  0.000000  0.000000  0.333305  1
  Rh  Rh4  1  0.500000  0.500000  0.500000  1
  Rh  Rh5  1  0.000000  0.000000  0.000000  1
  O  O6  1  0.187914  0.812084  0.500000  1
  O  O7  1  0.812084  0.187914  0.500000  1
  O  O8  1  0.312084  0.312084  0.000000  1
  O  O9  1  0.687917  0.687917  0.000000  1
  O  O10  1  0.196276  0.803725  0.169696  1
  O  O11  1  0.803725  0.196276  0.169696  1
  O  O12  1  0.303725  0.303725  0.330304  1
  O  O13  1  0.696276  0.696276  0.330304  1
  O  O14  1  0.196276  0.803725  0.830303  1
  O  O15  1  0.803725  0.196276  0.830303  1
  O  O16  1  0.696276  0.696276  0.669695  1
  O  O17  1  0.303725  0.303725  0.669695  1
