# generated using pymatgen
data_Tb5Nd4DyBi6
_symmetry_space_group_name_H-M   'P 1'
_cell_length_a   6.48463000
_cell_length_b   9.36164407
_cell_length_c   9.31088000
_cell_angle_alpha   120.18060101
_cell_angle_beta   90.00007069
_cell_angle_gamma   90.00008687
_symmetry_Int_Tables_number   1
_chemical_formula_structural   Tb5Nd4DyBi6
_chemical_formula_sum   'Tb5 Nd4 Dy1 Bi6'
_cell_volume   488.61349124
_cell_formula_units_Z   1
loop_
 _symmetry_equiv_pos_site_id
 _symmetry_equiv_pos_as_xyz
  1  'x, y, z'
loop_
 _atom_site_type_symbol
 _atom_site_label
 _atom_site_symmetry_multiplicity
 _atom_site_fract_x
 _atom_site_fract_y
 _atom_site_fract_z
 _atom_site_occupancy
  Tb  Tb0  1  0.500014  0.331648  0.663151  1
  Tb  Tb1  1  0.500009  0.668491  0.336841  1
  Tb  Tb2  1  0.999990  0.668492  0.336840  1
  Tb  Tb3  1  0.999984  0.331649  0.663152  1
  Tb  Tb4  1  0.749998  0.249594  0.000001  1
  Nd  Nd5  1  0.750002  0.755321  0.757745  1
  Nd  Nd6  1  0.750004  0.997599  0.242271  1
  Nd  Nd7  1  0.250001  0.244464  0.242117  1
  Nd  Nd8  1  0.249998  0.002331  0.757868  1
  Dy  Dy9  1  0.249999  0.750217  0.000004  1
  Bi  Bi10  1  0.749998  0.603956  0.000006  1
  Bi  Bi11  1  0.750001  0.390365  0.387282  1
  Bi  Bi12  1  0.750000  0.003074  0.612719  1
  Bi  Bi13  1  0.249999  0.396354  0.000000  1
  Bi  Bi14  1  0.250000  0.609772  0.613094  1
  Bi  Bi15  1  0.250000  0.996676  0.386908  1
