# generated using pymatgen
data_Li4Ca2TbYbSi8
_symmetry_space_group_name_H-M   'P 1'
_cell_length_a   3.80352600
_cell_length_b   7.85180228
_cell_length_c   10.50459838
_cell_angle_alpha   89.76297511
_cell_angle_beta   90.00000000
_cell_angle_gamma   90.00000000
_symmetry_Int_Tables_number   1
_chemical_formula_structural   Li4Ca2TbYbSi8
_chemical_formula_sum   'Li4 Ca2 Tb1 Yb1 Si8'
_cell_volume   313.71225228
_cell_formula_units_Z   1
loop_
 _symmetry_equiv_pos_site_id
 _symmetry_equiv_pos_as_xyz
  1  'x, y, z'
loop_
 _atom_site_type_symbol
 _atom_site_label
 _atom_site_symmetry_multiplicity
 _atom_site_fract_x
 _atom_site_fract_y
 _atom_site_fract_z
 _atom_site_occupancy
  Li  Li0  1  0.250000  0.997715  0.388188  1
  Li  Li1  1  0.750000  0.000549  0.610531  1
  Li  Li2  1  0.250000  0.497034  0.109567  1
  Li  Li3  1  0.750000  0.508168  0.888780  1
  Ca  Ca4  1  0.250000  0.635728  0.637101  1
  Ca  Ca5  1  0.750000  0.363903  0.364605  1
  Tb  Tb6  1  0.250000  0.129121  0.865978  1
  Yb  Yb7  1  0.750000  0.866312  0.134709  1
  Si  Si8  1  0.750000  0.266739  0.061782  1
  Si  Si9  1  0.250000  0.739535  0.934348  1
  Si  Si10  1  0.750000  0.767724  0.431483  1
  Si  Si11  1  0.250000  0.226827  0.572969  1
  Si  Si12  1  0.750000  0.842546  0.824662  1
  Si  Si13  1  0.250000  0.161375  0.170063  1
  Si  Si14  1  0.750000  0.330963  0.682055  1
  Si  Si15  1  0.250000  0.665760  0.323180  1
