# generated using pymatgen
data_SmTm6U(ReB6)4
_symmetry_space_group_name_H-M   'P 1'
_cell_length_a   3.66461900
_cell_length_b   9.12268788
_cell_length_c   11.49123367
_cell_angle_alpha   90.15247643
_cell_angle_beta   90.00000000
_cell_angle_gamma   90.00000000
_symmetry_Int_Tables_number   1
_chemical_formula_structural   SmTm6U(ReB6)4
_chemical_formula_sum   'Sm1 Tm6 U1 Re4 B24'
_cell_volume   384.16408739
_cell_formula_units_Z   1
loop_
 _symmetry_equiv_pos_site_id
 _symmetry_equiv_pos_as_xyz
  1  'x, y, z'
loop_
 _atom_site_type_symbol
 _atom_site_label
 _atom_site_symmetry_multiplicity
 _atom_site_fract_x
 _atom_site_fract_y
 _atom_site_fract_z
 _atom_site_occupancy
  Sm  Sm0  1  0.000000  0.319928  0.413411  1
  Tm  Tm1  1  0.000000  0.823852  0.086156  1
  Tm  Tm2  1  0.000000  0.176740  0.914659  1
  Tm  Tm3  1  0.000000  0.944698  0.371096  1
  Tm  Tm4  1  0.000000  0.057312  0.628150  1
  Tm  Tm5  1  0.000000  0.442907  0.129153  1
  Tm  Tm6  1  0.000000  0.557025  0.873329  1
  U  U7  1  0.000000  0.676769  0.586084  1
  Re  Re8  1  0.000000  0.639434  0.324568  1
  Re  Re9  1  0.000000  0.366069  0.679729  1
  Re  Re10  1  0.000000  0.136287  0.177144  1
  Re  Re11  1  0.000000  0.858275  0.817034  1
  B  B12  1  0.500000  0.556229  0.434332  1
  B  B13  1  0.500000  0.449288  0.569385  1
  B  B14  1  0.500000  0.052028  0.064853  1
  B  B15  1  0.500000  0.946031  0.932145  1
  B  B16  1  0.500000  0.750314  0.420718  1
  B  B17  1  0.500000  0.250610  0.583094  1
  B  B18  1  0.500000  0.249096  0.079356  1
  B  B19  1  0.500000  0.751047  0.919407  1
  B  B20  1  0.500000  0.792578  0.265058  1
  B  B21  1  0.500000  0.208113  0.735297  1
  B  B22  1  0.500000  0.290946  0.232407  1
  B  B23  1  0.500000  0.707429  0.764825  1
  B  B24  1  0.500000  0.631040  0.185376  1
  B  B25  1  0.500000  0.369610  0.816288  1
  B  B26  1  0.500000  0.129183  0.312820  1
  B  B27  1  0.500000  0.867549  0.683983  1
  B  B28  1  0.500000  0.980530  0.211113  1
  B  B29  1  0.500000  0.018066  0.787467  1
  B  B30  1  0.500000  0.483354  0.286416  1
  B  B31  1  0.500000  0.519608  0.713155  1
  B  B32  1  0.500000  0.601959  0.029225  1
  B  B33  1  0.500000  0.398674  0.972217  1
  B  B34  1  0.500000  0.102888  0.471406  1
  B  B35  1  0.500000  0.894534  0.529146  1
