# generated using pymatgen
data_ErLuRe2F14
_symmetry_space_group_name_H-M   'P 1'
_cell_length_a   5.56092285
_cell_length_b   8.83500206
_cell_length_c   11.95203777
_cell_angle_alpha   62.75967431
_cell_angle_beta   89.92776669
_cell_angle_gamma   90.02087501
_symmetry_Int_Tables_number   1
_chemical_formula_structural   ErLuRe2F14
_chemical_formula_sum   'Er2 Lu2 Re4 F28'
_cell_volume   522.08689052
_cell_formula_units_Z   2
loop_
 _symmetry_equiv_pos_site_id
 _symmetry_equiv_pos_as_xyz
  1  'x, y, z'
loop_
 _atom_site_type_symbol
 _atom_site_label
 _atom_site_symmetry_multiplicity
 _atom_site_fract_x
 _atom_site_fract_y
 _atom_site_fract_z
 _atom_site_occupancy
  Er  Er0  1  0.257907  0.816092  0.264542  1
  Er  Er1  1  0.742093  0.183908  0.735458  1
  Lu  Lu2  1  0.758711  0.185371  0.235497  1
  Lu  Lu3  1  0.241289  0.814629  0.764503  1
  Re  Re4  1  0.758247  0.725383  0.042674  1
  Re  Re5  1  0.241753  0.274617  0.957326  1
  Re  Re6  1  0.258124  0.271820  0.455778  1
  Re  Re7  1  0.741876  0.728180  0.544222  1
  F  F8  1  0.949441  0.707431  0.417747  1
  F  F9  1  0.050559  0.292569  0.582253  1
  F  F10  1  0.450429  0.293715  0.083960  1
  F  F11  1  0.549571  0.706285  0.916040  1
  F  F12  1  0.474633  0.729090  0.141575  1
  F  F13  1  0.525367  0.270910  0.858425  1
  F  F14  1  0.974734  0.270015  0.356038  1
  F  F15  1  0.025266  0.729985  0.643962  1
  F  F16  1  0.958604  0.745249  0.173035  1
  F  F17  1  0.041396  0.254751  0.826965  1
  F  F18  1  0.461737  0.252298  0.325823  1
  F  F19  1  0.538263  0.747702  0.674177  1
  F  F20  1  0.771706  0.474216  0.142716  1
  F  F21  1  0.228294  0.525784  0.857284  1
  F  F22  1  0.271914  0.522949  0.357074  1
  F  F23  1  0.728086  0.477051  0.642926  1
  F  F24  1  0.944821  0.277455  0.049849  1
  F  F25  1  0.055179  0.722545  0.950151  1
  F  F26  1  0.446537  0.722836  0.452373  1
  F  F27  1  0.553463  0.277164  0.547627  1
  F  F28  1  0.742171  0.978506  0.445192  1
  F  F29  1  0.257829  0.021494  0.554808  1
  F  F30  1  0.242263  0.024119  0.054537  1
  F  F31  1  0.757737  0.975881  0.945463  1
  F  F32  1  0.579379  0.975228  0.232813  1
  F  F33  1  0.420621  0.024772  0.767187  1
  F  F34  1  0.074353  0.030116  0.267081  1
  F  F35  1  0.925647  0.969884  0.732919  1
