# generated using pymatgen
data_Sm2Fe3P6Rh7
_symmetry_space_group_name_H-M   'P 1'
_cell_length_a   3.85807900
_cell_length_b   10.71586200
_cell_length_c   12.42352000
_cell_angle_alpha   90.00000000
_cell_angle_beta   90.00000000
_cell_angle_gamma   90.00000000
_symmetry_Int_Tables_number   1
_chemical_formula_structural   Sm2Fe3P6Rh7
_chemical_formula_sum   'Sm4 Fe6 P12 Rh14'
_cell_volume   513.62114159
_cell_formula_units_Z   2
loop_
 _symmetry_equiv_pos_site_id
 _symmetry_equiv_pos_as_xyz
  1  'x, y, z'
loop_
 _atom_site_type_symbol
 _atom_site_label
 _atom_site_symmetry_multiplicity
 _atom_site_fract_x
 _atom_site_fract_y
 _atom_site_fract_z
 _atom_site_occupancy
  Sm  Sm0  1  0.250000  0.577434  0.710620  1
  Sm  Sm1  1  0.250000  0.922566  0.210620  1
  Sm  Sm2  1  0.750000  0.415770  0.290996  1
  Sm  Sm3  1  0.750000  0.084230  0.790996  1
  Fe  Fe4  1  0.750000  0.123462  0.302930  1
  Fe  Fe5  1  0.750000  0.376538  0.802930  1
  Fe  Fe6  1  0.250000  0.459941  0.933606  1
  Fe  Fe7  1  0.250000  0.040059  0.433606  1
  Fe  Fe8  1  0.750000  0.539468  0.064447  1
  Fe  Fe9  1  0.750000  0.960532  0.564447  1
  P  P10  1  0.250000  0.430552  0.105346  1
  P  P11  1  0.250000  0.069448  0.605346  1
  P  P12  1  0.750000  0.559150  0.889286  1
  P  P13  1  0.750000  0.940850  0.389286  1
  P  P14  1  0.250000  0.275903  0.863977  1
  P  P15  1  0.250000  0.224097  0.363977  1
  P  P16  1  0.750000  0.729864  0.129759  1
  P  P17  1  0.750000  0.770136  0.629759  1
  P  P18  1  0.250000  0.601456  0.390636  1
  P  P19  1  0.250000  0.898544  0.890636  1
  P  P20  1  0.750000  0.395864  0.619080  1
  P  P21  1  0.750000  0.104136  0.119080  1
  Rh  Rh22  1  0.250000  0.715433  0.991236  1
  Rh  Rh23  1  0.250000  0.784567  0.491236  1
  Rh  Rh24  1  0.750000  0.286342  0.009527  1
  Rh  Rh25  1  0.750000  0.213658  0.509527  1
  Rh  Rh26  1  0.250000  0.405175  0.479066  1
  Rh  Rh27  1  0.250000  0.094825  0.979066  1
  Rh  Rh28  1  0.750000  0.588866  0.518362  1
  Rh  Rh29  1  0.750000  0.911134  0.018362  1
  Rh  Rh30  1  0.250000  0.227448  0.174040  1
  Rh  Rh31  1  0.250000  0.272552  0.674040  1
  Rh  Rh32  1  0.750000  0.766129  0.826338  1
  Rh  Rh33  1  0.750000  0.733871  0.326338  1
  Rh  Rh34  1  0.250000  0.880573  0.700747  1
  Rh  Rh35  1  0.250000  0.619427  0.200747  1
