# generated using pymatgen
data_Ho6Sc2InAu9
_symmetry_space_group_name_H-M   'P 1'
_cell_length_a   7.95591802
_cell_length_b   7.95591726
_cell_length_c   7.95591542
_cell_angle_alpha   65.72340367
_cell_angle_beta   65.72340707
_cell_angle_gamma   65.72339380
_symmetry_Int_Tables_number   1
_chemical_formula_structural   Ho6Sc2InAu9
_chemical_formula_sum   'Ho6 Sc2 In1 Au9'
_cell_volume   400.30340714
_cell_formula_units_Z   1
loop_
 _symmetry_equiv_pos_site_id
 _symmetry_equiv_pos_as_xyz
  1  'x, y, z'
loop_
 _atom_site_type_symbol
 _atom_site_label
 _atom_site_symmetry_multiplicity
 _atom_site_fract_x
 _atom_site_fract_y
 _atom_site_fract_z
 _atom_site_occupancy
  Ho  Ho0  1  0.896589  0.185302  0.619979  1
  Ho  Ho1  1  0.619979  0.896589  0.185302  1
  Ho  Ho2  1  0.185302  0.619979  0.896589  1
  Ho  Ho3  1  0.103411  0.814698  0.380021  1
  Ho  Ho4  1  0.380021  0.103411  0.814698  1
  Ho  Ho5  1  0.814698  0.380021  0.103411  1
  Sc  Sc6  1  0.662857  0.662857  0.662857  1
  Sc  Sc7  1  0.337143  0.337143  0.337143  1
  In  In8  1  0.500000  0.500000  0.500000  1
  Au  Au9  1  0.000000  0.000000  0.000000  1
  Au  Au10  1  0.807485  0.807485  0.807485  1
  Au  Au11  1  0.192515  0.192515  0.192515  1
  Au  Au12  1  0.935152  0.549515  0.320027  1
  Au  Au13  1  0.320027  0.935152  0.549515  1
  Au  Au14  1  0.549515  0.320027  0.935152  1
  Au  Au15  1  0.064848  0.450485  0.679973  1
  Au  Au16  1  0.679973  0.064848  0.450485  1
  Au  Au17  1  0.450485  0.679973  0.064848  1
