# generated using pymatgen
data_Sc24Tc7Pt
_symmetry_space_group_name_H-M   'P 1'
_cell_length_a   5.82803058
_cell_length_b   8.57006200
_cell_length_c   13.81099468
_cell_angle_alpha   90.00000000
_cell_angle_beta   90.37429535
_cell_angle_gamma   90.00000000
_symmetry_Int_Tables_number   1
_chemical_formula_structural   Sc24Tc7Pt
_chemical_formula_sum   'Sc24 Tc7 Pt1'
_cell_volume   689.79727899
_cell_formula_units_Z   1
loop_
 _symmetry_equiv_pos_site_id
 _symmetry_equiv_pos_as_xyz
  1  'x, y, z'
loop_
 _atom_site_type_symbol
 _atom_site_label
 _atom_site_symmetry_multiplicity
 _atom_site_fract_x
 _atom_site_fract_y
 _atom_site_fract_z
 _atom_site_occupancy
  Sc  Sc0  1  0.533950  0.750000  0.354085  1
  Sc  Sc1  1  0.030772  0.250000  0.146240  1
  Sc  Sc2  1  0.471666  0.250000  0.646761  1
  Sc  Sc3  1  0.967644  0.750000  0.856666  1
  Sc  Sc4  1  0.793148  0.750000  0.110697  1
  Sc  Sc5  1  0.293143  0.250000  0.388364  1
  Sc  Sc6  1  0.204459  0.250000  0.887818  1
  Sc  Sc7  1  0.702547  0.750000  0.610836  1
  Sc  Sc8  1  0.435896  0.940466  0.790778  1
  Sc  Sc9  1  0.927998  0.066192  0.709425  1
  Sc  Sc10  1  0.561973  0.437249  0.209966  1
  Sc  Sc11  1  0.063787  0.563360  0.290325  1
  Sc  Sc12  1  0.561973  0.062751  0.209966  1
  Sc  Sc13  1  0.063787  0.936640  0.290325  1
  Sc  Sc14  1  0.435896  0.559534  0.790778  1
  Sc  Sc15  1  0.927998  0.433808  0.709425  1
  Sc  Sc16  1  0.249270  0.945921  0.532226  1
  Sc  Sc17  1  0.746908  0.059618  0.966408  1
  Sc  Sc18  1  0.754137  0.439941  0.466081  1
  Sc  Sc19  1  0.255124  0.559003  0.033271  1
  Sc  Sc20  1  0.754137  0.060059  0.466081  1
  Sc  Sc21  1  0.255124  0.940997  0.033271  1
  Sc  Sc22  1  0.249270  0.554079  0.532226  1
  Sc  Sc23  1  0.746908  0.440382  0.966408  1
  Tc  Tc24  1  0.933224  0.750000  0.447682  1
  Tc  Tc25  1  0.428779  0.250000  0.056886  1
  Tc  Tc26  1  0.074326  0.250000  0.558647  1
  Tc  Tc27  1  0.571575  0.750000  0.940407  1
  Tc  Tc28  1  0.353314  0.750000  0.180424  1
  Tc  Tc29  1  0.855027  0.250000  0.319452  1
  Tc  Tc30  1  0.648039  0.250000  0.819530  1
  Pt  Pt31  1  0.148201  0.750000  0.678539  1
