# generated using pymatgen
data_HoTm7Ti7Si16Tc5
_symmetry_space_group_name_H-M   'P 1'
_cell_length_a   6.89117453
_cell_length_b   6.90027151
_cell_length_c   12.69325314
_cell_angle_alpha   89.79870381
_cell_angle_beta   89.90309151
_cell_angle_gamma   89.93358291
_symmetry_Int_Tables_number   1
_chemical_formula_structural   HoTm7Ti7Si16Tc5
_chemical_formula_sum   'Ho1 Tm7 Ti7 Si16 Tc5'
_cell_volume   603.57157657
_cell_formula_units_Z   1
loop_
 _symmetry_equiv_pos_site_id
 _symmetry_equiv_pos_as_xyz
  1  'x, y, z'
loop_
 _atom_site_type_symbol
 _atom_site_label
 _atom_site_symmetry_multiplicity
 _atom_site_fract_x
 _atom_site_fract_y
 _atom_site_fract_z
 _atom_site_occupancy
  Ho  Ho0  1  0.997291  0.658447  0.028928  1
  Tm  Tm1  1  0.340200  0.000189  0.470202  1
  Tm  Tm2  1  0.498512  0.840286  0.719792  1
  Tm  Tm3  1  0.499387  0.159133  0.218942  1
  Tm  Tm4  1  0.839315  0.498598  0.279941  1
  Tm  Tm5  1  0.159760  0.498968  0.781698  1
  Tm  Tm6  1  0.658863  0.999862  0.968406  1
  Tm  Tm7  1  0.000514  0.340850  0.531105  1
  Ti  Ti8  1  0.493999  0.657783  0.126888  1
  Ti  Ti9  1  0.501207  0.346266  0.628580  1
  Ti  Ti10  1  0.655921  0.496812  0.873296  1
  Ti  Ti11  1  0.346315  0.504635  0.373632  1
  Ti  Ti12  1  0.846347  0.997267  0.376548  1
  Ti  Ti13  1  0.003575  0.155556  0.126236  1
  Ti  Ti14  1  0.996333  0.846975  0.622804  1
  Si  Si15  1  0.197177  0.128736  0.686299  1
  Si  Si16  1  0.375825  0.702485  0.933111  1
  Si  Si17  1  0.628787  0.299439  0.433685  1
  Si  Si18  1  0.700293  0.370136  0.066480  1
  Si  Si19  1  0.299527  0.630157  0.566983  1
  Si  Si20  1  0.799146  0.870781  0.183184  1
  Si  Si21  1  0.130199  0.201266  0.318193  1
  Si  Si22  1  0.874199  0.805652  0.815974  1
  Si  Si23  1  0.291367  0.959506  0.062300  1
  Si  Si24  1  0.546642  0.792015  0.317803  1
  Si  Si25  1  0.446635  0.209599  0.819201  1
  Si  Si26  1  0.791212  0.548245  0.682674  1
  Si  Si27  1  0.208852  0.453458  0.183043  1
  Si  Si28  1  0.708259  0.046546  0.567345  1
  Si  Si29  1  0.962074  0.279545  0.931537  1
  Si  Si30  1  0.046024  0.709114  0.431644  1
  Tc  Tc31  1  0.329095  0.331933  0.001004  1
  Tc  Tc32  1  0.169957  0.831001  0.247652  1
  Tc  Tc33  1  0.825994  0.169975  0.748301  1
  Tc  Tc34  1  0.670160  0.669915  0.500480  1
  Tc  Tc35  1  0.161035  0.988870  0.876114  1
