# generated using pymatgen
data_Tb3HoAl18(PdRh)3
_symmetry_space_group_name_H-M   'P 1'
_cell_length_a   7.60890924
_cell_length_b   7.61050577
_cell_length_c   9.45615301
_cell_angle_alpha   90.00883729
_cell_angle_beta   90.01093347
_cell_angle_gamma   119.61222582
_symmetry_Int_Tables_number   1
_chemical_formula_structural   Tb3HoAl18(PdRh)3
_chemical_formula_sum   'Tb3 Ho1 Al18 Pd3 Rh3'
_cell_volume   476.06339010
_cell_formula_units_Z   1
loop_
 _symmetry_equiv_pos_site_id
 _symmetry_equiv_pos_as_xyz
  1  'x, y, z'
loop_
 _atom_site_type_symbol
 _atom_site_label
 _atom_site_symmetry_multiplicity
 _atom_site_fract_x
 _atom_site_fract_y
 _atom_site_fract_z
 _atom_site_occupancy
  Tb  Tb0  1  0.996265  0.669675  0.249882  1
  Tb  Tb1  1  0.005773  0.331574  0.749967  1
  Tb  Tb2  1  0.668329  0.994190  0.250043  1
  Ho  Ho3  1  0.330156  0.003768  0.750184  1
  Al  Al4  1  0.125321  0.126176  0.249309  1
  Al  Al5  1  0.874168  0.874843  0.750690  1
  Al  Al6  1  0.995986  0.330589  0.074963  1
  Al  Al7  1  0.996595  0.665433  0.924772  1
  Al  Al8  1  0.999181  0.669594  0.577069  1
  Al  Al9  1  0.330805  0.001207  0.423494  1
  Al  Al10  1  0.000460  0.330884  0.423685  1
  Al  Al11  1  0.668751  0.999566  0.576547  1
  Al  Al12  1  0.669023  0.004014  0.924791  1
  Al  Al13  1  0.334920  0.003739  0.074671  1
  Al  Al14  1  0.330676  0.330241  0.555901  1
  Al  Al15  1  0.669481  0.669386  0.444438  1
  Al  Al16  1  0.670677  0.667456  0.052063  1
  Al  Al17  1  0.332572  0.329048  0.947603  1
  Al  Al18  1  0.340018  0.545163  0.249265  1
  Al  Al19  1  0.658872  0.451203  0.753315  1
  Al  Al20  1  0.548317  0.340724  0.246675  1
  Al  Al21  1  0.454730  0.660229  0.750735  1
  Pd  Pd22  1  0.327261  0.672790  0.999956  1
  Pd  Pd23  1  0.327410  0.672641  0.500049  1
  Pd  Pd24  1  0.672048  0.327885  0.500048  1
  Rh  Rh25  1  0.671828  0.327962  0.999873  1
  Rh  Rh26  1  0.000352  0.999846  0.999858  1
  Rh  Rh27  1  0.000028  0.000174  0.500155  1
