# generated using pymatgen
data_LaAg3(Pt2O7)2
_symmetry_space_group_name_H-M   'P 1'
_cell_length_a   7.32066168
_cell_length_b   7.26449261
_cell_length_c   7.26452800
_cell_angle_alpha   60.00002410
_cell_angle_beta   60.25384935
_cell_angle_gamma   60.25409360
_symmetry_Int_Tables_number   1
_chemical_formula_structural   LaAg3(Pt2O7)2
_chemical_formula_sum   'La1 Ag3 Pt4 O14'
_cell_volume   274.22348364
_cell_formula_units_Z   1
loop_
 _symmetry_equiv_pos_site_id
 _symmetry_equiv_pos_as_xyz
  1  'x, y, z'
loop_
 _atom_site_type_symbol
 _atom_site_label
 _atom_site_symmetry_multiplicity
 _atom_site_fract_x
 _atom_site_fract_y
 _atom_site_fract_z
 _atom_site_occupancy
  La  La0  1  0.625000  0.125000  0.125000  1
  Ag  Ag1  1  0.125000  0.125000  0.125000  1
  Ag  Ag2  1  0.125000  0.625000  0.125000  1
  Ag  Ag3  1  0.125000  0.125000  0.625000  1
  Pt  Pt4  1  0.625000  0.625000  0.125000  1
  Pt  Pt5  1  0.625000  0.625000  0.625000  1
  Pt  Pt6  1  0.625000  0.125000  0.625000  1
  Pt  Pt7  1  0.125000  0.625000  0.625000  1
  O  O8  1  0.705159  0.293386  0.293397  1
  O  O9  1  0.705172  0.708055  0.293392  1
  O  O10  1  0.295873  0.704862  0.294395  1
  O  O11  1  0.037852  0.987356  0.987404  1
  O  O12  1  0.705157  0.293396  0.708051  1
  O  O13  1  0.954114  0.545145  0.545130  1
  O  O14  1  0.295886  0.704855  0.704870  1
  O  O15  1  0.544843  0.956604  0.541949  1
  O  O16  1  0.212148  0.262644  0.262596  1
  O  O17  1  0.954127  0.545138  0.955605  1
  O  O18  1  0.544828  0.541945  0.956608  1
  O  O19  1  0.954116  0.955606  0.545135  1
  O  O20  1  0.544841  0.956614  0.956603  1
  O  O21  1  0.295884  0.294394  0.704865  1
