# generated using pymatgen
data_Lu2GaNiRu
_symmetry_space_group_name_H-M   'P 1'
_cell_length_a   4.08944826
_cell_length_b   5.33912991
_cell_length_c   5.33912994
_cell_angle_alpha   62.66041721
_cell_angle_beta   67.48225494
_cell_angle_gamma   67.48224969
_symmetry_Int_Tables_number   1
_chemical_formula_structural   Lu2GaNiRu
_chemical_formula_sum   'Lu2 Ga1 Ni1 Ru1'
_cell_volume   92.56252629
_cell_formula_units_Z   1
loop_
 _symmetry_equiv_pos_site_id
 _symmetry_equiv_pos_as_xyz
  1  'x, y, z'
loop_
 _atom_site_type_symbol
 _atom_site_label
 _atom_site_symmetry_multiplicity
 _atom_site_fract_x
 _atom_site_fract_y
 _atom_site_fract_z
 _atom_site_occupancy
  Lu  Lu0  1  0.202976  0.291843  0.302204  1
  Lu  Lu1  1  0.797024  0.697796  0.708157  1
  Ga  Ga2  1  0.000000  0.994793  0.005207  1
  Ni  Ni3  1  0.500000  0.738188  0.261812  1
  Ru  Ru4  1  0.500000  0.277380  0.722620  1
