# generated using pymatgen
data_CaTh7(Si3Rh)4
_symmetry_space_group_name_H-M   'P 1'
_cell_length_a   8.24884016
_cell_length_b   8.20344377
_cell_length_c   8.42814200
_cell_angle_alpha   90.00000000
_cell_angle_beta   90.00000000
_cell_angle_gamma   119.81811565
_symmetry_Int_Tables_number   1
_chemical_formula_structural   CaTh7(Si3Rh)4
_chemical_formula_sum   'Ca1 Th7 Si12 Rh4'
_cell_volume   494.81701470
_cell_formula_units_Z   1
loop_
 _symmetry_equiv_pos_site_id
 _symmetry_equiv_pos_as_xyz
  1  'x, y, z'
loop_
 _atom_site_type_symbol
 _atom_site_label
 _atom_site_symmetry_multiplicity
 _atom_site_fract_x
 _atom_site_fract_y
 _atom_site_fract_z
 _atom_site_occupancy
  Ca  Ca0  1  0.000323  0.500161  0.750000  1
  Th  Th1  1  0.999982  0.999991  0.250000  1
  Th  Th2  1  0.000017  0.000008  0.750000  1
  Th  Th3  1  0.499944  0.499913  0.250000  1
  Th  Th4  1  0.499944  0.000031  0.250000  1
  Th  Th5  1  0.000011  0.500006  0.250000  1
  Th  Th6  1  0.500000  0.499845  0.750000  1
  Th  Th7  1  0.500000  0.000154  0.750000  1
  Si  Si8  1  0.165651  0.831362  0.498679  1
  Si  Si9  1  0.165651  0.334289  0.498679  1
  Si  Si10  1  0.671626  0.835813  0.498257  1
  Si  Si11  1  0.834333  0.168625  0.498636  1
  Si  Si12  1  0.834333  0.665708  0.498636  1
  Si  Si13  1  0.328313  0.164156  0.498194  1
  Si  Si14  1  0.834333  0.168625  0.001364  1
  Si  Si15  1  0.834333  0.665708  0.001364  1
  Si  Si16  1  0.328313  0.164156  0.001806  1
  Si  Si17  1  0.165651  0.831362  0.001321  1
  Si  Si18  1  0.165651  0.334289  0.001321  1
  Si  Si19  1  0.671626  0.835813  0.001743  1
  Rh  Rh20  1  0.339816  0.669909  0.501350  1
  Rh  Rh21  1  0.660169  0.330083  0.501354  1
  Rh  Rh22  1  0.660169  0.330083  0.998646  1
  Rh  Rh23  1  0.339816  0.669909  0.998650  1
