# generated using pymatgen
data_Tm3LuSc4In3Co
_symmetry_space_group_name_H-M   'P 1'
_cell_length_a   9.87786400
_cell_length_b   9.87786300
_cell_length_c   6.83364100
_cell_angle_alpha   90.00000000
_cell_angle_beta   90.00000000
_cell_angle_gamma   120.00000336
_symmetry_Int_Tables_number   1
_chemical_formula_structural   Tm3LuSc4In3Co
_chemical_formula_sum   'Tm6 Lu2 Sc8 In6 Co2'
_cell_volume   577.44259637
_cell_formula_units_Z   2
loop_
 _symmetry_equiv_pos_site_id
 _symmetry_equiv_pos_as_xyz
  1  'x, y, z'
loop_
 _atom_site_type_symbol
 _atom_site_label
 _atom_site_symmetry_multiplicity
 _atom_site_fract_x
 _atom_site_fract_y
 _atom_site_fract_z
 _atom_site_occupancy
  Tm  Tm0  1  0.533542  0.067084  0.518778  1
  Tm  Tm1  1  0.932916  0.466458  0.518778  1
  Tm  Tm2  1  0.533542  0.466458  0.518778  1
  Tm  Tm3  1  0.466458  0.932916  0.018778  1
  Tm  Tm4  1  0.067084  0.533542  0.018778  1
  Tm  Tm5  1  0.466458  0.533542  0.018778  1
  Lu  Lu6  1  0.000000  0.000000  0.511684  1
  Lu  Lu7  1  0.000000  0.000000  0.011684  1
  Sc  Sc8  1  0.179618  0.359237  0.726461  1
  Sc  Sc9  1  0.640763  0.820382  0.726461  1
  Sc  Sc10  1  0.179618  0.820382  0.726461  1
  Sc  Sc11  1  0.820382  0.640763  0.226461  1
  Sc  Sc12  1  0.359237  0.179618  0.226461  1
  Sc  Sc13  1  0.820382  0.179618  0.226461  1
  Sc  Sc14  1  0.666667  0.333333  0.917665  1
  Sc  Sc15  1  0.333333  0.666667  0.417665  1
  In  In16  1  0.837100  0.674199  0.776656  1
  In  In17  1  0.325801  0.162900  0.776656  1
  In  In18  1  0.837100  0.162900  0.776656  1
  In  In19  1  0.162900  0.325801  0.276656  1
  In  In20  1  0.674199  0.837100  0.276656  1
  In  In21  1  0.162900  0.837100  0.276656  1
  Co  Co22  1  0.666667  0.333333  0.282804  1
  Co  Co23  1  0.333333  0.666667  0.782804  1
