# generated using pymatgen
data_Sc2Ga10Os3
_symmetry_space_group_name_H-M   'P 1'
_cell_length_a   8.90304500
_cell_length_b   8.90304500
_cell_length_c   6.19266500
_cell_angle_alpha   90.00000000
_cell_angle_beta   90.00000000
_cell_angle_gamma   90.00000000
_symmetry_Int_Tables_number   1
_chemical_formula_structural   Sc2Ga10Os3
_chemical_formula_sum   'Sc4 Ga20 Os6'
_cell_volume   490.85670070
_cell_formula_units_Z   2
loop_
 _symmetry_equiv_pos_site_id
 _symmetry_equiv_pos_as_xyz
  1  'x, y, z'
loop_
 _atom_site_type_symbol
 _atom_site_label
 _atom_site_symmetry_multiplicity
 _atom_site_fract_x
 _atom_site_fract_y
 _atom_site_fract_z
 _atom_site_occupancy
  Sc  Sc0  1  0.682779  0.182779  0.000000  1
  Sc  Sc1  1  0.317221  0.817221  0.000000  1
  Sc  Sc2  1  0.817221  0.682779  0.000000  1
  Sc  Sc3  1  0.182779  0.317221  0.000000  1
  Ga  Ga4  1  0.937718  0.208103  0.286557  1
  Ga  Ga5  1  0.708103  0.437718  0.286557  1
  Ga  Ga6  1  0.500000  0.000000  0.271526  1
  Ga  Ga7  1  0.562282  0.708103  0.713443  1
  Ga  Ga8  1  0.291897  0.562282  0.713443  1
  Ga  Ga9  1  0.791897  0.937718  0.286557  1
  Ga  Ga10  1  0.937718  0.208103  0.713443  1
  Ga  Ga11  1  0.291897  0.562282  0.286557  1
  Ga  Ga12  1  0.062282  0.791897  0.286557  1
  Ga  Ga13  1  0.708103  0.437718  0.713443  1
  Ga  Ga14  1  0.437718  0.291897  0.713443  1
  Ga  Ga15  1  0.062282  0.791897  0.713443  1
  Ga  Ga16  1  0.208103  0.062282  0.713443  1
  Ga  Ga17  1  0.791897  0.937718  0.713443  1
  Ga  Ga18  1  0.208103  0.062282  0.286557  1
  Ga  Ga19  1  0.000000  0.500000  0.728474  1
  Ga  Ga20  1  0.000000  0.500000  0.271526  1
  Ga  Ga21  1  0.562282  0.708103  0.286557  1
  Ga  Ga22  1  0.437718  0.291897  0.286557  1
  Ga  Ga23  1  0.500000  0.000000  0.728474  1
  Os  Os24  1  0.677508  0.177508  0.500000  1
  Os  Os25  1  0.822492  0.677508  0.500000  1
  Os  Os26  1  0.177508  0.322492  0.500000  1
  Os  Os27  1  0.000000  0.000000  0.000000  1
  Os  Os28  1  0.322492  0.822492  0.500000  1
  Os  Os29  1  0.500000  0.500000  0.000000  1
