# generated using pymatgen
data_NdDy5Co2(P3Rh4)4
_symmetry_space_group_name_H-M   'P 1'
_cell_length_a   3.87911700
_cell_length_b   11.15291800
_cell_length_c   12.82191000
_cell_angle_alpha   90.00000000
_cell_angle_beta   90.00000000
_cell_angle_gamma   90.00000000
_symmetry_Int_Tables_number   1
_chemical_formula_structural   NdDy5Co2(P3Rh4)4
_chemical_formula_sum   'Nd1 Dy5 Co2 P12 Rh16'
_cell_volume   554.72036752
_cell_formula_units_Z   1
loop_
 _symmetry_equiv_pos_site_id
 _symmetry_equiv_pos_as_xyz
  1  'x, y, z'
loop_
 _atom_site_type_symbol
 _atom_site_label
 _atom_site_symmetry_multiplicity
 _atom_site_fract_x
 _atom_site_fract_y
 _atom_site_fract_z
 _atom_site_occupancy
  Nd  Nd0  1  0.000000  0.500000  0.522443  1
  Dy  Dy1  1  0.500000  0.000000  0.477967  1
  Dy  Dy2  1  0.500000  0.815212  0.201822  1
  Dy  Dy3  1  0.500000  0.184788  0.201822  1
  Dy  Dy4  1  0.000000  0.685513  0.798463  1
  Dy  Dy5  1  0.000000  0.314487  0.798463  1
  Co  Co6  1  0.000000  0.500000  0.979651  1
  Co  Co7  1  0.500000  0.000000  0.020856  1
  P  P8  1  0.500000  0.500000  0.882580  1
  P  P9  1  0.000000  0.000000  0.118672  1
  P  P10  1  0.500000  0.500000  0.348410  1
  P  P11  1  0.000000  0.000000  0.648289  1
  P  P12  1  0.500000  0.313899  0.620496  1
  P  P13  1  0.500000  0.686101  0.620496  1
  P  P14  1  0.000000  0.184102  0.380467  1
  P  P15  1  0.000000  0.815898  0.380467  1
  P  P16  1  0.500000  0.853577  0.896329  1
  P  P17  1  0.500000  0.146423  0.896329  1
  P  P18  1  0.000000  0.646848  0.103617  1
  P  P19  1  0.000000  0.353152  0.103617  1
  Rh  Rh20  1  0.500000  0.500000  0.167192  1
  Rh  Rh21  1  0.000000  0.000000  0.831213  1
  Rh  Rh22  1  0.500000  0.500000  0.705918  1
  Rh  Rh23  1  0.000000  0.000000  0.296766  1
  Rh  Rh24  1  0.500000  0.336354  0.993970  1
  Rh  Rh25  1  0.500000  0.663646  0.993970  1
  Rh  Rh26  1  0.000000  0.163122  0.005921  1
  Rh  Rh27  1  0.000000  0.836878  0.005921  1
  Rh  Rh28  1  0.500000  0.291143  0.429390  1
  Rh  Rh29  1  0.500000  0.708857  0.429390  1
  Rh  Rh30  1  0.000000  0.204678  0.570096  1
  Rh  Rh31  1  0.000000  0.795322  0.570096  1
  Rh  Rh32  1  0.500000  0.873747  0.712660  1
  Rh  Rh33  1  0.500000  0.126253  0.712660  1
  Rh  Rh34  1  0.000000  0.626928  0.286790  1
  Rh  Rh35  1  0.000000  0.373072  0.286790  1
