# generated using pymatgen
data_ZnMo12Pt7N4
_symmetry_space_group_name_H-M   'P 1'
_cell_length_a   6.89550188
_cell_length_b   6.89550188
_cell_length_c   6.89550188
_cell_angle_alpha   89.92594154
_cell_angle_beta   89.92594154
_cell_angle_gamma   89.92594154
_symmetry_Int_Tables_number   1
_chemical_formula_structural   ZnMo12Pt7N4
_chemical_formula_sum   'Zn1 Mo12 Pt7 N4'
_cell_volume   327.86613105
_cell_formula_units_Z   1
loop_
 _symmetry_equiv_pos_site_id
 _symmetry_equiv_pos_as_xyz
  1  'x, y, z'
loop_
 _atom_site_type_symbol
 _atom_site_label
 _atom_site_symmetry_multiplicity
 _atom_site_fract_x
 _atom_site_fract_y
 _atom_site_fract_z
 _atom_site_occupancy
  Zn  Zn0  1  0.188670  0.188670  0.188670  1
  Mo  Mo1  1  0.621452  0.703548  0.950713  1
  Mo  Mo2  1  0.459704  0.872212  0.304923  1
  Mo  Mo3  1  0.703548  0.950713  0.621452  1
  Mo  Mo4  1  0.549495  0.373733  0.201622  1
  Mo  Mo5  1  0.373733  0.201622  0.549495  1
  Mo  Mo6  1  0.201622  0.549495  0.373733  1
  Mo  Mo7  1  0.872212  0.304923  0.459704  1
  Mo  Mo8  1  0.046345  0.121324  0.795213  1
  Mo  Mo9  1  0.304923  0.459704  0.872212  1
  Mo  Mo10  1  0.121324  0.795213  0.046345  1
  Mo  Mo11  1  0.795213  0.046345  0.121324  1
  Mo  Mo12  1  0.950713  0.621452  0.703548  1
  Pt  Pt13  1  0.306670  0.813059  0.688020  1
  Pt  Pt14  1  0.428713  0.062700  0.951122  1
  Pt  Pt15  1  0.813059  0.688020  0.306670  1
  Pt  Pt16  1  0.688020  0.306670  0.813059  1
  Pt  Pt17  1  0.558093  0.558093  0.558093  1
  Pt  Pt18  1  0.062700  0.951122  0.428713  1
  Pt  Pt19  1  0.951122  0.428713  0.062700  1
  N  N20  1  0.376290  0.626290  0.127017  1
  N  N21  1  0.873073  0.873073  0.873073  1
  N  N22  1  0.127017  0.376290  0.626290  1
  N  N23  1  0.626290  0.127017  0.376290  1
