# generated using pymatgen
data_Er6Al24AgOs6Rh
_symmetry_space_group_name_H-M   'P 1'
_cell_length_a   8.82870859
_cell_length_b   8.82870840
_cell_length_c   9.53350640
_cell_angle_alpha   89.93278907
_cell_angle_beta   90.06721120
_cell_angle_gamma   119.60167203
_symmetry_Int_Tables_number   1
_chemical_formula_structural   Er6Al24AgOs6Rh
_chemical_formula_sum   'Er6 Al24 Ag1 Os6 Rh1'
_cell_volume   646.11001257
_cell_formula_units_Z   1
loop_
 _symmetry_equiv_pos_site_id
 _symmetry_equiv_pos_as_xyz
  1  'x, y, z'
loop_
 _atom_site_type_symbol
 _atom_site_label
 _atom_site_symmetry_multiplicity
 _atom_site_fract_x
 _atom_site_fract_y
 _atom_site_fract_z
 _atom_site_occupancy
  Er  Er0  1  0.186157  0.387004  0.250265  1
  Er  Er1  1  0.813843  0.612996  0.749735  1
  Er  Er2  1  0.612996  0.813843  0.250265  1
  Er  Er3  1  0.387004  0.186157  0.749735  1
  Er  Er4  1  0.194763  0.805237  0.248023  1
  Er  Er5  1  0.805237  0.194763  0.751977  1
  Al  Al6  1  0.332878  0.667122  0.021438  1
  Al  Al7  1  0.667122  0.332878  0.978562  1
  Al  Al8  1  0.671250  0.328750  0.523493  1
  Al  Al9  1  0.328750  0.671250  0.476507  1
  Al  Al10  1  0.151845  0.321863  0.580251  1
  Al  Al11  1  0.848155  0.678137  0.419749  1
  Al  Al12  1  0.678137  0.848155  0.580251  1
  Al  Al13  1  0.839520  0.675629  0.075865  1
  Al  Al14  1  0.321863  0.151845  0.419749  1
  Al  Al15  1  0.160480  0.324371  0.924135  1
  Al  Al16  1  0.163765  0.836235  0.575678  1
  Al  Al17  1  0.324371  0.160480  0.075865  1
  Al  Al18  1  0.836235  0.163765  0.424322  1
  Al  Al19  1  0.675629  0.839520  0.924135  1
  Al  Al20  1  0.836129  0.163871  0.074311  1
  Al  Al21  1  0.163871  0.836129  0.925689  1
  Al  Al22  1  0.561320  0.123505  0.249872  1
  Al  Al23  1  0.438680  0.876495  0.750128  1
  Al  Al24  1  0.876495  0.438680  0.249872  1
  Al  Al25  1  0.123505  0.561320  0.750128  1
  Al  Al26  1  0.562077  0.437923  0.243737  1
  Al  Al27  1  0.437923  0.562077  0.756263  1
  Al  Al28  1  0.998592  0.001408  0.249575  1
  Al  Al29  1  0.001408  0.998592  0.750425  1
  Ag  Ag30  1  0.500000  0.500000  0.500000  1
  Os  Os31  1  0.500000  0.000000  0.000000  1
  Os  Os32  1  0.000000  0.500000  0.000000  1
  Os  Os33  1  0.500000  0.000000  0.500000  1
  Os  Os34  1  0.000000  0.500000  0.500000  1
  Os  Os35  1  0.000000  0.000000  0.000000  1
  Os  Os36  1  0.000000  0.000000  0.500000  1
  Rh  Rh37  1  0.500000  0.500000  0.000000  1
