# generated using pymatgen
data_Eu7LuO14
_symmetry_space_group_name_H-M   'P 1'
_cell_length_a   5.52227402
_cell_length_b   7.69811608
_cell_length_c   7.70785551
_cell_angle_alpha   90.00308082
_cell_angle_beta   90.12741983
_cell_angle_gamma   90.01872005
_symmetry_Int_Tables_number   1
_chemical_formula_structural   Eu7LuO14
_chemical_formula_sum   'Eu7 Lu1 O14'
_cell_volume   327.66863803
_cell_formula_units_Z   1
loop_
 _symmetry_equiv_pos_site_id
 _symmetry_equiv_pos_as_xyz
  1  'x, y, z'
loop_
 _atom_site_type_symbol
 _atom_site_label
 _atom_site_symmetry_multiplicity
 _atom_site_fract_x
 _atom_site_fract_y
 _atom_site_fract_z
 _atom_site_occupancy
  Eu  Eu0  1  0.534027  0.485460  0.253125  1
  Eu  Eu1  1  0.966952  0.750073  0.987743  1
  Eu  Eu2  1  0.467587  0.989864  0.746972  1
  Eu  Eu3  1  0.534076  0.014729  0.253099  1
  Eu  Eu4  1  0.030084  0.250005  0.011581  1
  Eu  Eu5  1  0.467537  0.509949  0.746915  1
  Eu  Eu6  1  0.970513  0.750075  0.512699  1
  Lu  Lu7  1  0.039589  0.250023  0.481799  1
  O  O8  1  0.237916  0.250018  0.743130  1
  O  O9  1  0.748896  0.749988  0.252180  1
  O  O10  1  0.796381  0.249930  0.253496  1
  O  O11  1  0.285527  0.250127  0.257424  1
  O  O12  1  0.210614  0.750066  0.750311  1
  O  O13  1  0.708392  0.749835  0.746307  1
  O  O14  1  0.749270  0.026947  0.973062  1
  O  O15  1  0.756516  0.035775  0.528564  1
  O  O16  1  0.756225  0.464025  0.528475  1
  O  O17  1  0.749100  0.473005  0.973048  1
  O  O18  1  0.250240  0.525245  0.027061  1
  O  O19  1  0.244987  0.521110  0.473007  1
  O  O20  1  0.250396  0.974842  0.027015  1
  O  O21  1  0.245174  0.978908  0.472982  1
