# generated using pymatgen
data_Ce3Sm(Rh2Pb)2
_symmetry_space_group_name_H-M   'P 1'
_cell_length_a   7.80014904
_cell_length_b   7.80014823
_cell_length_c   3.71480100
_cell_angle_alpha   90.00000000
_cell_angle_beta   90.00000000
_cell_angle_gamma   88.37537141
_symmetry_Int_Tables_number   1
_chemical_formula_structural   Ce3Sm(Rh2Pb)2
_chemical_formula_sum   'Ce3 Sm1 Rh4 Pb2'
_cell_volume   225.92625249
_cell_formula_units_Z   1
loop_
 _symmetry_equiv_pos_site_id
 _symmetry_equiv_pos_as_xyz
  1  'x, y, z'
loop_
 _atom_site_type_symbol
 _atom_site_label
 _atom_site_symmetry_multiplicity
 _atom_site_fract_x
 _atom_site_fract_y
 _atom_site_fract_z
 _atom_site_occupancy
  Ce  Ce0  1  0.329226  0.829226  0.500000  1
  Ce  Ce1  1  0.167966  0.326614  0.500000  1
  Ce  Ce2  1  0.826614  0.667966  0.500000  1
  Sm  Sm3  1  0.669930  0.169930  0.500000  1
  Rh  Rh4  1  0.142664  0.642664  0.000000  1
  Rh  Rh5  1  0.885183  0.385183  0.000000  1
  Rh  Rh6  1  0.629108  0.856627  0.000000  1
  Rh  Rh7  1  0.356627  0.129108  0.000000  1
  Pb  Pb8  1  0.994459  0.998222  0.000000  1
  Pb  Pb9  1  0.498222  0.494459  0.000000  1
