# generated using pymatgen
data_La2Be2Co7NiP6
_symmetry_space_group_name_H-M   'P 1'
_cell_length_a   6.00595364
_cell_length_b   6.00595403
_cell_length_c   11.27471885
_cell_angle_alpha   90.47080548
_cell_angle_beta   89.52919439
_cell_angle_gamma   144.79717540
_symmetry_Int_Tables_number   1
_chemical_formula_structural   La2Be2Co7NiP6
_chemical_formula_sum   'La2 Be2 Co7 Ni1 P6'
_cell_volume   234.44028040
_cell_formula_units_Z   1
loop_
 _symmetry_equiv_pos_site_id
 _symmetry_equiv_pos_as_xyz
  1  'x, y, z'
loop_
 _atom_site_type_symbol
 _atom_site_label
 _atom_site_symmetry_multiplicity
 _atom_site_fract_x
 _atom_site_fract_y
 _atom_site_fract_z
 _atom_site_occupancy
  La  La0  1  0.328256  0.671744  0.249637  1
  La  La1  1  0.669448  0.330552  0.750512  1
  Be  Be2  1  0.499706  0.500294  0.499294  1
  Be  Be3  1  0.500593  0.499407  0.006601  1
  Co  Co4  1  0.045983  0.954017  0.139193  1
  Co  Co5  1  0.047005  0.952995  0.361264  1
  Co  Co6  1  0.687298  0.312702  0.439797  1
  Co  Co7  1  0.311588  0.688412  0.557518  1
  Co  Co8  1  0.316690  0.683310  0.940520  1
  Co  Co9  1  0.688522  0.311478  0.060147  1
  Co  Co10  1  0.950507  0.049493  0.638876  1
  Ni  Ni11  1  0.956001  0.043999  0.858648  1
  P  P12  1  0.604357  0.395643  0.250341  1
  P  P13  1  0.390493  0.609507  0.745960  1
  P  P14  1  0.121828  0.878172  0.540252  1
  P  P15  1  0.876961  0.123039  0.458492  1
  P  P16  1  0.878413  0.121587  0.041117  1
  P  P17  1  0.126350  0.873650  0.961831  1
