# generated using pymatgen
data_NdTm3Ir3RhO14
_symmetry_space_group_name_H-M   'P 1'
_cell_length_a   7.27443214
_cell_length_b   7.20139193
_cell_length_c   7.20139101
_cell_angle_alpha   59.89596578
_cell_angle_beta   60.30953807
_cell_angle_gamma   60.30953521
_symmetry_Int_Tables_number   1
_chemical_formula_structural   NdTm3Ir3RhO14
_chemical_formula_sum   'Nd1 Tm3 Ir3 Rh1 O14'
_cell_volume   267.78565625
_cell_formula_units_Z   1
loop_
 _symmetry_equiv_pos_site_id
 _symmetry_equiv_pos_as_xyz
  1  'x, y, z'
loop_
 _atom_site_type_symbol
 _atom_site_label
 _atom_site_symmetry_multiplicity
 _atom_site_fract_x
 _atom_site_fract_y
 _atom_site_fract_z
 _atom_site_occupancy
  Nd  Nd0  1  0.625000  0.125000  0.125000  1
  Tm  Tm1  1  0.125000  0.625000  0.125000  1
  Tm  Tm2  1  0.125000  0.125000  0.625000  1
  Tm  Tm3  1  0.125000  0.125000  0.125000  1
  Ir  Ir4  1  0.125000  0.625000  0.625000  1
  Ir  Ir5  1  0.625000  0.125000  0.625000  1
  Ir  Ir6  1  0.625000  0.625000  0.125000  1
  Rh  Rh7  1  0.625000  0.625000  0.625000  1
  O  O8  1  0.725048  0.702606  0.283585  1
  O  O9  1  0.287362  0.288713  0.714037  1
  O  O10  1  0.725048  0.283585  0.702606  1
  O  O11  1  0.287362  0.714037  0.288713  1
  O  O12  1  0.283565  0.713695  0.713695  1
  O  O13  1  0.724406  0.288901  0.288901  1
  O  O14  1  0.524952  0.547394  0.966415  1
  O  O15  1  0.962638  0.961287  0.535963  1
  O  O16  1  0.524952  0.966415  0.547394  1
  O  O17  1  0.962638  0.535963  0.961287  1
  O  O18  1  0.966435  0.536305  0.536305  1
  O  O19  1  0.525594  0.961099  0.961099  1
  O  O20  1  0.236730  0.253709  0.253709  1
  O  O21  1  0.013270  0.996291  0.996291  1
