# generated using pymatgen
data_HoTm3(Si5Ru3)2
_symmetry_space_group_name_H-M   'P 1'
_cell_length_a   8.20089934
_cell_length_b   8.24390431
_cell_length_c   8.24390408
_cell_angle_alpha   140.37350145
_cell_angle_beta   108.66828869
_cell_angle_gamma   84.88805119
_symmetry_Int_Tables_number   1
_chemical_formula_structural   HoTm3(Si5Ru3)2
_chemical_formula_sum   'Ho1 Tm3 Si10 Ru6'
_cell_volume   325.13183889
_cell_formula_units_Z   1
loop_
 _symmetry_equiv_pos_site_id
 _symmetry_equiv_pos_as_xyz
  1  'x, y, z'
loop_
 _atom_site_type_symbol
 _atom_site_label
 _atom_site_symmetry_multiplicity
 _atom_site_fract_x
 _atom_site_fract_y
 _atom_site_fract_z
 _atom_site_occupancy
  Ho  Ho0  1  0.909087  0.138417  0.770670  1
  Tm  Tm1  1  0.090287  0.861042  0.229245  1
  Tm  Tm2  1  0.631477  0.365841  0.265637  1
  Tm  Tm3  1  0.369041  0.634598  0.734442  1
  Si  Si4  1  0.000544  0.750857  0.751374  1
  Si  Si5  1  0.000544  0.249170  0.249687  1
  Si  Si6  1  0.711881  0.469402  0.767628  1
  Si  Si7  1  0.287959  0.055836  0.757150  1
  Si  Si8  1  0.287959  0.530810  0.232123  1
  Si  Si9  1  0.711881  0.944252  0.242478  1
  Si  Si10  1  0.228763  0.402352  0.826411  1
  Si  Si11  1  0.575284  0.907913  0.667371  1
  Si  Si12  1  0.423938  0.091523  0.332415  1
  Si  Si13  1  0.770903  0.597755  0.173148  1
  Ru  Ru14  1  0.757527  0.855531  0.901997  1
  Ru  Ru15  1  0.499673  0.251114  0.750997  1
  Ru  Ru16  1  0.936442  0.350505  0.585936  1
  Ru  Ru17  1  0.063963  0.649752  0.414212  1
  Ru  Ru18  1  0.243175  0.144654  0.098519  1
  Ru  Ru19  1  0.499673  0.748676  0.248559  1
