# generated using pymatgen
data_Ce2Dy2YFeBi2
_symmetry_space_group_name_H-M   'P 1'
_cell_length_a   7.96087700
_cell_length_b   9.06611700
_cell_length_c   12.25349500
_cell_angle_alpha   90.00000000
_cell_angle_beta   90.00000000
_cell_angle_gamma   90.00000000
_symmetry_Int_Tables_number   1
_chemical_formula_structural   Ce2Dy2YFeBi2
_chemical_formula_sum   'Ce8 Dy8 Y4 Fe4 Bi8'
_cell_volume   884.38671721
_cell_formula_units_Z   4
loop_
 _symmetry_equiv_pos_site_id
 _symmetry_equiv_pos_as_xyz
  1  'x, y, z'
loop_
 _atom_site_type_symbol
 _atom_site_label
 _atom_site_symmetry_multiplicity
 _atom_site_fract_x
 _atom_site_fract_y
 _atom_site_fract_z
 _atom_site_occupancy
  Ce  Ce0  1  0.656766  0.007584  0.551542  1
  Ce  Ce1  1  0.343234  0.992416  0.448458  1
  Ce  Ce2  1  0.156766  0.992416  0.948458  1
  Ce  Ce3  1  0.343234  0.507584  0.448458  1
  Ce  Ce4  1  0.843234  0.007584  0.051542  1
  Ce  Ce5  1  0.656766  0.492416  0.551542  1
  Ce  Ce6  1  0.843234  0.492416  0.051542  1
  Ce  Ce7  1  0.156766  0.507584  0.948458  1
  Dy  Dy8  1  0.368276  0.750000  0.702117  1
  Dy  Dy9  1  0.631724  0.250000  0.297883  1
  Dy  Dy10  1  0.868276  0.250000  0.797883  1
  Dy  Dy11  1  0.131724  0.750000  0.202117  1
  Dy  Dy12  1  0.977324  0.750000  0.500063  1
  Dy  Dy13  1  0.022676  0.250000  0.499937  1
  Dy  Dy14  1  0.477324  0.250000  0.999937  1
  Dy  Dy15  1  0.522676  0.750000  0.000063  1
  Y  Y16  1  0.834721  0.750000  0.789911  1
  Y  Y17  1  0.165279  0.250000  0.210089  1
  Y  Y18  1  0.334721  0.250000  0.710089  1
  Y  Y19  1  0.665279  0.750000  0.289911  1
  Fe  Fe20  1  0.629205  0.750000  0.538519  1
  Fe  Fe21  1  0.370795  0.250000  0.461481  1
  Fe  Fe22  1  0.129205  0.250000  0.961481  1
  Fe  Fe23  1  0.870795  0.750000  0.038519  1
  Bi  Bi24  1  0.566963  0.493281  0.825646  1
  Bi  Bi25  1  0.433037  0.506719  0.174354  1
  Bi  Bi26  1  0.066963  0.506719  0.674354  1
  Bi  Bi27  1  0.433037  0.993281  0.174354  1
  Bi  Bi28  1  0.933037  0.493281  0.325646  1
  Bi  Bi29  1  0.566963  0.006719  0.825646  1
  Bi  Bi30  1  0.933037  0.006719  0.325646  1
  Bi  Bi31  1  0.066963  0.993281  0.674354  1
