# generated using pymatgen
data_Y12Co4SnPd
_symmetry_space_group_name_H-M   'P 1'
_cell_length_a   8.36196692
_cell_length_b   8.36196761
_cell_length_c   8.36196752
_cell_angle_alpha   110.86843832
_cell_angle_beta   110.46270197
_cell_angle_gamma   107.10832600
_symmetry_Int_Tables_number   1
_chemical_formula_structural   Y12Co4SnPd
_chemical_formula_sum   'Y12 Co4 Sn1 Pd1'
_cell_volume   449.51720601
_cell_formula_units_Z   1
loop_
 _symmetry_equiv_pos_site_id
 _symmetry_equiv_pos_as_xyz
  1  'x, y, z'
loop_
 _atom_site_type_symbol
 _atom_site_label
 _atom_site_symmetry_multiplicity
 _atom_site_fract_x
 _atom_site_fract_y
 _atom_site_fract_z
 _atom_site_occupancy
  Y  Y0  1  0.414516  0.214037  0.200479  1
  Y  Y1  1  0.585484  0.785963  0.799521  1
  Y  Y2  1  0.013559  0.214037  0.799521  1
  Y  Y3  1  0.986441  0.785963  0.200479  1
  Y  Y4  1  0.186921  0.292769  0.479691  1
  Y  Y5  1  0.813079  0.707231  0.520309  1
  Y  Y6  1  0.186921  0.707231  0.894152  1
  Y  Y7  1  0.813079  0.292769  0.105848  1
  Y  Y8  1  0.313781  0.617737  0.303956  1
  Y  Y9  1  0.686219  0.382263  0.696044  1
  Y  Y10  1  0.313781  0.009825  0.696044  1
  Y  Y11  1  0.686219  0.990175  0.303956  1
  Co  Co12  1  0.380455  0.000000  0.380455  1
  Co  Co13  1  0.619545  0.000000  0.619545  1
  Co  Co14  1  0.111077  0.611077  0.500000  1
  Co  Co15  1  0.888923  0.388923  0.500000  1
  Sn  Sn16  1  0.500000  0.500000  0.000000  1
  Pd  Pd17  1  0.000000  0.000000  0.000000  1
