# generated using pymatgen
data_Ho3Cu4Si3Ge
_symmetry_space_group_name_H-M   'P 1'
_cell_length_a   7.85994156
_cell_length_b   7.85994191
_cell_length_c   7.85994213
_cell_angle_alpha   149.47498281
_cell_angle_beta   130.70433614
_cell_angle_gamma   59.09853218
_symmetry_Int_Tables_number   1
_chemical_formula_structural   Ho3Cu4Si3Ge
_chemical_formula_sum   'Ho3 Cu4 Si3 Ge1'
_cell_volume   185.49644547
_cell_formula_units_Z   1
loop_
 _symmetry_equiv_pos_site_id
 _symmetry_equiv_pos_as_xyz
  1  'x, y, z'
loop_
 _atom_site_type_symbol
 _atom_site_label
 _atom_site_symmetry_multiplicity
 _atom_site_fract_x
 _atom_site_fract_y
 _atom_site_fract_z
 _atom_site_occupancy
  Ho  Ho0  1  0.871860  0.370406  0.501454  1
  Ho  Ho1  1  0.131048  0.629594  0.501454  1
  Ho  Ho2  1  0.497956  0.500000  0.997956  1
  Cu  Cu3  1  0.517795  0.827811  0.689983  1
  Cu  Cu4  1  0.862173  0.172189  0.689983  1
  Cu  Cu5  1  0.140389  0.831183  0.309207  1
  Cu  Cu6  1  0.478024  0.168817  0.309207  1
  Si  Si7  1  0.189056  0.000000  0.189056  1
  Si  Si8  1  0.283981  0.284013  0.999968  1
  Si  Si9  1  0.715956  0.715987  0.999968  1
  Ge  Ge10  1  0.811763  0.000000  0.811763  1
