# generated using pymatgen
data_CaYb3Ni13C4
_symmetry_space_group_name_H-M   'P 1'
_cell_length_a   8.31224200
_cell_length_b   8.31224205
_cell_length_c   3.85254100
_cell_angle_alpha   90.00000000
_cell_angle_beta   90.00000000
_cell_angle_gamma   90.53476888
_symmetry_Int_Tables_number   1
_chemical_formula_structural   CaYb3Ni13C4
_chemical_formula_sum   'Ca1 Yb3 Ni13 C4'
_cell_volume   266.17343703
_cell_formula_units_Z   1
loop_
 _symmetry_equiv_pos_site_id
 _symmetry_equiv_pos_as_xyz
  1  'x, y, z'
loop_
 _atom_site_type_symbol
 _atom_site_label
 _atom_site_symmetry_multiplicity
 _atom_site_fract_x
 _atom_site_fract_y
 _atom_site_fract_z
 _atom_site_occupancy
  Ca  Ca0  1  0.350411  0.350411  0.500000  1
  Yb  Yb1  1  0.808507  0.191648  0.500000  1
  Yb  Yb2  1  0.191648  0.808507  0.500000  1
  Yb  Yb3  1  0.652491  0.652491  0.500000  1
  Ni  Ni4  1  0.998501  0.998501  0.000000  1
  Ni  Ni5  1  0.215626  0.575382  0.000000  1
  Ni  Ni6  1  0.785215  0.428491  0.000000  1
  Ni  Ni7  1  0.428491  0.785215  0.000000  1
  Ni  Ni8  1  0.575382  0.215626  0.000000  1
  Ni  Ni9  1  0.995806  0.503650  0.500000  1
  Ni  Ni10  1  0.503650  0.995806  0.500000  1
  Ni  Ni11  1  0.069002  0.287527  0.000000  1
  Ni  Ni12  1  0.927692  0.710640  0.000000  1
  Ni  Ni13  1  0.710640  0.927692  0.000000  1
  Ni  Ni14  1  0.287527  0.069002  0.000000  1
  Ni  Ni15  1  0.117306  0.117306  0.500000  1
  Ni  Ni16  1  0.878400  0.878400  0.500000  1
  C  C17  1  0.001513  0.499708  0.000000  1
  C  C18  1  0.499708  0.001513  0.000000  1
  C  C19  1  0.444350  0.558136  0.000000  1
  C  C20  1  0.558136  0.444350  0.000000  1
