# generated using pymatgen
data_Nb2RuSe6
_symmetry_space_group_name_H-M   'P 1'
_cell_length_a   5.88645106
_cell_length_b   5.88645112
_cell_length_c   7.49208733
_cell_angle_alpha   82.46987489
_cell_angle_beta   82.46987655
_cell_angle_gamma   119.99534217
_symmetry_Int_Tables_number   1
_chemical_formula_structural   Nb2RuSe6
_chemical_formula_sum   'Nb2 Ru1 Se6'
_cell_volume   216.97487323
_cell_formula_units_Z   1
loop_
 _symmetry_equiv_pos_site_id
 _symmetry_equiv_pos_as_xyz
  1  'x, y, z'
loop_
 _atom_site_type_symbol
 _atom_site_label
 _atom_site_symmetry_multiplicity
 _atom_site_fract_x
 _atom_site_fract_y
 _atom_site_fract_z
 _atom_site_occupancy
  Nb  Nb0  1  0.833335  0.499993  0.500015  1
  Nb  Nb1  1  0.499993  0.833335  0.500015  1
  Ru  Ru2  1  0.166631  0.166631  0.500060  1
  Se  Se3  1  0.567805  0.243700  0.269107  1
  Se  Se4  1  0.243700  0.567805  0.269107  1
  Se  Se5  1  0.919401  0.919401  0.269312  1
  Se  Se6  1  0.765576  0.765576  0.730948  1
  Se  Se7  1  0.413839  0.089623  0.730867  1
  Se  Se8  1  0.089623  0.413839  0.730867  1
