# generated using pymatgen
data_Ta8Tc3Os4W
_symmetry_space_group_name_H-M   'P 1'
_cell_length_a   6.38229900
_cell_length_b   4.51813300
_cell_length_c   9.03710500
_cell_angle_alpha   90.00000000
_cell_angle_beta   90.00017853
_cell_angle_gamma   90.00000000
_symmetry_Int_Tables_number   1
_chemical_formula_structural   Ta8Tc3Os4W
_chemical_formula_sum   'Ta8 Tc3 Os4 W1'
_cell_volume   260.59464414
_cell_formula_units_Z   1
loop_
 _symmetry_equiv_pos_site_id
 _symmetry_equiv_pos_as_xyz
  1  'x, y, z'
loop_
 _atom_site_type_symbol
 _atom_site_label
 _atom_site_symmetry_multiplicity
 _atom_site_fract_x
 _atom_site_fract_y
 _atom_site_fract_z
 _atom_site_occupancy
  Ta  Ta0  1  0.500696  0.749999  0.125002  1
  Ta  Ta1  1  0.999300  0.749999  0.125001  1
  Ta  Ta2  1  0.499934  0.250000  0.374563  1
  Ta  Ta3  1  0.000074  0.250000  0.374563  1
  Ta  Ta4  1  0.999699  0.749999  0.625005  1
  Ta  Ta5  1  0.500293  0.749999  0.625003  1
  Ta  Ta6  1  0.000071  0.250000  0.875426  1
  Ta  Ta7  1  0.499931  0.250000  0.875425  1
  Tc  Tc8  1  0.249999  0.749999  0.375692  1
  Tc  Tc9  1  0.750002  0.250000  0.625001  1
  Tc  Tc10  1  0.249998  0.749999  0.874312  1
  Os  Os11  1  0.250002  0.250000  0.125004  1
  Os  Os12  1  0.749999  0.749999  0.377965  1
  Os  Os13  1  0.250001  0.250000  0.625006  1
  Os  Os14  1  0.749999  0.749999  0.872043  1
  W  W15  1  0.750002  0.250000  0.124990  1
