# generated using pymatgen
data_Cs10Mn4Sn4S17
_symmetry_space_group_name_H-M   'P 1'
_cell_length_a   10.69672384
_cell_length_b   10.69672482
_cell_length_c   10.69672591
_cell_angle_alpha   89.47945324
_cell_angle_beta   89.47944975
_cell_angle_gamma   89.47944911
_symmetry_Int_Tables_number   1
_chemical_formula_structural   Cs10Mn4Sn4S17
_chemical_formula_sum   'Cs10 Mn4 Sn4 S17'
_cell_volume   1223.76780565
_cell_formula_units_Z   1
loop_
 _symmetry_equiv_pos_site_id
 _symmetry_equiv_pos_as_xyz
  1  'x, y, z'
loop_
 _atom_site_type_symbol
 _atom_site_label
 _atom_site_symmetry_multiplicity
 _atom_site_fract_x
 _atom_site_fract_y
 _atom_site_fract_z
 _atom_site_occupancy
  Cs  Cs0  1  0.999705  0.999705  0.499089  1
  Cs  Cs1  1  0.499089  0.999705  0.999705  1
  Cs  Cs2  1  0.999705  0.499089  0.999705  1
  Cs  Cs3  1  0.496845  0.971080  0.496845  1
  Cs  Cs4  1  0.496845  0.496845  0.971080  1
  Cs  Cs5  1  0.971080  0.496845  0.496845  1
  Cs  Cs6  1  0.660106  0.327466  0.327466  1
  Cs  Cs7  1  0.327466  0.660106  0.327466  1
  Cs  Cs8  1  0.327466  0.327466  0.660106  1
  Cs  Cs9  1  0.674491  0.674491  0.674491  1
  Mn  Mn10  1  0.868438  0.129444  0.129444  1
  Mn  Mn11  1  0.129444  0.868438  0.129444  1
  Mn  Mn12  1  0.129444  0.129444  0.868438  1
  Mn  Mn13  1  0.870329  0.870329  0.870329  1
  Sn  Sn14  1  0.213180  0.213180  0.213180  1
  Sn  Sn15  1  0.217861  0.783160  0.783160  1
  Sn  Sn16  1  0.783160  0.783160  0.217861  1
  Sn  Sn17  1  0.783160  0.217861  0.783160  1
  S  S18  1  0.999086  0.999086  0.999086  1
  S  S19  1  0.340519  0.340519  0.340519  1
  S  S20  1  0.352746  0.656585  0.656585  1
  S  S21  1  0.656585  0.656585  0.352746  1
  S  S22  1  0.656585  0.352746  0.656585  1
  S  S23  1  0.260358  0.993524  0.260358  1
  S  S24  1  0.260358  0.260358  0.993524  1
  S  S25  1  0.993524  0.260358  0.260358  1
  S  S26  1  0.262348  0.002551  0.735996  1
  S  S27  1  0.262348  0.735996  0.002551  1
  S  S28  1  0.999024  0.737704  0.737704  1
  S  S29  1  0.735996  0.002551  0.262348  1
  S  S30  1  0.737704  0.737704  0.999024  1
  S  S31  1  0.002551  0.735996  0.262348  1
  S  S32  1  0.737704  0.999024  0.737704  1
  S  S33  1  0.735996  0.262348  0.002551  1
  S  S34  1  0.002551  0.262348  0.735996  1
