# generated using pymatgen
data_Tm3Mg(Ni4P3)2
_symmetry_space_group_name_H-M   'P 1'
_cell_length_a   3.76438000
_cell_length_b   10.60656300
_cell_length_c   12.29130700
_cell_angle_alpha   90.00000000
_cell_angle_beta   90.00000000
_cell_angle_gamma   90.00000000
_symmetry_Int_Tables_number   1
_chemical_formula_structural   Tm3Mg(Ni4P3)2
_chemical_formula_sum   'Tm6 Mg2 Ni16 P12'
_cell_volume   490.75665703
_cell_formula_units_Z   2
loop_
 _symmetry_equiv_pos_site_id
 _symmetry_equiv_pos_as_xyz
  1  'x, y, z'
loop_
 _atom_site_type_symbol
 _atom_site_label
 _atom_site_symmetry_multiplicity
 _atom_site_fract_x
 _atom_site_fract_y
 _atom_site_fract_z
 _atom_site_occupancy
  Tm  Tm0  1  0.000000  0.500000  0.526803  1
  Tm  Tm1  1  0.500000  0.000000  0.473197  1
  Tm  Tm2  1  0.500000  0.821526  0.205061  1
  Tm  Tm3  1  0.500000  0.178474  0.205061  1
  Tm  Tm4  1  0.000000  0.678474  0.794939  1
  Tm  Tm5  1  0.000000  0.321526  0.794939  1
  Mg  Mg6  1  0.500000  0.500000  0.156566  1
  Mg  Mg7  1  0.000000  0.000000  0.843434  1
  Ni  Ni8  1  0.500000  0.500000  0.702966  1
  Ni  Ni9  1  0.000000  0.000000  0.297034  1
  Ni  Ni10  1  0.000000  0.500000  0.988427  1
  Ni  Ni11  1  0.500000  0.000000  0.011573  1
  Ni  Ni12  1  0.500000  0.332715  0.996188  1
  Ni  Ni13  1  0.500000  0.667285  0.996188  1
  Ni  Ni14  1  0.000000  0.167285  0.003812  1
  Ni  Ni15  1  0.000000  0.832715  0.003812  1
  Ni  Ni16  1  0.500000  0.298367  0.432085  1
  Ni  Ni17  1  0.500000  0.701633  0.432085  1
  Ni  Ni18  1  0.000000  0.201633  0.567915  1
  Ni  Ni19  1  0.000000  0.798367  0.567915  1
  Ni  Ni20  1  0.500000  0.878693  0.707136  1
  Ni  Ni21  1  0.500000  0.121307  0.707136  1
  Ni  Ni22  1  0.000000  0.621307  0.292864  1
  Ni  Ni23  1  0.000000  0.378693  0.292864  1
  P  P24  1  0.500000  0.500000  0.880905  1
  P  P25  1  0.000000  0.000000  0.119095  1
  P  P26  1  0.500000  0.500000  0.360436  1
  P  P27  1  0.000000  0.000000  0.639564  1
  P  P28  1  0.500000  0.314950  0.616434  1
  P  P29  1  0.500000  0.685050  0.616434  1
  P  P30  1  0.000000  0.185050  0.383566  1
  P  P31  1  0.000000  0.814950  0.383566  1
  P  P32  1  0.500000  0.837736  0.891849  1
  P  P33  1  0.500000  0.162264  0.891849  1
  P  P34  1  0.000000  0.662264  0.108151  1
  P  P35  1  0.000000  0.337736  0.108151  1
