# generated using pymatgen
data_Zr5(In2Ir)2
_symmetry_space_group_name_H-M   'P 1'
_cell_length_a   3.42468200
_cell_length_b   7.68822000
_cell_length_c   17.63613600
_cell_angle_alpha   90.00000000
_cell_angle_beta   90.00000000
_cell_angle_gamma   90.00000000
_symmetry_Int_Tables_number   1
_chemical_formula_structural   Zr5(In2Ir)2
_chemical_formula_sum   'Zr10 In8 Ir4'
_cell_volume   464.35432252
_cell_formula_units_Z   2
loop_
 _symmetry_equiv_pos_site_id
 _symmetry_equiv_pos_as_xyz
  1  'x, y, z'
loop_
 _atom_site_type_symbol
 _atom_site_label
 _atom_site_symmetry_multiplicity
 _atom_site_fract_x
 _atom_site_fract_y
 _atom_site_fract_z
 _atom_site_occupancy
  Zr  Zr0  1  0.000000  0.137103  0.920135  1
  Zr  Zr1  1  0.000000  0.758307  0.777920  1
  Zr  Zr2  1  0.000000  0.637103  0.579865  1
  Zr  Zr3  1  0.000000  0.258307  0.722080  1
  Zr  Zr4  1  0.000000  0.362897  0.420135  1
  Zr  Zr5  1  0.000000  0.241693  0.222080  1
  Zr  Zr6  1  0.000000  0.000000  0.500000  1
  Zr  Zr7  1  0.000000  0.741693  0.277920  1
  Zr  Zr8  1  0.000000  0.500000  0.000000  1
  Zr  Zr9  1  0.000000  0.862897  0.079865  1
  In  In10  1  0.500000  0.799257  0.932894  1
  In  In11  1  0.500000  0.563563  0.149324  1
  In  In12  1  0.500000  0.436437  0.850676  1
  In  In13  1  0.500000  0.063563  0.350676  1
  In  In14  1  0.500000  0.299257  0.567106  1
  In  In15  1  0.500000  0.936437  0.649324  1
  In  In16  1  0.500000  0.700743  0.432894  1
  In  In17  1  0.500000  0.200743  0.067106  1
  Ir  Ir18  1  0.500000  0.548334  0.692569  1
  Ir  Ir19  1  0.500000  0.451666  0.307431  1
  Ir  Ir20  1  0.500000  0.048334  0.807431  1
  Ir  Ir21  1  0.500000  0.951666  0.192569  1
