# generated using pymatgen
data_Y10CuSiPb6
_symmetry_space_group_name_H-M   'P 1'
_cell_length_a   9.23102300
_cell_length_b   9.23102189
_cell_length_c   6.79060700
_cell_angle_alpha   90.00000000
_cell_angle_beta   90.00000000
_cell_angle_gamma   119.99999324
_symmetry_Int_Tables_number   1
_chemical_formula_structural   Y10CuSiPb6
_chemical_formula_sum   'Y10 Cu1 Si1 Pb6'
_cell_volume   501.11669499
_cell_formula_units_Z   1
loop_
 _symmetry_equiv_pos_site_id
 _symmetry_equiv_pos_as_xyz
  1  'x, y, z'
loop_
 _atom_site_type_symbol
 _atom_site_label
 _atom_site_symmetry_multiplicity
 _atom_site_fract_x
 _atom_site_fract_y
 _atom_site_fract_z
 _atom_site_occupancy
  Y  Y0  1  0.000000  0.751033  0.761803  1
  Y  Y1  1  0.333333  0.666667  0.500000  1
  Y  Y2  1  0.333333  0.666667  0.000000  1
  Y  Y3  1  0.751033  0.751033  0.238197  1
  Y  Y4  1  0.248967  0.248967  0.761803  1
  Y  Y5  1  0.000000  0.248967  0.238197  1
  Y  Y6  1  0.666667  0.333333  0.500000  1
  Y  Y7  1  0.248967  0.000000  0.238197  1
  Y  Y8  1  0.751033  0.000000  0.761803  1
  Y  Y9  1  0.666667  0.333333  0.000000  1
  Cu  Cu10  1  0.000000  0.000000  0.500000  1
  Si  Si11  1  0.000000  0.000000  0.000000  1
  Pb  Pb12  1  0.393887  0.000000  0.749994  1
  Pb  Pb13  1  0.393887  0.393887  0.250006  1
  Pb  Pb14  1  0.606113  0.606113  0.749994  1
  Pb  Pb15  1  0.000000  0.606113  0.250006  1
  Pb  Pb16  1  0.000000  0.393887  0.749994  1
  Pb  Pb17  1  0.606113  0.000000  0.250006  1
