# generated using pymatgen
data_Dy3Co6IrC2
_symmetry_space_group_name_H-M   'P 1'
_cell_length_a   5.07670800
_cell_length_b   5.07670878
_cell_length_c   14.13336500
_cell_angle_alpha   90.00000000
_cell_angle_beta   90.00000000
_cell_angle_gamma   119.99999490
_symmetry_Int_Tables_number   1
_chemical_formula_structural   Dy3Co6IrC2
_chemical_formula_sum   'Dy6 Co12 Ir2 C4'
_cell_volume   315.45736044
_cell_formula_units_Z   2
loop_
 _symmetry_equiv_pos_site_id
 _symmetry_equiv_pos_as_xyz
  1  'x, y, z'
loop_
 _atom_site_type_symbol
 _atom_site_label
 _atom_site_symmetry_multiplicity
 _atom_site_fract_x
 _atom_site_fract_y
 _atom_site_fract_z
 _atom_site_occupancy
  Dy  Dy0  1  0.333333  0.666667  0.467179  1
  Dy  Dy1  1  0.666667  0.333333  0.967179  1
  Dy  Dy2  1  0.666667  0.333333  0.532821  1
  Dy  Dy3  1  0.333333  0.666667  0.032821  1
  Dy  Dy4  1  0.666667  0.333333  0.750000  1
  Dy  Dy5  1  0.333333  0.666667  0.250000  1
  Co  Co6  1  0.835777  0.671554  0.342275  1
  Co  Co7  1  0.328446  0.164223  0.342275  1
  Co  Co8  1  0.835777  0.164223  0.157725  1
  Co  Co9  1  0.671554  0.835777  0.657725  1
  Co  Co10  1  0.164223  0.328446  0.657725  1
  Co  Co11  1  0.835777  0.671554  0.157725  1
  Co  Co12  1  0.328446  0.164223  0.157725  1
  Co  Co13  1  0.671554  0.835777  0.842275  1
  Co  Co14  1  0.164223  0.328446  0.842275  1
  Co  Co15  1  0.164223  0.835777  0.657725  1
  Co  Co16  1  0.164223  0.835777  0.842275  1
  Co  Co17  1  0.835777  0.164223  0.342275  1
  Ir  Ir18  1  0.000000  0.000000  0.000000  1
  Ir  Ir19  1  0.000000  0.000000  0.500000  1
  C  C20  1  0.666667  0.333333  0.250000  1
  C  C21  1  0.333333  0.666667  0.750000  1
  C  C22  1  0.000000  0.000000  0.750000  1
  C  C23  1  0.000000  0.000000  0.250000  1
