# generated using pymatgen
data_Zr4Al24CoPt8
_symmetry_space_group_name_H-M   'P 1'
_cell_length_a   7.45303620
_cell_length_b   7.44506024
_cell_length_c   12.93849161
_cell_angle_alpha   84.44306986
_cell_angle_beta   78.86061276
_cell_angle_gamma   60.06628312
_symmetry_Int_Tables_number   1
_chemical_formula_structural   Zr4Al24CoPt8
_chemical_formula_sum   'Zr4 Al24 Co1 Pt8'
_cell_volume   610.44315336
_cell_formula_units_Z   1
loop_
 _symmetry_equiv_pos_site_id
 _symmetry_equiv_pos_as_xyz
  1  'x, y, z'
loop_
 _atom_site_type_symbol
 _atom_site_label
 _atom_site_symmetry_multiplicity
 _atom_site_fract_x
 _atom_site_fract_y
 _atom_site_fract_z
 _atom_site_occupancy
  Zr  Zr0  1  0.395259  0.165108  0.812077  1
  Zr  Zr1  1  0.604741  0.834892  0.187923  1
  Zr  Zr2  1  0.729695  0.498471  0.811892  1
  Zr  Zr3  1  0.270305  0.501529  0.188108  1
  Al  Al4  1  0.689839  0.824292  0.945088  1
  Al  Al5  1  0.310161  0.175708  0.054912  1
  Al  Al6  1  0.145493  0.832584  0.563887  1
  Al  Al7  1  0.854507  0.167416  0.436113  1
  Al  Al8  1  0.480154  0.167067  0.561583  1
  Al  Al9  1  0.519846  0.832933  0.438417  1
  Al  Al10  1  0.220551  0.166338  0.322332  1
  Al  Al11  1  0.779449  0.833662  0.677668  1
  Al  Al12  1  0.435791  0.504825  0.677451  1
  Al  Al13  1  0.564209  0.495175  0.322549  1
  Al  Al14  1  0.107790  0.162094  0.675371  1
  Al  Al15  1  0.892210  0.837906  0.324629  1
  Al  Al16  1  0.346727  0.495760  0.945115  1
  Al  Al17  1  0.653273  0.504240  0.054885  1
  Al  Al18  1  0.015838  0.181350  0.952466  1
  Al  Al19  1  0.984162  0.818650  0.047534  1
  Al  Al20  1  0.187514  0.499311  0.438777  1
  Al  Al21  1  0.812486  0.500689  0.561223  1
  Al  Al22  1  0.731879  0.164401  0.182215  1
  Al  Al23  1  0.268121  0.835599  0.817785  1
  Al  Al24  1  0.059528  0.615021  0.822110  1
  Al  Al25  1  0.940472  0.384979  0.177890  1
  Al  Al26  1  0.852686  0.043903  0.817150  1
  Al  Al27  1  0.147314  0.956097  0.182850  1
  Co  Co28  1  0.000000  0.500000  0.000000  1
  Pt  Pt29  1  0.119725  0.491321  0.640051  1
  Pt  Pt30  1  0.880275  0.508679  0.359949  1
  Pt  Pt31  1  0.656185  0.172094  0.999699  1
  Pt  Pt32  1  0.343815  0.827906  0.000301  1
  Pt  Pt33  1  0.536655  0.166403  0.360690  1
  Pt  Pt34  1  0.463345  0.833597  0.639310  1
  Pt  Pt35  1  0.777713  0.176511  0.638141  1
  Pt  Pt36  1  0.222287  0.823489  0.361859  1
