# generated using pymatgen
data_PrTm4(MnB3)2
_symmetry_space_group_name_H-M   'P 1'
_cell_length_a   5.40252875
_cell_length_b   5.40252899
_cell_length_c   8.27804085
_cell_angle_alpha   70.95462820
_cell_angle_beta   70.95462523
_cell_angle_gamma   60.00001703
_symmetry_Int_Tables_number   1
_chemical_formula_structural   PrTm4(MnB3)2
_chemical_formula_sum   'Pr1 Tm4 Mn2 B6'
_cell_volume   193.82150043
_cell_formula_units_Z   1
loop_
 _symmetry_equiv_pos_site_id
 _symmetry_equiv_pos_as_xyz
  1  'x, y, z'
loop_
 _atom_site_type_symbol
 _atom_site_label
 _atom_site_symmetry_multiplicity
 _atom_site_fract_x
 _atom_site_fract_y
 _atom_site_fract_z
 _atom_site_occupancy
  Pr  Pr0  1  0.000000  0.000000  0.000000  1
  Tm  Tm1  1  0.248888  0.248888  0.253336  1
  Tm  Tm2  1  0.751112  0.751112  0.746664  1
  Tm  Tm3  1  0.418064  0.418064  0.745809  1
  Tm  Tm4  1  0.581936  0.581936  0.254191  1
  Mn  Mn5  1  0.114353  0.114353  0.656941  1
  Mn  Mn6  1  0.885647  0.885647  0.343059  1
  B  B7  1  0.166929  0.833071  0.500000  1
  B  B8  1  0.833071  0.500000  0.500000  1
  B  B9  1  0.500000  0.166929  0.500000  1
  B  B10  1  0.166929  0.500000  0.500000  1
  B  B11  1  0.500000  0.833071  0.500000  1
  B  B12  1  0.833071  0.166929  0.500000  1
