# generated using pymatgen
data_AlFe3Te4(O3F)4
_symmetry_space_group_name_H-M   'P 1'
_cell_length_a   5.13874775
_cell_length_b   5.13195553
_cell_length_c   12.40798004
_cell_angle_alpha   90.28126306
_cell_angle_beta   97.74304722
_cell_angle_gamma   89.36564581
_symmetry_Int_Tables_number   1
_chemical_formula_structural   AlFe3Te4(O3F)4
_chemical_formula_sum   'Al1 Fe3 Te4 O12 F4'
_cell_volume   324.21575810
_cell_formula_units_Z   1
loop_
 _symmetry_equiv_pos_site_id
 _symmetry_equiv_pos_as_xyz
  1  'x, y, z'
loop_
 _atom_site_type_symbol
 _atom_site_label
 _atom_site_symmetry_multiplicity
 _atom_site_fract_x
 _atom_site_fract_y
 _atom_site_fract_z
 _atom_site_occupancy
  Al  Al0  1  0.967698  0.754710  0.068611  1
  Fe  Fe1  1  0.538961  0.258694  0.427452  1
  Fe  Fe2  1  0.462243  0.744121  0.570060  1
  Fe  Fe3  1  0.032024  0.241586  0.932373  1
  Te  Te4  1  0.492427  0.185078  0.166519  1
  Te  Te5  1  0.003646  0.698072  0.324441  1
  Te  Te6  1  0.994991  0.302969  0.670993  1
  Te  Te7  1  0.510151  0.801024  0.833119  1
  O  O8  1  0.187365  0.050561  0.070875  1
  O  O9  1  0.718944  0.887357  0.155568  1
  O  O10  1  0.130985  0.586462  0.194878  1
  O  O11  1  0.374253  0.071994  0.297218  1
  O  O12  1  0.788370  0.393610  0.332812  1
  O  O13  1  0.298338  0.564949  0.427941  1
  O  O14  1  0.702830  0.436911  0.568752  1
  O  O15  1  0.212787  0.604303  0.664084  1
  O  O16  1  0.634117  0.917641  0.704175  1
  O  O17  1  0.862684  0.418741  0.800155  1
  O  O18  1  0.292495  0.108457  0.841867  1
  O  O19  1  0.803249  0.932845  0.936610  1
  F  F20  1  0.775995  0.461443  0.018937  1
  F  F21  1  0.729392  0.934606  0.487356  1
  F  F22  1  0.272560  0.069417  0.514545  1
  F  F23  1  0.213493  0.574453  0.990662  1
