# generated using pymatgen
data_Y4Tm2PtRh17
_symmetry_space_group_name_H-M   'P 1'
_cell_length_a   5.27302400
_cell_length_b   5.27302596
_cell_length_c   17.56190300
_cell_angle_alpha   90.00000000
_cell_angle_beta   90.00000000
_cell_angle_gamma   119.99998771
_symmetry_Int_Tables_number   1
_chemical_formula_structural   Y4Tm2PtRh17
_chemical_formula_sum   'Y4 Tm2 Pt1 Rh17'
_cell_volume   422.88464569
_cell_formula_units_Z   1
loop_
 _symmetry_equiv_pos_site_id
 _symmetry_equiv_pos_as_xyz
  1  'x, y, z'
loop_
 _atom_site_type_symbol
 _atom_site_label
 _atom_site_symmetry_multiplicity
 _atom_site_fract_x
 _atom_site_fract_y
 _atom_site_fract_z
 _atom_site_occupancy
  Y  Y0  1  0.666667  0.333333  0.456056  1
  Y  Y1  1  0.333333  0.666667  0.543944  1
  Y  Y2  1  0.333333  0.666667  0.752079  1
  Y  Y3  1  0.666667  0.333333  0.247921  1
  Tm  Tm4  1  0.333333  0.666667  0.959052  1
  Tm  Tm5  1  0.666667  0.333333  0.040948  1
  Pt  Pt6  1  0.000000  0.000000  0.500000  1
  Rh  Rh7  1  0.167584  0.832416  0.372238  1
  Rh  Rh8  1  0.167584  0.335168  0.372238  1
  Rh  Rh9  1  0.664832  0.832416  0.372238  1
  Rh  Rh10  1  0.832416  0.167584  0.627762  1
  Rh  Rh11  1  0.832416  0.664832  0.627762  1
  Rh  Rh12  1  0.335168  0.167584  0.627762  1
  Rh  Rh13  1  0.832337  0.167663  0.876264  1
  Rh  Rh14  1  0.832337  0.664675  0.876264  1
  Rh  Rh15  1  0.335325  0.167663  0.876264  1
  Rh  Rh16  1  0.167663  0.832337  0.123736  1
  Rh  Rh17  1  0.167663  0.335325  0.123736  1
  Rh  Rh18  1  0.664675  0.832337  0.123736  1
  Rh  Rh19  1  0.333333  0.666667  0.248949  1
  Rh  Rh20  1  0.666667  0.333333  0.751051  1
  Rh  Rh21  1  0.000000  0.000000  0.248060  1
  Rh  Rh22  1  0.000000  0.000000  0.751940  1
  Rh  Rh23  1  0.000000  0.000000  0.000000  1
