# generated using pymatgen
data_Tb8Y8MgHg3Pd4
_symmetry_space_group_name_H-M   'P 1'
_cell_length_a   9.70677831
_cell_length_b   9.72834497
_cell_length_c   9.73638800
_cell_angle_alpha   59.97265396
_cell_angle_beta   59.89904854
_cell_angle_gamma   60.04564698
_symmetry_Int_Tables_number   1
_chemical_formula_structural   Tb8Y8MgHg3Pd4
_chemical_formula_sum   'Tb8 Y8 Mg1 Hg3 Pd4'
_cell_volume   649.71683451
_cell_formula_units_Z   1
loop_
 _symmetry_equiv_pos_site_id
 _symmetry_equiv_pos_as_xyz
  1  'x, y, z'
loop_
 _atom_site_type_symbol
 _atom_site_label
 _atom_site_symmetry_multiplicity
 _atom_site_fract_x
 _atom_site_fract_y
 _atom_site_fract_z
 _atom_site_occupancy
  Tb  Tb0  1  0.354419  0.352686  0.350412  1
  Tb  Tb1  1  0.354419  0.352686  0.942485  1
  Tb  Tb2  1  0.357935  0.936606  0.352730  1
  Tb  Tb3  1  0.924537  0.360702  0.357381  1
  Tb  Tb4  1  0.809794  0.190643  0.191054  1
  Tb  Tb5  1  0.186923  0.812478  0.810942  1
  Tb  Tb6  1  0.186923  0.812478  0.189657  1
  Tb  Tb7  1  0.809794  0.190643  0.808509  1
  Y  Y8  1  0.189157  0.190580  0.810131  1
  Y  Y9  1  0.808893  0.809691  0.190708  1
  Y  Y10  1  0.934933  0.564781  0.565228  1
  Y  Y11  1  0.563731  0.935914  0.934825  1
  Y  Y12  1  0.563731  0.935914  0.565530  1
  Y  Y13  1  0.934933  0.564781  0.935059  1
  Y  Y14  1  0.564785  0.565455  0.934880  1
  Y  Y15  1  0.935403  0.936308  0.564145  1
  Mg  Mg16  1  0.281873  0.570730  0.573698  1
  Hg  Hg17  1  0.582121  0.588533  0.589602  1
  Hg  Hg18  1  0.582121  0.588533  0.239744  1
  Hg  Hg19  1  0.581287  0.238762  0.589975  1
  Pd  Pd20  1  0.141929  0.145666  0.150177  1
  Pd  Pd21  1  0.141929  0.145666  0.562228  1
  Pd  Pd22  1  0.141405  0.565578  0.146509  1
  Pd  Pd23  1  0.567023  0.144190  0.144393  1
