# generated using pymatgen
data_Ho8Ta4Ti8Si15Sn
_symmetry_space_group_name_H-M   'P 1'
_cell_length_a   7.08776562
_cell_length_b   7.04732566
_cell_length_c   12.99374987
_cell_angle_alpha   89.98132323
_cell_angle_beta   89.85140384
_cell_angle_gamma   89.94807667
_symmetry_Int_Tables_number   1
_chemical_formula_structural   Ho8Ta4Ti8Si15Sn
_chemical_formula_sum   'Ho8 Ta4 Ti8 Si15 Sn1'
_cell_volume   649.03262698
_cell_formula_units_Z   1
loop_
 _symmetry_equiv_pos_site_id
 _symmetry_equiv_pos_as_xyz
  1  'x, y, z'
loop_
 _atom_site_type_symbol
 _atom_site_label
 _atom_site_symmetry_multiplicity
 _atom_site_fract_x
 _atom_site_fract_y
 _atom_site_fract_z
 _atom_site_occupancy
  Ho  Ho0  1  0.343388  0.999284  0.462056  1
  Ho  Ho1  1  0.505757  0.835281  0.718511  1
  Ho  Ho2  1  0.501461  0.159605  0.217016  1
  Ho  Ho3  1  0.841158  0.497997  0.282094  1
  Ho  Ho4  1  0.159026  0.508408  0.785737  1
  Ho  Ho5  1  0.660804  0.996690  0.969205  1
  Ho  Ho6  1  0.993041  0.347528  0.527338  1
  Ho  Ho7  1  0.999375  0.659407  0.033796  1
  Ta  Ta8  1  0.326128  0.326444  0.001256  1
  Ta  Ta9  1  0.174057  0.826250  0.249663  1
  Ta  Ta10  1  0.816960  0.175951  0.751784  1
  Ta  Ta11  1  0.673356  0.673396  0.499589  1
  Ti  Ti12  1  0.153084  0.009026  0.882121  1
  Ti  Ti13  1  0.491403  0.651595  0.126015  1
  Ti  Ti14  1  0.515347  0.352558  0.625366  1
  Ti  Ti15  1  0.654367  0.492635  0.876386  1
  Ti  Ti16  1  0.346642  0.509278  0.373907  1
  Ti  Ti17  1  0.846062  0.991319  0.375120  1
  Ti  Ti18  1  0.010123  0.152483  0.124187  1
  Ti  Ti19  1  0.979052  0.834960  0.619653  1
  Si  Si20  1  0.371004  0.702522  0.935770  1
  Si  Si21  1  0.627764  0.297828  0.432587  1
  Si  Si22  1  0.702851  0.370054  0.066777  1
  Si  Si23  1  0.296613  0.630120  0.565742  1
  Si  Si24  1  0.798738  0.870563  0.184102  1
  Si  Si25  1  0.129398  0.201861  0.315173  1
  Si  Si26  1  0.870988  0.800969  0.816382  1
  Si  Si27  1  0.294180  0.953289  0.065995  1
  Si  Si28  1  0.548197  0.790739  0.312861  1
  Si  Si29  1  0.459668  0.208175  0.819543  1
  Si  Si30  1  0.795184  0.543738  0.687186  1
  Si  Si31  1  0.207542  0.453712  0.186030  1
  Si  Si32  1  0.705215  0.047861  0.563840  1
  Si  Si33  1  0.953608  0.293258  0.936013  1
  Si  Si34  1  0.047130  0.708967  0.433542  1
  Sn  Sn35  1  0.201328  0.126250  0.677656  1
