# generated using pymatgen
data_Dy16Ho4(Bi3Sb)3
_symmetry_space_group_name_H-M   'P 1'
_cell_length_a   8.19328027
_cell_length_b   9.47153800
_cell_length_c   12.00405749
_cell_angle_alpha   90.00001537
_cell_angle_beta   90.04827878
_cell_angle_gamma   90.00155752
_symmetry_Int_Tables_number   1
_chemical_formula_structural   Dy16Ho4(Bi3Sb)3
_chemical_formula_sum   'Dy16 Ho4 Bi9 Sb3'
_cell_volume   931.55012741
_cell_formula_units_Z   1
loop_
 _symmetry_equiv_pos_site_id
 _symmetry_equiv_pos_as_xyz
  1  'x, y, z'
loop_
 _atom_site_type_symbol
 _atom_site_label
 _atom_site_symmetry_multiplicity
 _atom_site_fract_x
 _atom_site_fract_y
 _atom_site_fract_z
 _atom_site_occupancy
  Dy  Dy0  1  0.352609  0.750004  0.213010  1
  Dy  Dy1  1  0.853091  0.749996  0.286455  1
  Dy  Dy2  1  0.647237  0.250002  0.786690  1
  Dy  Dy3  1  0.148073  0.249987  0.716397  1
  Dy  Dy4  1  0.311163  0.437669  0.942727  1
  Dy  Dy5  1  0.808434  0.060034  0.559043  1
  Dy  Dy6  1  0.689049  0.937251  0.057449  1
  Dy  Dy7  1  0.190424  0.565938  0.442497  1
  Dy  Dy8  1  0.475478  0.250001  0.487916  1
  Dy  Dy9  1  0.972920  0.249989  0.011841  1
  Dy  Dy10  1  0.528539  0.750001  0.512734  1
  Dy  Dy11  1  0.027674  0.750001  0.987960  1
  Dy  Dy12  1  0.318203  0.249914  0.216260  1
  Dy  Dy13  1  0.811564  0.250083  0.278938  1
  Dy  Dy14  1  0.683127  0.749906  0.782176  1
  Dy  Dy15  1  0.183678  0.750088  0.717933  1
  Ho  Ho16  1  0.688852  0.562942  0.057386  1
  Ho  Ho17  1  0.190218  0.933808  0.442547  1
  Ho  Ho18  1  0.311375  0.062598  0.942770  1
  Ho  Ho19  1  0.808567  0.439761  0.559025  1
  Bi  Bi20  1  0.092126  0.249653  0.456615  1
  Bi  Bi21  1  0.565467  0.995142  0.325610  1
  Bi  Bi22  1  0.065819  0.504024  0.174374  1
  Bi  Bi23  1  0.433937  0.495553  0.674597  1
  Bi  Bi24  1  0.934072  0.003978  0.825854  1
  Bi  Bi25  1  0.433763  0.004460  0.674621  1
  Bi  Bi26  1  0.933891  0.496020  0.825826  1
  Bi  Bi27  1  0.565658  0.504864  0.325597  1
  Bi  Bi28  1  0.065994  0.995974  0.174391  1
  Sb  Sb29  1  0.407341  0.750363  0.958119  1
  Sb  Sb30  1  0.908196  0.749636  0.541472  1
  Sb  Sb31  1  0.593462  0.250359  0.041166  1
