# generated using pymatgen
data_Dy8LuScZn3Bi2Au
_symmetry_space_group_name_H-M   'P 1'
_cell_length_a   8.59293714
_cell_length_b   8.59293780
_cell_length_c   8.60587545
_cell_angle_alpha   123.87447249
_cell_angle_beta   123.93367951
_cell_angle_gamma   83.26440537
_symmetry_Int_Tables_number   1
_chemical_formula_structural   Dy8LuScZn3Bi2Au
_chemical_formula_sum   'Dy8 Lu1 Sc1 Zn3 Bi2 Au1'
_cell_volume   420.03839863
_cell_formula_units_Z   1
loop_
 _symmetry_equiv_pos_site_id
 _symmetry_equiv_pos_as_xyz
  1  'x, y, z'
loop_
 _atom_site_type_symbol
 _atom_site_label
 _atom_site_symmetry_multiplicity
 _atom_site_fract_x
 _atom_site_fract_y
 _atom_site_fract_z
 _atom_site_occupancy
  Dy  Dy0  1  0.510034  0.013938  0.807032  1
  Dy  Dy1  1  0.205580  0.704400  0.193054  1
  Dy  Dy2  1  0.014984  0.206268  0.502786  1
  Dy  Dy3  1  0.703910  0.511771  0.497772  1
  Dy  Dy4  1  0.488655  0.987475  0.193054  1
  Dy  Dy5  1  0.793092  0.296996  0.807032  1
  Dy  Dy6  1  0.986000  0.793862  0.497772  1
  Dy  Dy7  1  0.296518  0.487802  0.502786  1
  Lu  Lu8  1  0.000281  0.000085  0.000366  1
  Sc  Sc9  1  0.500382  0.500528  0.000910  1
  Zn  Zn10  1  0.141636  0.640300  0.781937  1
  Zn  Zn11  1  0.856356  0.361376  0.217732  1
  Zn  Zn12  1  0.640287  0.856848  0.497134  1
  Bi  Bi13  1  0.251246  0.252974  0.000164  1
  Bi  Bi14  1  0.747190  0.748918  0.000164  1
  Au  Au15  1  0.363848  0.136459  0.500307  1
