# generated using pymatgen
data_Ti6AlSn5Ru12
_symmetry_space_group_name_H-M   'P 1'
_cell_length_a   4.43162500
_cell_length_b   6.27341500
_cell_length_c   13.28153800
_cell_angle_alpha   90.00000000
_cell_angle_beta   90.00283715
_cell_angle_gamma   90.00000000
_symmetry_Int_Tables_number   1
_chemical_formula_structural   Ti6AlSn5Ru12
_chemical_formula_sum   'Ti6 Al1 Sn5 Ru12'
_cell_volume   369.24565247
_cell_formula_units_Z   1
loop_
 _symmetry_equiv_pos_site_id
 _symmetry_equiv_pos_as_xyz
  1  'x, y, z'
loop_
 _atom_site_type_symbol
 _atom_site_label
 _atom_site_symmetry_multiplicity
 _atom_site_fract_x
 _atom_site_fract_y
 _atom_site_fract_z
 _atom_site_occupancy
  Ti  Ti0  1  0.999997  0.499999  0.994913  1
  Ti  Ti1  1  0.499911  0.000000  0.163890  1
  Ti  Ti2  1  0.999904  0.499999  0.333311  1
  Ti  Ti3  1  0.499995  0.000000  0.502732  1
  Ti  Ti4  1  0.000117  0.499999  0.671778  1
  Ti  Ti5  1  0.500107  0.000000  0.833338  1
  Al  Al6  1  0.500093  0.499999  0.833310  1
  Sn  Sn7  1  0.000018  0.000000  0.997862  1
  Sn  Sn8  1  0.499904  0.499999  0.164646  1
  Sn  Sn9  1  0.999864  0.000000  0.333311  1
  Sn  Sn10  1  0.499974  0.499999  0.502013  1
  Sn  Sn11  1  0.000120  0.000000  0.668865  1
  Ru  Ru12  1  0.500017  0.254225  0.995930  1
  Ru  Ru13  1  0.500017  0.745774  0.995930  1
  Ru  Ru14  1  0.999906  0.249154  0.166049  1
  Ru  Ru15  1  0.999906  0.750846  0.166049  1
  Ru  Ru16  1  0.499902  0.250286  0.333307  1
  Ru  Ru17  1  0.499902  0.749715  0.333307  1
  Ru  Ru18  1  0.999986  0.249181  0.500648  1
  Ru  Ru19  1  0.999986  0.750819  0.500648  1
  Ru  Ru20  1  0.500100  0.254074  0.670730  1
  Ru  Ru21  1  0.500100  0.745927  0.670730  1
  Ru  Ru22  1  0.000089  0.259313  0.833352  1
  Ru  Ru23  1  0.000089  0.740687  0.833352  1
