# generated using pymatgen
data_Tm2TcIrF14
_symmetry_space_group_name_H-M   'P 1'
_cell_length_a   5.61519430
_cell_length_b   5.89755191
_cell_length_c   8.14568665
_cell_angle_alpha   102.73035389
_cell_angle_beta   89.85030333
_cell_angle_gamma   90.19226540
_symmetry_Int_Tables_number   1
_chemical_formula_structural   Tm2TcIrF14
_chemical_formula_sum   'Tm2 Tc1 Ir1 F14'
_cell_volume   263.11872284
_cell_formula_units_Z   1
loop_
 _symmetry_equiv_pos_site_id
 _symmetry_equiv_pos_as_xyz
  1  'x, y, z'
loop_
 _atom_site_type_symbol
 _atom_site_label
 _atom_site_symmetry_multiplicity
 _atom_site_fract_x
 _atom_site_fract_y
 _atom_site_fract_z
 _atom_site_occupancy
  Tm  Tm0  1  0.699767  0.655289  0.687387  1
  Tm  Tm1  1  0.200617  0.347810  0.313563  1
  Tc  Tc2  1  0.707540  0.814332  0.224287  1
  Ir  Ir3  1  0.208209  0.185673  0.774321  1
  F  F4  1  0.910284  0.464425  0.485240  1
  F  F5  1  0.409375  0.532459  0.515600  1
  F  F6  1  0.418903  0.921889  0.766800  1
  F  F7  1  0.928805  0.075140  0.234318  1
  F  F8  1  0.935432  0.963712  0.760803  1
  F  F9  1  0.444848  0.040863  0.240454  1
  F  F10  1  0.996686  0.452816  0.793410  1
  F  F11  1  0.487292  0.551106  0.205999  1
  F  F12  1  0.704399  0.766358  0.978834  1
  F  F13  1  0.205001  0.234587  0.018562  1
  F  F14  1  0.707199  0.869074  0.470133  1
  F  F15  1  0.207870  0.124277  0.529569  1
  F  F16  1  0.494291  0.392529  0.791376  1
  F  F17  1  0.986201  0.607661  0.209341  1
