# generated using pymatgen
data_LiZr6Ni17P12
_symmetry_space_group_name_H-M   'P 1'
_cell_length_a   3.67299202
_cell_length_b   10.35413036
_cell_length_c   12.06588637
_cell_angle_alpha   89.97158853
_cell_angle_beta   90.00977056
_cell_angle_gamma   89.99761299
_symmetry_Int_Tables_number   1
_chemical_formula_structural   LiZr6Ni17P12
_chemical_formula_sum   'Li1 Zr6 Ni17 P12'
_cell_volume   458.87329477
_cell_formula_units_Z   1
loop_
 _symmetry_equiv_pos_site_id
 _symmetry_equiv_pos_as_xyz
  1  'x, y, z'
loop_
 _atom_site_type_symbol
 _atom_site_label
 _atom_site_symmetry_multiplicity
 _atom_site_fract_x
 _atom_site_fract_y
 _atom_site_fract_z
 _atom_site_occupancy
  Li  Li0  1  0.251863  0.999996  0.846437  1
  Zr  Zr1  1  0.751929  0.999974  0.473405  1
  Zr  Zr2  1  0.251881  0.499991  0.524631  1
  Zr  Zr3  1  0.251817  0.679105  0.793989  1
  Zr  Zr4  1  0.251851  0.320960  0.793919  1
  Zr  Zr5  1  0.751804  0.821234  0.203687  1
  Zr  Zr6  1  0.751863  0.178739  0.203727  1
  Ni  Ni7  1  0.751632  0.000019  0.011846  1
  Ni  Ni8  1  0.251965  0.500071  0.983981  1
  Ni  Ni9  1  0.251914  0.199606  0.568398  1
  Ni  Ni10  1  0.251896  0.800366  0.568358  1
  Ni  Ni11  1  0.751972  0.300167  0.430709  1
  Ni  Ni12  1  0.751832  0.699792  0.430722  1
  Ni  Ni13  1  0.251746  0.623686  0.293304  1
  Ni  Ni14  1  0.251801  0.376300  0.293318  1
  Ni  Ni15  1  0.751822  0.878696  0.707395  1
  Ni  Ni16  1  0.751835  0.121260  0.707354  1
  Ni  Ni17  1  0.251832  0.172163  0.005176  1
  Ni  Ni18  1  0.251748  0.828053  0.005228  1
  Ni  Ni19  1  0.751669  0.335048  0.997554  1
  Ni  Ni20  1  0.751587  0.664749  0.997554  1
  Ni  Ni21  1  0.751564  0.499982  0.165020  1
  Ni  Ni22  1  0.251915  0.000038  0.297677  1
  Ni  Ni23  1  0.751860  0.499953  0.699725  1
  P  P24  1  0.251981  0.183588  0.382706  1
  P  P25  1  0.251898  0.816368  0.382679  1
  P  P26  1  0.751961  0.315925  0.615689  1
  P  P27  1  0.751968  0.684099  0.615699  1
  P  P28  1  0.251823  0.999974  0.119406  1
  P  P29  1  0.751687  0.500063  0.876731  1
  P  P30  1  0.251749  0.652737  0.113099  1
  P  P31  1  0.251844  0.347252  0.113118  1
  P  P32  1  0.751678  0.839260  0.890171  1
  P  P33  1  0.751741  0.160834  0.890177  1
  P  P34  1  0.251845  0.999963  0.646302  1
  P  P35  1  0.751829  0.499993  0.351107  1
