# generated using pymatgen
data_Lu3AgSn3IrRh
_symmetry_space_group_name_H-M   'P 1'
_cell_length_a   7.67233800
_cell_length_b   7.67233870
_cell_length_c   3.73623500
_cell_angle_alpha   90.00000000
_cell_angle_beta   90.00000000
_cell_angle_gamma   119.99998836
_symmetry_Int_Tables_number   1
_chemical_formula_structural   Lu3AgSn3IrRh
_chemical_formula_sum   'Lu3 Ag1 Sn3 Ir1 Rh1'
_cell_volume   190.46727176
_cell_formula_units_Z   1
loop_
 _symmetry_equiv_pos_site_id
 _symmetry_equiv_pos_as_xyz
  1  'x, y, z'
loop_
 _atom_site_type_symbol
 _atom_site_label
 _atom_site_symmetry_multiplicity
 _atom_site_fract_x
 _atom_site_fract_y
 _atom_site_fract_z
 _atom_site_occupancy
  Lu  Lu0  1  0.384318  0.409925  0.500000  1
  Lu  Lu1  1  0.590075  0.974394  0.500000  1
  Lu  Lu2  1  0.025606  0.615682  0.500000  1
  Ag  Ag3  1  0.666667  0.333333  0.000000  1
  Sn  Sn4  1  0.740113  0.735496  0.000000  1
  Sn  Sn5  1  0.264504  0.004617  0.000000  1
  Sn  Sn6  1  0.995383  0.259887  0.000000  1
  Ir  Ir7  1  0.333333  0.666667  0.000000  1
  Rh  Rh8  1  0.000000  0.000000  0.500000  1
