# generated using pymatgen
data_Sr3Ga2Ir7
_symmetry_space_group_name_H-M   'P 1'
_cell_length_a   5.59142348
_cell_length_b   5.59142303
_cell_length_c   8.92904974
_cell_angle_alpha   71.75368147
_cell_angle_beta   71.75368207
_cell_angle_gamma   59.99999226
_symmetry_Int_Tables_number   1
_chemical_formula_structural   Sr3Ga2Ir7
_chemical_formula_sum   'Sr3 Ga2 Ir7'
_cell_volume   225.40452914
_cell_formula_units_Z   1
loop_
 _symmetry_equiv_pos_site_id
 _symmetry_equiv_pos_as_xyz
  1  'x, y, z'
loop_
 _atom_site_type_symbol
 _atom_site_label
 _atom_site_symmetry_multiplicity
 _atom_site_fract_x
 _atom_site_fract_y
 _atom_site_fract_z
 _atom_site_occupancy
  Sr  Sr0  1  0.859920  0.859920  0.420239  1
  Sr  Sr1  1  0.140080  0.140080  0.579761  1
  Sr  Sr2  1  0.000000  0.000000  0.000000  1
  Ga  Ga3  1  0.664382  0.664382  0.006852  1
  Ga  Ga4  1  0.335618  0.335618  0.993148  1
  Ir  Ir5  1  0.415957  0.415957  0.242791  1
  Ir  Ir6  1  0.925296  0.415957  0.242791  1
  Ir  Ir7  1  0.415957  0.925296  0.242791  1
  Ir  Ir8  1  0.584043  0.584043  0.757209  1
  Ir  Ir9  1  0.074704  0.584043  0.757209  1
  Ir  Ir10  1  0.584043  0.074704  0.757209  1
  Ir  Ir11  1  0.500000  0.500000  0.500000  1
