# generated using pymatgen
data_Ce2LuUSb5
_symmetry_space_group_name_H-M   'P 1'
_cell_length_a   9.37003900
_cell_length_b   9.42308279
_cell_length_c   6.42415800
_cell_angle_alpha   90.00000000
_cell_angle_beta   90.00000000
_cell_angle_gamma   119.81395331
_symmetry_Int_Tables_number   1
_chemical_formula_structural   Ce2LuUSb5
_chemical_formula_sum   'Ce4 Lu2 U2 Sb10'
_cell_volume   492.14421717
_cell_formula_units_Z   2
loop_
 _symmetry_equiv_pos_site_id
 _symmetry_equiv_pos_as_xyz
  1  'x, y, z'
loop_
 _atom_site_type_symbol
 _atom_site_label
 _atom_site_symmetry_multiplicity
 _atom_site_fract_x
 _atom_site_fract_y
 _atom_site_fract_z
 _atom_site_occupancy
  Ce  Ce0  1  0.995706  0.613609  0.250000  1
  Ce  Ce1  1  0.004294  0.386391  0.750000  1
  Ce  Ce2  1  0.382097  0.386391  0.250000  1
  Ce  Ce3  1  0.617903  0.613609  0.750000  1
  Lu  Lu4  1  0.000000  0.000000  0.000000  1
  Lu  Lu5  1  0.000000  0.000000  0.500000  1
  U  U6  1  0.612531  0.000000  0.250000  1
  U  U7  1  0.387469  0.000000  0.750000  1
  Sb  Sb8  1  0.274038  0.000000  0.250000  1
  Sb  Sb9  1  0.725962  0.000000  0.750000  1
  Sb  Sb10  1  0.994244  0.267526  0.250000  1
  Sb  Sb11  1  0.005756  0.732474  0.750000  1
  Sb  Sb12  1  0.726719  0.732474  0.250000  1
  Sb  Sb13  1  0.273281  0.267526  0.750000  1
  Sb  Sb14  1  0.336840  0.673682  0.000000  1
  Sb  Sb15  1  0.663160  0.326318  0.000000  1
  Sb  Sb16  1  0.663160  0.326318  0.500000  1
  Sb  Sb17  1  0.336840  0.673682  0.500000  1
