# generated using pymatgen
data_Nd3GaPt3Pb2
_symmetry_space_group_name_H-M   'P 1'
_cell_length_a   7.87778687
_cell_length_b   7.87778900
_cell_length_c   3.96922800
_cell_angle_alpha   90.00000000
_cell_angle_beta   90.00000000
_cell_angle_gamma   120.95348229
_symmetry_Int_Tables_number   1
_chemical_formula_structural   Nd3GaPt3Pb2
_chemical_formula_sum   'Nd3 Ga1 Pt3 Pb2'
_cell_volume   211.24764705
_cell_formula_units_Z   1
loop_
 _symmetry_equiv_pos_site_id
 _symmetry_equiv_pos_as_xyz
  1  'x, y, z'
loop_
 _atom_site_type_symbol
 _atom_site_label
 _atom_site_symmetry_multiplicity
 _atom_site_fract_x
 _atom_site_fract_y
 _atom_site_fract_z
 _atom_site_occupancy
  Nd  Nd0  1  0.594019  0.989691  0.000000  1
  Nd  Nd1  1  0.989691  0.594019  0.000000  1
  Nd  Nd2  1  0.421497  0.421497  0.000000  1
  Ga  Ga3  1  0.743155  0.743155  0.500000  1
  Pt  Pt4  1  0.353613  0.671997  0.500000  1
  Pt  Pt5  1  0.671997  0.353613  0.500000  1
  Pt  Pt6  1  0.969634  0.969634  0.000000  1
  Pb  Pb7  1  0.256446  0.999946  0.500000  1
  Pb  Pb8  1  0.999946  0.256446  0.500000  1
