# generated using pymatgen
data_Ho7U(InPt2)4
_symmetry_space_group_name_H-M   'P 1'
_cell_length_a   7.76126661
_cell_length_b   7.76126661
_cell_length_c   7.32006400
_cell_angle_alpha   90.00000000
_cell_angle_beta   90.00000000
_cell_angle_gamma   90.94804216
_symmetry_Int_Tables_number   1
_chemical_formula_structural   Ho7U(InPt2)4
_chemical_formula_sum   'Ho7 U1 In4 Pt8'
_cell_volume   440.88023419
_cell_formula_units_Z   1
loop_
 _symmetry_equiv_pos_site_id
 _symmetry_equiv_pos_as_xyz
  1  'x, y, z'
loop_
 _atom_site_type_symbol
 _atom_site_label
 _atom_site_symmetry_multiplicity
 _atom_site_fract_x
 _atom_site_fract_y
 _atom_site_fract_z
 _atom_site_occupancy
  Ho  Ho0  1  0.676551  0.327688  0.500000  1
  Ho  Ho1  1  0.327688  0.676551  0.500000  1
  Ho  Ho2  1  0.177563  0.177563  0.000000  1
  Ho  Ho3  1  0.835393  0.835393  0.500000  1
  Ho  Ho4  1  0.163860  0.163860  0.500000  1
  Ho  Ho5  1  0.331354  0.659305  0.000000  1
  Ho  Ho6  1  0.659305  0.331354  0.000000  1
  U  U7  1  0.829902  0.829902  0.000000  1
  In  In8  1  0.496983  0.999078  0.247232  1
  In  In9  1  0.999078  0.496983  0.752768  1
  In  In10  1  0.496983  0.999078  0.752768  1
  In  In11  1  0.999078  0.496983  0.247232  1
  Pt  Pt12  1  0.866126  0.123588  0.235479  1
  Pt  Pt13  1  0.123588  0.866126  0.235479  1
  Pt  Pt14  1  0.374403  0.374403  0.734747  1
  Pt  Pt15  1  0.639014  0.639014  0.754240  1
  Pt  Pt16  1  0.123588  0.866126  0.764521  1
  Pt  Pt17  1  0.866126  0.123588  0.764521  1
  Pt  Pt18  1  0.639014  0.639014  0.245760  1
  Pt  Pt19  1  0.374403  0.374403  0.265253  1
