# generated using pymatgen
data_YTm3MnB12Os
_symmetry_space_group_name_H-M   'P 1'
_cell_length_a   3.58187600
_cell_length_b   9.06409361
_cell_length_c   11.44667041
_cell_angle_alpha   90.03582142
_cell_angle_beta   90.00000000
_cell_angle_gamma   90.00000000
_symmetry_Int_Tables_number   1
_chemical_formula_structural   YTm3MnB12Os
_chemical_formula_sum   'Y2 Tm6 Mn2 B24 Os2'
_cell_volume   371.63278687
_cell_formula_units_Z   2
loop_
 _symmetry_equiv_pos_site_id
 _symmetry_equiv_pos_as_xyz
  1  'x, y, z'
loop_
 _atom_site_type_symbol
 _atom_site_label
 _atom_site_symmetry_multiplicity
 _atom_site_fract_x
 _atom_site_fract_y
 _atom_site_fract_z
 _atom_site_occupancy
  Y  Y0  1  0.000000  0.325934  0.415881  1
  Y  Y1  1  0.000000  0.674066  0.584119  1
  Tm  Tm2  1  0.000000  0.820110  0.087501  1
  Tm  Tm3  1  0.000000  0.179890  0.912499  1
  Tm  Tm4  1  0.000000  0.939614  0.370754  1
  Tm  Tm5  1  0.000000  0.060386  0.629247  1
  Tm  Tm6  1  0.000000  0.445890  0.130945  1
  Tm  Tm7  1  0.000000  0.554110  0.869054  1
  Mn  Mn8  1  0.000000  0.638853  0.319421  1
  Mn  Mn9  1  0.000000  0.361147  0.680579  1
  B  B10  1  0.500000  0.554468  0.431580  1
  B  B11  1  0.500000  0.445532  0.568420  1
  B  B12  1  0.500000  0.053144  0.066395  1
  B  B13  1  0.500000  0.946856  0.933605  1
  B  B14  1  0.500000  0.746951  0.417001  1
  B  B15  1  0.500000  0.253049  0.582999  1
  B  B16  1  0.500000  0.249588  0.080595  1
  B  B17  1  0.500000  0.750412  0.919405  1
  B  B18  1  0.500000  0.790078  0.265449  1
  B  B19  1  0.500000  0.209922  0.734551  1
  B  B20  1  0.500000  0.291855  0.234407  1
  B  B21  1  0.500000  0.708144  0.765593  1
  B  B22  1  0.500000  0.631465  0.185901  1
  B  B23  1  0.500000  0.368535  0.814099  1
  B  B24  1  0.500000  0.130014  0.314628  1
  B  B25  1  0.500000  0.869986  0.685372  1
  B  B26  1  0.500000  0.980858  0.212284  1
  B  B27  1  0.500000  0.019142  0.787716  1
  B  B28  1  0.500000  0.485530  0.287881  1
  B  B29  1  0.500000  0.514470  0.712119  1
  B  B30  1  0.500000  0.603254  0.028470  1
  B  B31  1  0.500000  0.396746  0.971530  1
  B  B32  1  0.500000  0.101888  0.471764  1
  B  B33  1  0.500000  0.898112  0.528236  1
  Os  Os34  1  0.000000  0.137430  0.178320  1
  Os  Os35  1  0.000000  0.862570  0.821680  1
