# generated using pymatgen
data_PrNd4FeRuO12
_symmetry_space_group_name_H-M   'P 1'
_cell_length_a   7.05612130
_cell_length_b   7.05612185
_cell_length_c   7.60104600
_cell_angle_alpha   74.47763059
_cell_angle_beta   74.47762949
_cell_angle_gamma   50.84737103
_symmetry_Int_Tables_number   1
_chemical_formula_structural   PrNd4FeRuO12
_chemical_formula_sum   'Pr1 Nd4 Fe1 Ru1 O12'
_cell_volume   280.29400610
_cell_formula_units_Z   1
loop_
 _symmetry_equiv_pos_site_id
 _symmetry_equiv_pos_as_xyz
  1  'x, y, z'
loop_
 _atom_site_type_symbol
 _atom_site_label
 _atom_site_symmetry_multiplicity
 _atom_site_fract_x
 _atom_site_fract_y
 _atom_site_fract_z
 _atom_site_occupancy
  Pr  Pr0  1  0.003987  0.996013  0.500000  1
  Nd  Nd1  1  0.309649  0.302618  0.357443  1
  Nd  Nd2  1  0.697382  0.690351  0.642557  1
  Nd  Nd3  1  0.692688  0.693959  0.165586  1
  Nd  Nd4  1  0.306041  0.307312  0.834414  1
  Fe  Fe5  1  0.752534  0.247466  0.000000  1
  Ru  Ru6  1  0.239913  0.760087  0.000000  1
  O  O7  1  0.097731  0.592071  0.577800  1
  O  O8  1  0.009130  0.989243  0.175583  1
  O  O9  1  0.407929  0.902269  0.422200  1
  O  O10  1  0.487103  0.514151  0.176355  1
  O  O11  1  0.098845  0.580634  0.079087  1
  O  O12  1  0.906723  0.403170  0.421300  1
  O  O13  1  0.010757  0.990870  0.824417  1
  O  O14  1  0.596830  0.093276  0.578700  1
  O  O15  1  0.485849  0.512897  0.823645  1
  O  O16  1  0.581935  0.104392  0.076943  1
  O  O17  1  0.419366  0.901155  0.920913  1
  O  O18  1  0.895608  0.418065  0.923057  1
