# generated using pymatgen
data_Ho7Er3(Si3O)2
_symmetry_space_group_name_H-M   'P 1'
_cell_length_a   8.35199200
_cell_length_b   8.35199365
_cell_length_c   6.16434700
_cell_angle_alpha   90.00000000
_cell_angle_beta   90.00000000
_cell_angle_gamma   120.00000929
_symmetry_Int_Tables_number   1
_chemical_formula_structural   Ho7Er3(Si3O)2
_chemical_formula_sum   'Ho7 Er3 Si6 O2'
_cell_volume   372.38990062
_cell_formula_units_Z   1
loop_
 _symmetry_equiv_pos_site_id
 _symmetry_equiv_pos_as_xyz
  1  'x, y, z'
loop_
 _atom_site_type_symbol
 _atom_site_label
 _atom_site_symmetry_multiplicity
 _atom_site_fract_x
 _atom_site_fract_y
 _atom_site_fract_z
 _atom_site_occupancy
  Ho  Ho0  1  0.232096  0.000025  0.250028  1
  Ho  Ho1  1  0.767929  0.000025  0.749972  1
  Ho  Ho2  1  0.999975  0.232071  0.250028  1
  Ho  Ho3  1  0.999975  0.767904  0.749972  1
  Ho  Ho4  1  0.767929  0.767904  0.250028  1
  Ho  Ho5  1  0.232096  0.232071  0.749972  1
  Ho  Ho6  1  0.333333  0.666667  0.000000  1
  Er  Er7  1  0.666667  0.333333  0.000000  1
  Er  Er8  1  0.666667  0.333333  0.500000  1
  Er  Er9  1  0.333333  0.666667  0.500000  1
  Si  Si10  1  0.601606  0.000087  0.250072  1
  Si  Si11  1  0.398481  0.000087  0.749928  1
  Si  Si12  1  0.999913  0.601519  0.250072  1
  Si  Si13  1  0.999913  0.398394  0.749928  1
  Si  Si14  1  0.398481  0.398394  0.250072  1
  Si  Si15  1  0.601606  0.601519  0.749928  1
  O  O16  1  0.000000  0.000000  0.000000  1
  O  O17  1  0.000000  0.000000  0.500000  1
