# generated using pymatgen
data_Tm2Lu8Zn3Bi2Pt
_symmetry_space_group_name_H-M   'P 1'
_cell_length_a   8.50087107
_cell_length_b   8.50086980
_cell_length_c   8.54381284
_cell_angle_alpha   124.29112151
_cell_angle_beta   124.29112098
_cell_angle_gamma   82.38661226
_symmetry_Int_Tables_number   1
_chemical_formula_structural   Tm2Lu8Zn3Bi2Pt
_chemical_formula_sum   'Tm2 Lu8 Zn3 Bi2 Pt1'
_cell_volume   405.67637809
_cell_formula_units_Z   1
loop_
 _symmetry_equiv_pos_site_id
 _symmetry_equiv_pos_as_xyz
  1  'x, y, z'
loop_
 _atom_site_type_symbol
 _atom_site_label
 _atom_site_symmetry_multiplicity
 _atom_site_fract_x
 _atom_site_fract_y
 _atom_site_fract_z
 _atom_site_occupancy
  Tm  Tm0  1  0.706890  0.514159  0.500000  1
  Tm  Tm1  1  0.985841  0.793110  0.500000  1
  Lu  Lu2  1  0.004278  0.002083  0.006361  1
  Lu  Lu3  1  0.497917  0.495722  0.993639  1
  Lu  Lu4  1  0.786344  0.293948  0.799912  1
  Lu  Lu5  1  0.206052  0.713656  0.200088  1
  Lu  Lu6  1  0.486432  0.994036  0.200088  1
  Lu  Lu7  1  0.299709  0.476107  0.500000  1
  Lu  Lu8  1  0.023893  0.200291  0.500000  1
  Lu  Lu9  1  0.505964  0.013568  0.799912  1
  Zn  Zn10  1  0.137987  0.639874  0.777862  1
  Zn  Zn11  1  0.860126  0.362013  0.222138  1
  Zn  Zn12  1  0.637427  0.862573  0.500000  1
  Bi  Bi13  1  0.246728  0.253272  0.000000  1
  Bi  Bi14  1  0.746728  0.753272  0.000000  1
  Pt  Pt15  1  0.367683  0.132317  0.500000  1
