# generated using pymatgen
data_Ho8Tm4InCo4Ru
_symmetry_space_group_name_H-M   'P 1'
_cell_length_a   8.21806903
_cell_length_b   8.21806447
_cell_length_c   8.21806902
_cell_angle_alpha   111.29048560
_cell_angle_beta   110.71632192
_cell_angle_gamma   106.44903963
_symmetry_Int_Tables_number   1
_chemical_formula_structural   Ho8Tm4InCo4Ru
_chemical_formula_sum   'Ho8 Tm4 In1 Co4 Ru1'
_cell_volume   426.35808340
_cell_formula_units_Z   1
loop_
 _symmetry_equiv_pos_site_id
 _symmetry_equiv_pos_as_xyz
  1  'x, y, z'
loop_
 _atom_site_type_symbol
 _atom_site_label
 _atom_site_symmetry_multiplicity
 _atom_site_fract_x
 _atom_site_fract_y
 _atom_site_fract_z
 _atom_site_occupancy
  Ho  Ho0  1  0.183756  0.284127  0.467885  1
  Ho  Ho1  1  0.816244  0.715873  0.532115  1
  Ho  Ho2  1  0.183759  0.715873  0.899629  1
  Ho  Ho3  1  0.816241  0.284127  0.100371  1
  Ho  Ho4  1  0.412402  0.218727  0.193674  1
  Ho  Ho5  1  0.587598  0.781273  0.806326  1
  Ho  Ho6  1  0.025052  0.218727  0.806324  1
  Ho  Ho7  1  0.974948  0.781273  0.193676  1
  Tm  Tm8  1  0.314468  0.620970  0.306501  1
  Tm  Tm9  1  0.685532  0.379030  0.693499  1
  Tm  Tm10  1  0.314468  0.007969  0.693502  1
  Tm  Tm11  1  0.685532  0.992031  0.306498  1
  In  In12  1  0.500000  0.500000  0.000000  1
  Co  Co13  1  0.111949  0.611949  0.500000  1
  Co  Co14  1  0.888051  0.388051  0.500000  1
  Co  Co15  1  0.377202  0.000000  0.377202  1
  Co  Co16  1  0.622798  0.000000  0.622798  1
  Ru  Ru17  1  0.000000  0.000000  0.000000  1
