# generated using pymatgen
data_ZrSc3TiSb3
_symmetry_space_group_name_H-M   'P 1'
_cell_length_a   8.43055700
_cell_length_b   8.43055679
_cell_length_c   5.73549100
_cell_angle_alpha   90.00000000
_cell_angle_beta   90.00000000
_cell_angle_gamma   120.00000474
_symmetry_Int_Tables_number   1
_chemical_formula_structural   ZrSc3TiSb3
_chemical_formula_sum   'Zr2 Sc6 Ti2 Sb6'
_cell_volume   353.03172997
_cell_formula_units_Z   2
loop_
 _symmetry_equiv_pos_site_id
 _symmetry_equiv_pos_as_xyz
  1  'x, y, z'
loop_
 _atom_site_type_symbol
 _atom_site_label
 _atom_site_symmetry_multiplicity
 _atom_site_fract_x
 _atom_site_fract_y
 _atom_site_fract_z
 _atom_site_occupancy
  Zr  Zr0  1  0.333333  0.666667  0.500000  1
  Zr  Zr1  1  0.666667  0.333333  0.500000  1
  Sc  Sc2  1  0.749196  0.749196  0.747834  1
  Sc  Sc3  1  0.250804  0.000000  0.747834  1
  Sc  Sc4  1  0.000000  0.250804  0.747834  1
  Sc  Sc5  1  0.250804  0.250804  0.252166  1
  Sc  Sc6  1  0.749196  0.000000  0.252166  1
  Sc  Sc7  1  0.000000  0.749196  0.252166  1
  Ti  Ti8  1  0.666667  0.333333  0.000000  1
  Ti  Ti9  1  0.333333  0.666667  0.000000  1
  Sb  Sb10  1  0.387745  0.387745  0.758664  1
  Sb  Sb11  1  0.612255  0.000000  0.758664  1
  Sb  Sb12  1  0.000000  0.612255  0.758664  1
  Sb  Sb13  1  0.612255  0.612255  0.241336  1
  Sb  Sb14  1  0.387745  0.000000  0.241336  1
  Sb  Sb15  1  0.000000  0.387745  0.241336  1
