# generated using pymatgen
data_Pr16Cd3InIr4
_symmetry_space_group_name_H-M   'P 1'
_cell_length_a   10.03396009
_cell_length_b   10.03395325
_cell_length_c   10.03395421
_cell_angle_alpha   60.04599520
_cell_angle_beta   60.04582963
_cell_angle_gamma   60.04580722
_symmetry_Int_Tables_number   1
_chemical_formula_structural   Pr16Cd3InIr4
_chemical_formula_sum   'Pr16 Cd3 In1 Ir4'
_cell_volume   715.07719355
_cell_formula_units_Z   1
loop_
 _symmetry_equiv_pos_site_id
 _symmetry_equiv_pos_as_xyz
  1  'x, y, z'
loop_
 _atom_site_type_symbol
 _atom_site_label
 _atom_site_symmetry_multiplicity
 _atom_site_fract_x
 _atom_site_fract_y
 _atom_site_fract_z
 _atom_site_occupancy
  Pr  Pr0  1  0.347449  0.347449  0.347447  1
  Pr  Pr1  1  0.349336  0.349336  0.953418  1
  Pr  Pr2  1  0.349334  0.953418  0.349334  1
  Pr  Pr3  1  0.953418  0.349335  0.349334  1
  Pr  Pr4  1  0.809387  0.190135  0.190136  1
  Pr  Pr5  1  0.190443  0.807803  0.807799  1
  Pr  Pr6  1  0.190134  0.809387  0.190136  1
  Pr  Pr7  1  0.807804  0.190443  0.807799  1
  Pr  Pr8  1  0.190135  0.190136  0.809387  1
  Pr  Pr9  1  0.807801  0.807801  0.190442  1
  Pr  Pr10  1  0.941446  0.561164  0.561164  1
  Pr  Pr11  1  0.560843  0.939259  0.939261  1
  Pr  Pr12  1  0.561163  0.941446  0.561164  1
  Pr  Pr13  1  0.939258  0.560844  0.939261  1
  Pr  Pr14  1  0.561162  0.561162  0.941446  1
  Pr  Pr15  1  0.939258  0.939258  0.560846  1
  Cd  Cd16  1  0.579603  0.579604  0.259810  1
  Cd  Cd17  1  0.579602  0.259811  0.579604  1
  Cd  Cd18  1  0.259811  0.579602  0.579605  1
  In  In19  1  0.580090  0.580089  0.580090  1
  Ir  Ir20  1  0.141608  0.141609  0.141608  1
  Ir  Ir21  1  0.142689  0.142689  0.575531  1
  Ir  Ir22  1  0.142689  0.575531  0.142688  1
  Ir  Ir23  1  0.575531  0.142689  0.142688  1
