# generated using pymatgen
data_YZnCo2NiB
_symmetry_space_group_name_H-M   'P 1'
_cell_length_a   5.10382343
_cell_length_b   5.10382272
_cell_length_c   6.80013400
_cell_angle_alpha   90.00000000
_cell_angle_beta   90.00000000
_cell_angle_gamma   119.13790425
_symmetry_Int_Tables_number   1
_chemical_formula_structural   YZnCo2NiB
_chemical_formula_sum   'Y2 Zn2 Co4 Ni2 B2'
_cell_volume   154.72015394
_cell_formula_units_Z   2
loop_
 _symmetry_equiv_pos_site_id
 _symmetry_equiv_pos_as_xyz
  1  'x, y, z'
loop_
 _atom_site_type_symbol
 _atom_site_label
 _atom_site_symmetry_multiplicity
 _atom_site_fract_x
 _atom_site_fract_y
 _atom_site_fract_z
 _atom_site_occupancy
  Y  Y0  1  0.000000  0.000000  0.500000  1
  Y  Y1  1  0.000000  0.000000  0.000000  1
  Zn  Zn2  1  0.330705  0.669295  0.000000  1
  Zn  Zn3  1  0.669295  0.330705  0.000000  1
  Co  Co4  1  0.500000  0.000000  0.297694  1
  Co  Co5  1  0.000000  0.500000  0.297694  1
  Co  Co6  1  0.500000  0.000000  0.702306  1
  Co  Co7  1  0.000000  0.500000  0.702306  1
  Ni  Ni8  1  0.500000  0.500000  0.296912  1
  Ni  Ni9  1  0.500000  0.500000  0.703088  1
  B  B10  1  0.673357  0.326643  0.500000  1
  B  B11  1  0.326643  0.673357  0.500000  1
