# generated using pymatgen
data_Ba2YHo(Ti4N7)2
_symmetry_space_group_name_H-M   'P 1'
_cell_length_a   6.46984300
_cell_length_b   6.46984277
_cell_length_c   10.49195200
_cell_angle_alpha   90.00000000
_cell_angle_beta   90.00000000
_cell_angle_gamma   119.99998582
_symmetry_Int_Tables_number   1
_chemical_formula_structural   Ba2YHo(Ti4N7)2
_chemical_formula_sum   'Ba2 Y1 Ho1 Ti8 N14'
_cell_volume   380.34215037
_cell_formula_units_Z   1
loop_
 _symmetry_equiv_pos_site_id
 _symmetry_equiv_pos_as_xyz
  1  'x, y, z'
loop_
 _atom_site_type_symbol
 _atom_site_label
 _atom_site_symmetry_multiplicity
 _atom_site_fract_x
 _atom_site_fract_y
 _atom_site_fract_z
 _atom_site_occupancy
  Ba  Ba0  1  0.666667  0.333333  0.582256  1
  Ba  Ba1  1  0.333333  0.666667  0.081982  1
  Y  Y2  1  0.333333  0.666667  0.448936  1
  Ho  Ho3  1  0.666667  0.333333  0.948913  1
  Ti  Ti4  1  0.169335  0.338670  0.763805  1
  Ti  Ti5  1  0.830661  0.169339  0.263327  1
  Ti  Ti6  1  0.338678  0.169339  0.263327  1
  Ti  Ti7  1  0.661330  0.830665  0.763805  1
  Ti  Ti8  1  0.169335  0.830665  0.763805  1
  Ti  Ti9  1  0.830661  0.661322  0.263327  1
  Ti  Ti10  1  0.000000  0.000000  0.023405  1
  Ti  Ti11  1  0.000000  0.000000  0.523386  1
  N  N12  1  0.000000  0.000000  0.830337  1
  N  N13  1  0.000000  0.000000  0.330131  1
  N  N14  1  0.840119  0.680239  0.082980  1
  N  N15  1  0.159441  0.840559  0.583579  1
  N  N16  1  0.681118  0.840559  0.583579  1
  N  N17  1  0.319761  0.159881  0.082980  1
  N  N18  1  0.840119  0.159881  0.082980  1
  N  N19  1  0.159441  0.318882  0.583579  1
  N  N20  1  0.494638  0.505362  0.816119  1
  N  N21  1  0.988213  0.494107  0.315622  1
  N  N22  1  0.505893  0.011787  0.315622  1
  N  N23  1  0.494638  0.989276  0.816119  1
  N  N24  1  0.505893  0.494107  0.315622  1
  N  N25  1  0.010724  0.505362  0.816119  1
