# generated using pymatgen
data_Ta3TiMnGa3B
_symmetry_space_group_name_H-M   'P 1'
_cell_length_a   7.68740200
_cell_length_b   7.68740164
_cell_length_c   5.10954600
_cell_angle_alpha   90.00000000
_cell_angle_beta   90.00000000
_cell_angle_gamma   120.00000157
_symmetry_Int_Tables_number   1
_chemical_formula_structural   Ta3TiMnGa3B
_chemical_formula_sum   'Ta6 Ti2 Mn2 Ga6 B2'
_cell_volume   261.50024635
_cell_formula_units_Z   2
loop_
 _symmetry_equiv_pos_site_id
 _symmetry_equiv_pos_as_xyz
  1  'x, y, z'
loop_
 _atom_site_type_symbol
 _atom_site_label
 _atom_site_symmetry_multiplicity
 _atom_site_fract_x
 _atom_site_fract_y
 _atom_site_fract_z
 _atom_site_occupancy
  Ta  Ta0  1  0.242632  0.000000  0.255636  1
  Ta  Ta1  1  0.757368  0.000000  0.744364  1
  Ta  Ta2  1  0.000000  0.242632  0.255636  1
  Ta  Ta3  1  0.000000  0.757368  0.744364  1
  Ta  Ta4  1  0.757368  0.757368  0.255636  1
  Ta  Ta5  1  0.242632  0.242632  0.744364  1
  Ti  Ti6  1  0.666667  0.333333  0.500000  1
  Ti  Ti7  1  0.333333  0.666667  0.500000  1
  Mn  Mn8  1  0.333333  0.666667  0.000000  1
  Mn  Mn9  1  0.666667  0.333333  0.000000  1
  Ga  Ga10  1  0.592767  0.000000  0.235234  1
  Ga  Ga11  1  0.407233  0.000000  0.764766  1
  Ga  Ga12  1  0.000000  0.592767  0.235234  1
  Ga  Ga13  1  0.000000  0.407233  0.764766  1
  Ga  Ga14  1  0.407233  0.407233  0.235234  1
  Ga  Ga15  1  0.592767  0.592767  0.764766  1
  B  B16  1  0.000000  0.000000  0.000000  1
  B  B17  1  0.000000  0.000000  0.500000  1
