# generated using pymatgen
data_Ba(FeCl4)2
_symmetry_space_group_name_H-M   'P 1'
_cell_length_a   7.27669400
_cell_length_b   8.21268098
_cell_length_c   12.96637220
_cell_angle_alpha   79.08771087
_cell_angle_beta   90.00000000
_cell_angle_gamma   90.00000000
_symmetry_Int_Tables_number   1
_chemical_formula_structural   Ba(FeCl4)2
_chemical_formula_sum   'Ba2 Fe4 Cl16'
_cell_volume   760.87414855
_cell_formula_units_Z   2
loop_
 _symmetry_equiv_pos_site_id
 _symmetry_equiv_pos_as_xyz
  1  'x, y, z'
loop_
 _atom_site_type_symbol
 _atom_site_label
 _atom_site_symmetry_multiplicity
 _atom_site_fract_x
 _atom_site_fract_y
 _atom_site_fract_z
 _atom_site_occupancy
  Ba  Ba0  1  0.855048  0.500000  0.750000  1
  Ba  Ba1  1  0.144952  0.500000  0.250000  1
  Fe  Fe2  1  0.274680  0.699069  0.559083  1
  Fe  Fe3  1  0.725320  0.699069  0.059083  1
  Fe  Fe4  1  0.725320  0.300931  0.440917  1
  Fe  Fe5  1  0.274680  0.300931  0.940917  1
  Cl  Cl6  1  0.801475  0.434033  0.105593  1
  Cl  Cl7  1  0.801475  0.565967  0.394407  1
  Cl  Cl8  1  0.275637  0.769338  0.385485  1
  Cl  Cl9  1  0.275637  0.230662  0.114515  1
  Cl  Cl10  1  0.724363  0.230662  0.614515  1
  Cl  Cl11  1  0.724363  0.769338  0.885485  1
  Cl  Cl12  1  0.058797  0.831227  0.630658  1
  Cl  Cl13  1  0.058797  0.168773  0.869342  1
  Cl  Cl14  1  0.941203  0.168773  0.369342  1
  Cl  Cl15  1  0.941203  0.831227  0.130658  1
  Cl  Cl16  1  0.549745  0.743561  0.621019  1
  Cl  Cl17  1  0.549745  0.256439  0.878981  1
  Cl  Cl18  1  0.450255  0.256439  0.378981  1
  Cl  Cl19  1  0.450255  0.743561  0.121019  1
  Cl  Cl20  1  0.198525  0.434033  0.605593  1
  Cl  Cl21  1  0.198525  0.565967  0.894407  1
