# generated using pymatgen
data_DyTmPaCo2
_symmetry_space_group_name_H-M   'P 1'
_cell_length_a   3.60184048
_cell_length_b   6.02941883
_cell_length_c   5.91827977
_cell_angle_alpha   120.62317056
_cell_angle_beta   107.71594323
_cell_angle_gamma   89.99999631
_symmetry_Int_Tables_number   1
_chemical_formula_structural   DyTmPaCo2
_chemical_formula_sum   'Dy1 Tm1 Pa1 Co2'
_cell_volume   103.45650454
_cell_formula_units_Z   1
loop_
 _symmetry_equiv_pos_site_id
 _symmetry_equiv_pos_as_xyz
  1  'x, y, z'
loop_
 _atom_site_type_symbol
 _atom_site_label
 _atom_site_symmetry_multiplicity
 _atom_site_fract_x
 _atom_site_fract_y
 _atom_site_fract_z
 _atom_site_occupancy
  Dy  Dy0  1  0.807473  0.307473  0.614946  1
  Tm  Tm1  1  0.191397  0.691397  0.382793  1
  Pa  Pa2  1  0.999601  0.999601  0.999203  1
  Co  Co3  1  0.500765  0.285880  0.001529  1
  Co  Co4  1  0.500765  0.715649  0.001529  1
