# generated using pymatgen
data_Na5Si6P6Ir19
_symmetry_space_group_name_H-M   'P 1'
_cell_length_a   12.71068000
_cell_length_b   12.71067969
_cell_length_c   3.96043800
_cell_angle_alpha   90.00000000
_cell_angle_beta   90.00000000
_cell_angle_gamma   119.99999560
_symmetry_Int_Tables_number   1
_chemical_formula_structural   Na5Si6P6Ir19
_chemical_formula_sum   'Na5 Si6 P6 Ir19'
_cell_volume   554.12970225
_cell_formula_units_Z   1
loop_
 _symmetry_equiv_pos_site_id
 _symmetry_equiv_pos_as_xyz
  1  'x, y, z'
loop_
 _atom_site_type_symbol
 _atom_site_label
 _atom_site_symmetry_multiplicity
 _atom_site_fract_x
 _atom_site_fract_y
 _atom_site_fract_z
 _atom_site_occupancy
  Na  Na0  1  0.333333  0.666667  0.500000  1
  Na  Na1  1  0.666667  0.333333  0.500000  1
  Na  Na2  1  0.001878  0.821250  0.000000  1
  Na  Na3  1  0.178750  0.180627  0.000000  1
  Na  Na4  1  0.819373  0.998122  0.000000  1
  Si  Si5  1  0.002863  0.637368  0.500000  1
  Si  Si6  1  0.362632  0.365494  0.500000  1
  Si  Si7  1  0.634506  0.997137  0.500000  1
  Si  Si8  1  0.519579  0.682324  0.000000  1
  Si  Si9  1  0.317676  0.837254  0.000000  1
  Si  Si10  1  0.162746  0.480421  0.000000  1
  P  P11  1  0.484099  0.177212  0.000000  1
  P  P12  1  0.693112  0.515901  0.000000  1
  P  P13  1  0.822788  0.306888  0.000000  1
  P  P14  1  0.996502  0.177657  0.500000  1
  P  P15  1  0.822343  0.818844  0.500000  1
  P  P16  1  0.181156  0.003498  0.500000  1
  Ir  Ir17  1  0.517822  0.872123  0.000000  1
  Ir  Ir18  1  0.127877  0.645700  0.000000  1
  Ir  Ir19  1  0.354300  0.482178  0.000000  1
  Ir  Ir20  1  0.493550  0.366250  0.000000  1
  Ir  Ir21  1  0.872702  0.506450  0.000000  1
  Ir  Ir22  1  0.633750  0.127298  0.000000  1
  Ir  Ir23  1  0.006733  0.453841  0.500000  1
  Ir  Ir24  1  0.546159  0.552892  0.500000  1
  Ir  Ir25  1  0.447108  0.993267  0.500000  1
  Ir  Ir26  1  0.991373  0.279438  0.000000  1
  Ir  Ir27  1  0.720562  0.711935  0.000000  1
  Ir  Ir28  1  0.288065  0.008627  0.000000  1
  Ir  Ir29  1  0.629557  0.805421  0.500000  1
  Ir  Ir30  1  0.194579  0.824136  0.500000  1
  Ir  Ir31  1  0.175864  0.370443  0.500000  1
  Ir  Ir32  1  0.384394  0.185958  0.500000  1
  Ir  Ir33  1  0.801565  0.615606  0.500000  1
  Ir  Ir34  1  0.814042  0.198435  0.500000  1
  Ir  Ir35  1  0.000000  0.000000  0.500000  1
