# generated using pymatgen
data_Tm5SiNiBi
_symmetry_space_group_name_H-M   'P 1'
_cell_length_a   8.40379704
_cell_length_b   8.40379673
_cell_length_c   8.65493366
_cell_angle_alpha   125.39421722
_cell_angle_beta   125.39421979
_cell_angle_gamma   78.87120401
_symmetry_Int_Tables_number   1
_chemical_formula_structural   Tm5SiNiBi
_chemical_formula_sum   'Tm10 Si2 Ni2 Bi2'
_cell_volume   396.74629713
_cell_formula_units_Z   2
loop_
 _symmetry_equiv_pos_site_id
 _symmetry_equiv_pos_as_xyz
  1  'x, y, z'
loop_
 _atom_site_type_symbol
 _atom_site_label
 _atom_site_symmetry_multiplicity
 _atom_site_fract_x
 _atom_site_fract_y
 _atom_site_fract_z
 _atom_site_occupancy
  Tm  Tm0  1  0.000000  0.000000  0.000000  1
  Tm  Tm1  1  0.500000  0.500000  0.000000  1
  Tm  Tm2  1  0.778483  0.278483  0.789792  1
  Tm  Tm3  1  0.221517  0.721517  0.210208  1
  Tm  Tm4  1  0.488691  0.988691  0.210208  1
  Tm  Tm5  1  0.296828  0.465632  0.500000  1
  Tm  Tm6  1  0.034368  0.203172  0.500000  1
  Tm  Tm7  1  0.511309  0.011309  0.789792  1
  Tm  Tm8  1  0.703172  0.534368  0.500000  1
  Tm  Tm9  1  0.965632  0.796828  0.500000  1
  Si  Si10  1  0.149187  0.649187  0.798376  1
  Si  Si11  1  0.850813  0.350813  0.201624  1
  Ni  Ni12  1  0.633169  0.866831  0.500000  1
  Ni  Ni13  1  0.366831  0.133169  0.500000  1
  Bi  Bi14  1  0.250000  0.250000  0.000000  1
  Bi  Bi15  1  0.750000  0.750000  0.000000  1
