# generated using pymatgen
data_Tm9Lu(Cu2Bi)2
_symmetry_space_group_name_H-M   'P 1'
_cell_length_a   8.49683372
_cell_length_b   8.49683411
_cell_length_c   8.49683481
_cell_angle_alpha   124.93730348
_cell_angle_beta   124.93729376
_cell_angle_gamma   81.64191144
_symmetry_Int_Tables_number   1
_chemical_formula_structural   Tm9Lu(Cu2Bi)2
_chemical_formula_sum   'Tm9 Lu1 Cu4 Bi2'
_cell_volume   396.74446900
_cell_formula_units_Z   1
loop_
 _symmetry_equiv_pos_site_id
 _symmetry_equiv_pos_as_xyz
  1  'x, y, z'
loop_
 _atom_site_type_symbol
 _atom_site_label
 _atom_site_symmetry_multiplicity
 _atom_site_fract_x
 _atom_site_fract_y
 _atom_site_fract_z
 _atom_site_occupancy
  Tm  Tm0  1  0.000000  0.000000  0.000000  1
  Tm  Tm1  1  0.791500  0.292413  0.806022  1
  Tm  Tm2  1  0.208500  0.707587  0.193978  1
  Tm  Tm3  1  0.486391  0.985477  0.193978  1
  Tm  Tm4  1  0.292413  0.486391  0.500913  1
  Tm  Tm5  1  0.014523  0.208500  0.500913  1
  Tm  Tm6  1  0.513609  0.014523  0.806022  1
  Tm  Tm7  1  0.707587  0.513609  0.499087  1
  Tm  Tm8  1  0.985477  0.791500  0.499087  1
  Lu  Lu9  1  0.500000  0.500000  0.000000  1
  Cu  Cu10  1  0.132920  0.633438  0.766358  1
  Cu  Cu11  1  0.867080  0.366562  0.233642  1
  Cu  Cu12  1  0.633438  0.867080  0.500519  1
  Cu  Cu13  1  0.366562  0.132920  0.499481  1
  Bi  Bi14  1  0.250193  0.250193  0.000000  1
  Bi  Bi15  1  0.749807  0.749807  0.000000  1
