# generated using pymatgen
data_Nd6ErScAu10
_symmetry_space_group_name_H-M   'P 1'
_cell_length_a   8.17000170
_cell_length_b   8.17000193
_cell_length_c   8.17000148
_cell_angle_alpha   65.94901261
_cell_angle_beta   65.94901467
_cell_angle_gamma   65.94899307
_symmetry_Int_Tables_number   1
_chemical_formula_structural   Nd6ErScAu10
_chemical_formula_sum   'Nd6 Er1 Sc1 Au10'
_cell_volume   435.27993881
_cell_formula_units_Z   1
loop_
 _symmetry_equiv_pos_site_id
 _symmetry_equiv_pos_as_xyz
  1  'x, y, z'
loop_
 _atom_site_type_symbol
 _atom_site_label
 _atom_site_symmetry_multiplicity
 _atom_site_fract_x
 _atom_site_fract_y
 _atom_site_fract_z
 _atom_site_occupancy
  Nd  Nd0  1  0.893700  0.184859  0.620788  1
  Nd  Nd1  1  0.620788  0.893700  0.184859  1
  Nd  Nd2  1  0.184859  0.620788  0.893700  1
  Nd  Nd3  1  0.109420  0.812301  0.378502  1
  Nd  Nd4  1  0.378502  0.109420  0.812301  1
  Nd  Nd5  1  0.812301  0.378502  0.109420  1
  Er  Er6  1  0.656673  0.656673  0.656673  1
  Sc  Sc7  1  0.343070  0.343070  0.343070  1
  Au  Au8  1  0.000341  0.000341  0.000341  1
  Au  Au9  1  0.498100  0.498100  0.498100  1
  Au  Au10  1  0.803864  0.803864  0.803864  1
  Au  Au11  1  0.198332  0.198332  0.198332  1
  Au  Au12  1  0.943081  0.546769  0.320729  1
  Au  Au13  1  0.320729  0.943081  0.546769  1
  Au  Au14  1  0.546769  0.320729  0.943081  1
  Au  Au15  1  0.063406  0.450727  0.675340  1
  Au  Au16  1  0.675340  0.063406  0.450727  1
  Au  Au17  1  0.450727  0.675340  0.063406  1
