# generated using pymatgen
data_Tm6Lu6TcNi4Sn
_symmetry_space_group_name_H-M   'P 1'
_cell_length_a   8.16465120
_cell_length_b   8.16465011
_cell_length_c   8.16465093
_cell_angle_alpha   111.93624615
_cell_angle_beta   109.77458639
_cell_angle_gamma   106.74452213
_symmetry_Int_Tables_number   1
_chemical_formula_structural   Tm6Lu6TcNi4Sn
_chemical_formula_sum   'Tm6 Lu6 Tc1 Ni4 Sn1'
_cell_volume   418.11367061
_cell_formula_units_Z   1
loop_
 _symmetry_equiv_pos_site_id
 _symmetry_equiv_pos_as_xyz
  1  'x, y, z'
loop_
 _atom_site_type_symbol
 _atom_site_label
 _atom_site_symmetry_multiplicity
 _atom_site_fract_x
 _atom_site_fract_y
 _atom_site_fract_z
 _atom_site_occupancy
  Tm  Tm0  1  0.679681  0.873071  0.193390  1
  Tm  Tm1  1  0.320319  0.513708  0.193390  1
  Tm  Tm2  1  0.819344  0.779343  0.598688  1
  Tm  Tm3  1  0.180656  0.779343  0.960000  1
  Tm  Tm4  1  0.818538  0.220931  0.039468  1
  Tm  Tm5  1  0.181462  0.220931  0.402392  1
  Lu  Lu6  1  0.678957  0.486040  0.807082  1
  Lu  Lu7  1  0.321043  0.128125  0.807082  1
  Lu  Lu8  1  0.585730  0.276810  0.309225  1
  Lu  Lu9  1  0.414270  0.723496  0.691080  1
  Lu  Lu10  1  0.032415  0.723496  0.309225  1
  Lu  Lu11  1  0.967585  0.276810  0.691080  1
  Tc  Tc12  1  0.000000  0.499656  0.499656  1
  Ni  Ni13  1  0.353739  0.499265  0.853004  1
  Ni  Ni14  1  0.646261  0.499265  0.145526  1
  Ni  Ni15  1  0.879723  0.879296  0.999573  1
  Ni  Ni16  1  0.120277  0.119849  0.999573  1
  Sn  Sn17  1  0.500000  0.000567  0.500567  1
