# generated using pymatgen
data_Pa4Ga7Tc5Pd
_symmetry_space_group_name_H-M   'P 1'
_cell_length_a   7.35470754
_cell_length_b   7.36500360
_cell_length_c   7.36093151
_cell_angle_alpha   111.64705272
_cell_angle_beta   108.40435444
_cell_angle_gamma   108.42722685
_symmetry_Int_Tables_number   1
_chemical_formula_structural   Pa4Ga7Tc5Pd
_chemical_formula_sum   'Pa4 Ga7 Tc5 Pd1'
_cell_volume   306.44467249
_cell_formula_units_Z   1
loop_
 _symmetry_equiv_pos_site_id
 _symmetry_equiv_pos_as_xyz
  1  'x, y, z'
loop_
 _atom_site_type_symbol
 _atom_site_label
 _atom_site_symmetry_multiplicity
 _atom_site_fract_x
 _atom_site_fract_y
 _atom_site_fract_z
 _atom_site_occupancy
  Pa  Pa0  1  0.024820  0.012410  0.512410  1
  Pa  Pa1  1  0.975132  0.487566  0.987566  1
  Pa  Pa2  1  0.500012  0.012461  0.987607  1
  Pa  Pa3  1  0.500012  0.487551  0.512405  1
  Ga  Ga4  1  0.499954  0.749976  0.249976  1
  Ga  Ga5  1  0.691370  0.699439  0.008092  1
  Ga  Ga6  1  0.308643  0.991906  0.300595  1
  Ga  Ga7  1  0.000028  0.317721  0.317702  1
  Ga  Ga8  1  0.308643  0.316737  0.008049  1
  Ga  Ga9  1  0.691370  0.991931  0.683277  1
  Ga  Ga10  1  0.000028  0.682308  0.682326  1
  Tc  Tc11  1  0.747021  0.243580  0.496481  1
  Tc  Tc12  1  0.747021  0.503442  0.250541  1
  Tc  Tc13  1  0.500005  0.250003  0.750003  1
  Tc  Tc14  1  0.252977  0.503482  0.756392  1
  Tc  Tc15  1  0.252977  0.749494  0.496583  1
  Pd  Pd16  1  0.999990  0.999995  0.999995  1
