# generated using pymatgen
data_Ho8ScAl(SiB4)4
_symmetry_space_group_name_H-M   'P 1'
_cell_length_a   7.13911400
_cell_length_b   7.13911400
_cell_length_c   7.81815900
_cell_angle_alpha   90.00000000
_cell_angle_beta   90.00000000
_cell_angle_gamma   90.00000000
_symmetry_Int_Tables_number   1
_chemical_formula_structural   Ho8ScAl(SiB4)4
_chemical_formula_sum   'Ho8 Sc1 Al1 Si4 B16'
_cell_volume   398.46770872
_cell_formula_units_Z   1
loop_
 _symmetry_equiv_pos_site_id
 _symmetry_equiv_pos_as_xyz
  1  'x, y, z'
loop_
 _atom_site_type_symbol
 _atom_site_label
 _atom_site_symmetry_multiplicity
 _atom_site_fract_x
 _atom_site_fract_y
 _atom_site_fract_z
 _atom_site_occupancy
  Ho  Ho0  1  0.680072  0.181808  0.230210  1
  Ho  Ho1  1  0.319928  0.818192  0.769790  1
  Ho  Ho2  1  0.319928  0.818192  0.230210  1
  Ho  Ho3  1  0.818192  0.680072  0.230210  1
  Ho  Ho4  1  0.818192  0.680072  0.769790  1
  Ho  Ho5  1  0.680072  0.181808  0.769790  1
  Ho  Ho6  1  0.181808  0.319928  0.769790  1
  Ho  Ho7  1  0.181808  0.319928  0.230210  1
  Sc  Sc8  1  0.000000  0.000000  0.500000  1
  Al  Al9  1  0.500000  0.500000  0.500000  1
  Si  Si10  1  0.115771  0.619744  0.500000  1
  Si  Si11  1  0.884229  0.380256  0.500000  1
  Si  Si12  1  0.380256  0.115771  0.500000  1
  Si  Si13  1  0.619744  0.884229  0.500000  1
  B  B14  1  0.172637  0.039445  0.000000  1
  B  B15  1  0.827363  0.960555  0.000000  1
  B  B16  1  0.960555  0.172637  0.000000  1
  B  B17  1  0.325725  0.539722  0.000000  1
  B  B18  1  0.039445  0.827363  0.000000  1
  B  B19  1  0.674275  0.460278  0.000000  1
  B  B20  1  0.539722  0.674275  0.000000  1
  B  B21  1  0.460278  0.325725  0.000000  1
  B  B22  1  0.088512  0.589582  0.000000  1
  B  B23  1  0.911488  0.410418  0.000000  1
  B  B24  1  0.410418  0.088512  0.000000  1
  B  B25  1  0.589582  0.911488  0.000000  1
  B  B26  1  0.000000  0.000000  0.168297  1
  B  B27  1  0.000000  0.000000  0.831703  1
  B  B28  1  0.500000  0.500000  0.834775  1
  B  B29  1  0.500000  0.500000  0.165225  1
