# generated using pymatgen
data_Dy3Co8P6Os
_symmetry_space_group_name_H-M   'P 1'
_cell_length_a   3.71255500
_cell_length_b   10.48793900
_cell_length_c   12.22387500
_cell_angle_alpha   90.00000000
_cell_angle_beta   90.00000000
_cell_angle_gamma   90.00000000
_symmetry_Int_Tables_number   1
_chemical_formula_structural   Dy3Co8P6Os
_chemical_formula_sum   'Dy6 Co16 P12 Os2'
_cell_volume   475.96163664
_cell_formula_units_Z   2
loop_
 _symmetry_equiv_pos_site_id
 _symmetry_equiv_pos_as_xyz
  1  'x, y, z'
loop_
 _atom_site_type_symbol
 _atom_site_label
 _atom_site_symmetry_multiplicity
 _atom_site_fract_x
 _atom_site_fract_y
 _atom_site_fract_z
 _atom_site_occupancy
  Dy  Dy0  1  0.000000  0.500000  0.524416  1
  Dy  Dy1  1  0.500000  0.000000  0.475584  1
  Dy  Dy2  1  0.500000  0.817189  0.206724  1
  Dy  Dy3  1  0.500000  0.182811  0.206724  1
  Dy  Dy4  1  0.000000  0.682811  0.793276  1
  Dy  Dy5  1  0.000000  0.317189  0.793276  1
  Co  Co6  1  0.500000  0.500000  0.703723  1
  Co  Co7  1  0.000000  0.000000  0.296277  1
  Co  Co8  1  0.000000  0.500000  0.986931  1
  Co  Co9  1  0.500000  0.000000  0.013069  1
  Co  Co10  1  0.500000  0.332673  0.990263  1
  Co  Co11  1  0.500000  0.667327  0.990263  1
  Co  Co12  1  0.000000  0.167327  0.009737  1
  Co  Co13  1  0.000000  0.832673  0.009737  1
  Co  Co14  1  0.500000  0.297279  0.430714  1
  Co  Co15  1  0.500000  0.702721  0.430714  1
  Co  Co16  1  0.000000  0.202721  0.569286  1
  Co  Co17  1  0.000000  0.797279  0.569286  1
  Co  Co18  1  0.500000  0.879422  0.709009  1
  Co  Co19  1  0.500000  0.120578  0.709009  1
  Co  Co20  1  0.000000  0.620578  0.290991  1
  Co  Co21  1  0.000000  0.379422  0.290991  1
  P  P22  1  0.500000  0.500000  0.880967  1
  P  P23  1  0.000000  0.000000  0.119033  1
  P  P24  1  0.500000  0.500000  0.350503  1
  P  P25  1  0.000000  0.000000  0.649497  1
  P  P26  1  0.500000  0.311592  0.616059  1
  P  P27  1  0.500000  0.688408  0.616059  1
  P  P28  1  0.000000  0.188408  0.383941  1
  P  P29  1  0.000000  0.811592  0.383941  1
  P  P30  1  0.500000  0.846342  0.893191  1
  P  P31  1  0.500000  0.153658  0.893191  1
  P  P32  1  0.000000  0.653658  0.106809  1
  P  P33  1  0.000000  0.346342  0.106809  1
  Os  Os34  1  0.500000  0.500000  0.158763  1
  Os  Os35  1  0.000000  0.000000  0.841237  1
