# generated using pymatgen
data_Y12Ho4MgAg3Rh4
_symmetry_space_group_name_H-M   'P 1'
_cell_length_a   9.59071176
_cell_length_b   9.60233394
_cell_length_c   9.60217600
_cell_angle_alpha   60.00020566
_cell_angle_beta   59.96036223
_cell_angle_gamma   59.96090909
_symmetry_Int_Tables_number   1
_chemical_formula_structural   Y12Ho4MgAg3Rh4
_chemical_formula_sum   'Y12 Ho4 Mg1 Ag3 Rh4'
_cell_volume   624.91985644
_cell_formula_units_Z   1
loop_
 _symmetry_equiv_pos_site_id
 _symmetry_equiv_pos_as_xyz
  1  'x, y, z'
loop_
 _atom_site_type_symbol
 _atom_site_label
 _atom_site_symmetry_multiplicity
 _atom_site_fract_x
 _atom_site_fract_y
 _atom_site_fract_z
 _atom_site_occupancy
  Y  Y0  1  0.060784  0.438482  0.438492  1
  Y  Y1  1  0.436403  0.063084  0.063086  1
  Y  Y2  1  0.436405  0.063088  0.437426  1
  Y  Y3  1  0.060770  0.438482  0.062260  1
  Y  Y4  1  0.436396  0.437427  0.063097  1
  Y  Y5  1  0.060777  0.062228  0.438501  1
  Y  Y6  1  0.184587  0.813788  0.813791  1
  Y  Y7  1  0.813487  0.185467  0.185473  1
  Y  Y8  1  0.813482  0.185470  0.815576  1
  Y  Y9  1  0.184596  0.813780  0.187838  1
  Y  Y10  1  0.813476  0.815581  0.185474  1
  Y  Y11  1  0.184593  0.187835  0.813786  1
  Ho  Ho12  1  0.602194  0.600060  0.600064  1
  Ho  Ho13  1  0.602191  0.600068  0.197676  1
  Ho  Ho14  1  0.602185  0.197686  0.600065  1
  Ho  Ho15  1  0.182801  0.605740  0.605733  1
  Mg  Mg16  1  0.538478  0.820503  0.820493  1
  Ag  Ag17  1  0.832275  0.834036  0.834031  1
  Ag  Ag18  1  0.832273  0.834034  0.499653  1
  Ag  Ag19  1  0.832274  0.499657  0.834032  1
  Rh  Rh20  1  0.391197  0.396245  0.396223  1
  Rh  Rh21  1  0.391219  0.396246  0.816320  1
  Rh  Rh22  1  0.391263  0.816331  0.396202  1
  Rh  Rh23  1  0.815895  0.394685  0.394706  1
