# generated using pymatgen
data_YbAg3(NO3)8
_symmetry_space_group_name_H-M   'P 1'
_cell_length_a   7.99316028
_cell_length_b   7.99315961
_cell_length_c   7.99315990
_cell_angle_alpha   89.57276053
_cell_angle_beta   89.57275788
_cell_angle_gamma   89.57275418
_symmetry_Int_Tables_number   1
_chemical_formula_structural   YbAg3(NO3)8
_chemical_formula_sum   'Yb1 Ag3 N8 O24'
_cell_volume   510.64544608
_cell_formula_units_Z   1
loop_
 _symmetry_equiv_pos_site_id
 _symmetry_equiv_pos_as_xyz
  1  'x, y, z'
loop_
 _atom_site_type_symbol
 _atom_site_label
 _atom_site_symmetry_multiplicity
 _atom_site_fract_x
 _atom_site_fract_y
 _atom_site_fract_z
 _atom_site_occupancy
  Yb  Yb0  1  0.000000  0.000000  0.000000  1
  Ag  Ag1  1  0.000000  0.500000  0.500000  1
  Ag  Ag2  1  0.500000  0.500000  0.000000  1
  Ag  Ag3  1  0.500000  0.000000  0.500000  1
  N  N4  1  0.334135  0.334135  0.334135  1
  N  N5  1  0.335280  0.167003  0.834240  1
  N  N6  1  0.167003  0.834240  0.335280  1
  N  N7  1  0.834240  0.335280  0.167003  1
  N  N8  1  0.665865  0.665865  0.665865  1
  N  N9  1  0.165760  0.664720  0.832997  1
  N  N10  1  0.832997  0.165760  0.664720  1
  N  N11  1  0.664720  0.832997  0.165760  1
  O  O12  1  0.732181  0.317782  0.047037  1
  O  O13  1  0.183258  0.951857  0.230207  1
  O  O14  1  0.266237  0.816652  0.455589  1
  O  O15  1  0.230207  0.183258  0.951857  1
  O  O16  1  0.233425  0.313976  0.454907  1
  O  O17  1  0.454907  0.233425  0.313976  1
  O  O18  1  0.313976  0.454907  0.233425  1
  O  O19  1  0.183348  0.544411  0.733763  1
  O  O20  1  0.952963  0.267819  0.682218  1
  O  O21  1  0.682218  0.952963  0.267819  1
  O  O22  1  0.048143  0.769793  0.816742  1
  O  O23  1  0.544411  0.733763  0.183348  1
  O  O24  1  0.816742  0.048143  0.769793  1
  O  O25  1  0.733763  0.183348  0.544411  1
  O  O26  1  0.769793  0.816742  0.048143  1
  O  O27  1  0.267819  0.682218  0.952963  1
  O  O28  1  0.766575  0.686024  0.545093  1
  O  O29  1  0.545093  0.766575  0.686024  1
  O  O30  1  0.686024  0.545093  0.766575  1
  O  O31  1  0.816652  0.455589  0.266237  1
  O  O32  1  0.047037  0.732181  0.317782  1
  O  O33  1  0.317782  0.047037  0.732181  1
  O  O34  1  0.951857  0.230207  0.183258  1
  O  O35  1  0.455589  0.266237  0.816652  1
