# generated using pymatgen
data_Er4Al18ReIrPd4
_symmetry_space_group_name_H-M   'P 1'
_cell_length_a   7.59849234
_cell_length_b   7.59849203
_cell_length_c   9.48307536
_cell_angle_alpha   89.81755834
_cell_angle_beta   89.81755856
_cell_angle_gamma   119.31045441
_symmetry_Int_Tables_number   1
_chemical_formula_structural   Er4Al18ReIrPd4
_chemical_formula_sum   'Er4 Al18 Re1 Ir1 Pd4'
_cell_volume   477.42144527
_cell_formula_units_Z   1
loop_
 _symmetry_equiv_pos_site_id
 _symmetry_equiv_pos_as_xyz
  1  'x, y, z'
loop_
 _atom_site_type_symbol
 _atom_site_label
 _atom_site_symmetry_multiplicity
 _atom_site_fract_x
 _atom_site_fract_y
 _atom_site_fract_z
 _atom_site_occupancy
  Er  Er0  1  0.994485  0.673931  0.248423  1
  Er  Er1  1  0.005515  0.326069  0.751577  1
  Er  Er2  1  0.673931  0.994485  0.248423  1
  Er  Er3  1  0.326069  0.005515  0.751577  1
  Al  Al4  1  0.128571  0.128571  0.249714  1
  Al  Al5  1  0.871429  0.871429  0.750286  1
  Al  Al6  1  0.000474  0.331962  0.076173  1
  Al  Al7  1  0.999526  0.668038  0.923827  1
  Al  Al8  1  0.999822  0.666570  0.577153  1
  Al  Al9  1  0.333430  0.000178  0.422847  1
  Al  Al10  1  0.000178  0.333430  0.422847  1
  Al  Al11  1  0.666570  0.999822  0.577153  1
  Al  Al12  1  0.668038  0.999526  0.923827  1
  Al  Al13  1  0.331962  0.000474  0.076173  1
  Al  Al14  1  0.330230  0.330230  0.556060  1
  Al  Al15  1  0.669770  0.669770  0.443940  1
  Al  Al16  1  0.669234  0.669234  0.055088  1
  Al  Al17  1  0.330766  0.330766  0.944912  1
  Al  Al18  1  0.341994  0.549576  0.250122  1
  Al  Al19  1  0.658006  0.450424  0.749878  1
  Al  Al20  1  0.549576  0.341994  0.250122  1
  Al  Al21  1  0.450424  0.658006  0.749878  1
  Re  Re22  1  0.000000  0.000000  0.000000  1
  Ir  Ir23  1  0.000000  0.000000  0.500000  1
  Pd  Pd24  1  0.672238  0.327762  0.000000  1
  Pd  Pd25  1  0.327762  0.672238  0.000000  1
  Pd  Pd26  1  0.327841  0.672159  0.500000  1
  Pd  Pd27  1  0.672159  0.327841  0.500000  1
