# generated using pymatgen
data_LaPr(Cd2Pt)4
_symmetry_space_group_name_H-M   'P 1'
_cell_length_a   8.60288334
_cell_length_b   8.60288476
_cell_length_c   4.25183600
_cell_angle_alpha   90.00000000
_cell_angle_beta   90.00000000
_cell_angle_gamma   90.46861883
_symmetry_Int_Tables_number   1
_chemical_formula_structural   LaPr(Cd2Pt)4
_chemical_formula_sum   'La1 Pr1 Cd8 Pt4'
_cell_volume   314.66621606
_cell_formula_units_Z   1
loop_
 _symmetry_equiv_pos_site_id
 _symmetry_equiv_pos_as_xyz
  1  'x, y, z'
loop_
 _atom_site_type_symbol
 _atom_site_label
 _atom_site_symmetry_multiplicity
 _atom_site_fract_x
 _atom_site_fract_y
 _atom_site_fract_z
 _atom_site_occupancy
  La  La0  1  0.500000  0.500000  0.500000  1
  Pr  Pr1  1  0.000000  0.000000  0.000000  1
  Cd  Cd2  1  0.342807  0.099225  0.500000  1
  Cd  Cd3  1  0.657193  0.900775  0.500000  1
  Cd  Cd4  1  0.843010  0.400958  0.000000  1
  Cd  Cd5  1  0.156990  0.599042  0.000000  1
  Cd  Cd6  1  0.099225  0.342807  0.500000  1
  Cd  Cd7  1  0.900775  0.657193  0.500000  1
  Cd  Cd8  1  0.400958  0.843010  0.000000  1
  Cd  Cd9  1  0.599042  0.156990  0.000000  1
  Pt  Pt10  1  0.817906  0.182094  0.500000  1
  Pt  Pt11  1  0.182094  0.817906  0.500000  1
  Pt  Pt12  1  0.318129  0.318129  0.000000  1
  Pt  Pt13  1  0.681871  0.681871  0.000000  1
