# generated using pymatgen
data_CeDy4MnFeB6
_symmetry_space_group_name_H-M   'P 1'
_cell_length_a   5.41913760
_cell_length_b   5.41913778
_cell_length_c   8.03880871
_cell_angle_alpha   70.30208157
_cell_angle_beta   70.30208925
_cell_angle_gamma   59.99998931
_symmetry_Int_Tables_number   1
_chemical_formula_structural   CeDy4MnFeB6
_chemical_formula_sum   'Ce1 Dy4 Mn1 Fe1 B6'
_cell_volume   188.32746413
_cell_formula_units_Z   1
loop_
 _symmetry_equiv_pos_site_id
 _symmetry_equiv_pos_as_xyz
  1  'x, y, z'
loop_
 _atom_site_type_symbol
 _atom_site_label
 _atom_site_symmetry_multiplicity
 _atom_site_fract_x
 _atom_site_fract_y
 _atom_site_fract_z
 _atom_site_occupancy
  Ce  Ce0  1  0.003154  0.003154  0.990539  1
  Dy  Dy1  1  0.252542  0.252542  0.242375  1
  Dy  Dy2  1  0.747696  0.747696  0.756911  1
  Dy  Dy3  1  0.415047  0.415047  0.754860  1
  Dy  Dy4  1  0.585330  0.585330  0.244008  1
  Mn  Mn5  1  0.108696  0.108696  0.673913  1
  Fe  Fe6  1  0.888336  0.888336  0.334993  1
  B  B7  1  0.166332  0.833281  0.500400  1
  B  B8  1  0.833281  0.499987  0.500400  1
  B  B9  1  0.499987  0.166332  0.500400  1
  B  B10  1  0.166332  0.499987  0.500400  1
  B  B11  1  0.499987  0.833281  0.500400  1
  B  B12  1  0.833281  0.166332  0.500400  1
