# generated using pymatgen
data_Lu16MgIn3Pt4
_symmetry_space_group_name_H-M   'P 1'
_cell_length_a   9.54942018
_cell_length_b   9.54941964
_cell_length_c   9.54942022
_cell_angle_alpha   59.69046099
_cell_angle_beta   59.69046030
_cell_angle_gamma   59.69045997
_symmetry_Int_Tables_number   1
_chemical_formula_structural   Lu16MgIn3Pt4
_chemical_formula_sum   'Lu16 Mg1 In3 Pt4'
_cell_volume   611.43659498
_cell_formula_units_Z   1
loop_
 _symmetry_equiv_pos_site_id
 _symmetry_equiv_pos_as_xyz
  1  'x, y, z'
loop_
 _atom_site_type_symbol
 _atom_site_label
 _atom_site_symmetry_multiplicity
 _atom_site_fract_x
 _atom_site_fract_y
 _atom_site_fract_z
 _atom_site_occupancy
  Lu  Lu0  1  0.601130  0.601130  0.601130  1
  Lu  Lu1  1  0.601394  0.601394  0.195212  1
  Lu  Lu2  1  0.601394  0.195212  0.601394  1
  Lu  Lu3  1  0.195212  0.601394  0.601394  1
  Lu  Lu4  1  0.060981  0.439659  0.439659  1
  Lu  Lu5  1  0.440626  0.061192  0.061192  1
  Lu  Lu6  1  0.439659  0.060981  0.439659  1
  Lu  Lu7  1  0.061192  0.440626  0.061192  1
  Lu  Lu8  1  0.439659  0.439659  0.060981  1
  Lu  Lu9  1  0.061192  0.061192  0.440626  1
  Lu  Lu10  1  0.185471  0.814708  0.814708  1
  Lu  Lu11  1  0.810756  0.187581  0.187581  1
  Lu  Lu12  1  0.814708  0.185471  0.814708  1
  Lu  Lu13  1  0.187581  0.810756  0.187581  1
  Lu  Lu14  1  0.814708  0.814708  0.185471  1
  Lu  Lu15  1  0.187581  0.187581  0.810756  1
  Mg  Mg16  1  0.829794  0.829794  0.829794  1
  In  In17  1  0.834026  0.834026  0.499702  1
  In  In18  1  0.834026  0.499702  0.834026  1
  In  In19  1  0.499702  0.834026  0.834026  1
  Pt  Pt20  1  0.393308  0.393308  0.393308  1
  Pt  Pt21  1  0.392610  0.392610  0.820677  1
  Pt  Pt22  1  0.392610  0.820677  0.392610  1
  Pt  Pt23  1  0.820677  0.392610  0.392610  1
