# generated using pymatgen
data_La14CoNi5
_symmetry_space_group_name_H-M   'P 1'
_cell_length_a   10.03680636
_cell_length_b   10.02778067
_cell_length_c   6.45357951
_cell_angle_alpha   89.99999902
_cell_angle_beta   89.97821178
_cell_angle_gamma   119.97025042
_symmetry_Int_Tables_number   1
_chemical_formula_structural   La14CoNi5
_chemical_formula_sum   'La14 Co1 Ni5'
_cell_volume   562.68033846
_cell_formula_units_Z   1
loop_
 _symmetry_equiv_pos_site_id
 _symmetry_equiv_pos_as_xyz
  1  'x, y, z'
loop_
 _atom_site_type_symbol
 _atom_site_label
 _atom_site_symmetry_multiplicity
 _atom_site_fract_x
 _atom_site_fract_y
 _atom_site_fract_z
 _atom_site_occupancy
  La  La0  1  0.459568  0.536577  0.315410  1
  La  La1  1  0.333236  0.666619  0.781963  1
  La  La2  1  0.872461  0.125849  0.500368  1
  La  La3  1  0.746625  0.873313  0.000355  1
  La  La4  1  0.872461  0.746612  0.500368  1
  La  La5  1  0.077527  0.538764  0.310820  1
  La  La6  1  0.130512  0.880053  0.000431  1
  La  La7  1  0.535791  0.081422  0.814677  1
  La  La8  1  0.925926  0.462962  0.812937  1
  La  La9  1  0.664421  0.332210  0.277127  1
  La  La10  1  0.459568  0.922992  0.315410  1
  La  La11  1  0.253553  0.126776  0.495478  1
  La  La12  1  0.535791  0.454367  0.814677  1
  La  La13  1  0.130512  0.250460  0.000431  1
  Co  Co14  1  0.374610  0.187305  0.047558  1
  Ni  Ni15  1  0.185916  0.811764  0.551946  1
  Ni  Ni16  1  0.814777  0.627467  0.050078  1
  Ni  Ni17  1  0.185916  0.374152  0.551946  1
  Ni  Ni18  1  0.814777  0.187309  0.050078  1
  Ni  Ni19  1  0.626054  0.813027  0.549944  1
