# generated using pymatgen
data_Sr2TaNb(NO2)2
_symmetry_space_group_name_H-M   'P 1'
_cell_length_a   5.73861723
_cell_length_b   5.73980951
_cell_length_c   8.28456400
_cell_angle_alpha   89.80720854
_cell_angle_beta   89.91284464
_cell_angle_gamma   90.11963804
_symmetry_Int_Tables_number   1
_chemical_formula_structural   Sr2TaNb(NO2)2
_chemical_formula_sum   'Sr4 Ta2 Nb2 N4 O8'
_cell_volume   272.87923045
_cell_formula_units_Z   2
loop_
 _symmetry_equiv_pos_site_id
 _symmetry_equiv_pos_as_xyz
  1  'x, y, z'
loop_
 _atom_site_type_symbol
 _atom_site_label
 _atom_site_symmetry_multiplicity
 _atom_site_fract_x
 _atom_site_fract_y
 _atom_site_fract_z
 _atom_site_occupancy
  Sr  Sr0  1  0.003433  0.505323  0.257540  1
  Sr  Sr1  1  0.514977  0.015221  0.259015  1
  Sr  Sr2  1  0.976203  0.507013  0.755328  1
  Sr  Sr3  1  0.488722  0.006303  0.758920  1
  Ta  Ta4  1  0.485109  0.513360  0.503022  1
  Ta  Ta5  1  0.995344  0.997181  0.003311  1
  Nb  Nb6  1  0.506488  0.517922  0.018616  1
  Nb  Nb7  1  0.004557  0.003475  0.521651  1
  N  N8  1  0.498810  0.533952  0.246844  1
  N  N9  1  0.227166  0.729089  0.514277  1
  N  N10  1  0.003941  0.040215  0.747497  1
  N  N11  1  0.728917  0.769276  0.975827  1
  O  O12  1  0.783300  0.269053  0.017136  1
  O  O13  1  0.285015  0.204708  0.013009  1
  O  O14  1  0.997334  0.956141  0.239688  1
  O  O15  1  0.273162  0.231371  0.473550  1
  O  O16  1  0.772455  0.270181  0.466659  1
  O  O17  1  0.723873  0.771088  0.518719  1
  O  O18  1  0.513090  0.444110  0.737875  1
  O  O19  1  0.218100  0.715017  0.971517  1
