# generated using pymatgen
data_BeNb6(CuS4)3
_symmetry_space_group_name_H-M   'P 1'
_cell_length_a   3.37374602
_cell_length_b   8.90699148
_cell_length_c   13.08689600
_cell_angle_alpha   89.89613154
_cell_angle_beta   90.00633460
_cell_angle_gamma   79.04223083
_symmetry_Int_Tables_number   1
_chemical_formula_structural   BeNb6(CuS4)3
_chemical_formula_sum   'Be1 Nb6 Cu3 S12'
_cell_volume   386.08949844
_cell_formula_units_Z   1
loop_
 _symmetry_equiv_pos_site_id
 _symmetry_equiv_pos_as_xyz
  1  'x, y, z'
loop_
 _atom_site_type_symbol
 _atom_site_label
 _atom_site_symmetry_multiplicity
 _atom_site_fract_x
 _atom_site_fract_y
 _atom_site_fract_z
 _atom_site_occupancy
  Be  Be0  1  0.115933  0.768278  0.456756  1
  Nb  Nb1  1  0.445112  0.109791  0.254475  1
  Nb  Nb2  1  0.774301  0.451772  0.254409  1
  Nb  Nb3  1  0.111781  0.776741  0.253103  1
  Nb  Nb4  1  0.888838  0.222045  0.749160  1
  Nb  Nb5  1  0.223059  0.554726  0.746062  1
  Nb  Nb6  1  0.557808  0.885565  0.742863  1
  Cu  Cu7  1  0.447347  0.106233  0.036990  1
  Cu  Cu8  1  0.218434  0.562688  0.962735  1
  Cu  Cu9  1  0.885330  0.227406  0.536486  1
  S  S10  1  0.445550  0.107827  0.626591  1
  S  S11  1  0.775146  0.448879  0.627956  1
  S  S12  1  0.112532  0.774910  0.619785  1
  S  S13  1  0.887748  0.224773  0.369846  1
  S  S14  1  0.221768  0.557138  0.378933  1
  S  S15  1  0.555940  0.888065  0.384521  1
  S  S16  1  0.886021  0.228602  0.132079  1
  S  S17  1  0.221049  0.558783  0.133417  1
  S  S18  1  0.558346  0.883870  0.133892  1
  S  S19  1  0.446487  0.106474  0.866370  1
  S  S20  1  0.779895  0.439825  0.870093  1
  S  S21  1  0.108244  0.782278  0.863475  1
