# generated using pymatgen
data_Nd2Te2IClO6
_symmetry_space_group_name_H-M   'P 1'
_cell_length_a   6.97802400
_cell_length_b   8.29281410
_cell_length_c   9.22750614
_cell_angle_alpha   72.23423280
_cell_angle_beta   90.00000000
_cell_angle_gamma   90.00000000
_symmetry_Int_Tables_number   1
_chemical_formula_structural   Nd2Te2IClO6
_chemical_formula_sum   'Nd4 Te4 I2 Cl2 O12'
_cell_volume   508.50816263
_cell_formula_units_Z   2
loop_
 _symmetry_equiv_pos_site_id
 _symmetry_equiv_pos_as_xyz
  1  'x, y, z'
loop_
 _atom_site_type_symbol
 _atom_site_label
 _atom_site_symmetry_multiplicity
 _atom_site_fract_x
 _atom_site_fract_y
 _atom_site_fract_z
 _atom_site_occupancy
  Nd  Nd0  1  0.839645  0.327778  0.411129  1
  Nd  Nd1  1  0.157763  0.679469  0.576261  1
  Nd  Nd2  1  0.342237  0.179469  0.576261  1
  Nd  Nd3  1  0.660355  0.827778  0.411129  1
  Te  Te4  1  0.191329  0.030205  0.259973  1
  Te  Te5  1  0.815389  0.975639  0.733342  1
  Te  Te6  1  0.308671  0.530205  0.259973  1
  Te  Te7  1  0.684611  0.475639  0.733342  1
  I  I8  1  0.346570  0.839567  0.869649  1
  I  I9  1  0.153430  0.339567  0.869649  1
  Cl  Cl10  1  0.650796  0.134441  0.174060  1
  Cl  Cl11  1  0.849204  0.634441  0.174060  1
  O  O12  1  0.489663  0.621943  0.620047  1
  O  O13  1  0.336233  0.957814  0.448571  1
  O  O14  1  0.837919  0.544583  0.549880  1
  O  O15  1  0.880736  0.772875  0.689095  1
  O  O16  1  0.992069  0.883551  0.365154  1
  O  O17  1  0.662081  0.044583  0.549880  1
  O  O18  1  0.010337  0.121943  0.620047  1
  O  O19  1  0.380806  0.732137  0.302839  1
  O  O20  1  0.163767  0.457814  0.448571  1
  O  O21  1  0.507931  0.383551  0.365154  1
  O  O22  1  0.119194  0.232137  0.302839  1
  O  O23  1  0.619264  0.272875  0.689095  1
