# generated using pymatgen
data_Nd3(TcC3)2
_symmetry_space_group_name_H-M   'P 1'
_cell_length_a   8.43622100
_cell_length_b   8.43622124
_cell_length_c   5.36562800
_cell_angle_alpha   90.00000000
_cell_angle_beta   90.00000000
_cell_angle_gamma   119.99997839
_symmetry_Int_Tables_number   1
_chemical_formula_structural   Nd3(TcC3)2
_chemical_formula_sum   'Nd6 Tc4 C12'
_cell_volume   330.70989922
_cell_formula_units_Z   2
loop_
 _symmetry_equiv_pos_site_id
 _symmetry_equiv_pos_as_xyz
  1  'x, y, z'
loop_
 _atom_site_type_symbol
 _atom_site_label
 _atom_site_symmetry_multiplicity
 _atom_site_fract_x
 _atom_site_fract_y
 _atom_site_fract_z
 _atom_site_occupancy
  Nd  Nd0  1  0.620555  0.691446  0.750000  1
  Nd  Nd1  1  0.929109  0.620555  0.250000  1
  Nd  Nd2  1  0.691446  0.070891  0.250000  1
  Nd  Nd3  1  0.308554  0.929109  0.750000  1
  Nd  Nd4  1  0.070891  0.379445  0.750000  1
  Nd  Nd5  1  0.379445  0.308554  0.250000  1
  Tc  Tc6  1  0.000000  0.000000  0.500000  1
  Tc  Tc7  1  0.000000  0.000000  0.000000  1
  Tc  Tc8  1  0.666667  0.333333  0.750000  1
  Tc  Tc9  1  0.333333  0.666667  0.250000  1
  C  C10  1  0.957937  0.774026  0.750000  1
  C  C11  1  0.183911  0.957937  0.250000  1
  C  C12  1  0.774026  0.816089  0.250000  1
  C  C13  1  0.225974  0.183911  0.750000  1
  C  C14  1  0.816089  0.042063  0.750000  1
  C  C15  1  0.042063  0.225974  0.250000  1
  C  C16  1  0.865484  0.587464  0.750000  1
  C  C17  1  0.278019  0.865484  0.250000  1
  C  C18  1  0.587464  0.721981  0.250000  1
  C  C19  1  0.412536  0.278019  0.750000  1
  C  C20  1  0.134516  0.412536  0.250000  1
  C  C21  1  0.721981  0.134516  0.750000  1
