# generated using pymatgen
data_Li2Ga10Ir3
_symmetry_space_group_name_H-M   'P 1'
_cell_length_a   8.68104500
_cell_length_b   8.68104500
_cell_length_c   6.28042100
_cell_angle_alpha   90.00000000
_cell_angle_beta   90.00000000
_cell_angle_gamma   90.00000000
_symmetry_Int_Tables_number   1
_chemical_formula_structural   Li2Ga10Ir3
_chemical_formula_sum   'Li4 Ga20 Ir6'
_cell_volume   473.29593238
_cell_formula_units_Z   2
loop_
 _symmetry_equiv_pos_site_id
 _symmetry_equiv_pos_as_xyz
  1  'x, y, z'
loop_
 _atom_site_type_symbol
 _atom_site_label
 _atom_site_symmetry_multiplicity
 _atom_site_fract_x
 _atom_site_fract_y
 _atom_site_fract_z
 _atom_site_occupancy
  Li  Li0  1  0.183791  0.683791  0.000000  1
  Li  Li1  1  0.816209  0.316209  0.000000  1
  Li  Li2  1  0.683791  0.816209  0.000000  1
  Li  Li3  1  0.316209  0.183791  0.000000  1
  Ga  Ga4  1  0.064450  0.210113  0.719986  1
  Ga  Ga5  1  0.935550  0.789887  0.719986  1
  Ga  Ga6  1  0.564450  0.289887  0.719986  1
  Ga  Ga7  1  0.435550  0.710113  0.719986  1
  Ga  Ga8  1  0.789887  0.064450  0.719986  1
  Ga  Ga9  1  0.210113  0.935550  0.719986  1
  Ga  Ga10  1  0.710113  0.564450  0.719986  1
  Ga  Ga11  1  0.289887  0.435550  0.719986  1
  Ga  Ga12  1  0.935550  0.789887  0.280014  1
  Ga  Ga13  1  0.064450  0.210113  0.280014  1
  Ga  Ga14  1  0.435550  0.710113  0.280014  1
  Ga  Ga15  1  0.564450  0.289887  0.280014  1
  Ga  Ga16  1  0.210113  0.935550  0.280014  1
  Ga  Ga17  1  0.789887  0.064450  0.280014  1
  Ga  Ga18  1  0.289887  0.435550  0.280014  1
  Ga  Ga19  1  0.710113  0.564450  0.280014  1
  Ga  Ga20  1  0.000000  0.500000  0.744808  1
  Ga  Ga21  1  0.500000  0.000000  0.744808  1
  Ga  Ga22  1  0.000000  0.500000  0.255192  1
  Ga  Ga23  1  0.500000  0.000000  0.255192  1
  Ir  Ir24  1  0.178044  0.678044  0.500000  1
  Ir  Ir25  1  0.821956  0.321956  0.500000  1
  Ir  Ir26  1  0.678044  0.821956  0.500000  1
  Ir  Ir27  1  0.321956  0.178044  0.500000  1
  Ir  Ir28  1  0.000000  0.000000  0.000000  1
  Ir  Ir29  1  0.500000  0.500000  0.000000  1
