# generated using pymatgen
data_Nd9Dy11Ga16
_symmetry_space_group_name_H-M   'P 1'
_cell_length_a   7.96778821
_cell_length_b   7.97406116
_cell_length_c   14.82803400
_cell_angle_alpha   89.90064923
_cell_angle_beta   90.21135619
_cell_angle_gamma   90.01234425
_symmetry_Int_Tables_number   1
_chemical_formula_structural   Nd9Dy11Ga16
_chemical_formula_sum   'Nd9 Dy11 Ga16'
_cell_volume   942.10064279
_cell_formula_units_Z   1
loop_
 _symmetry_equiv_pos_site_id
 _symmetry_equiv_pos_as_xyz
  1  'x, y, z'
loop_
 _atom_site_type_symbol
 _atom_site_label
 _atom_site_symmetry_multiplicity
 _atom_site_fract_x
 _atom_site_fract_y
 _atom_site_fract_z
 _atom_site_occupancy
  Nd  Nd0  1  0.010691  0.859873  0.125615  1
  Nd  Nd1  1  0.637265  0.990343  0.459829  1
  Nd  Nd2  1  0.364325  0.010820  0.956477  1
  Nd  Nd3  1  0.988319  0.639177  0.540844  1
  Nd  Nd4  1  0.486925  0.861752  0.209920  1
  Nd  Nd5  1  0.511249  0.137779  0.708426  1
  Nd  Nd6  1  0.860078  0.488083  0.789868  1
  Nd  Nd7  1  0.137237  0.511474  0.292856  1
  Nd  Nd8  1  0.013231  0.359240  0.040063  1
  Dy  Dy9  1  0.490782  0.356468  0.124536  1
  Dy  Dy10  1  0.992096  0.141670  0.625335  1
  Dy  Dy11  1  0.857863  0.008244  0.873654  1
  Dy  Dy12  1  0.141724  0.992525  0.376071  1
  Dy  Dy13  1  0.507304  0.642282  0.624224  1
  Dy  Dy14  1  0.359628  0.490817  0.873320  1
  Dy  Dy15  1  0.640976  0.508820  0.376957  1
  Dy  Dy16  1  0.317388  0.318274  0.500199  1
  Dy  Dy17  1  0.181048  0.817941  0.749336  1
  Dy  Dy18  1  0.816485  0.182978  0.251000  1
  Dy  Dy19  1  0.683272  0.680812  0.999966  1
  Ga  Ga20  1  0.287828  0.936823  0.561916  1
  Ga  Ga21  1  0.710211  0.065186  0.060587  1
  Ga  Ga22  1  0.935674  0.288039  0.439120  1
  Ga  Ga23  1  0.438402  0.212537  0.313261  1
  Ga  Ga24  1  0.564096  0.786817  0.810924  1
  Ga  Ga25  1  0.211578  0.436255  0.687171  1
  Ga  Ga26  1  0.784592  0.561255  0.190227  1
  Ga  Ga27  1  0.064241  0.708145  0.935684  1
  Ga  Ga28  1  0.798329  0.846007  0.687920  1
  Ga  Ga29  1  0.201746  0.159262  0.192790  1
  Ga  Ga30  1  0.844795  0.798190  0.313977  1
  Ga  Ga31  1  0.345524  0.701934  0.439102  1
  Ga  Ga32  1  0.655519  0.299096  0.937628  1
  Ga  Ga33  1  0.702205  0.347214  0.562681  1
  Ga  Ga34  1  0.303744  0.651980  0.057811  1
  Ga  Ga35  1  0.153626  0.201883  0.810708  1
