# generated using pymatgen
data_Cs6Na4TiNbP6
_symmetry_space_group_name_H-M   'P 1'
_cell_length_a   10.60228580
_cell_length_b   10.60228694
_cell_length_c   16.66062000
_cell_angle_alpha   90.00000000
_cell_angle_beta   90.00000000
_cell_angle_gamma   142.39998459
_symmetry_Int_Tables_number   1
_chemical_formula_structural   Cs6Na4TiNbP6
_chemical_formula_sum   'Cs12 Na8 Ti2 Nb2 P12'
_cell_volume   1142.67715470
_cell_formula_units_Z   2
loop_
 _symmetry_equiv_pos_site_id
 _symmetry_equiv_pos_as_xyz
  1  'x, y, z'
loop_
 _atom_site_type_symbol
 _atom_site_label
 _atom_site_symmetry_multiplicity
 _atom_site_fract_x
 _atom_site_fract_y
 _atom_site_fract_z
 _atom_site_occupancy
  Cs  Cs0  1  0.943804  0.610700  0.828026  1
  Cs  Cs1  1  0.556196  0.889300  0.328026  1
  Cs  Cs2  1  0.389300  0.056196  0.171974  1
  Cs  Cs3  1  0.054158  0.388708  0.173263  1
  Cs  Cs4  1  0.888708  0.554158  0.326737  1
  Cs  Cs5  1  0.445842  0.111292  0.673263  1
  Cs  Cs6  1  0.611292  0.945842  0.826737  1
  Cs  Cs7  1  0.278349  0.279675  0.315300  1
  Cs  Cs8  1  0.779675  0.778349  0.184700  1
  Cs  Cs9  1  0.221651  0.220325  0.815300  1
  Cs  Cs10  1  0.720325  0.721651  0.684700  1
  Cs  Cs11  1  0.110700  0.443804  0.671974  1
  Na  Na12  1  0.921559  0.078441  0.000000  1
  Na  Na13  1  0.578441  0.421559  0.500000  1
  Na  Na14  1  0.079063  0.920937  0.000000  1
  Na  Na15  1  0.420937  0.579063  0.500000  1
  Na  Na16  1  0.754331  0.245669  0.000000  1
  Na  Na17  1  0.745669  0.254331  0.500000  1
  Na  Na18  1  0.243902  0.756098  0.000000  1
  Na  Na19  1  0.256098  0.743902  0.500000  1
  Ti  Ti20  1  0.584014  0.415986  0.000000  1
  Ti  Ti21  1  0.915986  0.084014  0.500000  1
  Nb  Nb22  1  0.417834  0.582166  0.000000  1
  Nb  Nb23  1  0.082166  0.917834  0.500000  1
  P  P24  1  0.858822  0.553539  0.086374  1
  P  P25  1  0.446461  0.141178  0.913626  1
  P  P26  1  0.641178  0.946461  0.586374  1
  P  P27  1  0.946640  0.642878  0.585722  1
  P  P28  1  0.142878  0.446640  0.914278  1
  P  P29  1  0.553360  0.857122  0.085722  1
  P  P30  1  0.357122  0.053360  0.414278  1
  P  P31  1  0.191040  0.189001  0.579854  1
  P  P32  1  0.689001  0.691040  0.920146  1
  P  P33  1  0.308960  0.310999  0.079854  1
  P  P34  1  0.053539  0.358822  0.413626  1
  P  P35  1  0.810999  0.808960  0.420146  1
