# generated using pymatgen
data_TbY7Ti3Si16Tc9
_symmetry_space_group_name_H-M   'P 1'
_cell_length_a   6.79375546
_cell_length_b   6.79335834
_cell_length_c   12.98249662
_cell_angle_alpha   89.91455514
_cell_angle_beta   90.07611261
_cell_angle_gamma   89.30830118
_symmetry_Int_Tables_number   1
_chemical_formula_structural   TbY7Ti3Si16Tc9
_chemical_formula_sum   'Tb1 Y7 Ti3 Si16 Tc9'
_cell_volume   599.12870402
_cell_formula_units_Z   1
loop_
 _symmetry_equiv_pos_site_id
 _symmetry_equiv_pos_as_xyz
  1  'x, y, z'
loop_
 _atom_site_type_symbol
 _atom_site_label
 _atom_site_symmetry_multiplicity
 _atom_site_fract_x
 _atom_site_fract_y
 _atom_site_fract_z
 _atom_site_occupancy
  Tb  Tb0  1  0.998124  0.662434  0.028260  1
  Y  Y1  1  0.337076  0.002256  0.471096  1
  Y  Y2  1  0.509686  0.823735  0.716812  1
  Y  Y3  1  0.487836  0.178967  0.216632  1
  Y  Y4  1  0.823739  0.509666  0.283207  1
  Y  Y5  1  0.179002  0.487827  0.783349  1
  Y  Y6  1  0.662102  0.998543  0.971643  1
  Y  Y7  1  0.002255  0.337092  0.528909  1
  Ti  Ti8  1  0.155877  0.844797  0.249058  1
  Ti  Ti9  1  0.844843  0.155898  0.750990  1
  Ti  Ti10  1  0.665912  0.665939  0.499980  1
  Si  Si11  1  0.211127  0.117558  0.681201  1
  Si  Si12  1  0.398184  0.680799  0.940941  1
  Si  Si13  1  0.610914  0.308760  0.438486  1
  Si  Si14  1  0.680701  0.397923  0.059070  1
  Si  Si15  1  0.308761  0.610894  0.561518  1
  Si  Si16  1  0.787238  0.884208  0.182889  1
  Si  Si17  1  0.117532  0.211048  0.318769  1
  Si  Si18  1  0.884150  0.787256  0.817068  1
  Si  Si19  1  0.262648  0.986206  0.055242  1
  Si  Si20  1  0.525292  0.803115  0.314078  1
  Si  Si21  1  0.471919  0.198338  0.815231  1
  Si  Si22  1  0.803114  0.525351  0.685903  1
  Si  Si23  1  0.198390  0.471794  0.184860  1
  Si  Si24  1  0.730831  0.022353  0.557419  1
  Si  Si25  1  0.986160  0.262332  0.944780  1
  Si  Si26  1  0.022350  0.730857  0.442553  1
  Tc  Tc27  1  0.334264  0.334431  0.999983  1
  Tc  Tc28  1  0.182297  0.982466  0.864708  1
  Tc  Tc29  1  0.473720  0.693457  0.132158  1
  Tc  Tc30  1  0.523936  0.314760  0.632481  1
  Tc  Tc31  1  0.693348  0.473356  0.867854  1
  Tc  Tc32  1  0.314804  0.523989  0.367538  1
  Tc  Tc33  1  0.818305  0.011136  0.364380  1
  Tc  Tc34  1  0.982460  0.182167  0.135319  1
  Tc  Tc35  1  0.011104  0.818293  0.635630  1
