# generated using pymatgen
data_SrSi2Au5
_symmetry_space_group_name_H-M   'P 1'
_cell_length_a   7.13910800
_cell_length_b   8.92407000
_cell_length_c   10.07877900
_cell_angle_alpha   90.00000000
_cell_angle_beta   90.00000000
_cell_angle_gamma   90.00000000
_symmetry_Int_Tables_number   1
_chemical_formula_structural   SrSi2Au5
_chemical_formula_sum   'Sr4 Si8 Au20'
_cell_volume   642.11799747
_cell_formula_units_Z   4
loop_
 _symmetry_equiv_pos_site_id
 _symmetry_equiv_pos_as_xyz
  1  'x, y, z'
loop_
 _atom_site_type_symbol
 _atom_site_label
 _atom_site_symmetry_multiplicity
 _atom_site_fract_x
 _atom_site_fract_y
 _atom_site_fract_z
 _atom_site_occupancy
  Sr  Sr0  1  0.250000  0.245751  0.121505  1
  Sr  Sr1  1  0.250000  0.745751  0.378495  1
  Sr  Sr2  1  0.750000  0.754249  0.878495  1
  Sr  Sr3  1  0.750000  0.254249  0.621505  1
  Si  Si4  1  0.250000  0.041033  0.622026  1
  Si  Si5  1  0.250000  0.541033  0.877974  1
  Si  Si6  1  0.750000  0.958967  0.377974  1
  Si  Si7  1  0.750000  0.458967  0.122026  1
  Si  Si8  1  0.250000  0.338271  0.459998  1
  Si  Si9  1  0.250000  0.838271  0.040002  1
  Si  Si10  1  0.750000  0.661729  0.540002  1
  Si  Si11  1  0.750000  0.161729  0.959998  1
  Au  Au12  1  0.050266  0.099274  0.392594  1
  Au  Au13  1  0.449734  0.599274  0.107406  1
  Au  Au14  1  0.550266  0.900726  0.607406  1
  Au  Au15  1  0.949734  0.400726  0.892594  1
  Au  Au16  1  0.949734  0.900726  0.607406  1
  Au  Au17  1  0.550266  0.400726  0.892594  1
  Au  Au18  1  0.449734  0.099274  0.392594  1
  Au  Au19  1  0.050266  0.599274  0.107406  1
  Au  Au20  1  0.035014  0.068830  0.859423  1
  Au  Au21  1  0.464986  0.568830  0.640577  1
  Au  Au22  1  0.535014  0.931170  0.140577  1
  Au  Au23  1  0.964986  0.431170  0.359423  1
  Au  Au24  1  0.964986  0.931170  0.140577  1
  Au  Au25  1  0.535014  0.431170  0.359423  1
  Au  Au26  1  0.464986  0.068830  0.859423  1
  Au  Au27  1  0.035014  0.568830  0.640577  1
  Au  Au28  1  0.250000  0.301057  0.701763  1
  Au  Au29  1  0.250000  0.801057  0.798237  1
  Au  Au30  1  0.750000  0.698943  0.298237  1
  Au  Au31  1  0.750000  0.198943  0.201763  1
