# generated using pymatgen
data_PrNd5(Ir5Rh)3
_symmetry_space_group_name_H-M   'P 1'
_cell_length_a   5.38136300
_cell_length_b   5.38149831
_cell_length_c   17.67109100
_cell_angle_alpha   90.00000000
_cell_angle_beta   90.00000000
_cell_angle_gamma   120.00054832
_symmetry_Int_Tables_number   1
_chemical_formula_structural   PrNd5(Ir5Rh)3
_chemical_formula_sum   'Pr1 Nd5 Ir15 Rh3'
_cell_volume   443.18708122
_cell_formula_units_Z   1
loop_
 _symmetry_equiv_pos_site_id
 _symmetry_equiv_pos_as_xyz
  1  'x, y, z'
loop_
 _atom_site_type_symbol
 _atom_site_label
 _atom_site_symmetry_multiplicity
 _atom_site_fract_x
 _atom_site_fract_y
 _atom_site_fract_z
 _atom_site_occupancy
  Pr  Pr0  1  0.333327  0.666658  0.750000  1
  Nd  Nd1  1  0.333336  0.666670  0.541184  1
  Nd  Nd2  1  0.666665  0.333327  0.041271  1
  Nd  Nd3  1  0.666665  0.333327  0.458729  1
  Nd  Nd4  1  0.333336  0.666670  0.958816  1
  Nd  Nd5  1  0.666672  0.333333  0.250000  1
  Ir  Ir6  1  0.166788  0.333574  0.128056  1
  Ir  Ir7  1  0.833137  0.666275  0.627358  1
  Ir  Ir8  1  0.666427  0.833214  0.128057  1
  Ir  Ir9  1  0.166786  0.833213  0.128055  1
  Ir  Ir10  1  0.833138  0.166868  0.627356  1
  Ir  Ir11  1  0.333724  0.166864  0.627357  1
  Ir  Ir12  1  0.833137  0.666275  0.872642  1
  Ir  Ir13  1  0.833138  0.166868  0.872644  1
  Ir  Ir14  1  0.333724  0.166864  0.872643  1
  Ir  Ir15  1  0.666427  0.833214  0.371943  1
  Ir  Ir16  1  0.166786  0.833213  0.371945  1
  Ir  Ir17  1  0.166788  0.333574  0.371944  1
  Ir  Ir18  1  0.000015  0.999995  0.250000  1
  Ir  Ir19  1  0.999999  0.000004  0.000040  1
  Ir  Ir20  1  0.999999  0.000004  0.499960  1
  Rh  Rh21  1  0.999999  0.000024  0.750000  1
  Rh  Rh22  1  0.333324  0.666652  0.250000  1
  Rh  Rh23  1  0.666666  0.333324  0.750000  1
