# generated using pymatgen
data_K7U(SO4)6
_symmetry_space_group_name_H-M   'P 1'
_cell_length_a   9.54073969
_cell_length_b   9.54073992
_cell_length_c   9.54073982
_cell_angle_alpha   109.30070017
_cell_angle_beta   109.30070085
_cell_angle_gamma   109.30071921
_symmetry_Int_Tables_number   1
_chemical_formula_structural   K7U(SO4)6
_chemical_formula_sum   'K7 U1 S6 O24'
_cell_volume   672.72261419
_cell_formula_units_Z   1
loop_
 _symmetry_equiv_pos_site_id
 _symmetry_equiv_pos_as_xyz
  1  'x, y, z'
loop_
 _atom_site_type_symbol
 _atom_site_label
 _atom_site_symmetry_multiplicity
 _atom_site_fract_x
 _atom_site_fract_y
 _atom_site_fract_z
 _atom_site_occupancy
  K  K0  1  0.500000  0.500000  0.500000  1
  K  K1  1  0.839405  0.337565  0.682148  1
  K  K2  1  0.337565  0.682148  0.839405  1
  K  K3  1  0.682148  0.839405  0.337565  1
  K  K4  1  0.160595  0.662435  0.317852  1
  K  K5  1  0.662435  0.317852  0.160595  1
  K  K6  1  0.317852  0.160595  0.662435  1
  U  U7  1  0.000000  0.000000  0.000000  1
  S  S8  1  0.965638  0.736665  0.605210  1
  S  S9  1  0.736665  0.605210  0.965638  1
  S  S10  1  0.605210  0.965638  0.736665  1
  S  S11  1  0.034362  0.263335  0.394790  1
  S  S12  1  0.263335  0.394790  0.034362  1
  S  S13  1  0.394790  0.034362  0.263335  1
  O  O14  1  0.442369  0.914780  0.177068  1
  O  O15  1  0.914780  0.177068  0.442369  1
  O  O16  1  0.177068  0.442369  0.914780  1
  O  O17  1  0.557631  0.085220  0.822932  1
  O  O18  1  0.085220  0.822932  0.557631  1
  O  O19  1  0.822932  0.557631  0.085220  1
  O  O20  1  0.320628  0.984670  0.363105  1
  O  O21  1  0.984670  0.363105  0.320628  1
  O  O22  1  0.363105  0.320628  0.984670  1
  O  O23  1  0.679372  0.015330  0.636895  1
  O  O24  1  0.015330  0.636895  0.679372  1
  O  O25  1  0.636895  0.679372  0.015330  1
  O  O26  1  0.750075  0.972912  0.885164  1
  O  O27  1  0.972912  0.885164  0.750075  1
  O  O28  1  0.638022  0.465932  0.786512  1
  O  O29  1  0.786512  0.638022  0.465932  1
  O  O30  1  0.465932  0.786512  0.638022  1
  O  O31  1  0.361978  0.534068  0.213488  1
  O  O32  1  0.213488  0.361978  0.534068  1
  O  O33  1  0.534068  0.213488  0.361978  1
  O  O34  1  0.114836  0.249925  0.027088  1
  O  O35  1  0.027088  0.114836  0.249925  1
  O  O36  1  0.249925  0.027088  0.114836  1
  O  O37  1  0.885164  0.750075  0.972912  1
