# generated using pymatgen
data_Nb3Re2Ge2BMo
_symmetry_space_group_name_H-M   'P 1'
_cell_length_a   6.90326700
_cell_length_b   6.86476676
_cell_length_c   3.26169800
_cell_angle_alpha   90.00000000
_cell_angle_beta   90.00000000
_cell_angle_gamma   120.18569305
_symmetry_Int_Tables_number   1
_chemical_formula_structural   Nb3Re2Ge2BMo
_chemical_formula_sum   'Nb3 Re2 Ge2 B1 Mo1'
_cell_volume   133.61005842
_cell_formula_units_Z   1
loop_
 _symmetry_equiv_pos_site_id
 _symmetry_equiv_pos_as_xyz
  1  'x, y, z'
loop_
 _atom_site_type_symbol
 _atom_site_label
 _atom_site_symmetry_multiplicity
 _atom_site_fract_x
 _atom_site_fract_y
 _atom_site_fract_z
 _atom_site_occupancy
  Nb  Nb0  1  0.389816  0.000000  0.500000  1
  Nb  Nb1  1  0.996069  0.385467  0.500000  1
  Nb  Nb2  1  0.610602  0.614533  0.500000  1
  Re  Re3  1  0.000893  0.761375  0.000000  1
  Re  Re4  1  0.239518  0.238625  0.000000  1
  Ge  Ge5  1  0.330635  0.664405  0.000000  1
  Ge  Ge6  1  0.666231  0.335595  0.000000  1
  B  B7  1  0.004395  0.000000  0.500000  1
  Mo  Mo8  1  0.761840  0.000000  0.000000  1
