# generated using pymatgen
data_LaCdAgAu4
_symmetry_space_group_name_H-M   'P 1'
_cell_length_a   5.85352399
_cell_length_b   5.85352398
_cell_length_c   5.85352300
_cell_angle_alpha   102.86093175
_cell_angle_beta   102.86092169
_cell_angle_gamma   123.69896419
_symmetry_Int_Tables_number   1
_chemical_formula_structural   LaCdAgAu4
_chemical_formula_sum   'La1 Cd1 Ag1 Au4'
_cell_volume   147.12386065
_cell_formula_units_Z   1
loop_
 _symmetry_equiv_pos_site_id
 _symmetry_equiv_pos_as_xyz
  1  'x, y, z'
loop_
 _atom_site_type_symbol
 _atom_site_label
 _atom_site_symmetry_multiplicity
 _atom_site_fract_x
 _atom_site_fract_y
 _atom_site_fract_z
 _atom_site_occupancy
  La  La0  1  0.000000  0.000000  0.000000  1
  Cd  Cd1  1  0.750000  0.250000  0.500000  1
  Ag  Ag2  1  0.250000  0.750000  0.500000  1
  Au  Au3  1  0.303460  0.303460  0.606918  1
  Au  Au4  1  0.696540  0.696540  0.393082  1
  Au  Au5  1  0.696540  0.303460  0.000000  1
  Au  Au6  1  0.303460  0.696540  0.000000  1
