# generated using pymatgen
data_Ac7Y9(TmPb4)4
_symmetry_space_group_name_H-M   'P 1'
_cell_length_a   8.46169873
_cell_length_b   8.54214831
_cell_length_c   16.20195900
_cell_angle_alpha   90.15008541
_cell_angle_beta   90.28642935
_cell_angle_gamma   89.70716405
_symmetry_Int_Tables_number   1
_chemical_formula_structural   Ac7Y9(TmPb4)4
_chemical_formula_sum   'Ac7 Y9 Tm4 Pb16'
_cell_volume   1171.06131515
_cell_formula_units_Z   1
loop_
 _symmetry_equiv_pos_site_id
 _symmetry_equiv_pos_as_xyz
  1  'x, y, z'
loop_
 _atom_site_type_symbol
 _atom_site_label
 _atom_site_symmetry_multiplicity
 _atom_site_fract_x
 _atom_site_fract_y
 _atom_site_fract_z
 _atom_site_occupancy
  Ac  Ac0  1  0.021328  0.177210  0.598605  1
  Ac  Ac1  1  0.480259  0.676912  0.404426  1
  Ac  Ac2  1  0.979243  0.821899  0.094103  1
  Ac  Ac3  1  0.478722  0.674106  0.094447  1
  Ac  Ac4  1  0.979893  0.824324  0.404574  1
  Ac  Ac5  1  0.518036  0.323623  0.595875  1
  Ac  Ac6  1  0.021461  0.178448  0.903930  1
  Y  Y7  1  0.360530  0.843081  0.876498  1
  Y  Y8  1  0.857709  0.656508  0.625079  1
  Y  Y9  1  0.639478  0.157307  0.375792  1
  Y  Y10  1  0.137539  0.343645  0.121196  1
  Y  Y11  1  0.636228  0.158690  0.122097  1
  Y  Y12  1  0.140990  0.342542  0.376351  1
  Y  Y13  1  0.360747  0.844133  0.626831  1
  Y  Y14  1  0.860109  0.654693  0.877453  1
  Y  Y15  1  0.528494  0.323486  0.899532  1
  Tm  Tm16  1  0.196101  0.504900  0.752303  1
  Tm  Tm17  1  0.695208  0.996350  0.752155  1
  Tm  Tm18  1  0.803939  0.493692  0.248552  1
  Tm  Tm19  1  0.304539  0.005161  0.249565  1
  Pb  Pb20  1  0.306002  0.045659  0.044705  1
  Pb  Pb21  1  0.805861  0.453344  0.454235  1
  Pb  Pb22  1  0.694702  0.955003  0.547263  1
  Pb  Pb23  1  0.208417  0.535677  0.951413  1
  Pb  Pb24  1  0.692487  0.962247  0.953020  1
  Pb  Pb25  1  0.192753  0.548672  0.546664  1
  Pb  Pb26  1  0.305509  0.046049  0.455051  1
  Pb  Pb27  1  0.795281  0.450158  0.040444  1
  Pb  Pb28  1  0.555085  0.631875  0.752320  1
  Pb  Pb29  1  0.053388  0.865202  0.751607  1
  Pb  Pb30  1  0.443945  0.365463  0.249624  1
  Pb  Pb31  1  0.945515  0.134737  0.248080  1
  Pb  Pb32  1  0.339497  0.152921  0.755430  1
  Pb  Pb33  1  0.826258  0.353425  0.751890  1
  Pb  Pb34  1  0.667741  0.852958  0.249450  1
  Pb  Pb35  1  0.167007  0.645902  0.249435  1
