# generated using pymatgen
data_Cs9HoO4
_symmetry_space_group_name_H-M   'P 1'
_cell_length_a   12.87929700
_cell_length_b   12.87934464
_cell_length_c   12.87988415
_cell_angle_alpha   105.67695801
_cell_angle_beta   105.67703436
_cell_angle_gamma   117.35784607
_symmetry_Int_Tables_number   1
_chemical_formula_structural   Cs9HoO4
_chemical_formula_sum   'Cs18 Ho2 O8'
_cell_volume   1621.01724874
_cell_formula_units_Z   2
loop_
 _symmetry_equiv_pos_site_id
 _symmetry_equiv_pos_as_xyz
  1  'x, y, z'
loop_
 _atom_site_type_symbol
 _atom_site_label
 _atom_site_symmetry_multiplicity
 _atom_site_fract_x
 _atom_site_fract_y
 _atom_site_fract_z
 _atom_site_occupancy
  Cs  Cs0  1  0.081573  0.581594  0.663169  1
  Cs  Cs1  1  0.918426  0.418405  0.336831  1
  Cs  Cs2  1  0.418413  0.081606  0.500019  1
  Cs  Cs3  1  0.581586  0.918393  0.499981  1
  Cs  Cs4  1  0.000000  0.000000  0.000000  1
  Cs  Cs5  1  0.499999  0.499999  0.000000  1
  Cs  Cs6  1  0.250007  0.513386  0.263392  1
  Cs  Cs7  1  0.249989  0.986610  0.736609  1
  Cs  Cs8  1  0.986609  0.249997  0.736602  1
  Cs  Cs9  1  0.513391  0.250000  0.263402  1
  Cs  Cs10  1  0.749993  0.486615  0.736608  1
  Cs  Cs11  1  0.750010  0.013389  0.263390  1
  Cs  Cs12  1  0.013390  0.750002  0.263397  1
  Cs  Cs13  1  0.486610  0.750000  0.736598  1
  Cs  Cs14  1  0.669154  0.169137  0.838289  1
  Cs  Cs15  1  0.330846  0.830862  0.161711  1
  Cs  Cs16  1  0.830844  0.669144  0.499988  1
  Cs  Cs17  1  0.169155  0.330854  0.500010  1
  Ho  Ho18  1  0.749999  0.250000  0.500002  1
  Ho  Ho19  1  0.250001  0.750000  0.499998  1
  O  O20  1  0.732599  0.232596  0.656516  1
  O  O21  1  0.576080  0.076082  0.343484  1
  O  O22  1  0.767403  0.423916  0.499998  1
  O  O23  1  0.923918  0.267406  0.500003  1
  O  O24  1  0.267401  0.767403  0.343484  1
  O  O25  1  0.423920  0.923918  0.656516  1
  O  O26  1  0.076082  0.732594  0.499997  1
  O  O27  1  0.232596  0.576084  0.500002  1
