# generated using pymatgen
data_CeEuBr6
_symmetry_space_group_name_H-M   'P 1'
_cell_length_a   7.57784823
_cell_length_b   7.57784794
_cell_length_c   7.32295800
_cell_angle_alpha   100.03771081
_cell_angle_beta   100.03771043
_cell_angle_gamma   119.89815928
_symmetry_Int_Tables_number   1
_chemical_formula_structural   CeEuBr6
_chemical_formula_sum   'Ce1 Eu1 Br6'
_cell_volume   341.75326450
_cell_formula_units_Z   1
loop_
 _symmetry_equiv_pos_site_id
 _symmetry_equiv_pos_as_xyz
  1  'x, y, z'
loop_
 _atom_site_type_symbol
 _atom_site_label
 _atom_site_symmetry_multiplicity
 _atom_site_fract_x
 _atom_site_fract_y
 _atom_site_fract_z
 _atom_site_occupancy
  Ce  Ce0  1  0.166781  0.833220  0.000000  1
  Eu  Eu1  1  0.833976  0.166025  0.000000  1
  Br  Br2  1  0.942298  0.589942  0.228792  1
  Br  Br3  1  0.563885  0.931536  0.232872  1
  Br  Br4  1  0.220228  0.205689  0.238708  1
  Br  Br5  1  0.794311  0.779772  0.761293  1
  Br  Br6  1  0.410057  0.057702  0.771208  1
  Br  Br7  1  0.068464  0.436114  0.767128  1
