# generated using pymatgen
data_Re2Se3S
_symmetry_space_group_name_H-M   'P 1'
_cell_length_a   6.61815454
_cell_length_b   6.76327133
_cell_length_c   7.15664767
_cell_angle_alpha   91.88348671
_cell_angle_beta   104.05648903
_cell_angle_gamma   118.74265027
_symmetry_Int_Tables_number   1
_chemical_formula_structural   Re2Se3S
_chemical_formula_sum   'Re4 Se6 S2'
_cell_volume   268.20420796
_cell_formula_units_Z   2
loop_
 _symmetry_equiv_pos_site_id
 _symmetry_equiv_pos_as_xyz
  1  'x, y, z'
loop_
 _atom_site_type_symbol
 _atom_site_label
 _atom_site_symmetry_multiplicity
 _atom_site_fract_x
 _atom_site_fract_y
 _atom_site_fract_z
 _atom_site_occupancy
  Re  Re0  1  0.065894  0.316803  0.491977  1
  Re  Re1  1  0.934106  0.683197  0.508023  1
  Re  Re2  1  0.487028  0.292336  0.496911  1
  Re  Re3  1  0.512972  0.707664  0.503089  1
  Se  Se4  1  0.725671  0.343404  0.251318  1
  Se  Se5  1  0.274329  0.656596  0.748682  1
  Se  Se6  1  0.221952  0.107489  0.712423  1
  Se  Se7  1  0.778048  0.892511  0.287577  1
  Se  Se8  1  0.750091  0.133827  0.684735  1
  Se  Se9  1  0.249909  0.866173  0.315265  1
  S  S10  1  0.262629  0.390568  0.246611  1
  S  S11  1  0.737371  0.609432  0.753389  1
