# generated using pymatgen
data_Mn4I7F
_symmetry_space_group_name_H-M   'P 1'
_cell_length_a   8.48621355
_cell_length_b   8.48621379
_cell_length_c   8.48621291
_cell_angle_alpha   57.54867961
_cell_angle_beta   57.54868147
_cell_angle_gamma   57.54868142
_symmetry_Int_Tables_number   1
_chemical_formula_structural   Mn4I7F
_chemical_formula_sum   'Mn4 I7 F1'
_cell_volume   407.78473952
_cell_formula_units_Z   1
loop_
 _symmetry_equiv_pos_site_id
 _symmetry_equiv_pos_as_xyz
  1  'x, y, z'
loop_
 _atom_site_type_symbol
 _atom_site_label
 _atom_site_symmetry_multiplicity
 _atom_site_fract_x
 _atom_site_fract_y
 _atom_site_fract_z
 _atom_site_occupancy
  Mn  Mn0  1  0.605678  0.141846  0.141846  1
  Mn  Mn1  1  0.127442  0.127442  0.127442  1
  Mn  Mn2  1  0.141846  0.141846  0.605678  1
  Mn  Mn3  1  0.141846  0.605678  0.141846  1
  I  I4  1  0.377930  0.377930  0.877322  1
  I  I5  1  0.888305  0.888305  0.888305  1
  I  I6  1  0.878377  0.878377  0.376742  1
  I  I7  1  0.376742  0.878377  0.878377  1
  I  I8  1  0.377930  0.877322  0.377930  1
  I  I9  1  0.878377  0.376742  0.878377  1
  I  I10  1  0.877322  0.377930  0.377930  1
  F  F11  1  0.328205  0.328205  0.328205  1
