# generated using pymatgen
data_La2Tm4Ir7Rh11
_symmetry_space_group_name_H-M   'P 1'
_cell_length_a   5.31410400
_cell_length_b   5.30938454
_cell_length_c   17.46410172
_cell_angle_alpha   90.04100863
_cell_angle_beta   90.00000000
_cell_angle_gamma   120.02938367
_symmetry_Int_Tables_number   1
_chemical_formula_structural   La2Tm4Ir7Rh11
_chemical_formula_sum   'La2 Tm4 Ir7 Rh11'
_cell_volume   426.60142311
_cell_formula_units_Z   1
loop_
 _symmetry_equiv_pos_site_id
 _symmetry_equiv_pos_as_xyz
  1  'x, y, z'
loop_
 _atom_site_type_symbol
 _atom_site_label
 _atom_site_symmetry_multiplicity
 _atom_site_fract_x
 _atom_site_fract_y
 _atom_site_fract_z
 _atom_site_occupancy
  La  La0  1  0.333597  0.667196  0.749559  1
  La  La1  1  0.666416  0.332832  0.249431  1
  Tm  Tm2  1  0.333474  0.666949  0.541065  1
  Tm  Tm3  1  0.666105  0.332210  0.040891  1
  Tm  Tm4  1  0.667036  0.334073  0.459614  1
  Tm  Tm5  1  0.332472  0.664945  0.959560  1
  Ir  Ir6  1  0.167199  0.334397  0.124344  1
  Ir  Ir7  1  0.831792  0.663586  0.622900  1
  Ir  Ir8  1  0.664174  0.831510  0.124033  1
  Ir  Ir9  1  0.167337  0.831510  0.124033  1
  Ir  Ir10  1  0.832379  0.167487  0.624395  1
  Ir  Ir11  1  0.335108  0.167487  0.624395  1
  Ir  Ir12  1  0.833447  0.666894  0.876087  1
  Rh  Rh13  1  0.833633  0.170702  0.876223  1
  Rh  Rh14  1  0.337069  0.170702  0.876223  1
  Rh  Rh15  1  0.664589  0.832271  0.376471  1
  Rh  Rh16  1  0.167682  0.832271  0.376471  1
  Rh  Rh17  1  0.167941  0.335880  0.376251  1
  Rh  Rh18  1  0.999890  0.999781  0.249816  1
  Rh  Rh19  1  0.996800  0.993601  0.749852  1
  Rh  Rh20  1  0.333335  0.666670  0.249788  1
  Rh  Rh21  1  0.669437  0.338875  0.749612  1
  Rh  Rh22  1  0.998003  0.996006  0.999463  1
  Rh  Rh23  1  0.001084  0.002169  0.499523  1
