# generated using pymatgen
data_VCrAsO6
_symmetry_space_group_name_H-M   'P 1'
_cell_length_a   4.51650001
_cell_length_b   4.51654600
_cell_length_c   8.90723700
_cell_angle_alpha   90.00032243
_cell_angle_beta   89.99882171
_cell_angle_gamma   89.99465928
_symmetry_Int_Tables_number   1
_chemical_formula_structural   VCrAsO6
_chemical_formula_sum   'V2 Cr2 As2 O12'
_cell_volume   181.69854931
_cell_formula_units_Z   2
loop_
 _symmetry_equiv_pos_site_id
 _symmetry_equiv_pos_as_xyz
  1  'x, y, z'
loop_
 _atom_site_type_symbol
 _atom_site_label
 _atom_site_symmetry_multiplicity
 _atom_site_fract_x
 _atom_site_fract_y
 _atom_site_fract_z
 _atom_site_occupancy
  V  V0  1  0.500070  0.500124  0.499606  1
  V  V1  1  0.000048  0.999987  0.999584  1
  Cr  Cr2  1  0.000139  0.999825  0.668733  1
  Cr  Cr3  1  0.500087  0.500095  0.168531  1
  As  As4  1  0.500097  0.499995  0.833284  1
  As  As5  1  0.999989  0.000017  0.333262  1
  O  O6  1  0.187083  0.812870  0.172272  1
  O  O7  1  0.812792  0.187136  0.172299  1
  O  O8  1  0.312981  0.312985  0.672320  1
  O  O9  1  0.687210  0.687192  0.672284  1
  O  O10  1  0.194028  0.805876  0.490793  1
  O  O11  1  0.805945  0.193979  0.490731  1
  O  O12  1  0.305936  0.306052  0.990782  1
  O  O13  1  0.693919  0.694004  0.990889  1
  O  O14  1  0.206248  0.793743  0.836137  1
  O  O15  1  0.793673  0.206299  0.836166  1
  O  O16  1  0.293510  0.293554  0.336204  1
  O  O17  1  0.706246  0.706267  0.336122  1
