# generated using pymatgen
data_YPa3AlTlRh4
_symmetry_space_group_name_H-M   'P 1'
_cell_length_a   7.67531500
_cell_length_b   7.59579746
_cell_length_c   3.65312600
_cell_angle_alpha   90.00000000
_cell_angle_beta   90.00000000
_cell_angle_gamma   87.59442590
_symmetry_Int_Tables_number   1
_chemical_formula_structural   YPa3AlTlRh4
_chemical_formula_sum   'Y1 Pa3 Al1 Tl1 Rh4'
_cell_volume   212.79006413
_cell_formula_units_Z   1
loop_
 _symmetry_equiv_pos_site_id
 _symmetry_equiv_pos_as_xyz
  1  'x, y, z'
loop_
 _atom_site_type_symbol
 _atom_site_label
 _atom_site_symmetry_multiplicity
 _atom_site_fract_x
 _atom_site_fract_y
 _atom_site_fract_z
 _atom_site_occupancy
  Y  Y0  1  0.335654  0.816555  0.500000  1
  Pa  Pa1  1  0.663168  0.180316  0.500000  1
  Pa  Pa2  1  0.187867  0.342875  0.500000  1
  Pa  Pa3  1  0.814637  0.662882  0.500000  1
  Al  Al4  1  0.499523  0.504341  0.000000  1
  Tl  Tl5  1  0.010440  0.000764  0.000000  1
  Rh  Rh6  1  0.842295  0.368833  0.000000  1
  Rh  Rh7  1  0.380494  0.155275  0.000000  1
  Rh  Rh8  1  0.645199  0.864455  0.000000  1
  Rh  Rh9  1  0.120722  0.603699  0.000000  1
