# generated using pymatgen
data_Ba4Si8AgPt7
_symmetry_space_group_name_H-M   'P 1'
_cell_length_a   7.05075157
_cell_length_b   7.80921491
_cell_length_c   8.12179785
_cell_angle_alpha   93.79411577
_cell_angle_beta   90.06695018
_cell_angle_gamma   90.15934055
_symmetry_Int_Tables_number   1
_chemical_formula_structural   Ba4Si8AgPt7
_chemical_formula_sum   'Ba4 Si8 Ag1 Pt7'
_cell_volume   446.21070333
_cell_formula_units_Z   1
loop_
 _symmetry_equiv_pos_site_id
 _symmetry_equiv_pos_as_xyz
  1  'x, y, z'
loop_
 _atom_site_type_symbol
 _atom_site_label
 _atom_site_symmetry_multiplicity
 _atom_site_fract_x
 _atom_site_fract_y
 _atom_site_fract_z
 _atom_site_occupancy
  Ba  Ba0  1  0.361990  0.000236  0.247667  1
  Ba  Ba1  1  0.864156  0.497545  0.749480  1
  Ba  Ba2  1  0.135087  0.499886  0.245659  1
  Ba  Ba3  1  0.633814  0.998294  0.747840  1
  Si  Si4  1  0.407823  0.359819  0.930348  1
  Si  Si5  1  0.100984  0.135189  0.579517  1
  Si  Si6  1  0.574275  0.370999  0.420892  1
  Si  Si7  1  0.915705  0.845708  0.426228  1
  Si  Si8  1  0.905236  0.140447  0.063282  1
  Si  Si9  1  0.595077  0.643305  0.072700  1
  Si  Si10  1  0.093957  0.859152  0.928072  1
  Si  Si11  1  0.409211  0.642155  0.574833  1
  Ag  Ag12  1  0.846911  0.164688  0.375341  1
  Pt  Pt13  1  0.351556  0.340981  0.632297  1
  Pt  Pt14  1  0.645714  0.666068  0.370642  1
  Pt  Pt15  1  0.149566  0.833883  0.629733  1
  Pt  Pt16  1  0.153033  0.161756  0.873434  1
  Pt  Pt17  1  0.650024  0.336715  0.127951  1
  Pt  Pt18  1  0.853760  0.842062  0.130225  1
  Pt  Pt19  1  0.352119  0.661110  0.873859  1
