# generated using pymatgen
data_LiSc4Pd11
_symmetry_space_group_name_H-M   'P 1'
_cell_length_a   4.03124100
_cell_length_b   5.63469660
_cell_length_c   11.29843100
_cell_angle_alpha   89.28104562
_cell_angle_beta   90.00000000
_cell_angle_gamma   90.00000000
_symmetry_Int_Tables_number   1
_chemical_formula_structural   LiSc4Pd11
_chemical_formula_sum   'Li1 Sc4 Pd11'
_cell_volume   256.62162144
_cell_formula_units_Z   1
loop_
 _symmetry_equiv_pos_site_id
 _symmetry_equiv_pos_as_xyz
  1  'x, y, z'
loop_
 _atom_site_type_symbol
 _atom_site_label
 _atom_site_symmetry_multiplicity
 _atom_site_fract_x
 _atom_site_fract_y
 _atom_site_fract_z
 _atom_site_occupancy
  Li  Li0  1  0.000000  0.000000  0.000000  1
  Sc  Sc1  1  0.500000  0.757181  0.374338  1
  Sc  Sc2  1  0.500000  0.723663  0.866989  1
  Sc  Sc3  1  0.500000  0.276337  0.133011  1
  Sc  Sc4  1  0.500000  0.242819  0.625662  1
  Pd  Pd5  1  0.000000  0.016109  0.244253  1
  Pd  Pd6  1  0.000000  0.983891  0.755747  1
  Pd  Pd7  1  0.000000  0.500000  0.000000  1
  Pd  Pd8  1  0.000000  0.500000  0.500000  1
  Pd  Pd9  1  0.000000  0.518101  0.248009  1
  Pd  Pd10  1  0.000000  0.481899  0.751991  1
  Pd  Pd11  1  0.500000  0.255770  0.375031  1
  Pd  Pd12  1  0.500000  0.223322  0.885856  1
  Pd  Pd13  1  0.500000  0.776678  0.114144  1
  Pd  Pd14  1  0.500000  0.744230  0.624969  1
  Pd  Pd15  1  0.000000  0.000000  0.500000  1
