# generated using pymatgen
data_HfNb11(ReTc)6
_symmetry_space_group_name_H-M   'P 1'
_cell_length_a   4.51857700
_cell_length_b   6.41242400
_cell_length_c   13.67831800
_cell_angle_alpha   89.99919998
_cell_angle_beta   89.99973916
_cell_angle_gamma   90.00119461
_symmetry_Int_Tables_number   1
_chemical_formula_structural   HfNb11(ReTc)6
_chemical_formula_sum   'Hf1 Nb11 Re6 Tc6'
_cell_volume   396.32969623
_cell_formula_units_Z   1
loop_
 _symmetry_equiv_pos_site_id
 _symmetry_equiv_pos_as_xyz
  1  'x, y, z'
loop_
 _atom_site_type_symbol
 _atom_site_label
 _atom_site_symmetry_multiplicity
 _atom_site_fract_x
 _atom_site_fract_y
 _atom_site_fract_z
 _atom_site_occupancy
  Hf  Hf0  1  0.500013  0.249983  0.999999  1
  Nb  Nb1  1  0.499992  0.749913  0.999996  1
  Nb  Nb2  1  0.999969  0.249891  0.166552  1
  Nb  Nb3  1  0.999970  0.750108  0.166191  1
  Nb  Nb4  1  0.499970  0.250103  0.333359  1
  Nb  Nb5  1  0.499979  0.749824  0.332665  1
  Nb  Nb6  1  0.999993  0.249845  0.499998  1
  Nb  Nb7  1  0.999996  0.750147  0.499999  1
  Nb  Nb8  1  0.500027  0.250107  0.666644  1
  Nb  Nb9  1  0.500021  0.749819  0.667338  1
  Nb  Nb10  1  0.000045  0.249886  0.833449  1
  Nb  Nb11  1  0.000034  0.750103  0.833812  1
  Re  Re12  1  0.999985  0.504086  0.000000  1
  Re  Re13  1  0.499976  0.998073  0.168649  1
  Re  Re14  1  0.999972  0.500182  0.333694  1
  Re  Re15  1  0.500007  0.000038  0.500003  1
  Re  Re16  1  0.000037  0.500177  0.666308  1
  Re  Re17  1  0.500006  0.998073  0.831355  1
  Tc  Tc18  1  0.999999  0.997628  0.000000  1
  Tc  Tc19  1  0.499992  0.501151  0.168350  1
  Tc  Tc20  1  0.999983  0.999909  0.333844  1
  Tc  Tc21  1  0.499998  0.499893  0.499994  1
  Tc  Tc22  1  0.000030  0.999903  0.666157  1
  Tc  Tc23  1  0.500003  0.501155  0.831645  1
