# generated using pymatgen
data_BaPaBF10
_symmetry_space_group_name_H-M   'P 1'
_cell_length_a   11.00940000
_cell_length_b   11.00940043
_cell_length_c   6.95265400
_cell_angle_alpha   90.00000000
_cell_angle_beta   90.00000000
_cell_angle_gamma   120.00000472
_symmetry_Int_Tables_number   1
_chemical_formula_structural   BaPaBF10
_chemical_formula_sum   'Ba3 Pa3 B3 F30'
_cell_volume   729.80787838
_cell_formula_units_Z   3
loop_
 _symmetry_equiv_pos_site_id
 _symmetry_equiv_pos_as_xyz
  1  'x, y, z'
loop_
 _atom_site_type_symbol
 _atom_site_label
 _atom_site_symmetry_multiplicity
 _atom_site_fract_x
 _atom_site_fract_y
 _atom_site_fract_z
 _atom_site_occupancy
  Ba  Ba0  1  0.000000  0.000000  0.500000  1
  Ba  Ba1  1  0.666667  0.333333  0.000000  1
  Ba  Ba2  1  0.333333  0.666667  0.000000  1
  Pa  Pa3  1  0.436007  0.000000  0.500000  1
  Pa  Pa4  1  0.000000  0.436007  0.500000  1
  Pa  Pa5  1  0.563993  0.563993  0.500000  1
  B  B6  1  0.754204  0.000000  0.000000  1
  B  B7  1  0.000000  0.754204  0.000000  1
  B  B8  1  0.245796  0.245796  0.000000  1
  F  F9  1  0.623201  0.000000  0.500000  1
  F  F10  1  0.000000  0.623201  0.500000  1
  F  F11  1  0.376799  0.376799  0.500000  1
  F  F12  1  0.243033  0.000000  0.500000  1
  F  F13  1  0.000000  0.243033  0.500000  1
  F  F14  1  0.756967  0.756967  0.500000  1
  F  F15  1  0.516327  0.156154  0.716703  1
  F  F16  1  0.843846  0.360173  0.716703  1
  F  F17  1  0.639827  0.483673  0.716703  1
  F  F18  1  0.516327  0.156154  0.283297  1
  F  F19  1  0.843846  0.360173  0.283297  1
  F  F20  1  0.639827  0.483673  0.283297  1
  F  F21  1  0.360173  0.843846  0.716703  1
  F  F22  1  0.483673  0.639827  0.716703  1
  F  F23  1  0.156154  0.516327  0.716703  1
  F  F24  1  0.360173  0.843846  0.283297  1
  F  F25  1  0.483673  0.639827  0.283297  1
  F  F26  1  0.156154  0.516327  0.283297  1
  F  F27  1  0.827249  0.000000  0.832576  1
  F  F28  1  0.000000  0.827249  0.832576  1
  F  F29  1  0.172751  0.172751  0.832576  1
  F  F30  1  0.827249  0.000000  0.167424  1
  F  F31  1  0.000000  0.827249  0.167424  1
  F  F32  1  0.172751  0.172751  0.167424  1
  F  F33  1  0.383140  0.262167  0.000000  1
  F  F34  1  0.737833  0.120972  0.000000  1
  F  F35  1  0.879028  0.616860  0.000000  1
  F  F36  1  0.120972  0.737833  0.000000  1
  F  F37  1  0.616860  0.879028  0.000000  1
  F  F38  1  0.262167  0.383140  0.000000  1
