# generated using pymatgen
data_Sm(MoC)4
_symmetry_space_group_name_H-M   'P 1'
_cell_length_a   6.19257181
_cell_length_b   6.19257334
_cell_length_c   6.19257261
_cell_angle_alpha   94.04159422
_cell_angle_beta   94.04159585
_cell_angle_gamma   149.20882390
_symmetry_Int_Tables_number   1
_chemical_formula_structural   Sm(MoC)4
_chemical_formula_sum   'Sm1 Mo4 C4'
_cell_volume   117.20243297
_cell_formula_units_Z   1
loop_
 _symmetry_equiv_pos_site_id
 _symmetry_equiv_pos_as_xyz
  1  'x, y, z'
loop_
 _atom_site_type_symbol
 _atom_site_label
 _atom_site_symmetry_multiplicity
 _atom_site_fract_x
 _atom_site_fract_y
 _atom_site_fract_z
 _atom_site_occupancy
  Sm  Sm0  1  0.000000  0.000000  0.000000  1
  Mo  Mo1  1  0.630461  0.819967  0.450428  1
  Mo  Mo2  1  0.369539  0.180033  0.549572  1
  Mo  Mo3  1  0.819967  0.369539  0.189505  1
  Mo  Mo4  1  0.180033  0.630461  0.810495  1
  C  C5  1  0.265915  0.400841  0.666756  1
  C  C6  1  0.734085  0.599159  0.333244  1
  C  C7  1  0.400841  0.734085  0.134925  1
  C  C8  1  0.599159  0.265915  0.865075  1
