# generated using pymatgen
data_Mn8Cr12Ga(WC3)2
_symmetry_space_group_name_H-M   'P 1'
_cell_length_a   7.49538181
_cell_length_b   7.49538235
_cell_length_c   7.49538200
_cell_angle_alpha   60.00000156
_cell_angle_beta   59.99999915
_cell_angle_gamma   59.99999675
_symmetry_Int_Tables_number   1
_chemical_formula_structural   Mn8Cr12Ga(WC3)2
_chemical_formula_sum   'Mn8 Cr12 Ga1 W2 C6'
_cell_volume   297.75997374
_cell_formula_units_Z   1
loop_
 _symmetry_equiv_pos_site_id
 _symmetry_equiv_pos_as_xyz
  1  'x, y, z'
loop_
 _atom_site_type_symbol
 _atom_site_label
 _atom_site_symmetry_multiplicity
 _atom_site_fract_x
 _atom_site_fract_y
 _atom_site_fract_z
 _atom_site_occupancy
  Mn  Mn0  1  0.615978  0.615978  0.152064  1
  Mn  Mn1  1  0.615978  0.152063  0.615978  1
  Mn  Mn2  1  0.152064  0.615978  0.615978  1
  Mn  Mn3  1  0.615978  0.615978  0.615978  1
  Mn  Mn4  1  0.384022  0.384022  0.847936  1
  Mn  Mn5  1  0.384022  0.847936  0.384022  1
  Mn  Mn6  1  0.847936  0.384022  0.384022  1
  Mn  Mn7  1  0.384022  0.384022  0.384022  1
  Cr  Cr8  1  0.000000  0.000000  0.344099  1
  Cr  Cr9  1  0.655901  0.000000  0.344099  1
  Cr  Cr10  1  0.000000  0.655901  0.344099  1
  Cr  Cr11  1  0.655901  0.344099  0.000000  1
  Cr  Cr12  1  0.000000  0.344099  0.000000  1
  Cr  Cr13  1  0.000000  0.344099  0.655901  1
  Cr  Cr14  1  0.344099  0.655901  0.000000  1
  Cr  Cr15  1  0.344099  0.000000  0.655901  1
  Cr  Cr16  1  0.344099  0.000000  0.000000  1
  Cr  Cr17  1  0.000000  0.000000  0.655901  1
  Cr  Cr18  1  0.000000  0.655901  0.000000  1
  Cr  Cr19  1  0.655901  0.000000  0.000000  1
  Ga  Ga20  1  0.000000  0.000000  0.000000  1
  W  W21  1  0.750000  0.750000  0.750000  1
  W  W22  1  0.250000  0.250000  0.250000  1
  C  C23  1  0.719742  0.719742  0.280258  1
  C  C24  1  0.280258  0.719742  0.280258  1
  C  C25  1  0.719742  0.280258  0.280258  1
  C  C26  1  0.280258  0.280258  0.719742  1
  C  C27  1  0.719742  0.280258  0.719742  1
  C  C28  1  0.280258  0.719742  0.719742  1
