# generated using pymatgen
data_Tb2Nd3(IrO6)2
_symmetry_space_group_name_H-M   'P 1'
_cell_length_a   7.03758961
_cell_length_b   7.03758932
_cell_length_c   7.42828868
_cell_angle_alpha   74.27333301
_cell_angle_beta   74.27333038
_cell_angle_gamma   51.63274441
_symmetry_Int_Tables_number   1
_chemical_formula_structural   Tb2Nd3(IrO6)2
_chemical_formula_sum   'Tb2 Nd3 Ir2 O12'
_cell_volume   275.06942411
_cell_formula_units_Z   1
loop_
 _symmetry_equiv_pos_site_id
 _symmetry_equiv_pos_as_xyz
  1  'x, y, z'
loop_
 _atom_site_type_symbol
 _atom_site_label
 _atom_site_symmetry_multiplicity
 _atom_site_fract_x
 _atom_site_fract_y
 _atom_site_fract_z
 _atom_site_occupancy
  Tb  Tb0  1  0.301527  0.301527  0.360690  1
  Tb  Tb1  1  0.698473  0.698473  0.639310  1
  Nd  Nd2  1  0.694837  0.694837  0.167800  1
  Nd  Nd3  1  0.305163  0.305163  0.832200  1
  Nd  Nd4  1  0.000000  0.000000  0.500000  1
  Ir  Ir5  1  0.752084  0.247916  0.000000  1
  Ir  Ir6  1  0.247916  0.752084  0.000000  1
  O  O7  1  0.093196  0.597316  0.568876  1
  O  O8  1  0.001750  0.001750  0.168484  1
  O  O9  1  0.402684  0.906804  0.431124  1
  O  O10  1  0.498785  0.498785  0.180387  1
  O  O11  1  0.105309  0.565960  0.088757  1
  O  O12  1  0.906804  0.402684  0.431124  1
  O  O13  1  0.998250  0.998250  0.831516  1
  O  O14  1  0.597316  0.093195  0.568876  1
  O  O15  1  0.501215  0.501215  0.819613  1
  O  O16  1  0.565960  0.105309  0.088757  1
  O  O17  1  0.434040  0.894691  0.911243  1
  O  O18  1  0.894691  0.434040  0.911243  1
