# generated using pymatgen
data_Tb3YGa17GeRh6
_symmetry_space_group_name_H-M   'P 1'
_cell_length_a   7.59175551
_cell_length_b   7.57106288
_cell_length_c   9.51498200
_cell_angle_alpha   90.07137340
_cell_angle_beta   89.83845873
_cell_angle_gamma   119.78216722
_symmetry_Int_Tables_number   1
_chemical_formula_structural   Tb3YGa17GeRh6
_chemical_formula_sum   'Tb3 Y1 Ga17 Ge1 Rh6'
_cell_volume   474.66263538
_cell_formula_units_Z   1
loop_
 _symmetry_equiv_pos_site_id
 _symmetry_equiv_pos_as_xyz
  1  'x, y, z'
loop_
 _atom_site_type_symbol
 _atom_site_label
 _atom_site_symmetry_multiplicity
 _atom_site_fract_x
 _atom_site_fract_y
 _atom_site_fract_z
 _atom_site_occupancy
  Tb  Tb0  1  0.003306  0.331435  0.752297  1
  Tb  Tb1  1  0.671084  0.999703  0.248672  1
  Tb  Tb2  1  0.330965  0.003009  0.750008  1
  Y  Y3  1  0.996817  0.666663  0.248732  1
  Ga  Ga4  1  0.128315  0.124281  0.251085  1
  Ga  Ga5  1  0.874107  0.875830  0.749774  1
  Ga  Ga6  1  0.999007  0.669976  0.918218  1
  Ga  Ga7  1  0.999671  0.665863  0.579543  1
  Ga  Ga8  1  0.334422  0.999590  0.421047  1
  Ga  Ga9  1  0.001300  0.334924  0.422787  1
  Ga  Ga10  1  0.665028  0.999090  0.579492  1
  Ga  Ga11  1  0.660199  0.994837  0.918346  1
  Ga  Ga12  1  0.333960  0.999419  0.079954  1
  Ga  Ga13  1  0.332866  0.331885  0.563931  1
  Ga  Ga14  1  0.668277  0.668525  0.436718  1
  Ga  Ga15  1  0.667294  0.667844  0.064769  1
  Ga  Ga16  1  0.337020  0.333087  0.934476  1
  Ga  Ga17  1  0.343228  0.549124  0.251645  1
  Ga  Ga18  1  0.662384  0.452440  0.749187  1
  Ga  Ga19  1  0.546972  0.338642  0.249965  1
  Ga  Ga20  1  0.451080  0.659456  0.749406  1
  Ge  Ge21  1  0.998538  0.334656  0.080738  1
  Rh  Rh22  1  0.674887  0.328792  0.000114  1
  Rh  Rh23  1  0.321480  0.664601  0.000641  1
  Rh  Rh24  1  0.327418  0.671095  0.499787  1
  Rh  Rh25  1  0.672348  0.328343  0.498875  1
  Rh  Rh26  1  0.998880  0.006301  0.000438  1
  Rh  Rh27  1  0.999145  0.000589  0.499354  1
