# generated using pymatgen
data_MgTaBiF12
_symmetry_space_group_name_H-M   'P 1'
_cell_length_a   5.56990174
_cell_length_b   11.45266341
_cell_length_c   5.62729735
_cell_angle_alpha   57.73379577
_cell_angle_beta   57.66778010
_cell_angle_gamma   59.01647322
_symmetry_Int_Tables_number   1
_chemical_formula_structural   MgTaBiF12
_chemical_formula_sum   'Mg1 Ta1 Bi1 F12'
_cell_volume   242.91067314
_cell_formula_units_Z   1
loop_
 _symmetry_equiv_pos_site_id
 _symmetry_equiv_pos_as_xyz
  1  'x, y, z'
loop_
 _atom_site_type_symbol
 _atom_site_label
 _atom_site_symmetry_multiplicity
 _atom_site_fract_x
 _atom_site_fract_y
 _atom_site_fract_z
 _atom_site_occupancy
  Mg  Mg0  1  0.502444  0.747037  0.501663  1
  Ta  Ta1  1  0.980727  0.496615  0.022534  1
  Bi  Bi2  1  0.021663  0.004282  0.974383  1
  F  F3  1  0.412644  0.045026  0.760867  1
  F  F4  1  0.298885  0.591840  0.764725  1
  F  F5  1  0.111800  0.391044  0.346836  1
  F  F6  1  0.151880  0.866453  0.351387  1
  F  F7  1  0.219151  0.350457  0.858620  1
  F  F8  1  0.251620  0.818910  0.853550  1
  F  F9  1  0.911938  0.111173  0.605824  1
  F  F10  1  0.824122  0.630608  0.682692  1
  F  F11  1  0.631972  0.445088  0.234159  1
  F  F12  1  0.665447  0.918028  0.239580  1
  F  F13  1  0.767886  0.170403  0.127029  1
  F  F14  1  0.747822  0.663034  0.176152  1
