# generated using pymatgen
data_Gd2Er2C2Cl3
_symmetry_space_group_name_H-M   'P 1'
_cell_length_a   3.65128700
_cell_length_b   10.58896900
_cell_length_c   19.74863000
_cell_angle_alpha   90.00000000
_cell_angle_beta   90.00000000
_cell_angle_gamma   90.00000000
_symmetry_Int_Tables_number   1
_chemical_formula_structural   Gd2Er2C2Cl3
_chemical_formula_sum   'Gd8 Er8 C8 Cl12'
_cell_volume   763.54848704
_cell_formula_units_Z   4
loop_
 _symmetry_equiv_pos_site_id
 _symmetry_equiv_pos_as_xyz
  1  'x, y, z'
loop_
 _atom_site_type_symbol
 _atom_site_label
 _atom_site_symmetry_multiplicity
 _atom_site_fract_x
 _atom_site_fract_y
 _atom_site_fract_z
 _atom_site_occupancy
  Gd  Gd0  1  0.250000  0.103132  0.333137  1
  Gd  Gd1  1  0.250000  0.603132  0.166863  1
  Gd  Gd2  1  0.750000  0.896868  0.666863  1
  Gd  Gd3  1  0.750000  0.396868  0.833137  1
  Gd  Gd4  1  0.250000  0.125376  0.163556  1
  Gd  Gd5  1  0.250000  0.625376  0.336444  1
  Gd  Gd6  1  0.750000  0.874624  0.836444  1
  Gd  Gd7  1  0.750000  0.374624  0.663556  1
  Er  Er8  1  0.250000  0.136696  0.574440  1
  Er  Er9  1  0.250000  0.636696  0.925560  1
  Er  Er10  1  0.750000  0.863304  0.425560  1
  Er  Er11  1  0.750000  0.363304  0.074440  1
  Er  Er12  1  0.250000  0.636059  0.757926  1
  Er  Er13  1  0.250000  0.136059  0.742074  1
  Er  Er14  1  0.750000  0.363941  0.242074  1
  Er  Er15  1  0.750000  0.863941  0.257926  1
  C  C16  1  0.250000  0.865589  0.348004  1
  C  C17  1  0.250000  0.365589  0.151996  1
  C  C18  1  0.750000  0.134411  0.651996  1
  C  C19  1  0.750000  0.634411  0.848004  1
  C  C20  1  0.250000  0.386419  0.750062  1
  C  C21  1  0.250000  0.886419  0.749938  1
  C  C22  1  0.750000  0.613581  0.249938  1
  C  C23  1  0.750000  0.113581  0.250062  1
  Cl  Cl24  1  0.250000  0.380818  0.956291  1
  Cl  Cl25  1  0.250000  0.880818  0.543709  1
  Cl  Cl26  1  0.750000  0.619182  0.043709  1
  Cl  Cl27  1  0.750000  0.119182  0.456291  1
  Cl  Cl28  1  0.250000  0.880034  0.948307  1
  Cl  Cl29  1  0.250000  0.380034  0.551693  1
  Cl  Cl30  1  0.750000  0.119966  0.051693  1
  Cl  Cl31  1  0.750000  0.619966  0.448307  1
  Cl  Cl32  1  0.250000  0.362882  0.350909  1
  Cl  Cl33  1  0.250000  0.862882  0.149091  1
  Cl  Cl34  1  0.750000  0.637118  0.649091  1
  Cl  Cl35  1  0.750000  0.137118  0.850909  1
