# generated using pymatgen
data_Lu2Sc2B12IrRu
_symmetry_space_group_name_H-M   'P 1'
_cell_length_a   3.52598700
_cell_length_b   8.93845831
_cell_length_c   11.29577139
_cell_angle_alpha   90.03020127
_cell_angle_beta   90.00000000
_cell_angle_gamma   90.00000000
_symmetry_Int_Tables_number   1
_chemical_formula_structural   Lu2Sc2B12IrRu
_chemical_formula_sum   'Lu4 Sc4 B24 Ir2 Ru2'
_cell_volume   356.00751016
_cell_formula_units_Z   2
loop_
 _symmetry_equiv_pos_site_id
 _symmetry_equiv_pos_as_xyz
  1  'x, y, z'
loop_
 _atom_site_type_symbol
 _atom_site_label
 _atom_site_symmetry_multiplicity
 _atom_site_fract_x
 _atom_site_fract_y
 _atom_site_fract_z
 _atom_site_occupancy
  Lu  Lu0  1  0.500000  0.317334  0.411961  1
  Lu  Lu1  1  0.500000  0.682666  0.588039  1
  Lu  Lu2  1  0.500000  0.178708  0.915036  1
  Lu  Lu3  1  0.500000  0.821292  0.084964  1
  Sc  Sc4  1  0.500000  0.442297  0.123905  1
  Sc  Sc5  1  0.500000  0.557703  0.876095  1
  Sc  Sc6  1  0.500000  0.053327  0.625360  1
  Sc  Sc7  1  0.500000  0.946673  0.374640  1
  B  B8  1  0.000000  0.101437  0.472533  1
  B  B9  1  0.000000  0.898563  0.527467  1
  B  B10  1  0.000000  0.398073  0.972302  1
  B  B11  1  0.000000  0.601927  0.027698  1
  B  B12  1  0.000000  0.130164  0.317524  1
  B  B13  1  0.000000  0.869836  0.682476  1
  B  B14  1  0.000000  0.370161  0.818750  1
  B  B15  1  0.000000  0.629839  0.181250  1
  B  B16  1  0.000000  0.054380  0.065990  1
  B  B17  1  0.000000  0.945620  0.934010  1
  B  B18  1  0.000000  0.445705  0.565052  1
  B  B19  1  0.000000  0.554295  0.434948  1
  B  B20  1  0.000000  0.480576  0.285458  1
  B  B21  1  0.000000  0.519424  0.714542  1
  B  B22  1  0.000000  0.018578  0.786156  1
  B  B23  1  0.000000  0.981422  0.213844  1
  B  B24  1  0.000000  0.252749  0.080058  1
  B  B25  1  0.000000  0.747251  0.919942  1
  B  B26  1  0.000000  0.245676  0.579391  1
  B  B27  1  0.000000  0.754324  0.420609  1
  B  B28  1  0.000000  0.294571  0.235214  1
  B  B29  1  0.000000  0.705429  0.764786  1
  B  B30  1  0.000000  0.204871  0.735574  1
  B  B31  1  0.000000  0.795129  0.264426  1
  Ir  Ir32  1  0.500000  0.360136  0.680022  1
  Ir  Ir33  1  0.500000  0.639864  0.319978  1
  Ru  Ru34  1  0.500000  0.139873  0.180682  1
  Ru  Ru35  1  0.500000  0.860127  0.819318  1
