# generated using pymatgen
data_Ce3Th8Zr9Sn16
_symmetry_space_group_name_H-M   'P 1'
_cell_length_a   7.89966727
_cell_length_b   7.98852296
_cell_length_c   15.07651500
_cell_angle_alpha   90.04206532
_cell_angle_beta   89.94044613
_cell_angle_gamma   90.15122793
_symmetry_Int_Tables_number   1
_chemical_formula_structural   Ce3Th8Zr9Sn16
_chemical_formula_sum   'Ce3 Th8 Zr9 Sn16'
_cell_volume   951.42462506
_cell_formula_units_Z   1
loop_
 _symmetry_equiv_pos_site_id
 _symmetry_equiv_pos_as_xyz
  1  'x, y, z'
loop_
 _atom_site_type_symbol
 _atom_site_label
 _atom_site_symmetry_multiplicity
 _atom_site_fract_x
 _atom_site_fract_y
 _atom_site_fract_z
 _atom_site_occupancy
  Ce  Ce0  1  0.153851  0.340078  0.374187  1
  Ce  Ce1  1  0.347285  0.840914  0.623357  1
  Ce  Ce2  1  0.844895  0.662187  0.879926  1
  Th  Th3  1  0.512563  0.325535  0.910137  1
  Th  Th4  1  0.011263  0.174665  0.593756  1
  Th  Th5  1  0.492017  0.673737  0.402823  1
  Th  Th6  1  0.988220  0.827633  0.091905  1
  Th  Th7  1  0.494079  0.675173  0.092872  1
  Th  Th8  1  0.992522  0.824459  0.403515  1
  Th  Th9  1  0.506698  0.323101  0.594406  1
  Th  Th10  1  0.008244  0.175587  0.908415  1
  Zr  Zr11  1  0.339505  0.838002  0.873641  1
  Zr  Zr12  1  0.837020  0.662312  0.627449  1
  Zr  Zr13  1  0.662911  0.162655  0.371788  1
  Zr  Zr14  1  0.160005  0.337106  0.126017  1
  Zr  Zr15  1  0.655635  0.157213  0.126532  1
  Zr  Zr16  1  0.166289  0.503413  0.752235  1
  Zr  Zr17  1  0.666870  0.998476  0.750835  1
  Zr  Zr18  1  0.830393  0.499179  0.251090  1
  Zr  Zr19  1  0.330782  0.004650  0.245432  1
  Sn  Sn20  1  0.316968  0.043441  0.043092  1
  Sn  Sn21  1  0.806452  0.456830  0.459398  1
  Sn  Sn22  1  0.694808  0.957070  0.539953  1
  Sn  Sn23  1  0.193877  0.541262  0.959102  1
  Sn  Sn24  1  0.672487  0.964569  0.957175  1
  Sn  Sn25  1  0.172352  0.538828  0.549874  1
  Sn  Sn26  1  0.327537  0.037624  0.447736  1
  Sn  Sn27  1  0.820099  0.450092  0.052273  1
  Sn  Sn28  1  0.535226  0.619994  0.752694  1
  Sn  Sn29  1  0.034865  0.879723  0.749411  1
  Sn  Sn30  1  0.467398  0.371851  0.246795  1
  Sn  Sn31  1  0.958222  0.124006  0.245009  1
  Sn  Sn32  1  0.309663  0.150705  0.754213  1
  Sn  Sn33  1  0.809606  0.351580  0.749165  1
  Sn  Sn34  1  0.688925  0.857371  0.248812  1
  Sn  Sn35  1  0.190466  0.648979  0.244978  1
