# generated using pymatgen
data_Ta16Ni8CN3
_symmetry_space_group_name_H-M   'P 1'
_cell_length_a   8.21286275
_cell_length_b   8.24487866
_cell_length_c   8.21286300
_cell_angle_alpha   60.12837288
_cell_angle_beta   60.00000304
_cell_angle_gamma   60.12837418
_symmetry_Int_Tables_number   1
_chemical_formula_structural   Ta16Ni8CN3
_chemical_formula_sum   'Ta16 Ni8 C1 N3'
_cell_volume   394.00197110
_cell_formula_units_Z   1
loop_
 _symmetry_equiv_pos_site_id
 _symmetry_equiv_pos_as_xyz
  1  'x, y, z'
loop_
 _atom_site_type_symbol
 _atom_site_label
 _atom_site_symmetry_multiplicity
 _atom_site_fract_x
 _atom_site_fract_y
 _atom_site_fract_z
 _atom_site_occupancy
  Ta  Ta0  1  0.432907  0.067974  0.066213  1
  Ta  Ta1  1  0.066217  0.433686  0.433879  1
  Ta  Ta2  1  0.066217  0.433686  0.066217  1
  Ta  Ta3  1  0.066213  0.067974  0.432907  1
  Ta  Ta4  1  0.432907  0.067974  0.432907  1
  Ta  Ta5  1  0.433879  0.433686  0.066217  1
  Ta  Ta6  1  0.183783  0.816314  0.183783  1
  Ta  Ta7  1  0.817093  0.182026  0.817093  1
  Ta  Ta8  1  0.817093  0.182026  0.183787  1
  Ta  Ta9  1  0.183787  0.182026  0.817093  1
  Ta  Ta10  1  0.183783  0.816314  0.816121  1
  Ta  Ta11  1  0.816121  0.816314  0.183783  1
  Ta  Ta12  1  0.625000  0.625000  0.625000  1
  Ta  Ta13  1  0.625000  0.625000  0.125000  1
  Ta  Ta14  1  0.125000  0.625000  0.625000  1
  Ta  Ta15  1  0.625000  0.125000  0.625000  1
  Ni  Ni16  1  0.830239  0.830675  0.830239  1
  Ni  Ni17  1  0.830239  0.830675  0.508845  1
  Ni  Ni18  1  0.508845  0.830675  0.830239  1
  Ni  Ni19  1  0.831259  0.506223  0.831259  1
  Ni  Ni20  1  0.419761  0.419325  0.419761  1
  Ni  Ni21  1  0.419761  0.419325  0.741155  1
  Ni  Ni22  1  0.418741  0.743777  0.418741  1
  Ni  Ni23  1  0.741155  0.419325  0.419761  1
  C  C24  1  0.125000  0.625000  0.125000  1
  N  N25  1  0.625000  0.125000  0.125000  1
  N  N26  1  0.125000  0.125000  0.625000  1
  N  N27  1  0.125000  0.125000  0.125000  1
