# generated using pymatgen
data_Ta3VSi3Os2
_symmetry_space_group_name_H-M   'P 1'
_cell_length_a   7.48603285
_cell_length_b   7.48603435
_cell_length_c   7.48603369
_cell_angle_alpha   127.28723148
_cell_angle_beta   123.99156633
_cell_angle_gamma   80.50961948
_symmetry_Int_Tables_number   1
_chemical_formula_structural   Ta3VSi3Os2
_chemical_formula_sum   'Ta6 V2 Si6 Os4'
_cell_volume   266.96103351
_cell_formula_units_Z   2
loop_
 _symmetry_equiv_pos_site_id
 _symmetry_equiv_pos_as_xyz
  1  'x, y, z'
loop_
 _atom_site_type_symbol
 _atom_site_label
 _atom_site_symmetry_multiplicity
 _atom_site_fract_x
 _atom_site_fract_y
 _atom_site_fract_z
 _atom_site_occupancy
  Ta  Ta0  1  0.561121  0.096648  0.035528  1
  Ta  Ta1  1  0.438879  0.474407  0.535528  1
  Ta  Ta2  1  0.961015  0.486411  0.025398  1
  Ta  Ta3  1  0.038985  0.064383  0.525398  1
  Ta  Ta4  1  0.752704  0.921452  0.668748  1
  Ta  Ta5  1  0.247296  0.916044  0.168748  1
  V  V6  1  0.500000  0.248341  0.748341  1
  V  V7  1  0.000000  0.248341  0.248341  1
  Si  Si8  1  0.779514  0.542635  0.263120  1
  Si  Si9  1  0.220486  0.483606  0.763120  1
  Si  Si10  1  0.337798  0.824782  0.498014  1
  Si  Si11  1  0.662202  0.160217  0.486983  1
  Si  Si12  1  0.826767  0.824782  0.986983  1
  Si  Si13  1  0.173233  0.160217  0.998014  1
  Os  Os14  1  0.162988  0.749183  0.658772  1
  Os  Os15  1  0.837012  0.495784  0.586195  1
  Os  Os16  1  0.590411  0.749183  0.086195  1
  Os  Os17  1  0.409589  0.495784  0.158772  1
