# generated using pymatgen
data_Lu(Si2Ir3)2
_symmetry_space_group_name_H-M   'P 1'
_cell_length_a   7.02755500
_cell_length_b   7.02755548
_cell_length_c   3.82541100
_cell_angle_alpha   90.00000000
_cell_angle_beta   90.00000000
_cell_angle_gamma   119.99999303
_symmetry_Int_Tables_number   1
_chemical_formula_structural   Lu(Si2Ir3)2
_chemical_formula_sum   'Lu1 Si4 Ir6'
_cell_volume   163.61280891
_cell_formula_units_Z   1
loop_
 _symmetry_equiv_pos_site_id
 _symmetry_equiv_pos_as_xyz
  1  'x, y, z'
loop_
 _atom_site_type_symbol
 _atom_site_label
 _atom_site_symmetry_multiplicity
 _atom_site_fract_x
 _atom_site_fract_y
 _atom_site_fract_z
 _atom_site_occupancy
  Lu  Lu0  1  0.000000  0.000000  0.000000  1
  Si  Si1  1  0.803712  0.196288  0.500000  1
  Si  Si2  1  0.803712  0.607424  0.500000  1
  Si  Si3  1  0.392576  0.196288  0.500000  1
  Si  Si4  1  0.333333  0.666667  0.000000  1
  Ir  Ir5  1  0.533198  0.466802  0.000000  1
  Ir  Ir6  1  0.533198  0.066395  0.000000  1
  Ir  Ir7  1  0.933605  0.466802  0.000000  1
  Ir  Ir8  1  0.196346  0.803654  0.500000  1
  Ir  Ir9  1  0.196346  0.392693  0.500000  1
  Ir  Ir10  1  0.607307  0.803654  0.500000  1
