# generated using pymatgen
data_Dy4Y6Si5As
_symmetry_space_group_name_H-M   'P 1'
_cell_length_a   8.44987600
_cell_length_b   8.46396037
_cell_length_c   6.34108100
_cell_angle_alpha   90.00000000
_cell_angle_beta   90.00000000
_cell_angle_gamma   119.94496923
_symmetry_Int_Tables_number   1
_chemical_formula_structural   Dy4Y6Si5As
_chemical_formula_sum   'Dy4 Y6 Si5 As1'
_cell_volume   392.96914374
_cell_formula_units_Z   1
loop_
 _symmetry_equiv_pos_site_id
 _symmetry_equiv_pos_as_xyz
  1  'x, y, z'
loop_
 _atom_site_type_symbol
 _atom_site_label
 _atom_site_symmetry_multiplicity
 _atom_site_fract_x
 _atom_site_fract_y
 _atom_site_fract_z
 _atom_site_occupancy
  Dy  Dy0  1  0.333039  0.664058  0.498921  1
  Dy  Dy1  1  0.668982  0.335942  0.001079  1
  Dy  Dy2  1  0.668982  0.335942  0.498921  1
  Dy  Dy3  1  0.333039  0.664058  0.001079  1
  Y  Y4  1  0.996692  0.753232  0.750000  1
  Y  Y5  1  0.000220  0.244411  0.250000  1
  Y  Y6  1  0.755809  0.755589  0.250000  1
  Y  Y7  1  0.757509  0.000000  0.750000  1
  Y  Y8  1  0.243459  0.246768  0.750000  1
  Y  Y9  1  0.243931  0.000000  0.250000  1
  Si  Si10  1  0.393554  0.392418  0.250000  1
  Si  Si11  1  0.001137  0.607582  0.250000  1
  Si  Si12  1  0.999750  0.393538  0.750000  1
  Si  Si13  1  0.606213  0.606462  0.750000  1
  Si  Si14  1  0.607574  0.000000  0.250000  1
  As  As15  1  0.390108  0.000000  0.750000  1
