# generated using pymatgen
data_K4Hf4Zr2MnI18
_symmetry_space_group_name_H-M   'P 1'
_cell_length_a   11.36103015
_cell_length_b   11.41725983
_cell_length_c   11.56582105
_cell_angle_alpha   118.53043480
_cell_angle_beta   99.97645617
_cell_angle_gamma   103.82594197
_symmetry_Int_Tables_number   1
_chemical_formula_structural   K4Hf4Zr2MnI18
_chemical_formula_sum   'K4 Hf4 Zr2 Mn1 I18'
_cell_volume   1205.04914541
_cell_formula_units_Z   1
loop_
 _symmetry_equiv_pos_site_id
 _symmetry_equiv_pos_as_xyz
  1  'x, y, z'
loop_
 _atom_site_type_symbol
 _atom_site_label
 _atom_site_symmetry_multiplicity
 _atom_site_fract_x
 _atom_site_fract_y
 _atom_site_fract_z
 _atom_site_occupancy
  K  K0  1  0.642136  0.535377  0.221044  1
  K  K1  1  0.357864  0.464623  0.778956  1
  K  K2  1  0.679378  0.227769  0.566296  1
  K  K3  1  0.320622  0.772231  0.433704  1
  Hf  Hf4  1  0.147159  0.053452  0.225202  1
  Hf  Hf5  1  0.852841  0.946548  0.774798  1
  Hf  Hf6  1  0.865965  0.126949  0.132803  1
  Hf  Hf7  1  0.134035  0.873051  0.867197  1
  Zr  Zr8  1  0.136103  0.223451  0.041723  1
  Zr  Zr9  1  0.863897  0.776549  0.958277  1
  Mn  Mn10  1  0.000000  0.000000  0.000000  1
  I  I11  1  0.008726  0.411032  0.198511  1
  I  I12  1  0.991274  0.588968  0.801489  1
  I  I13  1  0.328137  0.330625  0.310707  1
  I  I14  1  0.671863  0.669375  0.689293  1
  I  I15  1  0.322565  0.521456  0.099117  1
  I  I16  1  0.677435  0.478544  0.900883  1
  I  I17  1  0.005084  0.795914  0.209883  1
  I  I18  1  0.994916  0.204086  0.790117  1
  I  I19  1  0.706052  0.281538  0.293190  1
  I  I20  1  0.293948  0.718462  0.706810  1
  I  I21  1  0.314317  0.122323  0.899184  1
  I  I22  1  0.685683  0.877677  0.100816  1
  I  I23  1  0.016281  0.206001  0.409803  1
  I  I24  1  0.983719  0.793999  0.590197  1
  I  I25  1  0.319898  0.919555  0.107075  1
  I  I26  1  0.680102  0.080445  0.892925  1
  I  I27  1  0.331406  0.118247  0.500600  1
  I  I28  1  0.668594  0.881753  0.499400  1
