# generated using pymatgen
data_Dy3Ho2GaSiB8
_symmetry_space_group_name_H-M   'P 1'
_cell_length_a   7.24016913
_cell_length_b   7.24016951
_cell_length_c   8.13467500
_cell_angle_alpha   90.00000000
_cell_angle_beta   90.00000000
_cell_angle_gamma   89.68451480
_symmetry_Int_Tables_number   1
_chemical_formula_structural   Dy3Ho2GaSiB8
_chemical_formula_sum   'Dy6 Ho4 Ga2 Si2 B16'
_cell_volume   426.41362057
_cell_formula_units_Z   2
loop_
 _symmetry_equiv_pos_site_id
 _symmetry_equiv_pos_as_xyz
  1  'x, y, z'
loop_
 _atom_site_type_symbol
 _atom_site_label
 _atom_site_symmetry_multiplicity
 _atom_site_fract_x
 _atom_site_fract_y
 _atom_site_fract_z
 _atom_site_occupancy
  Dy  Dy0  1  0.679336  0.179394  0.223804  1
  Dy  Dy1  1  0.320606  0.820664  0.776196  1
  Dy  Dy2  1  0.320606  0.820664  0.223804  1
  Dy  Dy3  1  0.815661  0.684339  0.219204  1
  Dy  Dy4  1  0.815661  0.684339  0.780796  1
  Dy  Dy5  1  0.679336  0.179394  0.776196  1
  Ho  Ho6  1  0.184455  0.315545  0.781576  1
  Ho  Ho7  1  0.184455  0.315545  0.218424  1
  Ho  Ho8  1  0.000122  0.000232  0.500000  1
  Ho  Ho9  1  0.499768  0.499878  0.500000  1
  Ga  Ga10  1  0.117553  0.617223  0.500000  1
  Ga  Ga11  1  0.882777  0.382447  0.500000  1
  Si  Si12  1  0.383827  0.116173  0.500000  1
  Si  Si13  1  0.615855  0.884145  0.500000  1
  B  B14  1  0.171700  0.039517  0.000000  1
  B  B15  1  0.828457  0.960820  0.000000  1
  B  B16  1  0.959748  0.172059  0.000000  1
  B  B17  1  0.327941  0.540252  0.000000  1
  B  B18  1  0.040547  0.828121  0.000000  1
  B  B19  1  0.671879  0.459453  0.000000  1
  B  B20  1  0.539180  0.671543  0.000000  1
  B  B21  1  0.460483  0.328300  0.000000  1
  B  B22  1  0.090714  0.590430  0.000000  1
  B  B23  1  0.909570  0.409286  0.000000  1
  B  B24  1  0.408472  0.091528  0.000000  1
  B  B25  1  0.591442  0.908558  0.000000  1
  B  B26  1  0.000150  0.000226  0.162256  1
  B  B27  1  0.000150  0.000226  0.837744  1
  B  B28  1  0.499774  0.499850  0.837744  1
  B  B29  1  0.499774  0.499850  0.162256  1
