# generated using pymatgen
data_Sc6Ti4Al12FeRh6
_symmetry_space_group_name_H-M   'P 1'
_cell_length_a   8.77477779
_cell_length_b   8.77477917
_cell_length_c   8.77477700
_cell_angle_alpha   60.00001194
_cell_angle_beta   60.00000676
_cell_angle_gamma   60.00000533
_symmetry_Int_Tables_number   1
_chemical_formula_structural   Sc6Ti4Al12FeRh6
_chemical_formula_sum   'Sc6 Ti4 Al12 Fe1 Rh6'
_cell_volume   477.74207575
_cell_formula_units_Z   1
loop_
 _symmetry_equiv_pos_site_id
 _symmetry_equiv_pos_as_xyz
  1  'x, y, z'
loop_
 _atom_site_type_symbol
 _atom_site_label
 _atom_site_symmetry_multiplicity
 _atom_site_fract_x
 _atom_site_fract_y
 _atom_site_fract_z
 _atom_site_occupancy
  Sc  Sc0  1  0.704643  0.704643  0.295357  1
  Sc  Sc1  1  0.295357  0.704643  0.295357  1
  Sc  Sc2  1  0.704643  0.295357  0.295357  1
  Sc  Sc3  1  0.295357  0.295357  0.704643  1
  Sc  Sc4  1  0.704643  0.295357  0.704643  1
  Sc  Sc5  1  0.295357  0.704643  0.704643  1
  Ti  Ti6  1  0.883810  0.883810  0.348571  1
  Ti  Ti7  1  0.883810  0.348571  0.883810  1
  Ti  Ti8  1  0.348571  0.883810  0.883810  1
  Ti  Ti9  1  0.883810  0.883810  0.883810  1
  Al  Al10  1  0.117610  0.117610  0.647168  1
  Al  Al11  1  0.117610  0.647168  0.117610  1
  Al  Al12  1  0.647168  0.117610  0.117610  1
  Al  Al13  1  0.117610  0.117610  0.117610  1
  Al  Al14  1  0.667569  0.667569  0.997292  1
  Al  Al15  1  0.667569  0.997292  0.667569  1
  Al  Al16  1  0.997292  0.667569  0.667569  1
  Al  Al17  1  0.667569  0.667569  0.667569  1
  Al  Al18  1  0.332717  0.332717  0.001849  1
  Al  Al19  1  0.332717  0.001849  0.332717  1
  Al  Al20  1  0.001849  0.332717  0.332717  1
  Al  Al21  1  0.332717  0.332717  0.332717  1
  Fe  Fe22  1  0.000000  0.000000  0.000000  1
  Rh  Rh23  1  0.999581  0.999581  0.500419  1
  Rh  Rh24  1  0.500419  0.999581  0.500419  1
  Rh  Rh25  1  0.999581  0.500419  0.500419  1
  Rh  Rh26  1  0.500419  0.500419  0.999581  1
  Rh  Rh27  1  0.999581  0.500419  0.999581  1
  Rh  Rh28  1  0.500419  0.999581  0.999581  1
