# generated using pymatgen
data_TbDy4Co16(TcP4)3
_symmetry_space_group_name_H-M   'P 1'
_cell_length_a   12.02879900
_cell_length_b   12.02879867
_cell_length_c   3.71060400
_cell_angle_alpha   90.00000000
_cell_angle_beta   90.00000000
_cell_angle_gamma   119.99999265
_symmetry_Int_Tables_number   1
_chemical_formula_structural   TbDy4Co16(TcP4)3
_chemical_formula_sum   'Tb1 Dy4 Co16 Tc3 P12'
_cell_volume   464.96450058
_cell_formula_units_Z   1
loop_
 _symmetry_equiv_pos_site_id
 _symmetry_equiv_pos_as_xyz
  1  'x, y, z'
loop_
 _atom_site_type_symbol
 _atom_site_label
 _atom_site_symmetry_multiplicity
 _atom_site_fract_x
 _atom_site_fract_y
 _atom_site_fract_z
 _atom_site_occupancy
  Tb  Tb0  1  0.666667  0.333333  0.000000  1
  Dy  Dy1  1  0.333333  0.666667  0.000000  1
  Dy  Dy2  1  0.184767  0.184770  0.500000  1
  Dy  Dy3  1  0.815230  0.999997  0.500000  1
  Dy  Dy4  1  0.000003  0.815233  0.500000  1
  Co  Co5  1  0.821451  0.196959  0.000000  1
  Co  Co6  1  0.803041  0.624492  0.000000  1
  Co  Co7  1  0.375508  0.178549  0.000000  1
  Co  Co8  1  0.197024  0.821276  0.000000  1
  Co  Co9  1  0.624252  0.802976  0.000000  1
  Co  Co10  1  0.178724  0.375748  0.000000  1
  Co  Co11  1  0.643543  0.125744  0.500000  1
  Co  Co12  1  0.874256  0.517798  0.500000  1
  Co  Co13  1  0.482202  0.356457  0.500000  1
  Co  Co14  1  0.126155  0.643577  0.500000  1
  Co  Co15  1  0.517421  0.873845  0.500000  1
  Co  Co16  1  0.356423  0.482579  0.500000  1
  Co  Co17  1  0.717631  0.717795  0.500000  1
  Co  Co18  1  0.282205  0.999836  0.500000  1
  Co  Co19  1  0.000164  0.282369  0.500000  1
  Co  Co20  1  0.000000  0.000000  0.000000  1
  Tc  Tc21  1  0.554171  0.554247  0.000000  1
  Tc  Tc22  1  0.445753  0.999924  0.000000  1
  Tc  Tc23  1  0.000076  0.445829  0.000000  1
  P  P24  1  0.362879  0.362849  0.000000  1
  P  P25  1  0.637151  0.000030  0.000000  1
  P  P26  1  0.999970  0.637121  0.000000  1
  P  P27  1  0.835482  0.314099  0.500000  1
  P  P28  1  0.685901  0.521382  0.500000  1
  P  P29  1  0.478618  0.164518  0.500000  1
  P  P30  1  0.314120  0.835109  0.500000  1
  P  P31  1  0.520989  0.685880  0.500000  1
  P  P32  1  0.164891  0.479011  0.500000  1
  P  P33  1  0.821073  0.821122  0.000000  1
  P  P34  1  0.178878  0.999951  0.000000  1
  P  P35  1  0.000049  0.178927  0.000000  1
