# generated using pymatgen
data_PtRh7W
_symmetry_space_group_name_H-M   'P 1'
_cell_length_a   6.14487865
_cell_length_b   6.14487882
_cell_length_c   6.14487838
_cell_angle_alpha   95.71958972
_cell_angle_beta   95.58739432
_cell_angle_gamma   143.41523482
_symmetry_Int_Tables_number   1
_chemical_formula_structural   PtRh7W
_chemical_formula_sum   'Pt1 Rh7 W1'
_cell_volume   131.30284365
_cell_formula_units_Z   1
loop_
 _symmetry_equiv_pos_site_id
 _symmetry_equiv_pos_as_xyz
  1  'x, y, z'
loop_
 _atom_site_type_symbol
 _atom_site_label
 _atom_site_symmetry_multiplicity
 _atom_site_fract_x
 _atom_site_fract_y
 _atom_site_fract_z
 _atom_site_occupancy
  Pt  Pt0  1  0.331880  0.000000  0.331880  1
  Rh  Rh1  1  0.337350  0.338834  0.676183  1
  Rh  Rh2  1  0.661040  0.663965  0.325006  1
  Rh  Rh3  1  0.661040  0.336035  0.997075  1
  Rh  Rh4  1  0.337350  0.661166  0.998516  1
  Rh  Rh5  1  0.001637  0.329321  0.330959  1
  Rh  Rh6  1  0.001637  0.670679  0.672316  1
  Rh  Rh7  1  0.670256  0.000000  0.670256  1
  W  W8  1  0.997810  0.000000  0.997810  1
