# generated using pymatgen
data_Ho15Tm5(Ir3Rh)3
_symmetry_space_group_name_H-M   'P 1'
_cell_length_a   10.80910905
_cell_length_b   10.80806704
_cell_length_c   6.34848305
_cell_angle_alpha   90.00932040
_cell_angle_beta   89.98957824
_cell_angle_gamma   89.99901445
_symmetry_Int_Tables_number   1
_chemical_formula_structural   Ho15Tm5(Ir3Rh)3
_chemical_formula_sum   'Ho15 Tm5 Ir9 Rh3'
_cell_volume   741.66516120
_cell_formula_units_Z   1
loop_
 _symmetry_equiv_pos_site_id
 _symmetry_equiv_pos_as_xyz
  1  'x, y, z'
loop_
 _atom_site_type_symbol
 _atom_site_label
 _atom_site_symmetry_multiplicity
 _atom_site_fract_x
 _atom_site_fract_y
 _atom_site_fract_z
 _atom_site_occupancy
  Ho  Ho0  1  0.290033  0.088204  0.377803  1
  Ho  Ho1  1  0.290079  0.911745  0.877753  1
  Ho  Ho2  1  0.709949  0.088306  0.877796  1
  Ho  Ho3  1  0.709846  0.911964  0.377933  1
  Ho  Ho4  1  0.588272  0.790081  0.877760  1
  Ho  Ho5  1  0.588037  0.209873  0.377944  1
  Ho  Ho6  1  0.411949  0.790153  0.377932  1
  Ho  Ho7  1  0.411673  0.209927  0.877822  1
  Ho  Ho8  1  0.209121  0.411849  0.621105  1
  Ho  Ho9  1  0.209397  0.588005  0.123210  1
  Ho  Ho10  1  0.790686  0.411723  0.123243  1
  Ho  Ho11  1  0.790809  0.587997  0.621123  1
  Ho  Ho12  1  0.911798  0.709474  0.123257  1
  Ho  Ho13  1  0.912125  0.290763  0.621088  1
  Ho  Ho14  1  0.087992  0.709210  0.621106  1
  Tm  Tm15  1  0.088153  0.290843  0.123005  1
  Tm  Tm16  1  0.000013  0.000026  0.500290  1
  Tm  Tm17  1  0.000083  0.000222  0.000278  1
  Tm  Tm18  1  0.499989  0.499960  0.000212  1
  Tm  Tm19  1  0.500004  0.499992  0.500332  1
  Ir  Ir20  1  0.846378  0.152988  0.249590  1
  Ir  Ir21  1  0.846272  0.846876  0.749952  1
  Ir  Ir22  1  0.153596  0.153326  0.750558  1
  Ir  Ir23  1  0.153869  0.847132  0.249745  1
  Ir  Ir24  1  0.653112  0.346270  0.749950  1
  Ir  Ir25  1  0.652859  0.653890  0.249745  1
  Ir  Ir26  1  0.346778  0.346033  0.249559  1
  Ir  Ir27  1  0.346883  0.653736  0.749961  1
  Ir  Ir28  1  0.000146  0.499713  0.376565  1
  Rh  Rh29  1  0.499982  0.000013  0.122729  1
  Rh  Rh30  1  0.500003  0.000009  0.622824  1
  Rh  Rh31  1  0.000114  0.499696  0.877828  1
