# generated using pymatgen
data_Th8Sc11Si16Os
_symmetry_space_group_name_H-M   'P 1'
_cell_length_a   7.16860015
_cell_length_b   7.45375301
_cell_length_c   14.11616900
_cell_angle_alpha   90.00000000
_cell_angle_beta   90.00000000
_cell_angle_gamma   89.79439774
_symmetry_Int_Tables_number   1
_chemical_formula_structural   Th8Sc11Si16Os
_chemical_formula_sum   'Th8 Sc11 Si16 Os1'
_cell_volume   754.26404792
_cell_formula_units_Z   1
loop_
 _symmetry_equiv_pos_site_id
 _symmetry_equiv_pos_as_xyz
  1  'x, y, z'
loop_
 _atom_site_type_symbol
 _atom_site_label
 _atom_site_symmetry_multiplicity
 _atom_site_fract_x
 _atom_site_fract_y
 _atom_site_fract_z
 _atom_site_occupancy
  Th  Th0  1  0.008722  0.174262  0.093443  1
  Th  Th1  1  0.997854  0.825222  0.898268  1
  Th  Th2  1  0.492494  0.668746  0.899606  1
  Th  Th3  1  0.997854  0.825222  0.601732  1
  Th  Th4  1  0.507152  0.326545  0.095300  1
  Th  Th5  1  0.008722  0.174262  0.406557  1
  Th  Th6  1  0.507152  0.326545  0.404700  1
  Th  Th7  1  0.492494  0.668746  0.600394  1
  Sc  Sc8  1  0.837652  0.497321  0.250000  1
  Sc  Sc9  1  0.338903  0.003303  0.250000  1
  Sc  Sc10  1  0.662205  0.997668  0.750000  1
  Sc  Sc11  1  0.328423  0.174477  0.624483  1
  Sc  Sc12  1  0.668438  0.826524  0.375270  1
  Sc  Sc13  1  0.167639  0.673215  0.377676  1
  Sc  Sc14  1  0.668438  0.826524  0.124730  1
  Sc  Sc15  1  0.829957  0.328549  0.626529  1
  Sc  Sc16  1  0.328423  0.174477  0.875517  1
  Sc  Sc17  1  0.829957  0.328549  0.873471  1
  Sc  Sc18  1  0.167639  0.673215  0.122324  1
  Si  Si19  1  0.037476  0.136794  0.750000  1
  Si  Si20  1  0.966540  0.877301  0.250000  1
  Si  Si21  1  0.464562  0.623379  0.250000  1
  Si  Si22  1  0.516781  0.378520  0.750000  1
  Si  Si23  1  0.298079  0.882029  0.750000  1
  Si  Si24  1  0.712099  0.127214  0.250000  1
  Si  Si25  1  0.209082  0.377155  0.250000  1
  Si  Si26  1  0.801389  0.620958  0.750000  1
  Si  Si27  1  0.155916  0.462292  0.549255  1
  Si  Si28  1  0.839711  0.538633  0.463505  1
  Si  Si29  1  0.342564  0.960781  0.461323  1
  Si  Si30  1  0.839711  0.538633  0.036495  1
  Si  Si31  1  0.662015  0.034525  0.541102  1
  Si  Si32  1  0.155916  0.462292  0.950745  1
  Si  Si33  1  0.662015  0.034525  0.958898  1
  Si  Si34  1  0.342564  0.960781  0.038677  1
  Os  Os35  1  0.153463  0.490818  0.750000  1
