# generated using pymatgen
data_BaNd2(H6Ir)2
_symmetry_space_group_name_H-M   'P 1'
_cell_length_a   5.07346600
_cell_length_b   5.07346648
_cell_length_c   8.93905700
_cell_angle_alpha   90.00000000
_cell_angle_beta   90.00000000
_cell_angle_gamma   119.99999684
_symmetry_Int_Tables_number   1
_chemical_formula_structural   BaNd2(H6Ir)2
_chemical_formula_sum   'Ba1 Nd2 H12 Ir2'
_cell_volume   199.26540309
_cell_formula_units_Z   1
loop_
 _symmetry_equiv_pos_site_id
 _symmetry_equiv_pos_as_xyz
  1  'x, y, z'
loop_
 _atom_site_type_symbol
 _atom_site_label
 _atom_site_symmetry_multiplicity
 _atom_site_fract_x
 _atom_site_fract_y
 _atom_site_fract_z
 _atom_site_occupancy
  Ba  Ba0  1  0.000000  0.000000  0.000000  1
  Nd  Nd1  1  0.666667  0.333333  0.367608  1
  Nd  Nd2  1  0.333333  0.666667  0.632392  1
  H  H3  1  0.174758  0.825242  0.372258  1
  H  H4  1  0.650484  0.825242  0.372258  1
  H  H5  1  0.174758  0.349516  0.372258  1
  H  H6  1  0.825242  0.174758  0.627742  1
  H  H7  1  0.349516  0.174758  0.627742  1
  H  H8  1  0.825242  0.650484  0.627742  1
  H  H9  1  0.508923  0.017846  0.851067  1
  H  H10  1  0.508923  0.491077  0.851067  1
  H  H11  1  0.982154  0.491077  0.851067  1
  H  H12  1  0.491077  0.982154  0.148933  1
  H  H13  1  0.491077  0.508923  0.148933  1
  H  H14  1  0.017846  0.508923  0.148933  1
  Ir  Ir15  1  0.666667  0.333333  0.740869  1
  Ir  Ir16  1  0.333333  0.666667  0.259131  1
