# generated using pymatgen
data_Tb4Bi3Te
_symmetry_space_group_name_H-M   'P 1'
_cell_length_a   7.72094521
_cell_length_b   7.72094597
_cell_length_c   7.71130904
_cell_angle_alpha   131.76111486
_cell_angle_beta   131.76113290
_cell_angle_gamma   70.54010447
_symmetry_Int_Tables_number   1
_chemical_formula_structural   Tb4Bi3Te
_chemical_formula_sum   'Tb4 Bi3 Te1'
_cell_volume   250.68840141
_cell_formula_units_Z   1
loop_
 _symmetry_equiv_pos_site_id
 _symmetry_equiv_pos_as_xyz
  1  'x, y, z'
loop_
 _atom_site_type_symbol
 _atom_site_label
 _atom_site_symmetry_multiplicity
 _atom_site_fract_x
 _atom_site_fract_y
 _atom_site_fract_z
 _atom_site_occupancy
  Tb  Tb0  1  0.250525  0.250525  0.999865  1
  Tb  Tb1  1  0.749475  0.749475  0.000135  1
  Tb  Tb2  1  0.500000  0.000000  0.500000  1
  Tb  Tb3  1  0.000000  0.500000  0.500000  1
  Bi  Bi4  1  0.500000  0.500000  0.000000  1
  Bi  Bi5  1  0.749944  0.250056  0.500000  1
  Bi  Bi6  1  0.250056  0.749944  0.500000  1
  Te  Te7  1  0.000000  0.000000  0.000000  1
