# generated using pymatgen
data_Tb3Y5(MnS4)4
_symmetry_space_group_name_H-M   'P 1'
_cell_length_a   6.41712702
_cell_length_b   7.92581000
_cell_length_c   13.55146800
_cell_angle_alpha   89.99988434
_cell_angle_beta   89.99601786
_cell_angle_gamma   89.99985541
_symmetry_Int_Tables_number   1
_chemical_formula_structural   Tb3Y5(MnS4)4
_chemical_formula_sum   'Tb3 Y5 Mn4 S16'
_cell_volume   689.24025651
_cell_formula_units_Z   1
loop_
 _symmetry_equiv_pos_site_id
 _symmetry_equiv_pos_as_xyz
  1  'x, y, z'
loop_
 _atom_site_type_symbol
 _atom_site_label
 _atom_site_symmetry_multiplicity
 _atom_site_fract_x
 _atom_site_fract_y
 _atom_site_fract_z
 _atom_site_occupancy
  Tb  Tb0  1  0.994608  0.749999  0.266185  1
  Tb  Tb1  1  0.505423  0.749999  0.766208  1
  Tb  Tb2  1  0.005403  0.250000  0.733807  1
  Y  Y3  1  0.999979  0.499921  0.000071  1
  Y  Y4  1  0.499996  0.000042  0.499949  1
  Y  Y5  1  0.999980  0.000077  0.000071  1
  Y  Y6  1  0.499995  0.499957  0.499948  1
  Y  Y7  1  0.494695  0.249999  0.234013  1
  Mn  Mn8  1  0.411215  0.750006  0.092365  1
  Mn  Mn9  1  0.088833  0.750003  0.592328  1
  Mn  Mn10  1  0.588791  0.249996  0.907744  1
  Mn  Mn11  1  0.911259  0.249998  0.407611  1
  S  S12  1  0.778384  0.750001  0.089854  1
  S  S13  1  0.721763  0.749997  0.589813  1
  S  S14  1  0.221683  0.249996  0.910159  1
  S  S15  1  0.278455  0.250004  0.409843  1
  S  S16  1  0.244602  0.749997  0.430493  1
  S  S17  1  0.255293  0.750003  0.930532  1
  S  S18  1  0.755357  0.250001  0.569485  1
  S  S19  1  0.744107  0.249997  0.069775  1
  S  S20  1  0.742033  0.486406  0.331282  1
  S  S21  1  0.757664  0.013363  0.831491  1
  S  S22  1  0.257666  0.986680  0.668518  1
  S  S23  1  0.242728  0.512987  0.168583  1
  S  S24  1  0.257667  0.513321  0.668516  1
  S  S25  1  0.242728  0.987013  0.168582  1
  S  S26  1  0.742033  0.013596  0.331280  1
  S  S27  1  0.757661  0.486640  0.831491  1
