# generated using pymatgen
data_LuZr3(Al3Rh)6
_symmetry_space_group_name_H-M   'P 1'
_cell_length_a   7.48793536
_cell_length_b   7.48113227
_cell_length_c   9.31691700
_cell_angle_alpha   90.00000000
_cell_angle_beta   90.00000000
_cell_angle_gamma   119.76563428
_symmetry_Int_Tables_number   1
_chemical_formula_structural   LuZr3(Al3Rh)6
_chemical_formula_sum   'Lu1 Zr3 Al18 Rh6'
_cell_volume   453.05724715
_cell_formula_units_Z   1
loop_
 _symmetry_equiv_pos_site_id
 _symmetry_equiv_pos_as_xyz
  1  'x, y, z'
loop_
 _atom_site_type_symbol
 _atom_site_label
 _atom_site_symmetry_multiplicity
 _atom_site_fract_x
 _atom_site_fract_y
 _atom_site_fract_z
 _atom_site_occupancy
  Lu  Lu0  1  0.329487  0.005630  0.750000  1
  Zr  Zr1  1  0.994648  0.671045  0.250000  1
  Zr  Zr2  1  0.006119  0.330249  0.750000  1
  Zr  Zr3  1  0.670066  0.994087  0.250000  1
  Al  Al4  1  0.121058  0.121836  0.250000  1
  Al  Al5  1  0.874543  0.877289  0.750000  1
  Al  Al6  1  0.997055  0.334264  0.075757  1
  Al  Al7  1  0.000881  0.663322  0.925214  1
  Al  Al8  1  0.000881  0.663322  0.574786  1
  Al  Al9  1  0.334523  0.997618  0.421817  1
  Al  Al10  1  0.997055  0.334264  0.424243  1
  Al  Al11  1  0.667803  0.002866  0.574871  1
  Al  Al12  1  0.667803  0.002866  0.925129  1
  Al  Al13  1  0.334523  0.997618  0.078183  1
  Al  Al14  1  0.331165  0.333111  0.556504  1
  Al  Al15  1  0.668752  0.668616  0.442027  1
  Al  Al16  1  0.668752  0.668616  0.057973  1
  Al  Al17  1  0.331165  0.333111  0.943496  1
  Al  Al18  1  0.338176  0.553277  0.250000  1
  Al  Al19  1  0.665022  0.450127  0.750000  1
  Al  Al20  1  0.554553  0.338908  0.250000  1
  Al  Al21  1  0.446084  0.658233  0.750000  1
  Rh  Rh22  1  0.672177  0.327444  0.000533  1
  Rh  Rh23  1  0.327963  0.673131  0.000892  1
  Rh  Rh24  1  0.327963  0.673131  0.499108  1
  Rh  Rh25  1  0.672177  0.327444  0.499467  1
  Rh  Rh26  1  0.999802  0.999287  0.000573  1
  Rh  Rh27  1  0.999802  0.999287  0.499427  1
