# generated using pymatgen
data_TbYbIr2F14
_symmetry_space_group_name_H-M   'P 1'
_cell_length_a   5.55665224
_cell_length_b   8.91435382
_cell_length_c   12.03180961
_cell_angle_alpha   62.62952854
_cell_angle_beta   90.01640787
_cell_angle_gamma   89.85612552
_symmetry_Int_Tables_number   1
_chemical_formula_structural   TbYbIr2F14
_chemical_formula_sum   'Tb2 Yb2 Ir4 F28'
_cell_volume   529.26199249
_cell_formula_units_Z   2
loop_
 _symmetry_equiv_pos_site_id
 _symmetry_equiv_pos_as_xyz
  1  'x, y, z'
loop_
 _atom_site_type_symbol
 _atom_site_label
 _atom_site_symmetry_multiplicity
 _atom_site_fract_x
 _atom_site_fract_y
 _atom_site_fract_z
 _atom_site_occupancy
  Tb  Tb0  1  0.764059  0.178455  0.234986  1
  Tb  Tb1  1  0.235941  0.821545  0.765014  1
  Yb  Yb2  1  0.261710  0.816461  0.265101  1
  Yb  Yb3  1  0.738290  0.183539  0.734899  1
  Ir  Ir4  1  0.757751  0.725463  0.046104  1
  Ir  Ir5  1  0.242249  0.274537  0.953896  1
  Ir  Ir6  1  0.258853  0.276873  0.455549  1
  Ir  Ir7  1  0.741147  0.723127  0.544451  1
  F  F8  1  0.940273  0.705292  0.419991  1
  F  F9  1  0.059727  0.294708  0.580009  1
  F  F10  1  0.440190  0.297362  0.078838  1
  F  F11  1  0.559810  0.702638  0.921162  1
  F  F12  1  0.470624  0.729472  0.135545  1
  F  F13  1  0.529376  0.270528  0.864455  1
  F  F14  1  0.970140  0.271896  0.364414  1
  F  F15  1  0.029860  0.728104  0.635586  1
  F  F16  1  0.953739  0.743214  0.171856  1
  F  F17  1  0.046261  0.256786  0.828144  1
  F  F18  1  0.455513  0.257839  0.327495  1
  F  F19  1  0.544487  0.742161  0.672505  1
  F  F20  1  0.768285  0.480877  0.141183  1
  F  F21  1  0.231715  0.519123  0.858817  1
  F  F22  1  0.266036  0.518420  0.359860  1
  F  F23  1  0.733964  0.481580  0.640140  1
  F  F24  1  0.946028  0.284510  0.040288  1
  F  F25  1  0.053972  0.715490  0.959712  1
  F  F26  1  0.450233  0.716556  0.458194  1
  F  F27  1  0.549767  0.283444  0.541806  1
  F  F28  1  0.740191  0.968239  0.452299  1
  F  F29  1  0.259809  0.031761  0.547701  1
  F  F30  1  0.242323  0.033237  0.047563  1
  F  F31  1  0.757677  0.966763  0.952437  1
  F  F32  1  0.587549  0.971616  0.230193  1
  F  F33  1  0.412451  0.028384  0.769807  1
  F  F34  1  0.088582  0.035516  0.268593  1
  F  F35  1  0.911418  0.964484  0.731407  1
