# generated using pymatgen
data_LiSm6RuCl12
_symmetry_space_group_name_H-M   'P 1'
_cell_length_a   8.95390234
_cell_length_b   8.95806325
_cell_length_c   8.95443300
_cell_angle_alpha   107.61712091
_cell_angle_beta   107.67702055
_cell_angle_gamma   107.66621306
_symmetry_Int_Tables_number   1
_chemical_formula_structural   LiSm6RuCl12
_chemical_formula_sum   'Li1 Sm6 Ru1 Cl12'
_cell_volume   587.16158920
_cell_formula_units_Z   1
loop_
 _symmetry_equiv_pos_site_id
 _symmetry_equiv_pos_as_xyz
  1  'x, y, z'
loop_
 _atom_site_type_symbol
 _atom_site_label
 _atom_site_symmetry_multiplicity
 _atom_site_fract_x
 _atom_site_fract_y
 _atom_site_fract_z
 _atom_site_occupancy
  Li  Li0  1  0.500000  0.500000  0.500000  1
  Sm  Sm1  1  0.122482  0.333208  0.037001  1
  Sm  Sm2  1  0.333365  0.037117  0.122636  1
  Sm  Sm3  1  0.037141  0.122387  0.333262  1
  Sm  Sm4  1  0.962860  0.877613  0.666739  1
  Sm  Sm5  1  0.666635  0.962884  0.877364  1
  Sm  Sm6  1  0.877518  0.666792  0.962999  1
  Ru  Ru7  1  0.000000  0.000000  0.000000  1
  Cl  Cl8  1  0.217761  0.687638  0.073555  1
  Cl  Cl9  1  0.463813  0.382827  0.175469  1
  Cl  Cl10  1  0.687846  0.074039  0.217659  1
  Cl  Cl11  1  0.926254  0.782294  0.312346  1
  Cl  Cl12  1  0.175382  0.463488  0.382747  1
  Cl  Cl13  1  0.382999  0.175252  0.463839  1
  Cl  Cl14  1  0.617001  0.824748  0.536162  1
  Cl  Cl15  1  0.824619  0.536512  0.617253  1
  Cl  Cl16  1  0.073747  0.217706  0.687655  1
  Cl  Cl17  1  0.312155  0.925962  0.782341  1
  Cl  Cl18  1  0.536187  0.617173  0.824532  1
  Cl  Cl19  1  0.782239  0.312362  0.926445  1
