# generated using pymatgen
data_YbSm3Pd3PtO14
_symmetry_space_group_name_H-M   'P 1'
_cell_length_a   7.34812086
_cell_length_b   7.34380032
_cell_length_c   7.31849574
_cell_angle_alpha   59.80883903
_cell_angle_beta   59.86599919
_cell_angle_gamma   59.98053583
_symmetry_Int_Tables_number   1
_chemical_formula_structural   YbSm3Pd3PtO14
_chemical_formula_sum   'Yb1 Sm3 Pd3 Pt1 O14'
_cell_volume   278.52778740
_cell_formula_units_Z   1
loop_
 _symmetry_equiv_pos_site_id
 _symmetry_equiv_pos_as_xyz
  1  'x, y, z'
loop_
 _atom_site_type_symbol
 _atom_site_label
 _atom_site_symmetry_multiplicity
 _atom_site_fract_x
 _atom_site_fract_y
 _atom_site_fract_z
 _atom_site_occupancy
  Yb  Yb0  1  0.125000  0.125000  0.625000  1
  Sm  Sm1  1  0.125000  0.125000  0.125000  1
  Sm  Sm2  1  0.625000  0.125000  0.125000  1
  Sm  Sm3  1  0.125000  0.625000  0.125000  1
  Pd  Pd4  1  0.625000  0.625000  0.125000  1
  Pd  Pd5  1  0.625000  0.625000  0.625000  1
  Pd  Pd6  1  0.125000  0.625000  0.625000  1
  Pt  Pt7  1  0.625000  0.125000  0.625000  1
  O  O8  1  0.709990  0.289174  0.290847  1
  O  O9  1  0.706952  0.290373  0.708518  1
  O  O10  1  0.999661  0.001935  0.998741  1
  O  O11  1  0.288713  0.712629  0.287636  1
  O  O12  1  0.711020  0.712629  0.287636  1
  O  O13  1  0.959751  0.539286  0.541213  1
  O  O14  1  0.290249  0.710714  0.708787  1
  O  O15  1  0.250339  0.248065  0.251259  1
  O  O16  1  0.961287  0.537371  0.962364  1
  O  O17  1  0.543048  0.959627  0.541482  1
  O  O18  1  0.538980  0.537371  0.962364  1
  O  O19  1  0.955843  0.959627  0.541482  1
  O  O20  1  0.540010  0.960826  0.959153  1
  O  O21  1  0.294157  0.290373  0.708518  1
