# generated using pymatgen
data_Dy4Ir2Pb5
_symmetry_space_group_name_H-M   'P 1'
_cell_length_a   8.21585498
_cell_length_b   3.56869600
_cell_length_c   9.90009374
_cell_angle_alpha   90.00000000
_cell_angle_beta   93.76408884
_cell_angle_gamma   90.00000000
_symmetry_Int_Tables_number   1
_chemical_formula_structural   Dy4Ir2Pb5
_chemical_formula_sum   'Dy4 Ir2 Pb5'
_cell_volume   289.64348093
_cell_formula_units_Z   1
loop_
 _symmetry_equiv_pos_site_id
 _symmetry_equiv_pos_as_xyz
  1  'x, y, z'
loop_
 _atom_site_type_symbol
 _atom_site_label
 _atom_site_symmetry_multiplicity
 _atom_site_fract_x
 _atom_site_fract_y
 _atom_site_fract_z
 _atom_site_occupancy
  Dy  Dy0  1  0.805524  0.500001  0.159497  1
  Dy  Dy1  1  0.199571  0.500001  0.434180  1
  Dy  Dy2  1  0.800429  0.500001  0.565820  1
  Dy  Dy3  1  0.194475  0.500001  0.840503  1
  Ir  Ir4  1  0.920411  0.000000  0.363517  1
  Ir  Ir5  1  0.079590  0.000000  0.636484  1
  Pb  Pb6  1  0.500000  0.000000  0.000000  1
  Pb  Pb7  1  0.146395  0.000000  0.137483  1
  Pb  Pb8  1  0.539492  0.000000  0.334765  1
  Pb  Pb9  1  0.460507  0.000000  0.665234  1
  Pb  Pb10  1  0.853604  0.000000  0.862518  1
