# generated using pymatgen
data_LiCe(NbS2)8
_symmetry_space_group_name_H-M   'P 1'
_cell_length_a   6.75801200
_cell_length_b   6.75801021
_cell_length_c   13.36894600
_cell_angle_alpha   90.00000000
_cell_angle_beta   90.00000000
_cell_angle_gamma   120.00000878
_symmetry_Int_Tables_number   1
_chemical_formula_structural   LiCe(NbS2)8
_chemical_formula_sum   'Li1 Ce1 Nb8 S16'
_cell_volume   528.76848662
_cell_formula_units_Z   1
loop_
 _symmetry_equiv_pos_site_id
 _symmetry_equiv_pos_as_xyz
  1  'x, y, z'
loop_
 _atom_site_type_symbol
 _atom_site_label
 _atom_site_symmetry_multiplicity
 _atom_site_fract_x
 _atom_site_fract_y
 _atom_site_fract_z
 _atom_site_occupancy
  Li  Li0  1  0.000000  0.000000  0.000000  1
  Ce  Ce1  1  0.000000  0.000000  0.500000  1
  Nb  Nb2  1  0.000000  0.000000  0.238776  1
  Nb  Nb3  1  0.000000  0.000000  0.761224  1
  Nb  Nb4  1  0.504435  0.495565  0.238008  1
  Nb  Nb5  1  0.504435  0.008872  0.238008  1
  Nb  Nb6  1  0.991128  0.495565  0.238008  1
  Nb  Nb7  1  0.495565  0.504435  0.761992  1
  Nb  Nb8  1  0.495565  0.991128  0.761992  1
  Nb  Nb9  1  0.008872  0.504435  0.761992  1
  S  S10  1  0.333333  0.666667  0.878916  1
  S  S11  1  0.666667  0.333333  0.121084  1
  S  S12  1  0.666667  0.333333  0.357442  1
  S  S13  1  0.333333  0.666667  0.642558  1
  S  S14  1  0.168245  0.831755  0.355101  1
  S  S15  1  0.168245  0.336490  0.355101  1
  S  S16  1  0.663510  0.831755  0.355101  1
  S  S17  1  0.831755  0.168245  0.644899  1
  S  S18  1  0.831755  0.663510  0.644899  1
  S  S19  1  0.336490  0.168245  0.644899  1
  S  S20  1  0.832682  0.167318  0.876823  1
  S  S21  1  0.832682  0.665366  0.876823  1
  S  S22  1  0.334634  0.167318  0.876823  1
  S  S23  1  0.167318  0.832682  0.123177  1
  S  S24  1  0.167318  0.334634  0.123177  1
  S  S25  1  0.665366  0.832682  0.123177  1
