# generated using pymatgen
data_HfMn2NbAs2
_symmetry_space_group_name_H-M   'P 1'
_cell_length_a   3.70388000
_cell_length_b   6.48345700
_cell_length_c   7.59607100
_cell_angle_alpha   90.00000000
_cell_angle_beta   90.00000000
_cell_angle_gamma   90.00000000
_symmetry_Int_Tables_number   1
_chemical_formula_structural   HfMn2NbAs2
_chemical_formula_sum   'Hf2 Mn4 Nb2 As4'
_cell_volume   182.41164422
_cell_formula_units_Z   2
loop_
 _symmetry_equiv_pos_site_id
 _symmetry_equiv_pos_as_xyz
  1  'x, y, z'
loop_
 _atom_site_type_symbol
 _atom_site_label
 _atom_site_symmetry_multiplicity
 _atom_site_fract_x
 _atom_site_fract_y
 _atom_site_fract_z
 _atom_site_occupancy
  Hf  Hf0  1  0.750000  0.034344  0.673618  1
  Hf  Hf1  1  0.750000  0.534344  0.826382  1
  Mn  Mn2  1  0.250000  0.364180  0.557219  1
  Mn  Mn3  1  0.250000  0.864180  0.942781  1
  Mn  Mn4  1  0.750000  0.636160  0.440207  1
  Mn  Mn5  1  0.750000  0.136160  0.059793  1
  Nb  Nb6  1  0.250000  0.964874  0.326232  1
  Nb  Nb7  1  0.250000  0.464874  0.173768  1
  As  As8  1  0.250000  0.736547  0.629076  1
  As  As9  1  0.250000  0.236547  0.870924  1
  As  As10  1  0.750000  0.263897  0.367059  1
  As  As11  1  0.750000  0.763897  0.132941  1
