# generated using pymatgen
data_Hf6Fe5Si12Ni
_symmetry_space_group_name_H-M   'P 1'
_cell_length_a   9.67430245
_cell_length_b   9.66560342
_cell_length_c   9.67722332
_cell_angle_alpha   149.22317895
_cell_angle_beta   132.89858039
_cell_angle_gamma   57.27896221
_symmetry_Int_Tables_number   1
_chemical_formula_structural   Hf6Fe5Si12Ni
_chemical_formula_sum   'Hf6 Fe5 Si12 Ni1'
_cell_volume   336.82268480
_cell_formula_units_Z   1
loop_
 _symmetry_equiv_pos_site_id
 _symmetry_equiv_pos_as_xyz
  1  'x, y, z'
loop_
 _atom_site_type_symbol
 _atom_site_label
 _atom_site_symmetry_multiplicity
 _atom_site_fract_x
 _atom_site_fract_y
 _atom_site_fract_z
 _atom_site_occupancy
  Hf  Hf0  1  0.856636  0.598287  0.263608  1
  Hf  Hf1  1  0.143364  0.401713  0.736392  1
  Hf  Hf2  1  0.665502  0.403462  0.260457  1
  Hf  Hf3  1  0.334498  0.596538  0.739543  1
  Hf  Hf4  1  0.140023  0.144271  0.001107  1
  Hf  Hf5  1  0.859977  0.855729  0.998893  1
  Fe  Fe6  1  0.746971  0.005161  0.747631  1
  Fe  Fe7  1  0.000000  0.000000  0.500000  1
  Fe  Fe8  1  0.500000  0.000000  0.000000  1
  Fe  Fe9  1  0.253029  0.994839  0.252369  1
  Fe  Fe10  1  0.000000  0.500000  0.000000  1
  Si  Si11  1  0.484884  0.134432  0.345883  1
  Si  Si12  1  0.515116  0.865568  0.654117  1
  Si  Si13  1  0.209974  0.857978  0.348791  1
  Si  Si14  1  0.790026  0.142022  0.651209  1
  Si  Si15  1  0.705983  0.716250  0.018556  1
  Si  Si16  1  0.294017  0.283750  0.981444  1
  Si  Si17  1  0.500733  0.742157  0.241434  1
  Si  Si18  1  0.499267  0.257843  0.758566  1
  Si  Si19  1  0.999617  0.253343  0.254118  1
  Si  Si20  1  0.210519  0.719174  0.502417  1
  Si  Si21  1  0.000383  0.746657  0.745882  1
  Si  Si22  1  0.789481  0.280826  0.497583  1
  Ni  Ni23  1  0.500000  0.500000  0.500000  1
