# generated using pymatgen
data_Tb13Ho3(ZnRh)4
_symmetry_space_group_name_H-M   'P 1'
_cell_length_a   9.52727246
_cell_length_b   9.53721916
_cell_length_c   9.52074207
_cell_angle_alpha   59.98807293
_cell_angle_beta   59.89648408
_cell_angle_gamma   59.92014236
_symmetry_Int_Tables_number   1
_chemical_formula_structural   Tb13Ho3(ZnRh)4
_chemical_formula_sum   'Tb13 Ho3 Zn4 Rh4'
_cell_volume   610.80671417
_cell_formula_units_Z   1
loop_
 _symmetry_equiv_pos_site_id
 _symmetry_equiv_pos_as_xyz
  1  'x, y, z'
loop_
 _atom_site_type_symbol
 _atom_site_label
 _atom_site_symmetry_multiplicity
 _atom_site_fract_x
 _atom_site_fract_y
 _atom_site_fract_z
 _atom_site_occupancy
  Tb  Tb0  1  0.645570  0.062035  0.646079  1
  Tb  Tb1  1  0.063118  0.064314  0.436906  1
  Tb  Tb2  1  0.436906  0.435662  0.063118  1
  Tb  Tb3  1  0.646079  0.646317  0.645570  1
  Tb  Tb4  1  0.809540  0.190332  0.190701  1
  Tb  Tb5  1  0.190701  0.809427  0.809540  1
  Tb  Tb6  1  0.063073  0.645461  0.645320  1
  Tb  Tb7  1  0.436912  0.064187  0.063121  1
  Tb  Tb8  1  0.436109  0.063891  0.436109  1
  Tb  Tb9  1  0.063631  0.436369  0.063631  1
  Tb  Tb10  1  0.645320  0.646146  0.063073  1
  Tb  Tb11  1  0.190591  0.809409  0.190591  1
  Tb  Tb12  1  0.063121  0.435780  0.436912  1
  Ho  Ho13  1  0.809279  0.809136  0.190999  1
  Ho  Ho14  1  0.809294  0.190706  0.809294  1
  Ho  Ho15  1  0.190999  0.190586  0.809279  1
  Zn  Zn16  1  0.420799  0.420465  0.421114  1
  Zn  Zn17  1  0.420829  0.420317  0.738298  1
  Zn  Zn18  1  0.421114  0.737622  0.420799  1
  Zn  Zn19  1  0.738298  0.420556  0.420829  1
  Rh  Rh20  1  0.857105  0.428942  0.855923  1
  Rh  Rh21  1  0.855923  0.858032  0.857105  1
  Rh  Rh22  1  0.855584  0.856433  0.430107  1
  Rh  Rh23  1  0.430107  0.857877  0.855584  1
