# generated using pymatgen
data_TaTi2(FeB)3
_symmetry_space_group_name_H-M   'P 1'
_cell_length_a   5.98438327
_cell_length_b   6.02394332
_cell_length_c   3.05978600
_cell_angle_alpha   90.00000000
_cell_angle_beta   90.00000000
_cell_angle_gamma   120.21893551
_symmetry_Int_Tables_number   1
_chemical_formula_structural   TaTi2(FeB)3
_chemical_formula_sum   'Ta1 Ti2 Fe3 B3'
_cell_volume   95.31464056
_cell_formula_units_Z   1
loop_
 _symmetry_equiv_pos_site_id
 _symmetry_equiv_pos_as_xyz
  1  'x, y, z'
loop_
 _atom_site_type_symbol
 _atom_site_label
 _atom_site_symmetry_multiplicity
 _atom_site_fract_x
 _atom_site_fract_y
 _atom_site_fract_z
 _atom_site_occupancy
  Ta  Ta0  1  0.000000  0.588177  0.500000  1
  Ti  Ti1  1  0.410528  0.411762  0.500000  1
  Ti  Ti2  1  0.589472  0.001235  0.500000  1
  Fe  Fe3  1  0.753845  0.756693  0.000000  1
  Fe  Fe4  1  0.246155  0.002848  0.000000  1
  Fe  Fe5  1  0.000000  0.241695  0.000000  1
  B  B6  1  0.660556  0.328817  0.000000  1
  B  B7  1  0.339444  0.668262  0.000000  1
  B  B8  1  0.000000  0.000509  0.500000  1
