# generated using pymatgen
data_Ho7Th7(IrRh2)2
_symmetry_space_group_name_H-M   'P 1'
_cell_length_a   9.94004600
_cell_length_b   9.82935748
_cell_length_c   6.33935618
_cell_angle_alpha   89.92839897
_cell_angle_beta   90.00000000
_cell_angle_gamma   120.37322248
_symmetry_Int_Tables_number   1
_chemical_formula_structural   Ho7Th7(IrRh2)2
_chemical_formula_sum   'Ho7 Th7 Ir2 Rh4'
_cell_volume   534.37142554
_cell_formula_units_Z   1
loop_
 _symmetry_equiv_pos_site_id
 _symmetry_equiv_pos_as_xyz
  1  'x, y, z'
loop_
 _atom_site_type_symbol
 _atom_site_label
 _atom_site_symmetry_multiplicity
 _atom_site_fract_x
 _atom_site_fract_y
 _atom_site_fract_z
 _atom_site_occupancy
  Ho  Ho0  1  0.872615  0.745230  0.742031  1
  Ho  Ho1  1  0.540053  0.462405  0.445387  1
  Ho  Ho2  1  0.922353  0.462405  0.445387  1
  Ho  Ho3  1  0.538902  0.077804  0.445218  1
  Ho  Ho4  1  0.462519  0.538263  0.942821  1
  Ho  Ho5  1  0.075744  0.538263  0.942821  1
  Ho  Ho6  1  0.462844  0.925690  0.945575  1
  Th  Th7  1  0.333489  0.666979  0.467297  1
  Th  Th8  1  0.666882  0.333764  0.964837  1
  Th  Th9  1  0.126378  0.869816  0.241605  1
  Th  Th10  1  0.743438  0.869816  0.241605  1
  Th  Th11  1  0.127612  0.255225  0.238377  1
  Th  Th12  1  0.868904  0.125116  0.740099  1
  Th  Th13  1  0.256212  0.125116  0.740099  1
  Ir  Ir14  1  0.813082  0.186528  0.192811  1
  Ir  Ir15  1  0.373444  0.186528  0.192811  1
  Rh  Rh16  1  0.814486  0.628973  0.197605  1
  Rh  Rh17  1  0.192283  0.815357  0.690446  1
  Rh  Rh18  1  0.623075  0.815357  0.690446  1
  Rh  Rh19  1  0.185683  0.371366  0.696261  1
