# generated using pymatgen
data_Ho3Tm9Os3Ru
_symmetry_space_group_name_H-M   'P 1'
_cell_length_a   7.35154159
_cell_length_b   8.94086400
_cell_length_c   6.24961725
_cell_angle_alpha   90.00000000
_cell_angle_beta   89.94553774
_cell_angle_gamma   90.00000000
_symmetry_Int_Tables_number   1
_chemical_formula_structural   Ho3Tm9Os3Ru
_chemical_formula_sum   'Ho3 Tm9 Os3 Ru1'
_cell_volume   410.78174099
_cell_formula_units_Z   1
loop_
 _symmetry_equiv_pos_site_id
 _symmetry_equiv_pos_as_xyz
  1  'x, y, z'
loop_
 _atom_site_type_symbol
 _atom_site_label
 _atom_site_symmetry_multiplicity
 _atom_site_fract_x
 _atom_site_fract_y
 _atom_site_fract_z
 _atom_site_occupancy
  Ho  Ho0  1  0.040938  0.250000  0.629846  1
  Ho  Ho1  1  0.960215  0.750000  0.369851  1
  Ho  Ho2  1  0.539953  0.250000  0.868421  1
  Tm  Tm3  1  0.460187  0.750000  0.130436  1
  Tm  Tm4  1  0.174437  0.062148  0.166135  1
  Tm  Tm5  1  0.825188  0.937334  0.832934  1
  Tm  Tm6  1  0.324890  0.936118  0.668215  1
  Tm  Tm7  1  0.825188  0.562666  0.832934  1
  Tm  Tm8  1  0.674950  0.062516  0.333241  1
  Tm  Tm9  1  0.174437  0.437852  0.166135  1
  Tm  Tm10  1  0.674950  0.437484  0.333241  1
  Tm  Tm11  1  0.324890  0.563882  0.668215  1
  Os  Os12  1  0.616350  0.750000  0.538969  1
  Os  Os13  1  0.117552  0.750000  0.960386  1
  Os  Os14  1  0.882744  0.250000  0.039725  1
  Ru  Ru15  1  0.383130  0.250000  0.461317  1
