# generated using pymatgen
data_Pr3Sc7(Si5Ir2)4
_symmetry_space_group_name_H-M   'P 1'
_cell_length_a   12.54009251
_cell_length_b   12.54009251
_cell_length_c   4.17683900
_cell_angle_alpha   90.00000000
_cell_angle_beta   90.00000000
_cell_angle_gamma   90.19689692
_symmetry_Int_Tables_number   1
_chemical_formula_structural   Pr3Sc7(Si5Ir2)4
_chemical_formula_sum   'Pr3 Sc7 Si20 Ir8'
_cell_volume   656.82042840
_cell_formula_units_Z   1
loop_
 _symmetry_equiv_pos_site_id
 _symmetry_equiv_pos_as_xyz
  1  'x, y, z'
loop_
 _atom_site_type_symbol
 _atom_site_label
 _atom_site_symmetry_multiplicity
 _atom_site_fract_x
 _atom_site_fract_y
 _atom_site_fract_z
 _atom_site_occupancy
  Pr  Pr0  1  0.116108  0.615904  0.500000  1
  Pr  Pr1  1  0.884096  0.383892  0.500000  1
  Pr  Pr2  1  0.614599  0.885401  0.500000  1
  Sc  Sc3  1  0.384145  0.115855  0.500000  1
  Sc  Sc4  1  0.673260  0.175109  0.500000  1
  Sc  Sc5  1  0.324891  0.826740  0.500000  1
  Sc  Sc6  1  0.176693  0.323307  0.500000  1
  Sc  Sc7  1  0.824589  0.675411  0.500000  1
  Sc  Sc8  1  0.000965  0.000209  0.000000  1
  Sc  Sc9  1  0.499791  0.499035  0.000000  1
  Si  Si10  1  0.566093  0.068887  0.000000  1
  Si  Si11  1  0.431113  0.933907  0.000000  1
  Si  Si12  1  0.069736  0.430264  0.000000  1
  Si  Si13  1  0.930843  0.569157  0.000000  1
  Si  Si14  1  0.203000  0.164277  0.000000  1
  Si  Si15  1  0.799778  0.835639  0.000000  1
  Si  Si16  1  0.165587  0.802188  0.000000  1
  Si  Si17  1  0.697812  0.334413  0.000000  1
  Si  Si18  1  0.834876  0.199933  0.000000  1
  Si  Si19  1  0.300067  0.665124  0.000000  1
  Si  Si20  1  0.664361  0.700222  0.000000  1
  Si  Si21  1  0.335723  0.297000  0.000000  1
  Si  Si22  1  0.008656  0.149227  0.500000  1
  Si  Si23  1  0.993177  0.850963  0.500000  1
  Si  Si24  1  0.152673  0.994296  0.500000  1
  Si  Si25  1  0.505704  0.347327  0.500000  1
  Si  Si26  1  0.850496  0.009138  0.500000  1
  Si  Si27  1  0.490862  0.649504  0.500000  1
  Si  Si28  1  0.649037  0.506823  0.500000  1
  Si  Si29  1  0.350773  0.491344  0.500000  1
  Ir  Ir30  1  0.024305  0.240671  0.000000  1
  Ir  Ir31  1  0.976893  0.759332  0.000000  1
  Ir  Ir32  1  0.245791  0.980078  0.000000  1
  Ir  Ir33  1  0.519922  0.254209  0.000000  1
  Ir  Ir34  1  0.757227  0.023638  0.000000  1
  Ir  Ir35  1  0.476362  0.742773  0.000000  1
  Ir  Ir36  1  0.740668  0.523107  0.000000  1
  Ir  Ir37  1  0.259329  0.475695  0.000000  1
