# generated using pymatgen
data_Tb16Dy(HoIr4)3
_symmetry_space_group_name_H-M   'P 1'
_cell_length_a   10.93492400
_cell_length_b   10.93492400
_cell_length_c   6.38730800
_cell_angle_alpha   90.00000000
_cell_angle_beta   90.00000000
_cell_angle_gamma   90.00000000
_symmetry_Int_Tables_number   1
_chemical_formula_structural   Tb16Dy(HoIr4)3
_chemical_formula_sum   'Tb16 Dy1 Ho3 Ir12'
_cell_volume   763.74678750
_cell_formula_units_Z   1
loop_
 _symmetry_equiv_pos_site_id
 _symmetry_equiv_pos_as_xyz
  1  'x, y, z'
loop_
 _atom_site_type_symbol
 _atom_site_label
 _atom_site_symmetry_multiplicity
 _atom_site_fract_x
 _atom_site_fract_y
 _atom_site_fract_z
 _atom_site_occupancy
  Tb  Tb0  1  0.290720  0.087944  0.378065  1
  Tb  Tb1  1  0.290698  0.912059  0.878084  1
  Tb  Tb2  1  0.709302  0.087941  0.878084  1
  Tb  Tb3  1  0.709280  0.912056  0.378065  1
  Tb  Tb4  1  0.587941  0.790691  0.878072  1
  Tb  Tb5  1  0.587933  0.209310  0.378077  1
  Tb  Tb6  1  0.412067  0.790690  0.378077  1
  Tb  Tb7  1  0.412059  0.209309  0.878072  1
  Tb  Tb8  1  0.209310  0.412067  0.621923  1
  Tb  Tb9  1  0.209309  0.587941  0.121928  1
  Tb  Tb10  1  0.790691  0.412059  0.121928  1
  Tb  Tb11  1  0.790690  0.587933  0.621923  1
  Tb  Tb12  1  0.912059  0.709302  0.121916  1
  Tb  Tb13  1  0.912056  0.290720  0.621935  1
  Tb  Tb14  1  0.087944  0.709280  0.621935  1
  Tb  Tb15  1  0.087941  0.290698  0.121916  1
  Dy  Dy16  1  0.000000  0.000000  0.500000  1
  Ho  Ho17  1  0.000000  0.000000  0.000000  1
  Ho  Ho18  1  0.500000  0.500000  0.000000  1
  Ho  Ho19  1  0.500000  0.500000  0.500000  1
  Ir  Ir20  1  0.847242  0.152754  0.249931  1
  Ir  Ir21  1  0.847246  0.847242  0.750069  1
  Ir  Ir22  1  0.152754  0.152758  0.750069  1
  Ir  Ir23  1  0.152758  0.847246  0.249931  1
  Ir  Ir24  1  0.652711  0.347289  0.750000  1
  Ir  Ir25  1  0.652711  0.652711  0.250000  1
  Ir  Ir26  1  0.347289  0.347289  0.250000  1
  Ir  Ir27  1  0.347289  0.652711  0.750000  1
  Ir  Ir28  1  0.500000  0.000000  0.121352  1
  Ir  Ir29  1  0.500000  0.000000  0.621347  1
  Ir  Ir30  1  0.000000  0.500000  0.878648  1
  Ir  Ir31  1  0.000000  0.500000  0.378653  1
