# generated using pymatgen
data_Ca10MnRe3N14
_symmetry_space_group_name_H-M   'P 1'
_cell_length_a   5.98038555
_cell_length_b   8.85469956
_cell_length_c   8.76648700
_cell_angle_alpha   115.96563713
_cell_angle_beta   96.76996151
_cell_angle_gamma   88.97841524
_symmetry_Int_Tables_number   1
_chemical_formula_structural   Ca10MnRe3N14
_chemical_formula_sum   'Ca10 Mn1 Re3 N14'
_cell_volume   414.15777786
_cell_formula_units_Z   1
loop_
 _symmetry_equiv_pos_site_id
 _symmetry_equiv_pos_as_xyz
  1  'x, y, z'
loop_
 _atom_site_type_symbol
 _atom_site_label
 _atom_site_symmetry_multiplicity
 _atom_site_fract_x
 _atom_site_fract_y
 _atom_site_fract_z
 _atom_site_occupancy
  Ca  Ca0  1  0.840197  0.612768  0.318812  1
  Ca  Ca1  1  0.252073  0.985555  0.549825  1
  Ca  Ca2  1  0.709465  0.432627  0.862886  1
  Ca  Ca3  1  0.292421  0.594485  0.145120  1
  Ca  Ca4  1  0.406821  0.790899  0.931020  1
  Ca  Ca5  1  0.613092  0.207006  0.082387  1
  Ca  Ca6  1  0.153011  0.399245  0.674368  1
  Ca  Ca7  1  0.889931  0.846496  0.767696  1
  Ca  Ca8  1  0.113555  0.119075  0.236654  1
  Ca  Ca9  1  0.725302  0.997639  0.417150  1
  Mn  Mn10  1  0.879461  0.781445  0.077462  1
  Re  Re11  1  0.588860  0.350293  0.473118  1
  Re  Re12  1  0.414168  0.651870  0.529101  1
  Re  Re13  1  0.123600  0.218523  0.921093  1
  N  N14  1  0.502173  0.546695  0.681120  1
  N  N15  1  0.496471  0.457197  0.321658  1
  N  N16  1  0.128651  0.724290  0.555838  1
  N  N17  1  0.867335  0.266647  0.433544  1
  N  N18  1  0.413154  0.178863  0.473230  1
  N  N19  1  0.587766  0.827020  0.539918  1
  N  N20  1  0.944421  0.138849  0.715369  1
  N  N21  1  0.056377  0.855208  0.274398  1
  N  N22  1  0.239557  0.047412  0.965884  1
  N  N23  1  0.766884  0.951132  0.040790  1
  N  N24  1  0.368146  0.330221  0.904697  1
  N  N25  1  0.963266  0.362298  0.091572  1
  N  N26  1  0.028304  0.641515  0.908196  1
  N  N27  1  0.635537  0.684730  0.107095  1
