# generated using pymatgen
data_Mg4Si4PdRh3
_symmetry_space_group_name_H-M   'P 1'
_cell_length_a   6.60376354
_cell_length_b   4.07271600
_cell_length_c   7.06729509
_cell_angle_alpha   90.00000000
_cell_angle_beta   89.73133412
_cell_angle_gamma   90.00000000
_symmetry_Int_Tables_number   1
_chemical_formula_structural   Mg4Si4PdRh3
_chemical_formula_sum   'Mg4 Si4 Pd1 Rh3'
_cell_volume   190.07460280
_cell_formula_units_Z   1
loop_
 _symmetry_equiv_pos_site_id
 _symmetry_equiv_pos_as_xyz
  1  'x, y, z'
loop_
 _atom_site_type_symbol
 _atom_site_label
 _atom_site_symmetry_multiplicity
 _atom_site_fract_x
 _atom_site_fract_y
 _atom_site_fract_z
 _atom_site_occupancy
  Mg  Mg0  1  0.508743  0.249999  0.178748  1
  Mg  Mg1  1  0.004051  0.249999  0.323531  1
  Mg  Mg2  1  0.989996  0.750000  0.675507  1
  Mg  Mg3  1  0.492344  0.750000  0.822850  1
  Si  Si4  1  0.206046  0.750000  0.133895  1
  Si  Si5  1  0.708693  0.750000  0.375838  1
  Si  Si6  1  0.294092  0.249999  0.615818  1
  Si  Si7  1  0.787700  0.249999  0.875613  1
  Pd  Pd8  1  0.157763  0.249999  0.943512  1
  Rh  Rh9  1  0.846889  0.750000  0.053939  1
  Rh  Rh10  1  0.347264  0.750000  0.446745  1
  Rh  Rh11  1  0.656418  0.249999  0.554007  1
