# generated using pymatgen
data_Mg2CrSi5Ru8
_symmetry_space_group_name_H-M   'P 1'
_cell_length_a   5.90116800
_cell_length_b   5.94948500
_cell_length_c   5.90116800
_cell_angle_alpha   90.00000000
_cell_angle_beta   90.00000000
_cell_angle_gamma   90.00000000
_symmetry_Int_Tables_number   1
_chemical_formula_structural   Mg2CrSi5Ru8
_chemical_formula_sum   'Mg2 Cr1 Si5 Ru8'
_cell_volume   207.18357915
_cell_formula_units_Z   1
loop_
 _symmetry_equiv_pos_site_id
 _symmetry_equiv_pos_as_xyz
  1  'x, y, z'
loop_
 _atom_site_type_symbol
 _atom_site_label
 _atom_site_symmetry_multiplicity
 _atom_site_fract_x
 _atom_site_fract_y
 _atom_site_fract_z
 _atom_site_occupancy
  Mg  Mg0  1  0.500000  0.000000  0.000000  1
  Mg  Mg1  1  0.000000  0.000000  0.500000  1
  Cr  Cr2  1  0.000000  0.500000  0.000000  1
  Si  Si3  1  0.500000  0.500000  0.500000  1
  Si  Si4  1  0.000000  0.500000  0.500000  1
  Si  Si5  1  0.500000  0.000000  0.500000  1
  Si  Si6  1  0.500000  0.500000  0.000000  1
  Si  Si7  1  0.000000  0.000000  0.000000  1
  Ru  Ru8  1  0.253141  0.739359  0.746859  1
  Ru  Ru9  1  0.746859  0.260641  0.746859  1
  Ru  Ru10  1  0.746859  0.739359  0.746859  1
  Ru  Ru11  1  0.746859  0.739359  0.253141  1
  Ru  Ru12  1  0.746859  0.260641  0.253141  1
  Ru  Ru13  1  0.253141  0.260641  0.746859  1
  Ru  Ru14  1  0.253141  0.739359  0.253141  1
  Ru  Ru15  1  0.253141  0.260641  0.253141  1
