# generated using pymatgen
data_YbDy2YB16
_symmetry_space_group_name_H-M   'P 1'
_cell_length_a   7.11010501
_cell_length_b   7.11023331
_cell_length_c   4.02581500
_cell_angle_alpha   90.00000000
_cell_angle_beta   90.00000000
_cell_angle_gamma   89.95673550
_symmetry_Int_Tables_number   1
_chemical_formula_structural   YbDy2YB16
_chemical_formula_sum   'Yb1 Dy2 Y1 B16'
_cell_volume   203.52302830
_cell_formula_units_Z   1
loop_
 _symmetry_equiv_pos_site_id
 _symmetry_equiv_pos_as_xyz
  1  'x, y, z'
loop_
 _atom_site_type_symbol
 _atom_site_label
 _atom_site_symmetry_multiplicity
 _atom_site_fract_x
 _atom_site_fract_y
 _atom_site_fract_z
 _atom_site_occupancy
  Yb  Yb0  1  0.682791  0.817187  0.000000  1
  Dy  Dy1  1  0.182450  0.682636  0.000000  1
  Dy  Dy2  1  0.318684  0.181267  0.000000  1
  Y  Y3  1  0.817524  0.317717  0.000000  1
  B  B4  1  0.500415  0.501625  0.797093  1
  B  B5  1  0.998462  0.999373  0.797094  1
  B  B6  1  0.500415  0.501625  0.202907  1
  B  B7  1  0.998462  0.999373  0.202906  1
  B  B8  1  0.913473  0.586652  0.500000  1
  B  B9  1  0.087145  0.412975  0.500000  1
  B  B10  1  0.412942  0.913603  0.500000  1
  B  B11  1  0.586316  0.086969  0.500000  1
  B  B12  1  0.675948  0.538331  0.500000  1
  B  B13  1  0.324590  0.461214  0.500000  1
  B  B14  1  0.176544  0.962113  0.500000  1
  B  B15  1  0.823530  0.038030  0.500000  1
  B  B16  1  0.461841  0.676468  0.500000  1
  B  B17  1  0.537763  0.323455  0.500000  1
  B  B18  1  0.038910  0.175369  0.500000  1
  B  B19  1  0.961796  0.824017  0.500000  1
