# generated using pymatgen
data_Dy5Si10Tc3(PIr8)2
_symmetry_space_group_name_H-M   'P 1'
_cell_length_a   12.81058521
_cell_length_b   12.77018644
_cell_length_c   3.99049100
_cell_angle_alpha   90.00000000
_cell_angle_beta   90.00000000
_cell_angle_gamma   119.89573508
_symmetry_Int_Tables_number   1
_chemical_formula_structural   Dy5Si10Tc3(PIr8)2
_chemical_formula_sum   'Dy5 Si10 Tc3 P2 Ir16'
_cell_volume   565.95057440
_cell_formula_units_Z   1
loop_
 _symmetry_equiv_pos_site_id
 _symmetry_equiv_pos_as_xyz
  1  'x, y, z'
loop_
 _atom_site_type_symbol
 _atom_site_label
 _atom_site_symmetry_multiplicity
 _atom_site_fract_x
 _atom_site_fract_y
 _atom_site_fract_z
 _atom_site_occupancy
  Dy  Dy0  1  0.333229  0.666733  0.500000  1
  Dy  Dy1  1  0.666771  0.333503  0.500000  1
  Dy  Dy2  1  0.000000  0.812036  0.000000  1
  Dy  Dy3  1  0.186619  0.186900  0.000000  1
  Dy  Dy4  1  0.813381  0.000281  0.000000  1
  Si  Si5  1  0.000000  0.628472  0.500000  1
  Si  Si6  1  0.372347  0.372783  0.500000  1
  Si  Si7  1  0.627653  0.000437  0.500000  1
  Si  Si8  1  0.520400  0.684221  0.000000  1
  Si  Si9  1  0.315445  0.835598  0.000000  1
  Si  Si10  1  0.165090  0.479509  0.000000  1
  Si  Si11  1  0.479600  0.163821  0.000000  1
  Si  Si12  1  0.684555  0.520153  0.000000  1
  Si  Si13  1  0.834910  0.314419  0.000000  1
  Si  Si14  1  0.000000  0.179195  0.500000  1
  Tc  Tc15  1  0.000000  0.441564  0.500000  1
  Tc  Tc16  1  0.559464  0.558714  0.500000  1
  Tc  Tc17  1  0.440536  0.999251  0.500000  1
  P  P18  1  0.819278  0.819981  0.500000  1
  P  P19  1  0.180722  0.000704  0.500000  1
  Ir  Ir20  1  0.513515  0.871851  0.000000  1
  Ir  Ir21  1  0.127896  0.641479  0.000000  1
  Ir  Ir22  1  0.359569  0.486145  0.000000  1
  Ir  Ir23  1  0.486485  0.358335  0.000000  1
  Ir  Ir24  1  0.872104  0.513582  0.000000  1
  Ir  Ir25  1  0.640431  0.126575  0.000000  1
  Ir  Ir26  1  0.000000  0.279141  0.000000  1
  Ir  Ir27  1  0.723169  0.723496  0.000000  1
  Ir  Ir28  1  0.276831  0.000328  0.000000  1
  Ir  Ir29  1  0.627682  0.807816  0.500000  1
  Ir  Ir30  1  0.192365  0.820286  0.500000  1
  Ir  Ir31  1  0.181819  0.375283  0.500000  1
  Ir  Ir32  1  0.372318  0.180133  0.500000  1
  Ir  Ir33  1  0.807635  0.627921  0.500000  1
  Ir  Ir34  1  0.818181  0.193464  0.500000  1
  Ir  Ir35  1  0.000000  0.995890  0.500000  1
