# generated using pymatgen
data_LiAl(CO3)2
_symmetry_space_group_name_H-M   'P 1'
_cell_length_a   5.62072340
_cell_length_b   5.62072305
_cell_length_c   5.62072361
_cell_angle_alpha   48.09508933
_cell_angle_beta   48.09509106
_cell_angle_gamma   48.09508657
_symmetry_Int_Tables_number   1
_chemical_formula_structural   LiAl(CO3)2
_chemical_formula_sum   'Li1 Al1 C2 O6'
_cell_volume   90.12959652
_cell_formula_units_Z   1
loop_
 _symmetry_equiv_pos_site_id
 _symmetry_equiv_pos_as_xyz
  1  'x, y, z'
loop_
 _atom_site_type_symbol
 _atom_site_label
 _atom_site_symmetry_multiplicity
 _atom_site_fract_x
 _atom_site_fract_y
 _atom_site_fract_z
 _atom_site_occupancy
  Li  Li0  1  0.000000  0.000000  0.000000  1
  Al  Al1  1  0.500000  0.500000  0.500000  1
  C  C2  1  0.241204  0.241204  0.241204  1
  C  C3  1  0.758796  0.758796  0.758796  1
  O  O4  1  0.726520  0.054870  0.491904  1
  O  O5  1  0.945130  0.508096  0.273480  1
  O  O6  1  0.508096  0.273480  0.945130  1
  O  O7  1  0.491904  0.726520  0.054870  1
  O  O8  1  0.054870  0.491904  0.726520  1
  O  O9  1  0.273480  0.945130  0.508096  1
