# generated using pymatgen
data_Yb4ScRu2RhO12
_symmetry_space_group_name_H-M   'P 1'
_cell_length_a   5.33345787
_cell_length_b   5.64481872
_cell_length_c   7.70466212
_cell_angle_alpha   89.40032582
_cell_angle_beta   90.13815706
_cell_angle_gamma   90.03298761
_symmetry_Int_Tables_number   1
_chemical_formula_structural   Yb4ScRu2RhO12
_chemical_formula_sum   'Yb4 Sc1 Ru2 Rh1 O12'
_cell_volume   231.94624704
_cell_formula_units_Z   1
loop_
 _symmetry_equiv_pos_site_id
 _symmetry_equiv_pos_as_xyz
  1  'x, y, z'
loop_
 _atom_site_type_symbol
 _atom_site_label
 _atom_site_symmetry_multiplicity
 _atom_site_fract_x
 _atom_site_fract_y
 _atom_site_fract_z
 _atom_site_occupancy
  Yb  Yb0  1  0.025617  0.430171  0.252430  1
  Yb  Yb1  1  0.974383  0.569829  0.747570  1
  Yb  Yb2  1  0.517376  0.072778  0.745701  1
  Yb  Yb3  1  0.482624  0.927222  0.254299  1
  Sc  Sc4  1  0.000000  0.000000  0.000000  1
  Ru  Ru5  1  0.500000  0.500000  0.000000  1
  Ru  Ru6  1  0.000000  0.000000  0.500000  1
  Rh  Rh7  1  0.500000  0.500000  0.500000  1
  O  O8  1  0.315645  0.205879  0.055357  1
  O  O9  1  0.684355  0.794121  0.944643  1
  O  O10  1  0.798717  0.309903  0.946772  1
  O  O11  1  0.692735  0.808676  0.552777  1
  O  O12  1  0.201283  0.690097  0.053228  1
  O  O13  1  0.307265  0.191324  0.447223  1
  O  O14  1  0.185754  0.702610  0.444322  1
  O  O15  1  0.814246  0.297390  0.555678  1
  O  O16  1  0.611003  0.533664  0.245986  1
  O  O17  1  0.388997  0.466336  0.754014  1
  O  O18  1  0.103181  0.967104  0.743294  1
  O  O19  1  0.896819  0.032896  0.256706  1
