# generated using pymatgen
data_Ti10Sn2Sb5
_symmetry_space_group_name_H-M   'P 1'
_cell_length_a   5.57531830
_cell_length_b   8.22815009
_cell_length_c   8.21060938
_cell_angle_alpha   120.07070401
_cell_angle_beta   89.91613469
_cell_angle_gamma   90.16735690
_symmetry_Int_Tables_number   1
_chemical_formula_structural   Ti10Sn2Sb5
_chemical_formula_sum   'Ti10 Sn2 Sb5'
_cell_volume   325.96140651
_cell_formula_units_Z   1
loop_
 _symmetry_equiv_pos_site_id
 _symmetry_equiv_pos_as_xyz
  1  'x, y, z'
loop_
 _atom_site_type_symbol
 _atom_site_label
 _atom_site_symmetry_multiplicity
 _atom_site_fract_x
 _atom_site_fract_y
 _atom_site_fract_z
 _atom_site_occupancy
  Ti  Ti0  1  0.500087  0.333603  0.668199  1
  Ti  Ti1  1  0.500087  0.665404  0.331801  1
  Ti  Ti2  1  0.001404  0.665979  0.332448  1
  Ti  Ti3  1  0.001404  0.333531  0.667552  1
  Ti  Ti4  1  0.771351  0.269489  0.000000  1
  Ti  Ti5  1  0.774162  0.732725  0.732222  1
  Ti  Ti6  1  0.774162  0.000501  0.267778  1
  Ti  Ti7  1  0.226072  0.728692  0.000000  1
  Ti  Ti8  1  0.225884  0.269126  0.268893  1
  Ti  Ti9  1  0.225884  0.000233  0.731107  1
  Sn  Sn10  1  0.256304  0.614110  0.613941  1
  Sn  Sn11  1  0.256304  0.000169  0.386059  1
  Sb  Sb12  1  0.745279  0.613736  0.000000  1
  Sb  Sb13  1  0.745622  0.388547  0.389216  1
  Sb  Sb14  1  0.745622  0.999331  0.610784  1
  Sb  Sb15  1  0.253315  0.385776  0.000000  1
  Sb  Sb16  1  0.497056  0.999050  0.000000  1
