# generated using pymatgen
data_DyHoCo2(P3Rh4)2
_symmetry_space_group_name_H-M   'P 1'
_cell_length_a   3.84667000
_cell_length_b   10.76649100
_cell_length_c   12.40391000
_cell_angle_alpha   90.00000000
_cell_angle_beta   90.00000000
_cell_angle_gamma   90.00000000
_symmetry_Int_Tables_number   1
_chemical_formula_structural   DyHoCo2(P3Rh4)2
_chemical_formula_sum   'Dy2 Ho2 Co4 P12 Rh16'
_cell_volume   513.70964358
_cell_formula_units_Z   2
loop_
 _symmetry_equiv_pos_site_id
 _symmetry_equiv_pos_as_xyz
  1  'x, y, z'
loop_
 _atom_site_type_symbol
 _atom_site_label
 _atom_site_symmetry_multiplicity
 _atom_site_fract_x
 _atom_site_fract_y
 _atom_site_fract_z
 _atom_site_occupancy
  Dy  Dy0  1  0.750000  0.414761  0.292425  1
  Dy  Dy1  1  0.750000  0.085239  0.792425  1
  Ho  Ho2  1  0.250000  0.585165  0.707588  1
  Ho  Ho3  1  0.250000  0.914835  0.207588  1
  Co  Co4  1  0.250000  0.464349  0.933775  1
  Co  Co5  1  0.250000  0.035651  0.433775  1
  Co  Co6  1  0.750000  0.535839  0.066061  1
  Co  Co7  1  0.750000  0.964161  0.566061  1
  P  P8  1  0.250000  0.424065  0.105923  1
  P  P9  1  0.250000  0.075935  0.605923  1
  P  P10  1  0.750000  0.576045  0.893841  1
  P  P11  1  0.750000  0.923955  0.393841  1
  P  P12  1  0.250000  0.272244  0.872746  1
  P  P13  1  0.250000  0.227756  0.372746  1
  P  P14  1  0.750000  0.727990  0.127440  1
  P  P15  1  0.750000  0.772010  0.627440  1
  P  P16  1  0.250000  0.599487  0.388127  1
  P  P17  1  0.250000  0.900513  0.888127  1
  P  P18  1  0.750000  0.400713  0.611950  1
  P  P19  1  0.750000  0.099287  0.111950  1
  Rh  Rh20  1  0.250000  0.716092  0.987750  1
  Rh  Rh21  1  0.250000  0.783908  0.487750  1
  Rh  Rh22  1  0.750000  0.283804  0.012237  1
  Rh  Rh23  1  0.750000  0.216196  0.512237  1
  Rh  Rh24  1  0.250000  0.408287  0.480083  1
  Rh  Rh25  1  0.250000  0.091713  0.980083  1
  Rh  Rh26  1  0.750000  0.591680  0.520341  1
  Rh  Rh27  1  0.750000  0.908320  0.020341  1
  Rh  Rh28  1  0.250000  0.227460  0.178332  1
  Rh  Rh29  1  0.250000  0.272540  0.678332  1
  Rh  Rh30  1  0.750000  0.772182  0.821629  1
  Rh  Rh31  1  0.750000  0.727818  0.321629  1
  Rh  Rh32  1  0.250000  0.886896  0.698634  1
  Rh  Rh33  1  0.250000  0.613104  0.198634  1
  Rh  Rh34  1  0.750000  0.112785  0.301118  1
  Rh  Rh35  1  0.750000  0.387215  0.801118  1
