# generated using pymatgen
data_PrNd2Th(FeB10)2
_symmetry_space_group_name_H-M   'P 1'
_cell_length_a   4.19621000
_cell_length_b   5.65265433
_cell_length_c   11.25214200
_cell_angle_alpha   90.11002451
_cell_angle_beta   90.00000000
_cell_angle_gamma   90.00000000
_symmetry_Int_Tables_number   1
_chemical_formula_structural   PrNd2Th(FeB10)2
_chemical_formula_sum   'Pr1 Nd2 Th1 Fe2 B20'
_cell_volume   266.89721755
_cell_formula_units_Z   1
loop_
 _symmetry_equiv_pos_site_id
 _symmetry_equiv_pos_as_xyz
  1  'x, y, z'
loop_
 _atom_site_type_symbol
 _atom_site_label
 _atom_site_symmetry_multiplicity
 _atom_site_fract_x
 _atom_site_fract_y
 _atom_site_fract_z
 _atom_site_occupancy
  Pr  Pr0  1  0.500000  0.292223  0.868061  1
  Nd  Nd1  1  0.500000  0.710507  0.130311  1
  Nd  Nd2  1  0.500000  0.790203  0.632545  1
  Th  Th3  1  0.500000  0.212649  0.369460  1
  Fe  Fe4  1  0.000000  0.496857  0.498640  1
  Fe  Fe5  1  0.000000  0.999413  0.000555  1
  B  B6  1  0.000000  0.126328  0.540084  1
  B  B7  1  0.000000  0.870129  0.460484  1
  B  B8  1  0.000000  0.628261  0.960122  1
  B  B9  1  0.000000  0.371552  0.040226  1
  B  B10  1  0.000000  0.152349  0.697356  1
  B  B11  1  0.000000  0.849614  0.303277  1
  B  B12  1  0.298370  0.203797  0.113876  1
  B  B13  1  0.298021  0.795755  0.886938  1
  B  B14  1  0.701551  0.704388  0.386510  1
  B  B15  1  0.702230  0.294054  0.612435  1
  B  B16  1  0.701979  0.795755  0.886938  1
  B  B17  1  0.701630  0.203797  0.113876  1
  B  B18  1  0.297770  0.294054  0.612435  1
  B  B19  1  0.298449  0.704388  0.386510  1
  B  B20  1  0.000000  0.038202  0.187803  1
  B  B21  1  0.000000  0.962843  0.813490  1
  B  B22  1  0.000000  0.538979  0.312323  1
  B  B23  1  0.000000  0.462871  0.686005  1
  B  B24  1  0.000000  0.348228  0.197342  1
  B  B25  1  0.000000  0.652805  0.802397  1
