# generated using pymatgen
data_Sr8Ca3Cd(ReN4)4
_symmetry_space_group_name_H-M   'P 1'
_cell_length_a   10.64487624
_cell_length_b   10.27193015
_cell_length_c   7.81110640
_cell_angle_alpha   70.63384000
_cell_angle_beta   65.55596939
_cell_angle_gamma   45.73435186
_symmetry_Int_Tables_number   1
_chemical_formula_structural   Sr8Ca3Cd(ReN4)4
_chemical_formula_sum   'Sr8 Ca3 Cd1 Re4 N16'
_cell_volume   555.60344873
_cell_formula_units_Z   1
loop_
 _symmetry_equiv_pos_site_id
 _symmetry_equiv_pos_as_xyz
  1  'x, y, z'
loop_
 _atom_site_type_symbol
 _atom_site_label
 _atom_site_symmetry_multiplicity
 _atom_site_fract_x
 _atom_site_fract_y
 _atom_site_fract_z
 _atom_site_occupancy
  Sr  Sr0  1  0.560206  0.958417  0.914692  1
  Sr  Sr1  1  0.958417  0.560206  0.566685  1
  Sr  Sr2  1  0.307827  0.693671  0.673369  1
  Sr  Sr3  1  0.123543  0.123543  0.876457  1
  Sr  Sr4  1  0.148667  0.148667  0.351333  1
  Sr  Sr5  1  0.361086  0.361086  0.138914  1
  Sr  Sr6  1  0.693671  0.307827  0.325133  1
  Sr  Sr7  1  0.873971  0.873971  0.126029  1
  Ca  Ca8  1  0.912629  0.912629  0.587371  1
  Ca  Ca9  1  0.656023  0.656023  0.343977  1
  Ca  Ca10  1  0.588635  0.588635  0.911365  1
  Cd  Cd11  1  0.354836  0.354836  0.645164  1
  Re  Re12  1  0.499853  0.001718  0.488331  1
  Re  Re13  1  0.001718  0.499853  0.010098  1
  Re  Re14  1  0.771675  0.225529  0.776537  1
  Re  Re15  1  0.225529  0.771675  0.226260  1
  N  N16  1  0.985684  0.686443  0.847970  1
  N  N17  1  0.702150  0.281386  0.017934  1
  N  N18  1  0.686443  0.985684  0.479904  1
  N  N19  1  0.496624  0.836285  0.675092  1
  N  N20  1  0.141396  0.660318  0.395026  1
  N  N21  1  0.688577  0.431549  0.608668  1
  N  N22  1  0.019461  0.038533  0.686709  1
  N  N23  1  0.537483  0.966686  0.244139  1
  N  N24  1  0.431549  0.688577  0.271206  1
  N  N25  1  0.966686  0.537483  0.251693  1
  N  N26  1  0.281386  0.702150  0.998529  1
  N  N27  1  0.836285  0.496624  0.992000  1
  N  N28  1  0.229154  0.259987  0.979798  1
  N  N29  1  0.660318  0.141396  0.803260  1
  N  N30  1  0.259987  0.229154  0.531062  1
  N  N31  1  0.038533  0.019461  0.255296  1
