# generated using pymatgen
data_SrHf3(Al3Ir)6
_symmetry_space_group_name_H-M   'P 1'
_cell_length_a   7.51150668
_cell_length_b   7.50095593
_cell_length_c   9.36717700
_cell_angle_alpha   90.00000000
_cell_angle_beta   90.00000000
_cell_angle_gamma   119.65758835
_symmetry_Int_Tables_number   1
_chemical_formula_structural   SrHf3(Al3Ir)6
_chemical_formula_sum   'Sr1 Hf3 Al18 Ir6'
_cell_volume   458.63921827
_cell_formula_units_Z   1
loop_
 _symmetry_equiv_pos_site_id
 _symmetry_equiv_pos_as_xyz
  1  'x, y, z'
loop_
 _atom_site_type_symbol
 _atom_site_label
 _atom_site_symmetry_multiplicity
 _atom_site_fract_x
 _atom_site_fract_y
 _atom_site_fract_z
 _atom_site_occupancy
  Sr  Sr0  1  0.329181  0.006539  0.750000  1
  Hf  Hf1  1  0.994064  0.672470  0.250000  1
  Hf  Hf2  1  0.005754  0.329172  0.750000  1
  Hf  Hf3  1  0.672506  0.994484  0.250000  1
  Al  Al4  1  0.122787  0.124325  0.250000  1
  Al  Al5  1  0.867446  0.875445  0.750000  1
  Al  Al6  1  0.997516  0.334888  0.080530  1
  Al  Al7  1  0.998527  0.661887  0.929329  1
  Al  Al8  1  0.998527  0.661887  0.570671  1
  Al  Al9  1  0.335492  0.998160  0.416431  1
  Al  Al10  1  0.997516  0.334888  0.419470  1
  Al  Al11  1  0.668415  0.001586  0.570907  1
  Al  Al12  1  0.668415  0.001586  0.929093  1
  Al  Al13  1  0.335492  0.998160  0.083569  1
  Al  Al14  1  0.331221  0.334273  0.551158  1
  Al  Al15  1  0.668420  0.668170  0.437355  1
  Al  Al16  1  0.668420  0.668170  0.062645  1
  Al  Al17  1  0.331221  0.334273  0.948842  1
  Al  Al18  1  0.338416  0.553419  0.250000  1
  Al  Al19  1  0.672198  0.456635  0.750000  1
  Al  Al20  1  0.554472  0.340033  0.250000  1
  Al  Al21  1  0.445350  0.650079  0.750000  1
  Ir  Ir22  1  0.674759  0.329616  0.003379  1
  Ir  Ir23  1  0.328176  0.672095  0.003686  1
  Ir  Ir24  1  0.328176  0.672095  0.496314  1
  Ir  Ir25  1  0.674759  0.329616  0.496621  1
  Ir  Ir26  1  0.996389  0.998024  0.003643  1
  Ir  Ir27  1  0.996389  0.998024  0.496357  1
