# generated using pymatgen
data_Ca5PdRh2
_symmetry_space_group_name_H-M   'P 1'
_cell_length_a   7.57258100
_cell_length_b   7.57258100
_cell_length_c   14.34372700
_cell_angle_alpha   90.00000000
_cell_angle_beta   90.00000000
_cell_angle_gamma   90.00000000
_symmetry_Int_Tables_number   1
_chemical_formula_structural   Ca5PdRh2
_chemical_formula_sum   'Ca20 Pd4 Rh8'
_cell_volume   822.52643727
_cell_formula_units_Z   4
loop_
 _symmetry_equiv_pos_site_id
 _symmetry_equiv_pos_as_xyz
  1  'x, y, z'
loop_
 _atom_site_type_symbol
 _atom_site_label
 _atom_site_symmetry_multiplicity
 _atom_site_fract_x
 _atom_site_fract_y
 _atom_site_fract_z
 _atom_site_occupancy
  Ca  Ca0  1  0.169762  0.173705  0.110852  1
  Ca  Ca1  1  0.673704  0.330238  0.110852  1
  Ca  Ca2  1  0.326295  0.669762  0.110852  1
  Ca  Ca3  1  0.830238  0.826295  0.110852  1
  Ca  Ca4  1  0.500000  0.000000  0.246481  1
  Ca  Ca5  1  0.000000  0.500000  0.253519  1
  Ca  Ca6  1  0.173705  0.169762  0.389148  1
  Ca  Ca7  1  0.669762  0.326295  0.389148  1
  Ca  Ca8  1  0.330238  0.673704  0.389148  1
  Ca  Ca9  1  0.826295  0.830238  0.389148  1
  Ca  Ca10  1  0.830238  0.173705  0.610852  1
  Ca  Ca11  1  0.326295  0.330238  0.610852  1
  Ca  Ca12  1  0.673704  0.669762  0.610852  1
  Ca  Ca13  1  0.169762  0.826295  0.610852  1
  Ca  Ca14  1  0.500000  0.000000  0.746481  1
  Ca  Ca15  1  0.000000  0.500000  0.753519  1
  Ca  Ca16  1  0.826295  0.169762  0.889148  1
  Ca  Ca17  1  0.330238  0.326295  0.889148  1
  Ca  Ca18  1  0.669762  0.673704  0.889148  1
  Ca  Ca19  1  0.173705  0.830238  0.889148  1
  Pd  Pd20  1  0.500000  0.000000  0.000994  1
  Pd  Pd21  1  0.000000  0.500000  0.499006  1
  Pd  Pd22  1  0.500000  0.000000  0.500994  1
  Pd  Pd23  1  0.000000  0.500000  0.999006  1
  Rh  Rh24  1  0.877171  0.122830  0.250000  1
  Rh  Rh25  1  0.377170  0.377170  0.250000  1
  Rh  Rh26  1  0.622830  0.622830  0.250000  1
  Rh  Rh27  1  0.122830  0.877171  0.250000  1
  Rh  Rh28  1  0.122830  0.122830  0.750000  1
  Rh  Rh29  1  0.622830  0.377170  0.750000  1
  Rh  Rh30  1  0.377170  0.622830  0.750000  1
  Rh  Rh31  1  0.877171  0.877171  0.750000  1
