# generated using pymatgen
data_TaAlBr8
_symmetry_space_group_name_H-M   'P 1'
_cell_length_a   10.44966302
_cell_length_b   10.44966255
_cell_length_c   9.27869800
_cell_angle_alpha   90.00000000
_cell_angle_beta   90.00000000
_cell_angle_gamma   128.22510187
_symmetry_Int_Tables_number   1
_chemical_formula_structural   TaAlBr8
_chemical_formula_sum   'Ta2 Al2 Br16'
_cell_volume   795.94904081
_cell_formula_units_Z   2
loop_
 _symmetry_equiv_pos_site_id
 _symmetry_equiv_pos_as_xyz
  1  'x, y, z'
loop_
 _atom_site_type_symbol
 _atom_site_label
 _atom_site_symmetry_multiplicity
 _atom_site_fract_x
 _atom_site_fract_y
 _atom_site_fract_z
 _atom_site_occupancy
  Ta  Ta0  1  0.613132  0.386868  0.250000  1
  Ta  Ta1  1  0.386868  0.613132  0.750000  1
  Al  Al2  1  0.813527  0.186473  0.250000  1
  Al  Al3  1  0.186473  0.813527  0.750000  1
  Br  Br4  1  0.531946  0.074763  0.250000  1
  Br  Br5  1  0.074763  0.531946  0.750000  1
  Br  Br6  1  0.468054  0.925237  0.750000  1
  Br  Br7  1  0.925237  0.468054  0.250000  1
  Br  Br8  1  0.630972  0.369028  0.985243  1
  Br  Br9  1  0.369028  0.630972  0.014757  1
  Br  Br10  1  0.630972  0.369028  0.514757  1
  Br  Br11  1  0.369028  0.630972  0.485243  1
  Br  Br12  1  0.326880  0.263323  0.250000  1
  Br  Br13  1  0.263323  0.326880  0.750000  1
  Br  Br14  1  0.673120  0.736677  0.750000  1
  Br  Br15  1  0.736677  0.673120  0.250000  1
  Br  Br16  1  0.878491  0.121509  0.456769  1
  Br  Br17  1  0.121509  0.878491  0.543231  1
  Br  Br18  1  0.878491  0.121509  0.043231  1
  Br  Br19  1  0.121509  0.878491  0.956769  1
