# generated using pymatgen
data_Tb2Y2InPd
_symmetry_space_group_name_H-M   'P 1'
_cell_length_a   9.79496037
_cell_length_b   9.79494032
_cell_length_c   9.80973408
_cell_angle_alpha   59.65413389
_cell_angle_beta   59.65436421
_cell_angle_gamma   59.77325686
_symmetry_Int_Tables_number   1
_chemical_formula_structural   Tb2Y2InPd
_chemical_formula_sum   'Tb8 Y8 In4 Pd4'
_cell_volume   660.86889428
_cell_formula_units_Z   4
loop_
 _symmetry_equiv_pos_site_id
 _symmetry_equiv_pos_as_xyz
  1  'x, y, z'
loop_
 _atom_site_type_symbol
 _atom_site_label
 _atom_site_symmetry_multiplicity
 _atom_site_fract_x
 _atom_site_fract_y
 _atom_site_fract_z
 _atom_site_occupancy
  Tb  Tb0  1  0.352155  0.352155  0.351952  1
  Tb  Tb1  1  0.352801  0.352797  0.940113  1
  Tb  Tb2  1  0.352221  0.940534  0.352817  1
  Tb  Tb3  1  0.940532  0.352222  0.352816  1
  Tb  Tb4  1  0.811111  0.190117  0.189973  1
  Tb  Tb5  1  0.191355  0.809349  0.809580  1
  Tb  Tb6  1  0.190117  0.811112  0.189973  1
  Tb  Tb7  1  0.809346  0.191356  0.809581  1
  Y  Y8  1  0.190779  0.190780  0.810020  1
  Y  Y9  1  0.808689  0.808685  0.192189  1
  Y  Y10  1  0.933765  0.564359  0.564410  1
  Y  Y11  1  0.562486  0.936917  0.936909  1
  Y  Y12  1  0.564362  0.933766  0.564409  1
  Y  Y13  1  0.936914  0.562489  0.936906  1
  Y  Y14  1  0.564127  0.564122  0.934081  1
  Y  Y15  1  0.937228  0.937229  0.562335  1
  In  In16  1  0.584463  0.584464  0.584178  1
  In  In17  1  0.583511  0.583513  0.250693  1
  In  In18  1  0.583185  0.250699  0.583472  1
  In  In19  1  0.250697  0.583182  0.583472  1
  Pd  Pd20  1  0.144139  0.144137  0.145587  1
  Pd  Pd21  1  0.143499  0.143499  0.567686  1
  Pd  Pd22  1  0.144945  0.567571  0.143423  1
  Pd  Pd23  1  0.567570  0.144944  0.143426  1
