# generated using pymatgen
data_Tb3Hf(Al3Co)6
_symmetry_space_group_name_H-M   'P 1'
_cell_length_a   7.35950054
_cell_length_b   7.34673206
_cell_length_c   9.24549400
_cell_angle_alpha   90.00000000
_cell_angle_beta   90.00000000
_cell_angle_gamma   119.28189761
_symmetry_Int_Tables_number   1
_chemical_formula_structural   Tb3Hf(Al3Co)6
_chemical_formula_sum   'Tb3 Hf1 Al18 Co6'
_cell_volume   436.01418638
_cell_formula_units_Z   1
loop_
 _symmetry_equiv_pos_site_id
 _symmetry_equiv_pos_as_xyz
  1  'x, y, z'
loop_
 _atom_site_type_symbol
 _atom_site_label
 _atom_site_symmetry_multiplicity
 _atom_site_fract_x
 _atom_site_fract_y
 _atom_site_fract_z
 _atom_site_occupancy
  Tb  Tb0  1  0.006530  0.327587  0.750000  1
  Tb  Tb1  1  0.671710  0.994069  0.250000  1
  Tb  Tb2  1  0.328165  0.006881  0.750000  1
  Hf  Hf3  1  0.995186  0.672954  0.250000  1
  Al  Al4  1  0.122188  0.118361  0.250000  1
  Al  Al5  1  0.873694  0.872184  0.750000  1
  Al  Al6  1  0.998123  0.338838  0.074866  1
  Al  Al7  1  0.001480  0.665078  0.933835  1
  Al  Al8  1  0.001480  0.665078  0.566165  1
  Al  Al9  1  0.331836  0.995076  0.425275  1
  Al  Al10  1  0.998123  0.338838  0.425134  1
  Al  Al11  1  0.664475  0.000177  0.569908  1
  Al  Al12  1  0.664475  0.000177  0.930092  1
  Al  Al13  1  0.331836  0.995076  0.074725  1
  Al  Al14  1  0.333077  0.333190  0.539454  1
  Al  Al15  1  0.670665  0.667955  0.450051  1
  Al  Al16  1  0.670665  0.667955  0.049949  1
  Al  Al17  1  0.333077  0.333190  0.960546  1
  Al  Al18  1  0.333459  0.555082  0.250000  1
  Al  Al19  1  0.661567  0.447920  0.750000  1
  Al  Al20  1  0.561307  0.345247  0.250000  1
  Al  Al21  1  0.446501  0.660005  0.750000  1
  Co  Co22  1  0.672538  0.329975  0.002229  1
  Co  Co23  1  0.328206  0.671442  0.002609  1
  Co  Co24  1  0.328206  0.671442  0.497391  1
  Co  Co25  1  0.672538  0.329975  0.497771  1
  Co  Co26  1  0.999447  0.998125  0.002338  1
  Co  Co27  1  0.999447  0.998125  0.497662  1
