# generated using pymatgen
data_Dy5Co7(PRu)12
_symmetry_space_group_name_H-M   'P 1'
_cell_length_a   12.37244400
_cell_length_b   12.37244316
_cell_length_c   3.80905200
_cell_angle_alpha   90.00000000
_cell_angle_beta   90.00000000
_cell_angle_gamma   119.99999154
_symmetry_Int_Tables_number   1
_chemical_formula_structural   Dy5Co7(PRu)12
_chemical_formula_sum   'Dy5 Co7 P12 Ru12'
_cell_volume   504.96181070
_cell_formula_units_Z   1
loop_
 _symmetry_equiv_pos_site_id
 _symmetry_equiv_pos_as_xyz
  1  'x, y, z'
loop_
 _atom_site_type_symbol
 _atom_site_label
 _atom_site_symmetry_multiplicity
 _atom_site_fract_x
 _atom_site_fract_y
 _atom_site_fract_z
 _atom_site_occupancy
  Dy  Dy0  1  0.666667  0.333333  0.000000  1
  Dy  Dy1  1  0.333333  0.666667  0.000000  1
  Dy  Dy2  1  0.181837  0.181669  0.500000  1
  Dy  Dy3  1  0.818331  0.000168  0.500000  1
  Dy  Dy4  1  0.999832  0.818163  0.500000  1
  Co  Co5  1  0.194449  0.823994  0.000000  1
  Co  Co6  1  0.629545  0.805551  0.000000  1
  Co  Co7  1  0.176006  0.370455  0.000000  1
  Co  Co8  1  0.716061  0.722682  0.500000  1
  Co  Co9  1  0.277318  0.993379  0.500000  1
  Co  Co10  1  0.006621  0.283939  0.500000  1
  Co  Co11  1  0.000000  0.000000  0.000000  1
  P  P12  1  0.364007  0.367418  0.000000  1
  P  P13  1  0.632582  0.996589  0.000000  1
  P  P14  1  0.003411  0.635993  0.000000  1
  P  P15  1  0.837626  0.312856  0.500000  1
  P  P16  1  0.687144  0.524771  0.500000  1
  P  P17  1  0.475229  0.162374  0.500000  1
  P  P18  1  0.316465  0.839244  0.500000  1
  P  P19  1  0.522779  0.683535  0.500000  1
  P  P20  1  0.160756  0.477221  0.500000  1
  P  P21  1  0.818428  0.824452  0.000000  1
  P  P22  1  0.175548  0.993975  0.000000  1
  P  P23  1  0.006025  0.181572  0.000000  1
  Ru  Ru24  1  0.550068  0.561557  0.000000  1
  Ru  Ru25  1  0.438443  0.988510  0.000000  1
  Ru  Ru26  1  0.011490  0.449932  0.000000  1
  Ru  Ru27  1  0.826780  0.197508  0.000000  1
  Ru  Ru28  1  0.802492  0.629272  0.000000  1
  Ru  Ru29  1  0.370728  0.173220  0.000000  1
  Ru  Ru30  1  0.638389  0.123522  0.500000  1
  Ru  Ru31  1  0.876478  0.514868  0.500000  1
  Ru  Ru32  1  0.485132  0.361611  0.500000  1
  Ru  Ru33  1  0.131185  0.649092  0.500000  1
  Ru  Ru34  1  0.517907  0.868815  0.500000  1
  Ru  Ru35  1  0.350908  0.482093  0.500000  1
