# generated using pymatgen
data_CaHoSc3Sn4
_symmetry_space_group_name_H-M   'P 1'
_cell_length_a   7.69118488
_cell_length_b   8.01574234
_cell_length_c   14.99407971
_cell_angle_alpha   90.10152011
_cell_angle_beta   89.63905106
_cell_angle_gamma   90.23762367
_symmetry_Int_Tables_number   1
_chemical_formula_structural   CaHoSc3Sn4
_chemical_formula_sum   'Ca4 Ho4 Sc12 Sn16'
_cell_volume   924.36565416
_cell_formula_units_Z   4
loop_
 _symmetry_equiv_pos_site_id
 _symmetry_equiv_pos_as_xyz
  1  'x, y, z'
loop_
 _atom_site_type_symbol
 _atom_site_label
 _atom_site_symmetry_multiplicity
 _atom_site_fract_x
 _atom_site_fract_y
 _atom_site_fract_z
 _atom_site_occupancy
  Ca  Ca0  1  0.992535  0.176231  0.093924  1
  Ca  Ca1  1  0.005642  0.822655  0.907755  1
  Ca  Ca2  1  0.505800  0.676921  0.907891  1
  Ca  Ca3  1  0.005960  0.822667  0.590601  1
  Ho  Ho4  1  0.494899  0.321733  0.097312  1
  Ho  Ho5  1  0.995764  0.180656  0.405131  1
  Ho  Ho6  1  0.494605  0.322810  0.405432  1
  Ho  Ho7  1  0.503639  0.678121  0.592448  1
  Sc  Sc8  1  0.165878  0.496949  0.749697  1
  Sc  Sc9  1  0.833506  0.501775  0.251631  1
  Sc  Sc10  1  0.334112  0.997436  0.250193  1
  Sc  Sc11  1  0.666341  0.002280  0.748736  1
  Sc  Sc12  1  0.334129  0.160080  0.626268  1
  Sc  Sc13  1  0.665367  0.839335  0.371722  1
  Sc  Sc14  1  0.164706  0.660243  0.373077  1
  Sc  Sc15  1  0.668107  0.839807  0.128769  1
  Sc  Sc16  1  0.837131  0.339926  0.625922  1
  Sc  Sc17  1  0.333592  0.159170  0.872351  1
  Sc  Sc18  1  0.832218  0.340034  0.873096  1
  Sc  Sc19  1  0.168606  0.660673  0.128193  1
  Sn  Sn20  1  0.027030  0.128158  0.750095  1
  Sn  Sn21  1  0.973133  0.873323  0.251434  1
  Sn  Sn22  1  0.472791  0.623948  0.249708  1
  Sn  Sn23  1  0.527409  0.375272  0.748996  1
  Sn  Sn24  1  0.309265  0.852370  0.747712  1
  Sn  Sn25  1  0.690871  0.150754  0.252395  1
  Sn  Sn26  1  0.193347  0.349646  0.251914  1
  Sn  Sn27  1  0.803675  0.645680  0.747606  1
  Sn  Sn28  1  0.182082  0.451442  0.540037  1
  Sn  Sn29  1  0.817332  0.541228  0.456314  1
  Sn  Sn30  1  0.325543  0.959968  0.455456  1
  Sn  Sn31  1  0.824925  0.540456  0.045282  1
  Sn  Sn32  1  0.675764  0.044659  0.540459  1
  Sn  Sn33  1  0.175247  0.454602  0.958431  1
  Sn  Sn34  1  0.669309  0.046426  0.958460  1
  Sn  Sn35  1  0.329740  0.962567  0.045551  1
