# generated using pymatgen
data_Dy3Er4Th(CdNi)2
_symmetry_space_group_name_H-M   'P 1'
_cell_length_a   9.57228285
_cell_length_b   9.57228219
_cell_length_c   9.58339400
_cell_angle_alpha   59.96159255
_cell_angle_beta   59.96159484
_cell_angle_gamma   60.00848795
_symmetry_Int_Tables_number   1
_chemical_formula_structural   Dy3Er4Th(CdNi)2
_chemical_formula_sum   'Dy6 Er8 Th2 Cd4 Ni4'
_cell_volume   620.59864611
_cell_formula_units_Z   2
loop_
 _symmetry_equiv_pos_site_id
 _symmetry_equiv_pos_as_xyz
  1  'x, y, z'
loop_
 _atom_site_type_symbol
 _atom_site_label
 _atom_site_symmetry_multiplicity
 _atom_site_fract_x
 _atom_site_fract_y
 _atom_site_fract_z
 _atom_site_occupancy
  Dy  Dy0  1  0.186899  0.814548  0.815537  1
  Dy  Dy1  1  0.814548  0.186899  0.183017  1
  Dy  Dy2  1  0.814548  0.186899  0.815537  1
  Dy  Dy3  1  0.186899  0.814548  0.183017  1
  Dy  Dy4  1  0.814281  0.814281  0.185719  1
  Dy  Dy5  1  0.186854  0.186854  0.813146  1
  Er  Er6  1  0.599136  0.199783  0.600541  1
  Er  Er7  1  0.199783  0.599136  0.600541  1
  Er  Er8  1  0.063053  0.438964  0.436711  1
  Er  Er9  1  0.438964  0.063053  0.061273  1
  Er  Er10  1  0.438964  0.063053  0.436711  1
  Er  Er11  1  0.063053  0.438964  0.061273  1
  Er  Er12  1  0.437270  0.437270  0.062730  1
  Er  Er13  1  0.062895  0.062895  0.437105  1
  Th  Th14  1  0.593440  0.593440  0.601305  1
  Th  Th15  1  0.593440  0.593440  0.211814  1
  Cd  Cd16  1  0.832794  0.832794  0.829458  1
  Cd  Cd17  1  0.832794  0.832794  0.504953  1
  Cd  Cd18  1  0.833905  0.505591  0.830252  1
  Cd  Cd19  1  0.505591  0.833905  0.830252  1
  Ni  Ni20  1  0.392379  0.392379  0.392750  1
  Ni  Ni21  1  0.392379  0.392379  0.822493  1
  Ni  Ni22  1  0.395378  0.820757  0.391933  1
  Ni  Ni23  1  0.820757  0.395378  0.391933  1
