# generated using pymatgen
data_Ho8Ti11Si16Os
_symmetry_space_group_name_H-M   'P 1'
_cell_length_a   7.00889886
_cell_length_b   7.00889897
_cell_length_c   12.86444800
_cell_angle_alpha   90.02809192
_cell_angle_beta   89.97190839
_cell_angle_gamma   89.93056161
_symmetry_Int_Tables_number   1
_chemical_formula_structural   Ho8Ti11Si16Os
_chemical_formula_sum   'Ho8 Ti11 Si16 Os1'
_cell_volume   631.96106960
_cell_formula_units_Z   1
loop_
 _symmetry_equiv_pos_site_id
 _symmetry_equiv_pos_as_xyz
  1  'x, y, z'
loop_
 _atom_site_type_symbol
 _atom_site_label
 _atom_site_symmetry_multiplicity
 _atom_site_fract_x
 _atom_site_fract_y
 _atom_site_fract_z
 _atom_site_occupancy
  Ho  Ho0  1  0.340852  0.003843  0.467320  1
  Ho  Ho1  1  0.497039  0.840816  0.718214  1
  Ho  Ho2  1  0.499863  0.159234  0.215004  1
  Ho  Ho3  1  0.840816  0.497039  0.281786  1
  Ho  Ho4  1  0.159234  0.499863  0.784996  1
  Ho  Ho5  1  0.658187  0.998619  0.968667  1
  Ho  Ho6  1  0.003843  0.340852  0.532680  1
  Ho  Ho7  1  0.998619  0.658187  0.031333  1
  Ti  Ti8  1  0.174274  0.827683  0.248289  1
  Ti  Ti9  1  0.827683  0.174274  0.751711  1
  Ti  Ti10  1  0.673939  0.673939  0.500000  1
  Ti  Ti11  1  0.151054  0.003415  0.875301  1
  Ti  Ti12  1  0.492196  0.655363  0.124537  1
  Ti  Ti13  1  0.506756  0.349169  0.627992  1
  Ti  Ti14  1  0.655363  0.492196  0.875463  1
  Ti  Ti15  1  0.349169  0.506756  0.372008  1
  Ti  Ti16  1  0.848701  0.994116  0.375137  1
  Ti  Ti17  1  0.003415  0.151054  0.124699  1
  Ti  Ti18  1  0.994116  0.848701  0.624863  1
  Si  Si19  1  0.203059  0.131958  0.684719  1
  Si  Si20  1  0.372018  0.699755  0.933184  1
  Si  Si21  1  0.631586  0.296850  0.434169  1
  Si  Si22  1  0.699755  0.372018  0.066816  1
  Si  Si23  1  0.296850  0.631586  0.565831  1
  Si  Si24  1  0.796325  0.868042  0.183562  1
  Si  Si25  1  0.131958  0.203059  0.315281  1
  Si  Si26  1  0.868042  0.796325  0.816438  1
  Si  Si27  1  0.287631  0.955250  0.064429  1
  Si  Si28  1  0.546894  0.792440  0.315305  1
  Si  Si29  1  0.450528  0.208802  0.818260  1
  Si  Si30  1  0.792440  0.546894  0.684695  1
  Si  Si31  1  0.208802  0.450528  0.181740  1
  Si  Si32  1  0.708208  0.048063  0.565738  1
  Si  Si33  1  0.955250  0.287631  0.935571  1
  Si  Si34  1  0.048063  0.708208  0.434262  1
  Os  Os35  1  0.327476  0.327476  0.000000  1
