# generated using pymatgen
data_HoTmFe8Co4P7
_symmetry_space_group_name_H-M   'P 1'
_cell_length_a   8.95490905
_cell_length_b   8.95089445
_cell_length_c   3.60289700
_cell_angle_alpha   90.00000000
_cell_angle_beta   90.00000000
_cell_angle_gamma   119.93000861
_symmetry_Int_Tables_number   1
_chemical_formula_structural   HoTmFe8Co4P7
_chemical_formula_sum   'Ho1 Tm1 Fe8 Co4 P7'
_cell_volume   250.27413028
_cell_formula_units_Z   1
loop_
 _symmetry_equiv_pos_site_id
 _symmetry_equiv_pos_as_xyz
  1  'x, y, z'
loop_
 _atom_site_type_symbol
 _atom_site_label
 _atom_site_symmetry_multiplicity
 _atom_site_fract_x
 _atom_site_fract_y
 _atom_site_fract_z
 _atom_site_occupancy
  Ho  Ho0  1  0.000750  0.999509  0.000000  1
  Tm  Tm1  1  0.332573  0.666765  0.500000  1
  Fe  Fe2  1  0.098969  0.393427  0.000000  1
  Fe  Fe3  1  0.785937  0.178270  0.000000  1
  Fe  Fe4  1  0.393283  0.214802  0.000000  1
  Fe  Fe5  1  0.819450  0.606010  0.000000  1
  Fe  Fe6  1  0.053088  0.768759  0.500000  1
  Fe  Fe7  1  0.539460  0.104464  0.500000  1
  Fe  Fe8  1  0.565045  0.461188  0.500000  1
  Fe  Fe9  1  0.889045  0.432243  0.500000  1
  Co  Co10  1  0.296377  0.902004  0.000000  1
  Co  Co11  1  0.606635  0.706276  0.000000  1
  Co  Co12  1  0.717815  0.947471  0.500000  1
  Co  Co13  1  0.231544  0.282736  0.500000  1
  P  P14  1  0.554229  0.925655  0.000000  1
  P  P15  1  0.370209  0.446420  0.000000  1
  P  P16  1  0.074493  0.628718  0.000000  1
  P  P17  1  0.956633  0.223378  0.500000  1
  P  P18  1  0.264894  0.044424  0.500000  1
  P  P19  1  0.783043  0.734692  0.500000  1
  P  P20  1  0.666530  0.332786  0.000000  1
