# generated using pymatgen
data_Dy19HoIrRh11
_symmetry_space_group_name_H-M   'P 1'
_cell_length_a   10.90235601
_cell_length_b   10.90246117
_cell_length_c   6.35732100
_cell_angle_alpha   90.00263364
_cell_angle_beta   90.00174982
_cell_angle_gamma   90.07649089
_symmetry_Int_Tables_number   1
_chemical_formula_structural   Dy19HoIrRh11
_chemical_formula_sum   'Dy19 Ho1 Ir1 Rh11'
_cell_volume   755.64647614
_cell_formula_units_Z   1
loop_
 _symmetry_equiv_pos_site_id
 _symmetry_equiv_pos_as_xyz
  1  'x, y, z'
loop_
 _atom_site_type_symbol
 _atom_site_label
 _atom_site_symmetry_multiplicity
 _atom_site_fract_x
 _atom_site_fract_y
 _atom_site_fract_z
 _atom_site_occupancy
  Dy  Dy0  1  0.290678  0.088519  0.378207  1
  Dy  Dy1  1  0.291000  0.910115  0.878119  1
  Dy  Dy2  1  0.709231  0.088359  0.878136  1
  Dy  Dy3  1  0.709115  0.911378  0.378003  1
  Dy  Dy4  1  0.587155  0.790219  0.877807  1
  Dy  Dy5  1  0.588586  0.209269  0.378507  1
  Dy  Dy6  1  0.411079  0.790170  0.379083  1
  Dy  Dy7  1  0.411349  0.209060  0.877966  1
  Dy  Dy8  1  0.209807  0.412851  0.622171  1
  Dy  Dy9  1  0.209803  0.588926  0.120944  1
  Dy  Dy10  1  0.790753  0.411413  0.121509  1
  Dy  Dy11  1  0.790913  0.588649  0.622014  1
  Dy  Dy12  1  0.911491  0.709322  0.121784  1
  Dy  Dy13  1  0.911629  0.290768  0.621872  1
  Dy  Dy14  1  0.089893  0.709002  0.621895  1
  Dy  Dy15  1  0.088613  0.290882  0.121991  1
  Dy  Dy16  1  0.999825  0.999907  0.500090  1
  Dy  Dy17  1  0.000091  0.000177  0.999906  1
  Dy  Dy18  1  0.499774  0.500002  0.000147  1
  Ho  Ho19  1  0.499981  0.500245  0.499877  1
  Ir  Ir20  1  0.346044  0.653965  0.749906  1
  Rh  Rh21  1  0.845879  0.154120  0.249996  1
  Rh  Rh22  1  0.845740  0.846014  0.750172  1
  Rh  Rh23  1  0.153980  0.154258  0.749832  1
  Rh  Rh24  1  0.153523  0.846482  0.249999  1
  Rh  Rh25  1  0.654098  0.345890  0.749930  1
  Rh  Rh26  1  0.654761  0.654189  0.250188  1
  Rh  Rh27  1  0.345811  0.345245  0.249944  1
  Rh  Rh28  1  0.500201  0.000449  0.122902  1
  Rh  Rh29  1  0.500284  0.000639  0.622384  1
  Rh  Rh30  1  0.999361  0.499715  0.877619  1
  Rh  Rh31  1  0.999553  0.499799  0.377097  1
