# generated using pymatgen
data_Sm4ReMo2PN12
_symmetry_space_group_name_H-M   'P 1'
_cell_length_a   7.27597503
_cell_length_b   7.28399625
_cell_length_c   6.06257344
_cell_angle_alpha   75.88878473
_cell_angle_beta   76.65950911
_cell_angle_gamma   83.92570428
_symmetry_Int_Tables_number   1
_chemical_formula_structural   Sm4ReMo2PN12
_chemical_formula_sum   'Sm4 Re1 Mo2 P1 N12'
_cell_volume   302.78276162
_cell_formula_units_Z   1
loop_
 _symmetry_equiv_pos_site_id
 _symmetry_equiv_pos_as_xyz
  1  'x, y, z'
loop_
 _atom_site_type_symbol
 _atom_site_label
 _atom_site_symmetry_multiplicity
 _atom_site_fract_x
 _atom_site_fract_y
 _atom_site_fract_z
 _atom_site_occupancy
  Sm  Sm0  1  0.906187  0.090087  0.752030  1
  Sm  Sm1  1  0.097090  0.900996  0.248909  1
  Sm  Sm2  1  0.675790  0.293913  0.245587  1
  Sm  Sm3  1  0.325017  0.695390  0.737576  1
  Re  Re4  1  0.791475  0.629849  0.765317  1
  Mo  Mo5  1  0.198196  0.380013  0.244377  1
  Mo  Mo6  1  0.384364  0.197182  0.752628  1
  P  P7  1  0.614723  0.813985  0.258721  1
  N  N8  1  0.649467  0.670463  0.053538  1
  N  N9  1  0.393056  0.862163  0.335062  1
  N  N10  1  0.338149  0.377406  0.484918  1
  N  N11  1  0.112959  0.613395  0.136404  1
  N  N12  1  0.998922  0.219061  0.336347  1
  N  N13  1  0.760672  0.982038  0.154050  1
  N  N14  1  0.219678  0.002287  0.844754  1
  N  N15  1  0.615685  0.106399  0.642557  1
  N  N16  1  0.391952  0.342920  0.981821  1
  N  N17  1  0.864586  0.386679  0.842652  1
  N  N18  1  0.663819  0.668813  0.516431  1
  N  N19  1  0.998213  0.766961  0.666320  1
