# generated using pymatgen
data_YLu11CuNi4Sn
_symmetry_space_group_name_H-M   'P 1'
_cell_length_a   8.15330958
_cell_length_b   8.15330869
_cell_length_c   8.17773394
_cell_angle_alpha   112.03235448
_cell_angle_beta   109.62850342
_cell_angle_gamma   106.66766010
_symmetry_Int_Tables_number   1
_chemical_formula_structural   YLu11CuNi4Sn
_chemical_formula_sum   'Y1 Lu11 Cu1 Ni4 Sn1'
_cell_volume   418.23338336
_cell_formula_units_Z   1
loop_
 _symmetry_equiv_pos_site_id
 _symmetry_equiv_pos_as_xyz
  1  'x, y, z'
loop_
 _atom_site_type_symbol
 _atom_site_label
 _atom_site_symmetry_multiplicity
 _atom_site_fract_x
 _atom_site_fract_y
 _atom_site_fract_z
 _atom_site_occupancy
  Y  Y0  1  0.818444  0.790147  0.608592  1
  Lu  Lu1  1  0.026430  0.721118  0.303207  1
  Lu  Lu2  1  0.974173  0.280904  0.695077  1
  Lu  Lu3  1  0.582090  0.276778  0.303207  1
  Lu  Lu4  1  0.414172  0.720903  0.695077  1
  Lu  Lu5  1  0.675040  0.869020  0.191182  1
  Lu  Lu6  1  0.322162  0.516141  0.191182  1
  Lu  Lu7  1  0.324789  0.131386  0.807230  1
  Lu  Lu8  1  0.675844  0.482442  0.807230  1
  Lu  Lu9  1  0.180946  0.209580  0.390528  1
  Lu  Lu10  1  0.819389  0.210856  0.030243  1
  Lu  Lu11  1  0.182170  0.791107  0.973280  1
  Cu  Cu12  1  0.000056  0.498337  0.498394  1
  Ni  Ni13  1  0.642625  0.498037  0.140662  1
  Ni  Ni14  1  0.356854  0.500016  0.856869  1
  Ni  Ni15  1  0.876995  0.876158  0.004029  1
  Ni  Ni16  1  0.127871  0.127034  0.004029  1
  Sn  Sn17  1  0.499948  0.000033  0.499982  1
