# generated using pymatgen
data_Dy11Cd9CoNi3
_symmetry_space_group_name_H-M   'P 1'
_cell_length_a   3.56964200
_cell_length_b   13.09115749
_cell_length_c   13.07001343
_cell_angle_alpha   112.86510558
_cell_angle_beta   90.00000000
_cell_angle_gamma   90.00000000
_symmetry_Int_Tables_number   1
_chemical_formula_structural   Dy11Cd9CoNi3
_chemical_formula_sum   'Dy11 Cd9 Co1 Ni3'
_cell_volume   562.77840607
_cell_formula_units_Z   1
loop_
 _symmetry_equiv_pos_site_id
 _symmetry_equiv_pos_as_xyz
  1  'x, y, z'
loop_
 _atom_site_type_symbol
 _atom_site_label
 _atom_site_symmetry_multiplicity
 _atom_site_fract_x
 _atom_site_fract_y
 _atom_site_fract_z
 _atom_site_occupancy
  Dy  Dy0  1  0.000000  0.916931  0.582964  1
  Dy  Dy1  1  0.000000  0.080636  0.416715  1
  Dy  Dy2  1  0.000000  0.583614  0.919536  1
  Dy  Dy3  1  0.000000  0.416308  0.080411  1
  Dy  Dy4  1  0.000000  0.161153  0.839417  1
  Dy  Dy5  1  0.000000  0.839596  0.161214  1
  Dy  Dy6  1  0.000000  0.373952  0.626109  1
  Dy  Dy7  1  0.000000  0.628473  0.377352  1
  Dy  Dy8  1  0.000000  0.690308  0.686071  1
  Dy  Dy9  1  0.000000  0.310638  0.310905  1
  Dy  Dy10  1  0.000000  0.999621  0.999745  1
  Cd  Cd11  1  0.500000  0.158158  0.633700  1
  Cd  Cd12  1  0.500000  0.841367  0.366980  1
  Cd  Cd13  1  0.500000  0.633545  0.158837  1
  Cd  Cd14  1  0.500000  0.366939  0.842025  1
  Cd  Cd15  1  0.500000  0.921883  0.780904  1
  Cd  Cd16  1  0.500000  0.077278  0.218510  1
  Cd  Cd17  1  0.500000  0.781197  0.921821  1
  Cd  Cd18  1  0.500000  0.218181  0.077372  1
  Cd  Cd19  1  0.500000  0.499807  0.499865  1
  Co  Co20  1  0.500000  0.750190  0.548313  1
  Ni  Ni21  1  0.500000  0.250107  0.450831  1
  Ni  Ni22  1  0.500000  0.548783  0.750157  1
  Ni  Ni23  1  0.500000  0.451334  0.250246  1
