# generated using pymatgen
data_Mg4Sc4Co9P12Rh7
_symmetry_space_group_name_H-M   'P 1'
_cell_length_a   3.68339400
_cell_length_b   10.56783604
_cell_length_c   12.44803142
_cell_angle_alpha   90.06153126
_cell_angle_beta   90.00000000
_cell_angle_gamma   90.00000000
_symmetry_Int_Tables_number   1
_chemical_formula_structural   Mg4Sc4Co9P12Rh7
_chemical_formula_sum   'Mg4 Sc4 Co9 P12 Rh7'
_cell_volume   484.54561583
_cell_formula_units_Z   1
loop_
 _symmetry_equiv_pos_site_id
 _symmetry_equiv_pos_as_xyz
  1  'x, y, z'
loop_
 _atom_site_type_symbol
 _atom_site_label
 _atom_site_symmetry_multiplicity
 _atom_site_fract_x
 _atom_site_fract_y
 _atom_site_fract_z
 _atom_site_occupancy
  Mg  Mg0  1  0.250000  0.709369  0.991671  1
  Mg  Mg1  1  0.250000  0.791900  0.488576  1
  Mg  Mg2  1  0.750000  0.292496  0.011577  1
  Mg  Mg3  1  0.750000  0.207984  0.510427  1
  Sc  Sc4  1  0.250000  0.579673  0.714299  1
  Sc  Sc5  1  0.250000  0.916340  0.216228  1
  Sc  Sc6  1  0.750000  0.423344  0.286814  1
  Sc  Sc7  1  0.750000  0.079876  0.783531  1
  Co  Co8  1  0.750000  0.718099  0.324707  1
  Co  Co9  1  0.250000  0.883178  0.694486  1
  Co  Co10  1  0.250000  0.619568  0.198420  1
  Co  Co11  1  0.750000  0.112549  0.305196  1
  Co  Co12  1  0.750000  0.384547  0.804281  1
  Co  Co13  1  0.250000  0.465504  0.935317  1
  Co  Co14  1  0.250000  0.031314  0.432363  1
  Co  Co15  1  0.750000  0.537222  0.067516  1
  Co  Co16  1  0.750000  0.963284  0.563951  1
  P  P17  1  0.250000  0.432327  0.118178  1
  P  P18  1  0.250000  0.068434  0.614760  1
  P  P19  1  0.750000  0.569800  0.884007  1
  P  P20  1  0.750000  0.922019  0.380576  1
  P  P21  1  0.250000  0.272421  0.857768  1
  P  P22  1  0.250000  0.226641  0.358453  1
  P  P23  1  0.750000  0.728780  0.149273  1
  P  P24  1  0.750000  0.771404  0.640843  1
  P  P25  1  0.250000  0.595257  0.374777  1
  P  P26  1  0.250000  0.911985  0.875499  1
  P  P27  1  0.750000  0.413877  0.622313  1
  P  P28  1  0.750000  0.087948  0.124798  1
  Rh  Rh29  1  0.250000  0.402940  0.469591  1
  Rh  Rh30  1  0.250000  0.098540  0.970801  1
  Rh  Rh31  1  0.750000  0.600679  0.523627  1
  Rh  Rh32  1  0.750000  0.900249  0.031638  1
  Rh  Rh33  1  0.250000  0.220409  0.174792  1
  Rh  Rh34  1  0.250000  0.280095  0.673320  1
  Rh  Rh35  1  0.750000  0.779947  0.825623  1
