# generated using pymatgen
data_Hf9TaCoW3
_symmetry_space_group_name_H-M   'P 1'
_cell_length_a   8.71875300
_cell_length_b   8.71875361
_cell_length_c   8.49562400
_cell_angle_alpha   90.00000000
_cell_angle_beta   90.00000000
_cell_angle_gamma   120.00000149
_symmetry_Int_Tables_number   1
_chemical_formula_structural   Hf9TaCoW3
_chemical_formula_sum   'Hf18 Ta2 Co2 W6'
_cell_volume   559.28695180
_cell_formula_units_Z   2
loop_
 _symmetry_equiv_pos_site_id
 _symmetry_equiv_pos_as_xyz
  1  'x, y, z'
loop_
 _atom_site_type_symbol
 _atom_site_label
 _atom_site_symmetry_multiplicity
 _atom_site_fract_x
 _atom_site_fract_y
 _atom_site_fract_z
 _atom_site_occupancy
  Hf  Hf0  1  0.201874  0.798126  0.440413  1
  Hf  Hf1  1  0.201874  0.403747  0.440413  1
  Hf  Hf2  1  0.596253  0.798126  0.440413  1
  Hf  Hf3  1  0.798126  0.201874  0.559587  1
  Hf  Hf4  1  0.798126  0.596253  0.559587  1
  Hf  Hf5  1  0.403747  0.201874  0.559587  1
  Hf  Hf6  1  0.798126  0.201874  0.940413  1
  Hf  Hf7  1  0.798126  0.596253  0.940413  1
  Hf  Hf8  1  0.403747  0.201874  0.940413  1
  Hf  Hf9  1  0.201874  0.798126  0.059587  1
  Hf  Hf10  1  0.201874  0.403747  0.059587  1
  Hf  Hf11  1  0.596253  0.798126  0.059587  1
  Hf  Hf12  1  0.542191  0.457809  0.250000  1
  Hf  Hf13  1  0.542191  0.084380  0.250000  1
  Hf  Hf14  1  0.915620  0.457809  0.250000  1
  Hf  Hf15  1  0.457809  0.542191  0.750000  1
  Hf  Hf16  1  0.457809  0.915620  0.750000  1
  Hf  Hf17  1  0.084380  0.542191  0.750000  1
  Ta  Ta18  1  0.000000  0.000000  0.500000  1
  Ta  Ta19  1  0.000000  0.000000  0.000000  1
  Co  Co20  1  0.333333  0.666667  0.250000  1
  Co  Co21  1  0.666667  0.333333  0.750000  1
  W  W22  1  0.885453  0.114547  0.250000  1
  W  W23  1  0.885453  0.770907  0.250000  1
  W  W24  1  0.229093  0.114547  0.250000  1
  W  W25  1  0.114547  0.885453  0.750000  1
  W  W26  1  0.114547  0.229093  0.750000  1
  W  W27  1  0.770907  0.885453  0.750000  1
