# generated using pymatgen
data_Nd2Ga3SiPt3Rh
_symmetry_space_group_name_H-M   'P 1'
_cell_length_a   4.21223700
_cell_length_b   4.22321100
_cell_length_c   10.58147000
_cell_angle_alpha   90.00000000
_cell_angle_beta   90.00000000
_cell_angle_gamma   90.00000000
_symmetry_Int_Tables_number   1
_chemical_formula_structural   Nd2Ga3SiPt3Rh
_chemical_formula_sum   'Nd2 Ga3 Si1 Pt3 Rh1'
_cell_volume   188.23552247
_cell_formula_units_Z   1
loop_
 _symmetry_equiv_pos_site_id
 _symmetry_equiv_pos_as_xyz
  1  'x, y, z'
loop_
 _atom_site_type_symbol
 _atom_site_label
 _atom_site_symmetry_multiplicity
 _atom_site_fract_x
 _atom_site_fract_y
 _atom_site_fract_z
 _atom_site_occupancy
  Nd  Nd0  1  0.000000  0.500000  0.251713  1
  Nd  Nd1  1  0.500000  0.000000  0.745408  1
  Ga  Ga2  1  0.000000  0.000000  0.496321  1
  Ga  Ga3  1  0.500000  0.500000  0.495942  1
  Ga  Ga4  1  0.000000  0.500000  0.873346  1
  Si  Si5  1  0.500000  0.000000  0.126970  1
  Pt  Pt6  1  0.500000  0.500000  0.009626  1
  Pt  Pt7  1  0.000000  0.500000  0.636514  1
  Pt  Pt8  1  0.500000  0.000000  0.353590  1
  Rh  Rh9  1  0.000000  0.000000  0.010571  1
