# generated using pymatgen
data_K3BaAl5Ge3Au20
_symmetry_space_group_name_H-M   'P 1'
_cell_length_a   7.27249800
_cell_length_b   9.26160670
_cell_length_c   10.05102878
_cell_angle_alpha   90.35133362
_cell_angle_beta   90.00000000
_cell_angle_gamma   90.00000000
_symmetry_Int_Tables_number   1
_chemical_formula_structural   K3BaAl5Ge3Au20
_chemical_formula_sum   'K3 Ba1 Al5 Ge3 Au20'
_cell_volume   676.97447858
_cell_formula_units_Z   1
loop_
 _symmetry_equiv_pos_site_id
 _symmetry_equiv_pos_as_xyz
  1  'x, y, z'
loop_
 _atom_site_type_symbol
 _atom_site_label
 _atom_site_symmetry_multiplicity
 _atom_site_fract_x
 _atom_site_fract_y
 _atom_site_fract_z
 _atom_site_occupancy
  K  K0  1  0.250000  0.245883  0.117159  1
  K  K1  1  0.750000  0.754285  0.881833  1
  K  K2  1  0.750000  0.257211  0.619499  1
  Ba  Ba3  1  0.250000  0.748834  0.380179  1
  Al  Al4  1  0.250000  0.056207  0.615392  1
  Al  Al5  1  0.250000  0.556561  0.880904  1
  Al  Al6  1  0.750000  0.947334  0.381829  1
  Al  Al7  1  0.750000  0.443532  0.118979  1
  Al  Al8  1  0.250000  0.352087  0.481325  1
  Ge  Ge9  1  0.250000  0.850127  0.028242  1
  Ge  Ge10  1  0.750000  0.653512  0.536805  1
  Ge  Ge11  1  0.750000  0.155268  0.964271  1
  Au  Au12  1  0.051786  0.113911  0.398415  1
  Au  Au13  1  0.449296  0.602129  0.102563  1
  Au  Au14  1  0.554122  0.903286  0.602572  1
  Au  Au15  1  0.946857  0.401004  0.896822  1
  Au  Au16  1  0.945878  0.903286  0.602572  1
  Au  Au17  1  0.553143  0.401004  0.896822  1
  Au  Au18  1  0.448214  0.113911  0.398415  1
  Au  Au19  1  0.050704  0.602129  0.102563  1
  Au  Au20  1  0.041570  0.065772  0.853868  1
  Au  Au21  1  0.451050  0.558080  0.636302  1
  Au  Au22  1  0.541077  0.927319  0.152783  1
  Au  Au23  1  0.965753  0.425699  0.351066  1
  Au  Au24  1  0.958923  0.927319  0.152783  1
  Au  Au25  1  0.534247  0.425699  0.351066  1
  Au  Au26  1  0.458430  0.065772  0.853868  1
  Au  Au27  1  0.048950  0.558080  0.636302  1
  Au  Au28  1  0.250000  0.303018  0.732097  1
  Au  Au29  1  0.250000  0.807581  0.771650  1
  Au  Au30  1  0.750000  0.686091  0.281263  1
  Au  Au31  1  0.750000  0.188070  0.219792  1
