# generated using pymatgen
data_Lu2Zr4Sn5
_symmetry_space_group_name_H-M   'P 1'
_cell_length_a   5.96056897
_cell_length_b   9.06407390
_cell_length_c   11.15232512
_cell_angle_alpha   113.97738367
_cell_angle_beta   105.49975227
_cell_angle_gamma   90.00000496
_symmetry_Int_Tables_number   1
_chemical_formula_structural   Lu2Zr4Sn5
_chemical_formula_sum   'Lu4 Zr8 Sn10'
_cell_volume   526.45988390
_cell_formula_units_Z   2
loop_
 _symmetry_equiv_pos_site_id
 _symmetry_equiv_pos_as_xyz
  1  'x, y, z'
loop_
 _atom_site_type_symbol
 _atom_site_label
 _atom_site_symmetry_multiplicity
 _atom_site_fract_x
 _atom_site_fract_y
 _atom_site_fract_z
 _atom_site_occupancy
  Lu  Lu0  1  0.142874  0.256850  0.285750  1
  Lu  Lu1  1  0.857126  0.743150  0.714250  1
  Lu  Lu2  1  0.642874  0.028899  0.285750  1
  Lu  Lu3  1  0.357126  0.971101  0.714250  1
  Zr  Zr4  1  0.559810  0.309810  0.619619  1
  Zr  Zr5  1  0.440190  0.690190  0.380381  1
  Zr  Zr6  1  0.940190  0.690190  0.380381  1
  Zr  Zr7  1  0.059810  0.309810  0.619619  1
  Zr  Zr8  1  0.437060  0.676208  0.874120  1
  Zr  Zr9  1  0.562940  0.323792  0.125880  1
  Zr  Zr10  1  0.937060  0.197913  0.874120  1
  Zr  Zr11  1  0.062940  0.802087  0.125880  1
  Sn  Sn12  1  0.290771  0.592320  0.581542  1
  Sn  Sn13  1  0.709229  0.407680  0.418458  1
  Sn  Sn14  1  0.790771  0.989222  0.581542  1
  Sn  Sn15  1  0.209229  0.010778  0.418458  1
  Sn  Sn16  1  0.250000  0.000000  0.000000  1
  Sn  Sn17  1  0.750000  0.000000  0.000000  1
  Sn  Sn18  1  0.067918  0.469188  0.135837  1
  Sn  Sn19  1  0.932082  0.530812  0.864163  1
  Sn  Sn20  1  0.567918  0.666648  0.135837  1
  Sn  Sn21  1  0.432082  0.333352  0.864163  1
