# generated using pymatgen
data_SrLi4Tb3Si8
_symmetry_space_group_name_H-M   'P 1'
_cell_length_a   3.81729200
_cell_length_b   7.79239631
_cell_length_c   10.38458798
_cell_angle_alpha   89.47258715
_cell_angle_beta   90.00000000
_cell_angle_gamma   90.00000000
_symmetry_Int_Tables_number   1
_chemical_formula_structural   SrLi4Tb3Si8
_chemical_formula_sum   'Sr1 Li4 Tb3 Si8'
_cell_volume   308.88533123
_cell_formula_units_Z   1
loop_
 _symmetry_equiv_pos_site_id
 _symmetry_equiv_pos_as_xyz
  1  'x, y, z'
loop_
 _atom_site_type_symbol
 _atom_site_label
 _atom_site_symmetry_multiplicity
 _atom_site_fract_x
 _atom_site_fract_y
 _atom_site_fract_z
 _atom_site_occupancy
  Sr  Sr0  1  0.750000  0.360330  0.363905  1
  Li  Li1  1  0.250000  0.998169  0.393329  1
  Li  Li2  1  0.750000  0.010561  0.610374  1
  Li  Li3  1  0.250000  0.488502  0.107886  1
  Li  Li4  1  0.750000  0.508971  0.893979  1
  Tb  Tb5  1  0.250000  0.128165  0.863616  1
  Tb  Tb6  1  0.750000  0.865632  0.131636  1
  Tb  Tb7  1  0.250000  0.634633  0.636130  1
  Si  Si8  1  0.750000  0.257243  0.059331  1
  Si  Si9  1  0.250000  0.733644  0.931901  1
  Si  Si10  1  0.750000  0.777275  0.432632  1
  Si  Si11  1  0.250000  0.234643  0.579989  1
  Si  Si12  1  0.750000  0.837181  0.817649  1
  Si  Si13  1  0.250000  0.149819  0.168723  1
  Si  Si14  1  0.750000  0.340884  0.688305  1
  Si  Si15  1  0.250000  0.674350  0.320616  1
