# generated using pymatgen
data_Tb4TiMn6Fe13P12
_symmetry_space_group_name_H-M   'P 1'
_cell_length_a   3.66466300
_cell_length_b   10.34614310
_cell_length_c   12.19863026
_cell_angle_alpha   90.03160344
_cell_angle_beta   90.00000000
_cell_angle_gamma   90.00000000
_symmetry_Int_Tables_number   1
_chemical_formula_structural   Tb4TiMn6Fe13P12
_chemical_formula_sum   'Tb4 Ti1 Mn6 Fe13 P12'
_cell_volume   462.51255497
_cell_formula_units_Z   1
loop_
 _symmetry_equiv_pos_site_id
 _symmetry_equiv_pos_as_xyz
  1  'x, y, z'
loop_
 _atom_site_type_symbol
 _atom_site_label
 _atom_site_symmetry_multiplicity
 _atom_site_fract_x
 _atom_site_fract_y
 _atom_site_fract_z
 _atom_site_occupancy
  Tb  Tb0  1  0.250000  0.580646  0.708260  1
  Tb  Tb1  1  0.250000  0.916999  0.212666  1
  Tb  Tb2  1  0.750000  0.420041  0.289415  1
  Tb  Tb3  1  0.750000  0.080141  0.789795  1
  Ti  Ti4  1  0.750000  0.299498  0.008256  1
  Mn  Mn5  1  0.250000  0.706343  0.993796  1
  Mn  Mn6  1  0.250000  0.794381  0.492339  1
  Mn  Mn7  1  0.750000  0.204660  0.507792  1
  Mn  Mn8  1  0.250000  0.409128  0.489128  1
  Mn  Mn9  1  0.250000  0.084295  0.992060  1
  Mn  Mn10  1  0.750000  0.592598  0.508882  1
  Fe  Fe11  1  0.750000  0.907224  0.011010  1
  Fe  Fe12  1  0.250000  0.215982  0.173123  1
  Fe  Fe13  1  0.250000  0.280010  0.668386  1
  Fe  Fe14  1  0.750000  0.777832  0.828026  1
  Fe  Fe15  1  0.750000  0.721100  0.329153  1
  Fe  Fe16  1  0.250000  0.877833  0.695429  1
  Fe  Fe17  1  0.250000  0.623750  0.195864  1
  Fe  Fe18  1  0.750000  0.122778  0.305386  1
  Fe  Fe19  1  0.750000  0.377075  0.800615  1
  Fe  Fe20  1  0.250000  0.467880  0.934286  1
  Fe  Fe21  1  0.250000  0.036837  0.436585  1
  Fe  Fe22  1  0.750000  0.541337  0.064866  1
  Fe  Fe23  1  0.750000  0.962354  0.565026  1
  P  P24  1  0.250000  0.426550  0.113006  1
  P  P25  1  0.250000  0.076533  0.612534  1
  P  P26  1  0.750000  0.574778  0.886584  1
  P  P27  1  0.750000  0.923406  0.388658  1
  P  P28  1  0.250000  0.273928  0.856107  1
  P  P29  1  0.250000  0.229999  0.362899  1
  P  P30  1  0.750000  0.731992  0.139958  1
  P  P31  1  0.750000  0.770255  0.639972  1
  P  P32  1  0.250000  0.603887  0.380916  1
  P  P33  1  0.250000  0.893109  0.881464  1
  P  P34  1  0.750000  0.397235  0.616382  1
  P  P35  1  0.750000  0.097606  0.121378  1
