# generated using pymatgen
data_NdMgReH6
_symmetry_space_group_name_H-M   'P 1'
_cell_length_a   5.03633403
_cell_length_b   5.03640437
_cell_length_c   5.03634800
_cell_angle_alpha   119.99966087
_cell_angle_beta   119.99895810
_cell_angle_gamma   90.00112252
_symmetry_Int_Tables_number   1
_chemical_formula_structural   NdMgReH6
_chemical_formula_sum   'Nd1 Mg1 Re1 H6'
_cell_volume   90.33179974
_cell_formula_units_Z   1
loop_
 _symmetry_equiv_pos_site_id
 _symmetry_equiv_pos_as_xyz
  1  'x, y, z'
loop_
 _atom_site_type_symbol
 _atom_site_label
 _atom_site_symmetry_multiplicity
 _atom_site_fract_x
 _atom_site_fract_y
 _atom_site_fract_z
 _atom_site_occupancy
  Nd  Nd0  1  0.750003  0.249997  0.500002  1
  Mg  Mg1  1  0.249990  0.749990  0.499987  1
  Re  Re2  1  0.000006  0.999995  0.000011  1
  H  H3  1  0.248124  0.248130  0.999999  1
  H  H4  1  0.751869  0.248132  0.999998  1
  H  H5  1  0.248132  0.751868  0.999999  1
  H  H6  1  0.751872  0.751874  0.999997  1
  H  H7  1  0.751874  0.751875  0.503743  1
  H  H8  1  0.248126  0.248133  0.496258  1
