# generated using pymatgen
data_TmBr37
_symmetry_space_group_name_H-M   'P 1'
_cell_length_a   14.20848141
_cell_length_b   15.29732181
_cell_length_c   14.42416200
_cell_angle_alpha   103.00376457
_cell_angle_beta   48.80056783
_cell_angle_gamma   81.50743146
_symmetry_Int_Tables_number   1
_chemical_formula_structural   TmBr37
_chemical_formula_sum   'Tm1 Br37'
_cell_volume   2102.91272627
_cell_formula_units_Z   1
loop_
 _symmetry_equiv_pos_site_id
 _symmetry_equiv_pos_as_xyz
  1  'x, y, z'
loop_
 _atom_site_type_symbol
 _atom_site_label
 _atom_site_symmetry_multiplicity
 _atom_site_fract_x
 _atom_site_fract_y
 _atom_site_fract_z
 _atom_site_occupancy
  Tm  Tm0  1  0.500000  0.000000  0.000000  1
  Br  Br1  1  0.786045  0.301075  0.136647  1
  Br  Br2  1  0.213955  0.698925  0.863353  1
  Br  Br3  1  0.743047  0.083487  0.363748  1
  Br  Br4  1  0.256953  0.916513  0.636252  1
  Br  Br5  1  0.115346  0.350454  0.168665  1
  Br  Br6  1  0.884654  0.649546  0.831335  1
  Br  Br7  1  0.865678  0.530998  0.246993  1
  Br  Br8  1  0.134322  0.469002  0.753007  1
  Br  Br9  1  0.686892  0.274819  0.521678  1
  Br  Br10  1  0.313108  0.725181  0.478322  1
  Br  Br11  1  0.049858  0.141636  0.475570  1
  Br  Br12  1  0.950142  0.858364  0.524430  1
  Br  Br13  1  0.976438  0.007916  0.287212  1
  Br  Br14  1  0.023562  0.992084  0.712788  1
  Br  Br15  1  0.952849  0.337702  0.600226  1
  Br  Br16  1  0.047151  0.662298  0.399774  1
  Br  Br17  1  0.577332  0.430221  0.235115  1
  Br  Br18  1  0.422668  0.569779  0.764885  1
  Br  Br19  1  0.170417  0.481029  0.277771  1
  Br  Br20  1  0.829583  0.518971  0.722229  1
  Br  Br21  1  0.000000  0.500000  0.000000  1
  Br  Br22  1  0.575559  0.958692  0.128836  1
  Br  Br23  1  0.424441  0.041308  0.871164  1
  Br  Br24  1  0.311956  0.051506  0.300626  1
  Br  Br25  1  0.688044  0.948494  0.699374  1
  Br  Br26  1  0.530838  0.133745  0.413891  1
  Br  Br27  1  0.469162  0.866255  0.586109  1
  Br  Br28  1  0.094594  0.216336  0.066941  1
  Br  Br29  1  0.905406  0.783664  0.933059  1
  Br  Br30  1  0.663958  0.690655  0.401777  1
  Br  Br31  1  0.336042  0.309345  0.598223  1
  Br  Br32  1  0.900425  0.147726  0.921699  1
  Br  Br33  1  0.099575  0.852274  0.078301  1
  Br  Br34  1  0.490950  0.178520  0.063050  1
  Br  Br35  1  0.509050  0.821480  0.936950  1
  Br  Br36  1  0.652205  0.429365  0.649508  1
  Br  Br37  1  0.347795  0.570635  0.350492  1
