# generated using pymatgen
data_Nb3ReSi2GeMo2
_symmetry_space_group_name_H-M   'P 1'
_cell_length_a   6.96821152
_cell_length_b   6.96541196
_cell_length_c   3.35886200
_cell_angle_alpha   90.00000000
_cell_angle_beta   90.00000000
_cell_angle_gamma   120.15385852
_symmetry_Int_Tables_number   1
_chemical_formula_structural   Nb3ReSi2GeMo2
_chemical_formula_sum   'Nb3 Re1 Si2 Ge1 Mo2'
_cell_volume   140.96636908
_cell_formula_units_Z   1
loop_
 _symmetry_equiv_pos_site_id
 _symmetry_equiv_pos_as_xyz
  1  'x, y, z'
loop_
 _atom_site_type_symbol
 _atom_site_label
 _atom_site_symmetry_multiplicity
 _atom_site_fract_x
 _atom_site_fract_y
 _atom_site_fract_z
 _atom_site_occupancy
  Nb  Nb0  1  0.403454  0.000787  0.500000  1
  Nb  Nb1  1  0.985498  0.396181  0.500000  1
  Nb  Nb2  1  0.610314  0.602762  0.500000  1
  Re  Re3  1  0.260676  0.255302  0.000000  1
  Si  Si4  1  0.660947  0.331536  0.000000  1
  Si  Si5  1  0.004928  0.005043  0.500000  1
  Ge  Ge6  1  0.331811  0.661524  0.000000  1
  Mo  Mo7  1  0.746280  0.004560  0.000000  1
  Mo  Mo8  1  0.996091  0.742304  0.000000  1
