# generated using pymatgen
data_Hf3ZrCr4F24
_symmetry_space_group_name_H-M   'P 1'
_cell_length_a   5.94294661
_cell_length_b   8.16382300
_cell_length_c   11.79668602
_cell_angle_alpha   90.00000000
_cell_angle_beta   90.14038888
_cell_angle_gamma   90.00000000
_symmetry_Int_Tables_number   1
_chemical_formula_structural   Hf3ZrCr4F24
_chemical_formula_sum   'Hf3 Zr1 Cr4 F24'
_cell_volume   572.34003423
_cell_formula_units_Z   1
loop_
 _symmetry_equiv_pos_site_id
 _symmetry_equiv_pos_as_xyz
  1  'x, y, z'
loop_
 _atom_site_type_symbol
 _atom_site_label
 _atom_site_symmetry_multiplicity
 _atom_site_fract_x
 _atom_site_fract_y
 _atom_site_fract_z
 _atom_site_occupancy
  Hf  Hf0  1  0.229092  0.750000  0.625629  1
  Hf  Hf1  1  0.728114  0.250000  0.873802  1
  Hf  Hf2  1  0.771768  0.250000  0.374610  1
  Zr  Zr3  1  0.270750  0.750000  0.125871  1
  Cr  Cr4  1  0.752800  0.750000  0.377124  1
  Cr  Cr5  1  0.746964  0.750000  0.873814  1
  Cr  Cr6  1  0.247451  0.250000  0.624385  1
  Cr  Cr7  1  0.252132  0.250000  0.124216  1
  F  F8  1  0.456125  0.750000  0.747325  1
  F  F9  1  0.043359  0.750000  0.250611  1
  F  F10  1  0.543097  0.250000  0.253590  1
  F  F11  1  0.957786  0.250000  0.753236  1
  F  F12  1  0.459630  0.750000  0.504961  1
  F  F13  1  0.039052  0.750000  0.002336  1
  F  F14  1  0.543066  0.250000  0.496270  1
  F  F15  1  0.955351  0.250000  0.996006  1
  F  F16  1  0.769496  0.496910  0.374944  1
  F  F17  1  0.730819  0.003088  0.873835  1
  F  F18  1  0.231608  0.996966  0.625700  1
  F  F19  1  0.265814  0.499497  0.125090  1
  F  F20  1  0.231608  0.503034  0.625700  1
  F  F21  1  0.265814  0.000503  0.125090  1
  F  F22  1  0.769496  0.003090  0.374944  1
  F  F23  1  0.730819  0.496912  0.873835  1
  F  F24  1  0.979884  0.750000  0.507475  1
  F  F25  1  0.523836  0.750000  0.005124  1
  F  F26  1  0.021573  0.250000  0.492942  1
  F  F27  1  0.477815  0.250000  0.991892  1
  F  F28  1  0.978696  0.750000  0.744534  1
  F  F29  1  0.526135  0.750000  0.246149  1
  F  F30  1  0.020568  0.250000  0.254967  1
  F  F31  1  0.479484  0.250000  0.753997  1
