# generated using pymatgen
data_Tb2Lu2NbPd15
_symmetry_space_group_name_H-M   'P 1'
_cell_length_a   4.10435500
_cell_length_b   4.10435500
_cell_length_c   20.52455100
_cell_angle_alpha   90.00000000
_cell_angle_beta   90.00000000
_cell_angle_gamma   90.00000000
_symmetry_Int_Tables_number   1
_chemical_formula_structural   Tb2Lu2NbPd15
_chemical_formula_sum   'Tb2 Lu2 Nb1 Pd15'
_cell_volume   345.75104382
_cell_formula_units_Z   1
loop_
 _symmetry_equiv_pos_site_id
 _symmetry_equiv_pos_as_xyz
  1  'x, y, z'
loop_
 _atom_site_type_symbol
 _atom_site_label
 _atom_site_symmetry_multiplicity
 _atom_site_fract_x
 _atom_site_fract_y
 _atom_site_fract_z
 _atom_site_occupancy
  Tb  Tb0  1  0.000000  0.000000  0.198426  1
  Tb  Tb1  1  0.000000  0.000000  0.399488  1
  Lu  Lu2  1  0.000000  0.000000  0.602884  1
  Lu  Lu3  1  0.000000  0.000000  0.800023  1
  Nb  Nb4  1  0.000000  0.000000  0.999117  1
  Pd  Pd5  1  0.500000  0.500000  0.999350  1
  Pd  Pd6  1  0.500000  0.500000  0.193513  1
  Pd  Pd7  1  0.500000  0.500000  0.398251  1
  Pd  Pd8  1  0.500000  0.500000  0.602455  1
  Pd  Pd9  1  0.500000  0.500000  0.805822  1
  Pd  Pd10  1  0.500000  0.000000  0.090782  1
  Pd  Pd11  1  0.500000  0.000000  0.296495  1
  Pd  Pd12  1  0.500000  0.000000  0.501862  1
  Pd  Pd13  1  0.500000  0.000000  0.703554  1
  Pd  Pd14  1  0.500000  0.000000  0.907643  1
  Pd  Pd15  1  0.000000  0.500000  0.090782  1
  Pd  Pd16  1  0.000000  0.500000  0.296495  1
  Pd  Pd17  1  0.000000  0.500000  0.501862  1
  Pd  Pd18  1  0.000000  0.500000  0.703554  1
  Pd  Pd19  1  0.000000  0.500000  0.907643  1
