# generated using pymatgen
data_Y3TmLuSb3
_symmetry_space_group_name_H-M   'P 1'
_cell_length_a   6.25929400
_cell_length_b   8.94988595
_cell_length_c   8.94972402
_cell_angle_alpha   120.00059650
_cell_angle_beta   89.99999360
_cell_angle_gamma   90.00001433
_symmetry_Int_Tables_number   1
_chemical_formula_structural   Y3TmLuSb3
_chemical_formula_sum   'Y6 Tm2 Lu2 Sb6'
_cell_volume   434.19069930
_cell_formula_units_Z   2
loop_
 _symmetry_equiv_pos_site_id
 _symmetry_equiv_pos_as_xyz
  1  'x, y, z'
loop_
 _atom_site_type_symbol
 _atom_site_label
 _atom_site_symmetry_multiplicity
 _atom_site_fract_x
 _atom_site_fract_y
 _atom_site_fract_z
 _atom_site_occupancy
  Y  Y0  1  0.750016  0.247836  0.000000  1
  Y  Y1  1  0.750022  0.752232  0.752223  1
  Y  Y2  1  0.750022  0.000009  0.247777  1
  Y  Y3  1  0.249979  0.752164  0.000000  1
  Y  Y4  1  0.249979  0.247768  0.247777  1
  Y  Y5  1  0.249979  0.999991  0.752223  1
  Tm  Tm6  1  0.000002  0.666674  0.333346  1
  Tm  Tm7  1  0.000002  0.333328  0.666654  1
  Lu  Lu8  1  0.500008  0.333326  0.666652  1
  Lu  Lu9  1  0.500008  0.666673  0.333348  1
  Sb  Sb10  1  0.749727  0.610112  0.000000  1
  Sb  Sb11  1  0.749728  0.389918  0.389916  1
  Sb  Sb12  1  0.749728  0.000002  0.610084  1
  Sb  Sb13  1  0.250269  0.389885  0.000000  1
  Sb  Sb14  1  0.250268  0.610083  0.610085  1
  Sb  Sb15  1  0.250268  0.999998  0.389915  1
