# generated using pymatgen
data_DyZr(Mn2P)4
_symmetry_space_group_name_H-M   'P 1'
_cell_length_a   6.94158278
_cell_length_b   6.94158278
_cell_length_c   3.67476900
_cell_angle_alpha   90.00000000
_cell_angle_beta   90.00000000
_cell_angle_gamma   89.39801697
_symmetry_Int_Tables_number   1
_chemical_formula_structural   DyZr(Mn2P)4
_chemical_formula_sum   'Dy1 Zr1 Mn8 P4'
_cell_volume   177.06107135
_cell_formula_units_Z   1
loop_
 _symmetry_equiv_pos_site_id
 _symmetry_equiv_pos_as_xyz
  1  'x, y, z'
loop_
 _atom_site_type_symbol
 _atom_site_label
 _atom_site_symmetry_multiplicity
 _atom_site_fract_x
 _atom_site_fract_y
 _atom_site_fract_z
 _atom_site_occupancy
  Dy  Dy0  1  0.500000  0.500000  0.000000  1
  Zr  Zr1  1  0.000000  0.000000  0.500000  1
  Mn  Mn2  1  0.586761  0.150996  0.500000  1
  Mn  Mn3  1  0.413239  0.849004  0.500000  1
  Mn  Mn4  1  0.080475  0.344255  0.000000  1
  Mn  Mn5  1  0.919525  0.655745  0.000000  1
  Mn  Mn6  1  0.150996  0.586761  0.500000  1
  Mn  Mn7  1  0.849004  0.413239  0.500000  1
  Mn  Mn8  1  0.344255  0.080475  0.000000  1
  Mn  Mn9  1  0.655745  0.919525  0.000000  1
  P  P10  1  0.718746  0.718746  0.500000  1
  P  P11  1  0.281254  0.281254  0.500000  1
  P  P12  1  0.212118  0.787882  0.000000  1
  P  P13  1  0.787882  0.212118  0.000000  1
