# generated using pymatgen
data_CeNdCo2(SnH)2
_symmetry_space_group_name_H-M   'P 1'
_cell_length_a   4.34302900
_cell_length_b   7.17772884
_cell_length_c   8.36131162
_cell_angle_alpha   89.80090370
_cell_angle_beta   90.00000000
_cell_angle_gamma   90.00000000
_symmetry_Int_Tables_number   1
_chemical_formula_structural   CeNdCo2(SnH)2
_chemical_formula_sum   'Ce2 Nd2 Co4 Sn4 H4'
_cell_volume   260.64629985
_cell_formula_units_Z   2
loop_
 _symmetry_equiv_pos_site_id
 _symmetry_equiv_pos_as_xyz
  1  'x, y, z'
loop_
 _atom_site_type_symbol
 _atom_site_label
 _atom_site_symmetry_multiplicity
 _atom_site_fract_x
 _atom_site_fract_y
 _atom_site_fract_z
 _atom_site_occupancy
  Ce  Ce0  1  0.250000  0.485929  0.190853  1
  Ce  Ce1  1  0.750000  0.514071  0.809147  1
  Nd  Nd2  1  0.750000  0.013599  0.690437  1
  Nd  Nd3  1  0.250000  0.986401  0.309563  1
  Co  Co4  1  0.750000  0.767154  0.098796  1
  Co  Co5  1  0.250000  0.232846  0.901204  1
  Co  Co6  1  0.250000  0.719197  0.607268  1
  Co  Co7  1  0.750000  0.280803  0.392732  1
  Sn  Sn8  1  0.750000  0.657003  0.428584  1
  Sn  Sn9  1  0.250000  0.342997  0.571416  1
  Sn  Sn10  1  0.250000  0.840563  0.929071  1
  Sn  Sn11  1  0.750000  0.159437  0.070929  1
  H  H12  1  0.250000  0.453859  0.916184  1
  H  H13  1  0.750000  0.546141  0.083816  1
  H  H14  1  0.750000  0.059882  0.417475  1
  H  H15  1  0.250000  0.940118  0.582525  1
