# generated using pymatgen
data_Hf6Sc2Co7Si14Os
_symmetry_space_group_name_H-M   'P 1'
_cell_length_a   9.45430993
_cell_length_b   9.46141613
_cell_length_c   9.49921532
_cell_angle_alpha   94.14824345
_cell_angle_beta   94.11381696
_cell_angle_gamma   148.79073393
_symmetry_Int_Tables_number   1
_chemical_formula_structural   Hf6Sc2Co7Si14Os
_chemical_formula_sum   'Hf6 Sc2 Co7 Si14 Os1'
_cell_volume   424.21132793
_cell_formula_units_Z   1
loop_
 _symmetry_equiv_pos_site_id
 _symmetry_equiv_pos_as_xyz
  1  'x, y, z'
loop_
 _atom_site_type_symbol
 _atom_site_label
 _atom_site_symmetry_multiplicity
 _atom_site_fract_x
 _atom_site_fract_y
 _atom_site_fract_z
 _atom_site_occupancy
  Hf  Hf0  1  0.136190  0.860510  0.999167  1
  Hf  Hf1  1  0.862978  0.138598  0.999120  1
  Hf  Hf2  1  0.304139  0.498067  0.802444  1
  Hf  Hf3  1  0.696348  0.500310  0.196878  1
  Hf  Hf4  1  0.500581  0.696641  0.196925  1
  Hf  Hf5  1  0.498285  0.304356  0.802456  1
  Sc  Sc6  1  0.138583  0.138620  0.277220  1
  Sc  Sc7  1  0.860955  0.861033  0.721996  1
  Co  Co8  1  0.396753  0.896803  0.793525  1
  Co  Co9  1  0.895987  0.100530  0.500903  1
  Co  Co10  1  0.604958  0.400396  0.500950  1
  Co  Co11  1  0.601408  0.101427  0.202776  1
  Co  Co12  1  0.897952  0.397968  0.795925  1
  Co  Co13  1  0.103665  0.899552  0.501381  1
  Co  Co14  1  0.397648  0.601813  0.501361  1
  Si  Si15  1  0.289712  0.289845  0.579315  1
  Si  Si16  1  0.709879  0.710001  0.420100  1
  Si  Si17  1  0.298471  0.715855  0.993954  1
  Si  Si18  1  0.695523  0.278100  0.993979  1
  Si  Si19  1  0.091344  0.498354  0.592600  1
  Si  Si20  1  0.902820  0.495286  0.413576  1
  Si  Si21  1  0.510840  0.918227  0.413592  1
  Si  Si22  1  0.501379  0.094240  0.592617  1
  Si  Si23  1  0.250799  0.251330  0.999837  1
  Si  Si24  1  0.749034  0.748512  0.999821  1
  Si  Si25  1  0.305214  0.011798  0.301486  1
  Si  Si26  1  0.700456  0.999639  0.700157  1
  Si  Si27  1  0.999740  0.700511  0.700260  1
  Si  Si28  1  0.996352  0.289700  0.301572  1
  Os  Os29  1  0.102009  0.601981  0.204106  1
