# generated using pymatgen
data_Hf4Co2CuSi4Ir
_symmetry_space_group_name_H-M   'P 1'
_cell_length_a   3.82791000
_cell_length_b   6.47594765
_cell_length_c   7.29987788
_cell_angle_alpha   91.21270733
_cell_angle_beta   90.00000000
_cell_angle_gamma   90.00000000
_symmetry_Int_Tables_number   1
_chemical_formula_structural   Hf4Co2CuSi4Ir
_chemical_formula_sum   'Hf4 Co2 Cu1 Si4 Ir1'
_cell_volume   180.91865731
_cell_formula_units_Z   1
loop_
 _symmetry_equiv_pos_site_id
 _symmetry_equiv_pos_as_xyz
  1  'x, y, z'
loop_
 _atom_site_type_symbol
 _atom_site_label
 _atom_site_symmetry_multiplicity
 _atom_site_fract_x
 _atom_site_fract_y
 _atom_site_fract_z
 _atom_site_occupancy
  Hf  Hf0  1  0.750000  0.481438  0.321650  1
  Hf  Hf1  1  0.250000  0.021433  0.809627  1
  Hf  Hf2  1  0.750000  0.979494  0.191831  1
  Hf  Hf3  1  0.250000  0.512165  0.676882  1
  Co  Co4  1  0.250000  0.141443  0.436331  1
  Co  Co5  1  0.750000  0.859402  0.561235  1
  Cu  Cu6  1  0.250000  0.653824  0.064889  1
  Si  Si7  1  0.250000  0.263580  0.127242  1
  Si  Si8  1  0.250000  0.778808  0.397572  1
  Si  Si9  1  0.750000  0.733408  0.869942  1
  Si  Si10  1  0.750000  0.217075  0.604242  1
  Ir  Ir11  1  0.750000  0.357928  0.938555  1
