# generated using pymatgen
data_Pr3Nd(Si4Tc3)2
_symmetry_space_group_name_H-M   'P 1'
_cell_length_a   8.19203415
_cell_length_b   5.71418870
_cell_length_c   7.05346237
_cell_angle_alpha   76.97809451
_cell_angle_beta   89.97934332
_cell_angle_gamma   90.00163821
_symmetry_Int_Tables_number   1
_chemical_formula_structural   Pr3Nd(Si4Tc3)2
_chemical_formula_sum   'Pr3 Nd1 Si8 Tc6'
_cell_volume   321.68752571
_cell_formula_units_Z   1
loop_
 _symmetry_equiv_pos_site_id
 _symmetry_equiv_pos_as_xyz
  1  'x, y, z'
loop_
 _atom_site_type_symbol
 _atom_site_label
 _atom_site_symmetry_multiplicity
 _atom_site_fract_x
 _atom_site_fract_y
 _atom_site_fract_z
 _atom_site_occupancy
  Pr  Pr0  1  0.930555  0.563227  0.252111  1
  Pr  Pr1  1  0.430616  0.936742  0.747846  1
  Pr  Pr2  1  0.069480  0.436770  0.747859  1
  Nd  Nd3  1  0.569433  0.063450  0.251767  1
  Si  Si4  1  0.587968  0.611001  0.110607  1
  Si  Si5  1  0.088071  0.888949  0.889877  1
  Si  Si6  1  0.412029  0.388555  0.890338  1
  Si  Si7  1  0.911559  0.110979  0.110373  1
  Si  Si8  1  0.751562  0.717968  0.589349  1
  Si  Si9  1  0.252124  0.782789  0.410200  1
  Si  Si10  1  0.248508  0.282305  0.410206  1
  Si  Si11  1  0.748020  0.217267  0.589288  1
  Tc  Tc12  1  0.293393  0.609272  0.122112  1
  Tc  Tc13  1  0.793285  0.890840  0.878193  1
  Tc  Tc14  1  0.706506  0.390540  0.878246  1
  Tc  Tc15  1  0.206840  0.109112  0.122072  1
  Tc  Tc16  1  0.500063  0.500221  0.499553  1
  Tc  Tc17  1  0.999990  0.000013  0.500003  1
