# generated using pymatgen
data_HoEr5(Zr2Sb3)2
_symmetry_space_group_name_H-M   'P 1'
_cell_length_a   8.77955827
_cell_length_b   8.77955881
_cell_length_c   5.97708400
_cell_angle_alpha   90.00004319
_cell_angle_beta   90.00003874
_cell_angle_gamma   120.02841736
_symmetry_Int_Tables_number   1
_chemical_formula_structural   HoEr5(Zr2Sb3)2
_chemical_formula_sum   'Ho1 Er5 Zr4 Sb6'
_cell_volume   398.87876487
_cell_formula_units_Z   1
loop_
 _symmetry_equiv_pos_site_id
 _symmetry_equiv_pos_as_xyz
  1  'x, y, z'
loop_
 _atom_site_type_symbol
 _atom_site_label
 _atom_site_symmetry_multiplicity
 _atom_site_fract_x
 _atom_site_fract_y
 _atom_site_fract_z
 _atom_site_occupancy
  Ho  Ho0  1  0.749289  0.749289  0.749998  1
  Er  Er1  1  0.250926  0.000020  0.750000  1
  Er  Er2  1  0.000020  0.250926  0.750000  1
  Er  Er3  1  0.250761  0.250761  0.250000  1
  Er  Er4  1  0.749128  0.000100  0.249999  1
  Er  Er5  1  0.000100  0.749128  0.249999  1
  Zr  Zr6  1  0.666646  0.333327  0.000002  1
  Zr  Zr7  1  0.333327  0.666646  0.000002  1
  Zr  Zr8  1  0.333321  0.666642  0.499998  1
  Zr  Zr9  1  0.666642  0.333321  0.499998  1
  Sb  Sb10  1  0.391311  0.391311  0.749996  1
  Sb  Sb11  1  0.608381  0.000224  0.750001  1
  Sb  Sb12  1  0.000224  0.608381  0.750001  1
  Sb  Sb13  1  0.608388  0.608388  0.250005  1
  Sb  Sb14  1  0.391539  0.999998  0.250000  1
  Sb  Sb15  1  0.999998  0.391539  0.250000  1
