# generated using pymatgen
data_Ba3Sr2Re3BrO15
_symmetry_space_group_name_H-M   'P 1'
_cell_length_a   10.93077100
_cell_length_b   10.93077130
_cell_length_c   7.85134400
_cell_angle_alpha   90.00000000
_cell_angle_beta   90.00000000
_cell_angle_gamma   119.99999608
_symmetry_Int_Tables_number   1
_chemical_formula_structural   Ba3Sr2Re3BrO15
_chemical_formula_sum   'Ba6 Sr4 Re6 Br2 O30'
_cell_volume   812.41186686
_cell_formula_units_Z   2
loop_
 _symmetry_equiv_pos_site_id
 _symmetry_equiv_pos_as_xyz
  1  'x, y, z'
loop_
 _atom_site_type_symbol
 _atom_site_label
 _atom_site_symmetry_multiplicity
 _atom_site_fract_x
 _atom_site_fract_y
 _atom_site_fract_z
 _atom_site_occupancy
  Ba  Ba0  1  0.733874  0.000000  0.226554  1
  Ba  Ba1  1  0.000000  0.733874  0.226554  1
  Ba  Ba2  1  0.266126  0.000000  0.726554  1
  Ba  Ba3  1  0.000000  0.266126  0.726554  1
  Ba  Ba4  1  0.266126  0.266126  0.226554  1
  Ba  Ba5  1  0.733874  0.733874  0.726554  1
  Sr  Sr6  1  0.333333  0.666667  0.475522  1
  Sr  Sr7  1  0.666667  0.333333  0.975522  1
  Sr  Sr8  1  0.333333  0.666667  0.975522  1
  Sr  Sr9  1  0.666667  0.333333  0.475522  1
  Re  Re10  1  0.392566  0.000000  0.170156  1
  Re  Re11  1  0.000000  0.392566  0.170156  1
  Re  Re12  1  0.607434  0.000000  0.670156  1
  Re  Re13  1  0.000000  0.607434  0.670156  1
  Re  Re14  1  0.607434  0.607434  0.170156  1
  Re  Re15  1  0.392566  0.392566  0.670156  1
  Br  Br16  1  0.000000  0.000000  0.998536  1
  Br  Br17  1  0.000000  0.000000  0.498536  1
  O  O18  1  0.135310  0.580310  0.215295  1
  O  O19  1  0.419690  0.555000  0.215295  1
  O  O20  1  0.864690  0.419690  0.715295  1
  O  O21  1  0.419690  0.864690  0.715295  1
  O  O22  1  0.445000  0.864690  0.215295  1
  O  O23  1  0.580310  0.445000  0.715295  1
  O  O24  1  0.445000  0.580310  0.715295  1
  O  O25  1  0.580310  0.135310  0.215295  1
  O  O26  1  0.555000  0.135310  0.715295  1
  O  O27  1  0.555000  0.419690  0.215295  1
  O  O28  1  0.135310  0.555000  0.715295  1
  O  O29  1  0.864690  0.445000  0.215295  1
  O  O30  1  0.134647  0.394603  0.025337  1
  O  O31  1  0.605397  0.740044  0.025337  1
  O  O32  1  0.865353  0.605397  0.525337  1
  O  O33  1  0.605397  0.865353  0.525337  1
  O  O34  1  0.259956  0.865353  0.025337  1
  O  O35  1  0.394603  0.259956  0.525337  1
  O  O36  1  0.259956  0.394603  0.525337  1
  O  O37  1  0.394603  0.134647  0.025337  1
  O  O38  1  0.740044  0.134647  0.525337  1
  O  O39  1  0.740044  0.605397  0.025337  1
  O  O40  1  0.134647  0.740044  0.525337  1
  O  O41  1  0.865353  0.259956  0.025337  1
  O  O42  1  0.291677  0.000000  0.345033  1
  O  O43  1  0.000000  0.291677  0.345033  1
  O  O44  1  0.708323  0.000000  0.845033  1
  O  O45  1  0.000000  0.708323  0.845033  1
  O  O46  1  0.708323  0.708323  0.345033  1
  O  O47  1  0.291677  0.291677  0.845033  1
