# generated using pymatgen
data_HoEr(B3W)2
_symmetry_space_group_name_H-M   'P 1'
_cell_length_a   3.15951500
_cell_length_b   5.43729494
_cell_length_c   6.80692777
_cell_angle_alpha   78.09013391
_cell_angle_beta   90.00000000
_cell_angle_gamma   90.00000000
_symmetry_Int_Tables_number   1
_chemical_formula_structural   HoEr(B3W)2
_chemical_formula_sum   'Ho1 Er1 B6 W2'
_cell_volume   114.42041179
_cell_formula_units_Z   1
loop_
 _symmetry_equiv_pos_site_id
 _symmetry_equiv_pos_as_xyz
  1  'x, y, z'
loop_
 _atom_site_type_symbol
 _atom_site_label
 _atom_site_symmetry_multiplicity
 _atom_site_fract_x
 _atom_site_fract_y
 _atom_site_fract_z
 _atom_site_occupancy
  Ho  Ho0  1  0.750000  0.675588  0.292340  1
  Er  Er1  1  0.250000  0.322797  0.709505  1
  B  B2  1  0.250000  0.918778  0.524417  1
  B  B3  1  0.750000  0.086444  0.475893  1
  B  B4  1  0.250000  0.911759  0.005008  1
  B  B5  1  0.750000  0.086622  0.994495  1
  B  B6  1  0.250000  0.582420  0.006976  1
  B  B7  1  0.750000  0.416167  0.992149  1
  W  W8  1  0.250000  0.188433  0.219915  1
  W  W9  1  0.750000  0.810993  0.779300  1
