# generated using pymatgen
data_K16PaAlSb8
_symmetry_space_group_name_H-M   'P 1'
_cell_length_a   11.62435571
_cell_length_b   11.62435917
_cell_length_c   11.62434400
_cell_angle_alpha   59.99991987
_cell_angle_beta   60.00000147
_cell_angle_gamma   60.00001763
_symmetry_Int_Tables_number   1
_chemical_formula_structural   K16PaAlSb8
_chemical_formula_sum   'K16 Pa1 Al1 Sb8'
_cell_volume   1110.68566585
_cell_formula_units_Z   1
loop_
 _symmetry_equiv_pos_site_id
 _symmetry_equiv_pos_as_xyz
  1  'x, y, z'
loop_
 _atom_site_type_symbol
 _atom_site_label
 _atom_site_symmetry_multiplicity
 _atom_site_fract_x
 _atom_site_fract_y
 _atom_site_fract_z
 _atom_site_occupancy
  K  K0  1  0.618483  0.144552  0.618483  1
  K  K1  1  0.618481  0.618482  0.144553  1
  K  K2  1  0.144554  0.618482  0.618482  1
  K  K3  1  0.618482  0.618482  0.618482  1
  K  K4  1  0.028828  0.028829  0.471173  1
  K  K5  1  0.775663  0.224337  0.224338  1
  K  K6  1  0.224340  0.775661  0.775661  1
  K  K7  1  0.775661  0.775662  0.224339  1
  K  K8  1  0.775661  0.224338  0.775663  1
  K  K9  1  0.224337  0.775663  0.224338  1
  K  K10  1  0.471171  0.028829  0.471171  1
  K  K11  1  0.471171  0.028829  0.028829  1
  K  K12  1  0.028830  0.471171  0.471170  1
  K  K13  1  0.028828  0.471171  0.028829  1
  K  K14  1  0.224339  0.224339  0.775662  1
  K  K15  1  0.471171  0.471172  0.028828  1
  Pa  Pa16  1  0.749999  0.750000  0.750001  1
  Al  Al17  1  0.500000  0.500001  0.500000  1
  Sb  Sb18  1  0.398962  0.803114  0.398962  1
  Sb  Sb19  1  0.854137  0.854138  0.437588  1
  Sb  Sb20  1  0.437589  0.854137  0.854137  1
  Sb  Sb21  1  0.854137  0.854137  0.854138  1
  Sb  Sb22  1  0.803113  0.398962  0.398962  1
  Sb  Sb23  1  0.398962  0.398962  0.398962  1
  Sb  Sb24  1  0.398962  0.398963  0.803114  1
  Sb  Sb25  1  0.854137  0.437588  0.854138  1
