# generated using pymatgen
data_Y2U(SnRh)3
_symmetry_space_group_name_H-M   'P 1'
_cell_length_a   7.50372496
_cell_length_b   7.63276081
_cell_length_c   3.88595800
_cell_angle_alpha   90.00000000
_cell_angle_beta   90.00000000
_cell_angle_gamma   120.57048784
_symmetry_Int_Tables_number   1
_chemical_formula_structural   Y2U(SnRh)3
_chemical_formula_sum   'Y2 U1 Sn3 Rh3'
_cell_volume   191.62928901
_cell_formula_units_Z   1
loop_
 _symmetry_equiv_pos_site_id
 _symmetry_equiv_pos_as_xyz
  1  'x, y, z'
loop_
 _atom_site_type_symbol
 _atom_site_label
 _atom_site_symmetry_multiplicity
 _atom_site_fract_x
 _atom_site_fract_y
 _atom_site_fract_z
 _atom_site_occupancy
  Y  Y0  1  0.405862  0.406096  0.500000  1
  Y  Y1  1  0.594138  0.000234  0.500000  1
  U  U2  1  0.000000  0.584788  0.500000  1
  Sn  Sn3  1  0.728031  0.741614  0.000000  1
  Sn  Sn4  1  0.271969  0.013582  0.000000  1
  Sn  Sn5  1  0.000000  0.243973  0.000000  1
  Rh  Rh6  1  0.700789  0.363931  0.000000  1
  Rh  Rh7  1  0.299211  0.663143  0.000000  1
  Rh  Rh8  1  0.000000  0.982638  0.500000  1
