# generated using pymatgen
data_Tm4MoOs2Ru5
_symmetry_space_group_name_H-M   'P 1'
_cell_length_a   5.47020100
_cell_length_b   5.19865778
_cell_length_c   8.99520400
_cell_angle_alpha   90.00000000
_cell_angle_beta   90.00000000
_cell_angle_gamma   122.46360326
_symmetry_Int_Tables_number   1
_chemical_formula_structural   Tm4MoOs2Ru5
_chemical_formula_sum   'Tm4 Mo1 Os2 Ru5'
_cell_volume   215.82927714
_cell_formula_units_Z   1
loop_
 _symmetry_equiv_pos_site_id
 _symmetry_equiv_pos_as_xyz
  1  'x, y, z'
loop_
 _atom_site_type_symbol
 _atom_site_label
 _atom_site_symmetry_multiplicity
 _atom_site_fract_x
 _atom_site_fract_y
 _atom_site_fract_z
 _atom_site_occupancy
  Tm  Tm0  1  0.334406  0.666532  0.431712  1
  Tm  Tm1  1  0.670592  0.343683  0.563502  1
  Tm  Tm2  1  0.670592  0.343683  0.936498  1
  Tm  Tm3  1  0.334406  0.666532  0.068288  1
  Mo  Mo4  1  0.162979  0.327726  0.750000  1
  Os  Os5  1  0.332783  0.166995  0.250000  1
  Os  Os6  1  0.823390  0.651549  0.250000  1
  Ru  Ru7  1  0.169531  0.821184  0.750000  1
  Ru  Ru8  1  0.652193  0.820452  0.750000  1
  Ru  Ru9  1  0.010560  0.011946  0.001217  1
  Ru  Ru10  1  0.828007  0.167773  0.250000  1
  Ru  Ru11  1  0.010560  0.011946  0.498783  1
