# generated using pymatgen
data_Na4Al7(InSe4)5
_symmetry_space_group_name_H-M   'P 1'
_cell_length_a   9.98217959
_cell_length_b   10.01848739
_cell_length_c   10.04709300
_cell_angle_alpha   91.56069786
_cell_angle_beta   91.24712884
_cell_angle_gamma   90.98120697
_symmetry_Int_Tables_number   1
_chemical_formula_structural   Na4Al7(InSe4)5
_chemical_formula_sum   'Na4 Al7 In5 Se20'
_cell_volume   1004.00453278
_cell_formula_units_Z   1
loop_
 _symmetry_equiv_pos_site_id
 _symmetry_equiv_pos_as_xyz
  1  'x, y, z'
loop_
 _atom_site_type_symbol
 _atom_site_label
 _atom_site_symmetry_multiplicity
 _atom_site_fract_x
 _atom_site_fract_y
 _atom_site_fract_z
 _atom_site_occupancy
  Na  Na0  1  0.255687  0.001536  0.746888  1
  Na  Na1  1  0.741656  0.253998  0.999932  1
  Na  Na2  1  0.999875  0.744699  0.255158  1
  Na  Na3  1  0.500043  0.498750  0.497696  1
  Al  Al4  1  0.426592  0.115977  0.164562  1
  Al  Al5  1  0.732840  0.163806  0.351529  1
  Al  Al6  1  0.352129  0.739053  0.165157  1
  Al  Al7  1  0.167926  0.353081  0.735777  1
  Al  Al8  1  0.264050  0.647340  0.831850  1
  Al  Al9  1  0.832573  0.264530  0.645219  1
  Al  Al10  1  0.647910  0.834710  0.261310  1
  In  In11  1  0.839197  0.882220  0.575763  1
  In  In12  1  0.573494  0.841164  0.885938  1
  In  In13  1  0.881580  0.575614  0.840849  1
  In  In14  1  0.165750  0.424083  0.118088  1
  In  In15  1  0.120459  0.159361  0.422632  1
  Se  Se16  1  0.192581  0.802990  0.999095  1
  Se  Se17  1  0.808688  0.998379  0.195818  1
  Se  Se18  1  0.183335  0.162395  0.164306  1
  Se  Se19  1  0.835691  0.838303  0.837441  1
  Se  Se20  1  0.000013  0.196720  0.802431  1
  Se  Se21  1  0.917029  0.496872  0.085044  1
  Se  Se22  1  0.085815  0.914683  0.500114  1
  Se  Se23  1  0.491536  0.083762  0.936218  1
  Se  Se24  1  0.736444  0.690510  0.423174  1
  Se  Se25  1  0.424197  0.743222  0.689808  1
  Se  Se26  1  0.687532  0.424895  0.739200  1
  Se  Se27  1  0.261435  0.580566  0.311356  1
  Se  Se28  1  0.312802  0.259847  0.576094  1
  Se  Se29  1  0.562504  0.297463  0.257894  1
  Se  Se30  1  0.672402  0.085947  0.573103  1
  Se  Se31  1  0.573255  0.672586  0.085641  1
  Se  Se32  1  0.084536  0.572891  0.673439  1
  Se  Se33  1  0.328747  0.427662  0.912823  1
  Se  Se34  1  0.912483  0.323734  0.423511  1
  Se  Se35  1  0.427216  0.926652  0.315143  1
