# generated using pymatgen
data_Sm8Tc3OsC8
_symmetry_space_group_name_H-M   'P 1'
_cell_length_a   5.25896600
_cell_length_b   6.64579341
_cell_length_c   10.05482800
_cell_angle_alpha   89.83174288
_cell_angle_beta   90.00000000
_cell_angle_gamma   90.00000000
_symmetry_Int_Tables_number   1
_chemical_formula_structural   Sm8Tc3OsC8
_chemical_formula_sum   'Sm8 Tc3 Os1 C8'
_cell_volume   351.41473941
_cell_formula_units_Z   1
loop_
 _symmetry_equiv_pos_site_id
 _symmetry_equiv_pos_as_xyz
  1  'x, y, z'
loop_
 _atom_site_type_symbol
 _atom_site_label
 _atom_site_symmetry_multiplicity
 _atom_site_fract_x
 _atom_site_fract_y
 _atom_site_fract_z
 _atom_site_occupancy
  Sm  Sm0  1  0.250000  0.681804  0.553367  1
  Sm  Sm1  1  0.750000  0.317238  0.446474  1
  Sm  Sm2  1  0.750000  0.817663  0.053804  1
  Sm  Sm3  1  0.250000  0.181787  0.946582  1
  Sm  Sm4  1  0.250000  0.527558  0.213652  1
  Sm  Sm5  1  0.750000  0.470287  0.787496  1
  Sm  Sm6  1  0.750000  0.972124  0.710780  1
  Sm  Sm7  1  0.250000  0.027641  0.287470  1
  Tc  Tc8  1  0.250000  0.725501  0.859963  1
  Tc  Tc9  1  0.750000  0.275303  0.138821  1
  Tc  Tc10  1  0.750000  0.774658  0.361514  1
  Os  Os11  1  0.250000  0.225523  0.639768  1
  C  C12  1  0.250000  0.459162  0.757646  1
  C  C13  1  0.750000  0.540914  0.242149  1
  C  C14  1  0.750000  0.040940  0.258610  1
  C  C15  1  0.250000  0.961657  0.741328  1
  C  C16  1  0.250000  0.815751  0.040953  1
  C  C17  1  0.750000  0.184100  0.957594  1
  C  C18  1  0.750000  0.683766  0.543478  1
  C  C19  1  0.250000  0.316623  0.458551  1
