# generated using pymatgen
data_NaNd2Ge3P3Pd20
_symmetry_space_group_name_H-M   'P 1'
_cell_length_a   8.83066966
_cell_length_b   8.80227041
_cell_length_c   8.75313478
_cell_angle_alpha   60.39885553
_cell_angle_beta   60.07611801
_cell_angle_gamma   59.52504657
_symmetry_Int_Tables_number   1
_chemical_formula_structural   NaNd2Ge3P3Pd20
_chemical_formula_sum   'Na1 Nd2 Ge3 P3 Pd20'
_cell_volume   481.04475468
_cell_formula_units_Z   1
loop_
 _symmetry_equiv_pos_site_id
 _symmetry_equiv_pos_as_xyz
  1  'x, y, z'
loop_
 _atom_site_type_symbol
 _atom_site_label
 _atom_site_symmetry_multiplicity
 _atom_site_fract_x
 _atom_site_fract_y
 _atom_site_fract_z
 _atom_site_occupancy
  Na  Na0  1  0.998984  0.001016  0.998984  1
  Nd  Nd1  1  0.251460  0.248540  0.251460  1
  Nd  Nd2  1  0.751460  0.748540  0.751460  1
  Ge  Ge3  1  0.737359  0.262641  0.737359  1
  Ge  Ge4  1  0.263701  0.260261  0.739739  1
  Ge  Ge5  1  0.739739  0.736299  0.263701  1
  P  P6  1  0.739025  0.260975  0.263706  1
  P  P7  1  0.263706  0.736294  0.739025  1
  P  P8  1  0.262843  0.737157  0.262843  1
  Pd  Pd9  1  0.346229  0.990290  0.009710  1
  Pd  Pd10  1  0.648239  0.000961  0.999039  1
  Pd  Pd11  1  0.999039  0.351761  0.648239  1
  Pd  Pd12  1  0.009710  0.653771  0.346229  1
  Pd  Pd13  1  0.989102  0.348840  0.008153  1
  Pd  Pd14  1  0.651160  0.010898  0.346094  1
  Pd  Pd15  1  0.008153  0.653906  0.989102  1
  Pd  Pd16  1  0.346094  0.991847  0.651160  1
  Pd  Pd17  1  0.999388  0.000612  0.343311  1
  Pd  Pd18  1  0.008397  0.991603  0.652333  1
  Pd  Pd19  1  0.652333  0.347667  0.008397  1
  Pd  Pd20  1  0.343311  0.656689  0.999388  1
  Pd  Pd21  1  0.388297  0.389715  0.380010  1
  Pd  Pd22  1  0.608367  0.618120  0.618608  1
  Pd  Pd23  1  0.381880  0.391633  0.845095  1
  Pd  Pd24  1  0.380010  0.841976  0.388297  1
  Pd  Pd25  1  0.610285  0.611703  0.158024  1
  Pd  Pd26  1  0.618608  0.154905  0.608367  1
  Pd  Pd27  1  0.845095  0.381392  0.381880  1
  Pd  Pd28  1  0.158024  0.619990  0.610285  1
