# generated using pymatgen
data_U4Pa4Re(B8Mo)3
_symmetry_space_group_name_H-M   'P 1'
_cell_length_a   3.72126800
_cell_length_b   9.31165901
_cell_length_c   11.40386602
_cell_angle_alpha   89.99366587
_cell_angle_beta   90.00000000
_cell_angle_gamma   90.00000000
_symmetry_Int_Tables_number   1
_chemical_formula_structural   U4Pa4Re(B8Mo)3
_chemical_formula_sum   'U4 Pa4 Re1 B24 Mo3'
_cell_volume   395.15739701
_cell_formula_units_Z   1
loop_
 _symmetry_equiv_pos_site_id
 _symmetry_equiv_pos_as_xyz
  1  'x, y, z'
loop_
 _atom_site_type_symbol
 _atom_site_label
 _atom_site_symmetry_multiplicity
 _atom_site_fract_x
 _atom_site_fract_y
 _atom_site_fract_z
 _atom_site_occupancy
  U  U0  1  0.000000  0.956168  0.395576  1
  U  U1  1  0.000000  0.044552  0.604220  1
  U  U2  1  0.000000  0.456612  0.104716  1
  U  U3  1  0.000000  0.542788  0.895431  1
  Pa  Pa4  1  0.000000  0.334713  0.407327  1
  Pa  Pa5  1  0.000000  0.664781  0.591672  1
  Pa  Pa6  1  0.000000  0.834745  0.093116  1
  Pa  Pa7  1  0.000000  0.165718  0.907973  1
  Re  Re8  1  0.000000  0.854007  0.819434  1
  B  B9  1  0.500000  0.551079  0.432176  1
  B  B10  1  0.500000  0.449128  0.567940  1
  B  B11  1  0.500000  0.050608  0.067593  1
  B  B12  1  0.500000  0.948659  0.931406  1
  B  B13  1  0.500000  0.744276  0.423629  1
  B  B14  1  0.500000  0.255673  0.576555  1
  B  B15  1  0.500000  0.244269  0.076442  1
  B  B16  1  0.500000  0.756056  0.922782  1
  B  B17  1  0.500000  0.803726  0.273967  1
  B  B18  1  0.500000  0.195863  0.726267  1
  B  B19  1  0.500000  0.303574  0.225963  1
  B  B20  1  0.500000  0.697015  0.774107  1
  B  B21  1  0.500000  0.644467  0.187687  1
  B  B22  1  0.500000  0.355571  0.812401  1
  B  B23  1  0.500000  0.144288  0.312042  1
  B  B24  1  0.500000  0.855907  0.688493  1
  B  B25  1  0.500000  0.987168  0.219457  1
  B  B26  1  0.500000  0.011869  0.780998  1
  B  B27  1  0.500000  0.487442  0.280394  1
  B  B28  1  0.500000  0.513131  0.719528  1
  B  B29  1  0.500000  0.640773  0.038453  1
  B  B30  1  0.500000  0.359659  0.961247  1
  B  B31  1  0.500000  0.140275  0.461100  1
  B  B32  1  0.500000  0.859721  0.539386  1
  Mo  Mo33  1  0.000000  0.646074  0.319396  1
  Mo  Mo34  1  0.000000  0.353956  0.680936  1
  Mo  Mo35  1  0.000000  0.145692  0.180191  1
