# generated using pymatgen
data_Tb2DySiAg3Ge2
_symmetry_space_group_name_H-M   'P 1'
_cell_length_a   7.17550926
_cell_length_b   7.18044131
_cell_length_c   4.21117900
_cell_angle_alpha   90.00000000
_cell_angle_beta   90.00000000
_cell_angle_gamma   120.04026689
_symmetry_Int_Tables_number   1
_chemical_formula_structural   Tb2DySiAg3Ge2
_chemical_formula_sum   'Tb2 Dy1 Si1 Ag3 Ge2'
_cell_volume   187.82865085
_cell_formula_units_Z   1
loop_
 _symmetry_equiv_pos_site_id
 _symmetry_equiv_pos_as_xyz
  1  'x, y, z'
loop_
 _atom_site_type_symbol
 _atom_site_label
 _atom_site_symmetry_multiplicity
 _atom_site_fract_x
 _atom_site_fract_y
 _atom_site_fract_z
 _atom_site_occupancy
  Tb  Tb0  1  0.415485  0.417414  0.500000  1
  Tb  Tb1  1  0.582802  0.998323  0.500000  1
  Dy  Dy2  1  0.001774  0.584758  0.500000  1
  Si  Si3  1  0.332522  0.666363  0.000000  1
  Ag  Ag4  1  0.743443  0.748106  0.000000  1
  Ag  Ag5  1  0.251632  0.994754  0.000000  1
  Ag  Ag6  1  0.004964  0.257118  0.000000  1
  Ge  Ge7  1  0.667418  0.333779  0.000000  1
  Ge  Ge8  1  0.999959  0.999384  0.500000  1
