# generated using pymatgen
data_YbYHo2(B6Ru)2
_symmetry_space_group_name_H-M   'P 1'
_cell_length_a   3.65007700
_cell_length_b   9.13244511
_cell_length_c   11.52589101
_cell_angle_alpha   89.81528109
_cell_angle_beta   90.00000000
_cell_angle_gamma   90.00000000
_symmetry_Int_Tables_number   1
_chemical_formula_structural   YbYHo2(B6Ru)2
_chemical_formula_sum   'Yb2 Y2 Ho4 B24 Ru4'
_cell_volume   384.20352796
_cell_formula_units_Z   2
loop_
 _symmetry_equiv_pos_site_id
 _symmetry_equiv_pos_as_xyz
  1  'x, y, z'
loop_
 _atom_site_type_symbol
 _atom_site_label
 _atom_site_symmetry_multiplicity
 _atom_site_fract_x
 _atom_site_fract_y
 _atom_site_fract_z
 _atom_site_occupancy
  Yb  Yb0  1  0.000000  0.325145  0.414925  1
  Yb  Yb1  1  0.000000  0.674855  0.585075  1
  Y  Y2  1  0.000000  0.822439  0.086115  1
  Y  Y3  1  0.000000  0.177561  0.913885  1
  Ho  Ho4  1  0.000000  0.941767  0.369827  1
  Ho  Ho5  1  0.000000  0.058233  0.630173  1
  Ho  Ho6  1  0.000000  0.442530  0.131189  1
  Ho  Ho7  1  0.000000  0.557470  0.868811  1
  B  B8  1  0.500000  0.554288  0.432418  1
  B  B9  1  0.500000  0.445712  0.567582  1
  B  B10  1  0.500000  0.053902  0.066979  1
  B  B11  1  0.500000  0.946098  0.933021  1
  B  B12  1  0.500000  0.747755  0.417949  1
  B  B13  1  0.500000  0.252245  0.582051  1
  B  B14  1  0.500000  0.248214  0.081481  1
  B  B15  1  0.500000  0.751786  0.918519  1
  B  B16  1  0.500000  0.790830  0.265030  1
  B  B17  1  0.500000  0.209170  0.734970  1
  B  B18  1  0.500000  0.289785  0.234482  1
  B  B19  1  0.500000  0.710215  0.765518  1
  B  B20  1  0.500000  0.631264  0.185491  1
  B  B21  1  0.500000  0.368736  0.814509  1
  B  B22  1  0.500000  0.130874  0.313929  1
  B  B23  1  0.500000  0.869126  0.686071  1
  B  B24  1  0.500000  0.983554  0.211721  1
  B  B25  1  0.500000  0.016446  0.788279  1
  B  B26  1  0.500000  0.484072  0.288353  1
  B  B27  1  0.500000  0.515928  0.711647  1
  B  B28  1  0.500000  0.603532  0.028489  1
  B  B29  1  0.500000  0.396468  0.971511  1
  B  B30  1  0.500000  0.099874  0.472319  1
  B  B31  1  0.500000  0.900126  0.527681  1
  Ru  Ru32  1  0.000000  0.639749  0.319115  1
  Ru  Ru33  1  0.000000  0.360251  0.680885  1
  Ru  Ru34  1  0.000000  0.137090  0.178286  1
  Ru  Ru35  1  0.000000  0.862910  0.821714  1
