# generated using pymatgen
data_PrInSn3Rh2
_symmetry_space_group_name_H-M   'P 1'
_cell_length_a   4.57720900
_cell_length_b   7.17466400
_cell_length_c   18.73888800
_cell_angle_alpha   90.00000000
_cell_angle_beta   90.00000000
_cell_angle_gamma   90.00000000
_symmetry_Int_Tables_number   1
_chemical_formula_structural   PrInSn3Rh2
_chemical_formula_sum   'Pr4 In4 Sn12 Rh8'
_cell_volume   615.38389449
_cell_formula_units_Z   4
loop_
 _symmetry_equiv_pos_site_id
 _symmetry_equiv_pos_as_xyz
  1  'x, y, z'
loop_
 _atom_site_type_symbol
 _atom_site_label
 _atom_site_symmetry_multiplicity
 _atom_site_fract_x
 _atom_site_fract_y
 _atom_site_fract_z
 _atom_site_occupancy
  Pr  Pr0  1  0.250000  0.999727  0.858494  1
  Pr  Pr1  1  0.250000  0.500273  0.358494  1
  Pr  Pr2  1  0.750000  0.000273  0.141506  1
  Pr  Pr3  1  0.750000  0.499727  0.641506  1
  In  In4  1  0.250000  0.307502  0.180337  1
  In  In5  1  0.250000  0.192498  0.680337  1
  In  In6  1  0.750000  0.692498  0.819663  1
  In  In7  1  0.750000  0.807502  0.319663  1
  Sn  Sn8  1  0.250000  0.724624  0.198189  1
  Sn  Sn9  1  0.250000  0.775376  0.698189  1
  Sn  Sn10  1  0.750000  0.275376  0.801811  1
  Sn  Sn11  1  0.750000  0.224624  0.301811  1
  Sn  Sn12  1  0.250000  0.865773  0.033028  1
  Sn  Sn13  1  0.250000  0.634227  0.533028  1
  Sn  Sn14  1  0.750000  0.134227  0.966972  1
  Sn  Sn15  1  0.750000  0.365773  0.466972  1
  Sn  Sn16  1  0.250000  0.525020  0.929245  1
  Sn  Sn17  1  0.250000  0.974980  0.429245  1
  Sn  Sn18  1  0.750000  0.474980  0.070755  1
  Sn  Sn19  1  0.750000  0.025020  0.570755  1
  Rh  Rh20  1  0.250000  0.253790  0.031667  1
  Rh  Rh21  1  0.250000  0.246210  0.531667  1
  Rh  Rh22  1  0.750000  0.746210  0.968333  1
  Rh  Rh23  1  0.750000  0.753790  0.468333  1
  Rh  Rh24  1  0.250000  0.026624  0.285125  1
  Rh  Rh25  1  0.250000  0.473376  0.785125  1
  Rh  Rh26  1  0.750000  0.973376  0.714875  1
  Rh  Rh27  1  0.750000  0.526624  0.214875  1
