# generated using pymatgen
data_Er3Ga3Sn2
_symmetry_space_group_name_H-M   'P 1'
_cell_length_a   6.19708274
_cell_length_b   6.19708313
_cell_length_c   9.76132000
_cell_angle_alpha   90.00000000
_cell_angle_beta   90.00000000
_cell_angle_gamma   103.64518551
_symmetry_Int_Tables_number   1
_chemical_formula_structural   Er3Ga3Sn2
_chemical_formula_sum   'Er6 Ga6 Sn4'
_cell_volume   364.29147168
_cell_formula_units_Z   2
loop_
 _symmetry_equiv_pos_site_id
 _symmetry_equiv_pos_as_xyz
  1  'x, y, z'
loop_
 _atom_site_type_symbol
 _atom_site_label
 _atom_site_symmetry_multiplicity
 _atom_site_fract_x
 _atom_site_fract_y
 _atom_site_fract_z
 _atom_site_occupancy
  Er  Er0  1  0.641489  0.641489  0.250000  1
  Er  Er1  1  0.358511  0.358511  0.750000  1
  Er  Er2  1  0.194548  0.805452  0.500000  1
  Er  Er3  1  0.194548  0.805452  0.000000  1
  Er  Er4  1  0.805452  0.194548  0.500000  1
  Er  Er5  1  0.805452  0.194548  0.000000  1
  Ga  Ga6  1  0.026099  0.026099  0.250000  1
  Ga  Ga7  1  0.973901  0.973901  0.750000  1
  Ga  Ga8  1  0.312160  0.312160  0.043324  1
  Ga  Ga9  1  0.687840  0.687840  0.956676  1
  Ga  Ga10  1  0.312160  0.312160  0.456676  1
  Ga  Ga11  1  0.687840  0.687840  0.543324  1
  Sn  Sn12  1  0.493622  0.085403  0.250000  1
  Sn  Sn13  1  0.914597  0.506378  0.750000  1
  Sn  Sn14  1  0.506378  0.914597  0.750000  1
  Sn  Sn15  1  0.085403  0.493622  0.250000  1
