# generated using pymatgen
data_PrNdU(SnIr)3
_symmetry_space_group_name_H-M   'P 1'
_cell_length_a   7.65340906
_cell_length_b   7.55674768
_cell_length_c   4.02696700
_cell_angle_alpha   90.00000000
_cell_angle_beta   90.00000000
_cell_angle_gamma   120.41019932
_symmetry_Int_Tables_number   1
_chemical_formula_structural   PrNdU(SnIr)3
_chemical_formula_sum   'Pr1 Nd1 U1 Sn3 Ir3'
_cell_volume   200.85772448
_cell_formula_units_Z   1
loop_
 _symmetry_equiv_pos_site_id
 _symmetry_equiv_pos_as_xyz
  1  'x, y, z'
loop_
 _atom_site_type_symbol
 _atom_site_label
 _atom_site_symmetry_multiplicity
 _atom_site_fract_x
 _atom_site_fract_y
 _atom_site_fract_z
 _atom_site_occupancy
  Pr  Pr0  1  0.000571  0.590377  0.000000  1
  Nd  Nd1  1  0.409885  0.409249  0.000000  1
  U  U2  1  0.585564  0.999942  0.000000  1
  Sn  Sn3  1  0.242031  0.000764  0.500000  1
  Sn  Sn4  1  0.009261  0.262259  0.500000  1
  Sn  Sn5  1  0.746060  0.737253  0.500000  1
  Ir  Ir6  1  0.368259  0.707512  0.500000  1
  Ir  Ir7  1  0.659692  0.292044  0.500000  1
  Ir  Ir8  1  0.978674  0.000599  0.000000  1
