# generated using pymatgen
data_Er2TmMgCd2Ga3
_symmetry_space_group_name_H-M   'P 1'
_cell_length_a   7.21026800
_cell_length_b   7.19899767
_cell_length_c   4.40830400
_cell_angle_alpha   90.00000000
_cell_angle_beta   90.00000000
_cell_angle_gamma   120.05180123
_symmetry_Int_Tables_number   1
_chemical_formula_structural   Er2TmMgCd2Ga3
_chemical_formula_sum   'Er2 Tm1 Mg1 Cd2 Ga3'
_cell_volume   198.06086744
_cell_formula_units_Z   1
loop_
 _symmetry_equiv_pos_site_id
 _symmetry_equiv_pos_as_xyz
  1  'x, y, z'
loop_
 _atom_site_type_symbol
 _atom_site_label
 _atom_site_symmetry_multiplicity
 _atom_site_fract_x
 _atom_site_fract_y
 _atom_site_fract_z
 _atom_site_occupancy
  Er  Er0  1  0.999436  0.571096  0.000000  1
  Er  Er1  1  0.428340  0.428904  0.000000  1
  Tm  Tm2  1  0.573874  0.000000  0.000000  1
  Mg  Mg3  1  0.241282  0.000000  0.500000  1
  Cd  Cd4  1  0.001271  0.248530  0.500000  1
  Cd  Cd5  1  0.752742  0.751470  0.500000  1
  Ga  Ga6  1  0.663348  0.328575  0.500000  1
  Ga  Ga7  1  0.334772  0.671425  0.500000  1
  Ga  Ga8  1  0.004937  0.000000  0.000000  1
