# generated using pymatgen
data_Ca10ZnCd(SbN)4
_symmetry_space_group_name_H-M   'P 1'
_cell_length_a   6.98049000
_cell_length_b   6.97731900
_cell_length_c   9.10683200
_cell_angle_alpha   90.00000000
_cell_angle_beta   90.00000000
_cell_angle_gamma   90.00011494
_symmetry_Int_Tables_number   1
_chemical_formula_structural   Ca10ZnCd(SbN)4
_chemical_formula_sum   'Ca10 Zn1 Cd1 Sb4 N4'
_cell_volume   443.54921339
_cell_formula_units_Z   1
loop_
 _symmetry_equiv_pos_site_id
 _symmetry_equiv_pos_as_xyz
  1  'x, y, z'
loop_
 _atom_site_type_symbol
 _atom_site_label
 _atom_site_symmetry_multiplicity
 _atom_site_fract_x
 _atom_site_fract_y
 _atom_site_fract_z
 _atom_site_occupancy
  Ca  Ca0  1  0.750044  0.751005  0.987083  1
  Ca  Ca1  1  0.748956  0.250107  0.512915  1
  Ca  Ca2  1  0.249931  0.249002  0.524577  1
  Ca  Ca3  1  0.250975  0.749994  0.975421  1
  Ca  Ca4  1  0.249931  0.249002  0.975423  1
  Ca  Ca5  1  0.250975  0.749994  0.524579  1
  Ca  Ca6  1  0.750044  0.751005  0.512917  1
  Ca  Ca7  1  0.748956  0.250107  0.987085  1
  Ca  Ca8  1  0.489588  0.999991  0.250000  1
  Ca  Ca9  1  0.010977  0.499988  0.250000  1
  Zn  Zn10  1  0.515807  0.999975  0.750000  1
  Cd  Cd11  1  0.984373  0.499997  0.750000  1
  Sb  Sb12  1  0.499166  0.499869  0.250000  1
  Sb  Sb13  1  0.001057  0.999895  0.250000  1
  Sb  Sb14  1  0.507272  0.500016  0.750000  1
  Sb  Sb15  1  0.990327  0.000030  0.750000  1
  N  N16  1  0.001232  0.500006  0.993278  1
  N  N17  1  0.499578  0.000005  0.523415  1
  N  N18  1  0.001232  0.500006  0.506722  1
  N  N19  1  0.499578  0.000005  0.976585  1
