# generated using pymatgen
data_Hf2ZrCo6(B2Ir)3
_symmetry_space_group_name_H-M   'P 1'
_cell_length_a   5.84703050
_cell_length_b   5.84702958
_cell_length_c   5.84703045
_cell_angle_alpha   95.25998342
_cell_angle_beta   95.25998090
_cell_angle_gamma   95.25996331
_symmetry_Int_Tables_number   1
_chemical_formula_structural   Hf2ZrCo6(B2Ir)3
_chemical_formula_sum   'Hf2 Zr1 Co6 B6 Ir3'
_cell_volume   197.20474235
_cell_formula_units_Z   1
loop_
 _symmetry_equiv_pos_site_id
 _symmetry_equiv_pos_as_xyz
  1  'x, y, z'
loop_
 _atom_site_type_symbol
 _atom_site_label
 _atom_site_symmetry_multiplicity
 _atom_site_fract_x
 _atom_site_fract_y
 _atom_site_fract_z
 _atom_site_occupancy
  Hf  Hf0  1  0.999880  0.999880  0.999880  1
  Hf  Hf1  1  0.332745  0.332745  0.332745  1
  Zr  Zr2  1  0.667304  0.667304  0.667304  1
  Co  Co3  1  0.692135  0.208130  0.692135  1
  Co  Co4  1  0.692135  0.692135  0.208130  1
  Co  Co5  1  0.208130  0.692135  0.692135  1
  Co  Co6  1  0.308712  0.790038  0.308712  1
  Co  Co7  1  0.308712  0.308712  0.790038  1
  Co  Co8  1  0.790038  0.308712  0.308712  1
  B  B9  1  0.384545  0.000379  0.614754  1
  B  B10  1  0.614754  0.384545  0.000379  1
  B  B11  1  0.000379  0.614754  0.384545  1
  B  B12  1  0.614754  0.000379  0.384545  1
  B  B13  1  0.384545  0.614754  0.000379  1
  B  B14  1  0.000379  0.384545  0.614754  1
  Ir  Ir15  1  0.498350  0.001252  0.001252  1
  Ir  Ir16  1  0.001252  0.498350  0.001252  1
  Ir  Ir17  1  0.001252  0.001252  0.498350  1
