# generated using pymatgen
data_YTh3(InAu2)2
_symmetry_space_group_name_H-M   'P 1'
_cell_length_a   8.04721427
_cell_length_b   8.04721427
_cell_length_c   3.94105000
_cell_angle_alpha   90.00000000
_cell_angle_beta   90.00000000
_cell_angle_gamma   90.06436437
_symmetry_Int_Tables_number   1
_chemical_formula_structural   YTh3(InAu2)2
_chemical_formula_sum   'Y1 Th3 In2 Au4'
_cell_volume   255.21300505
_cell_formula_units_Z   1
loop_
 _symmetry_equiv_pos_site_id
 _symmetry_equiv_pos_as_xyz
  1  'x, y, z'
loop_
 _atom_site_type_symbol
 _atom_site_label
 _atom_site_symmetry_multiplicity
 _atom_site_fract_x
 _atom_site_fract_y
 _atom_site_fract_z
 _atom_site_occupancy
  Y  Y0  1  0.824506  0.675494  0.500000  1
  Th  Th1  1  0.677176  0.173377  0.500000  1
  Th  Th2  1  0.326623  0.822824  0.500000  1
  Th  Th3  1  0.172323  0.327677  0.500000  1
  In  In4  1  0.503592  0.501984  0.000000  1
  In  In5  1  0.998016  0.996408  0.000000  1
  Au  Au6  1  0.123350  0.628555  0.000000  1
  Au  Au7  1  0.871445  0.376650  0.000000  1
  Au  Au8  1  0.629570  0.870430  0.000000  1
  Au  Au9  1  0.373398  0.126602  0.000000  1
