# generated using pymatgen
data_AlV6SnH4
_symmetry_space_group_name_H-M   'P 1'
_cell_length_a   5.00798498
_cell_length_b   5.02865064
_cell_length_c   5.02787300
_cell_angle_alpha   90.00000000
_cell_angle_beta   90.00000000
_cell_angle_gamma   90.13606654
_symmetry_Int_Tables_number   1
_chemical_formula_structural   AlV6SnH4
_chemical_formula_sum   'Al1 V6 Sn1 H4'
_cell_volume   126.61861449
_cell_formula_units_Z   1
loop_
 _symmetry_equiv_pos_site_id
 _symmetry_equiv_pos_as_xyz
  1  'x, y, z'
loop_
 _atom_site_type_symbol
 _atom_site_label
 _atom_site_symmetry_multiplicity
 _atom_site_fract_x
 _atom_site_fract_y
 _atom_site_fract_z
 _atom_site_occupancy
  Al  Al0  1  0.498476  0.001519  0.250000  1
  V  V1  1  0.735592  0.988567  0.750000  1
  V  V2  1  0.988435  0.748238  0.250000  1
  V  V3  1  0.510705  0.508978  0.491573  1
  V  V4  1  0.261120  0.991854  0.750000  1
  V  V5  1  0.990705  0.250883  0.250000  1
  V  V6  1  0.510705  0.508978  0.008427  1
  Sn  Sn7  1  0.004136  0.497148  0.750000  1
  H  H8  1  0.000191  0.999689  0.500827  1
  H  H9  1  0.249134  0.499427  0.250000  1
  H  H10  1  0.500611  0.255031  0.750000  1
  H  H11  1  0.000191  0.999689  0.999173  1
