# generated using pymatgen
data_Dy20Ir5RuPt6
_symmetry_space_group_name_H-M   'P 1'
_cell_length_a   10.99859712
_cell_length_b   10.99621113
_cell_length_c   6.35166910
_cell_angle_alpha   90.01506463
_cell_angle_beta   90.01349102
_cell_angle_gamma   90.00946555
_symmetry_Int_Tables_number   1
_chemical_formula_structural   Dy20Ir5RuPt6
_chemical_formula_sum   'Dy20 Ir5 Ru1 Pt6'
_cell_volume   768.18919708
_cell_formula_units_Z   1
loop_
 _symmetry_equiv_pos_site_id
 _symmetry_equiv_pos_as_xyz
  1  'x, y, z'
loop_
 _atom_site_type_symbol
 _atom_site_label
 _atom_site_symmetry_multiplicity
 _atom_site_fract_x
 _atom_site_fract_y
 _atom_site_fract_z
 _atom_site_occupancy
  Dy  Dy0  1  0.296126  0.089630  0.373731  1
  Dy  Dy1  1  0.296493  0.910386  0.875932  1
  Dy  Dy2  1  0.703665  0.086550  0.876240  1
  Dy  Dy3  1  0.703926  0.913327  0.373467  1
  Dy  Dy4  1  0.584203  0.794272  0.876400  1
  Dy  Dy5  1  0.584188  0.205932  0.373922  1
  Dy  Dy6  1  0.411744  0.793993  0.378703  1
  Dy  Dy7  1  0.411716  0.205799  0.880761  1
  Dy  Dy8  1  0.209186  0.413284  0.621701  1
  Dy  Dy9  1  0.208899  0.586577  0.121614  1
  Dy  Dy10  1  0.794877  0.412040  0.123512  1
  Dy  Dy11  1  0.794633  0.588093  0.623716  1
  Dy  Dy12  1  0.912709  0.704929  0.124646  1
  Dy  Dy13  1  0.912523  0.294848  0.624957  1
  Dy  Dy14  1  0.091529  0.704974  0.625879  1
  Dy  Dy15  1  0.091320  0.295222  0.125625  1
  Dy  Dy16  1  0.999919  0.999743  0.499322  1
  Dy  Dy17  1  0.999988  0.000187  0.999520  1
  Dy  Dy18  1  0.497079  0.499754  0.999460  1
  Dy  Dy19  1  0.497061  0.500318  0.499206  1
  Ir  Ir20  1  0.345931  0.345860  0.249327  1
  Ir  Ir21  1  0.346027  0.653993  0.749271  1
  Ir  Ir22  1  0.500448  0.000142  0.624830  1
  Ir  Ir23  1  0.999121  0.500085  0.876509  1
  Ir  Ir24  1  0.999107  0.499882  0.377069  1
  Ru  Ru25  1  0.500605  0.999991  0.127178  1
  Pt  Pt26  1  0.846019  0.153850  0.249988  1
  Pt  Pt27  1  0.846142  0.846369  0.749897  1
  Pt  Pt28  1  0.152825  0.153705  0.749050  1
  Pt  Pt29  1  0.153042  0.846205  0.249249  1
  Pt  Pt30  1  0.654359  0.346194  0.749612  1
  Pt  Pt31  1  0.654589  0.653868  0.249708  1
