# generated using pymatgen
data_Na4ErAs12Rh19
_symmetry_space_group_name_H-M   'P 1'
_cell_length_a   13.16222333
_cell_length_b   13.11927661
_cell_length_c   3.97960200
_cell_angle_alpha   90.00000000
_cell_angle_beta   90.00000000
_cell_angle_gamma   119.89212118
_symmetry_Int_Tables_number   1
_chemical_formula_structural   Na4ErAs12Rh19
_chemical_formula_sum   'Na4 Er1 As12 Rh19'
_cell_volume   595.77255682
_cell_formula_units_Z   1
loop_
 _symmetry_equiv_pos_site_id
 _symmetry_equiv_pos_as_xyz
  1  'x, y, z'
loop_
 _atom_site_type_symbol
 _atom_site_label
 _atom_site_symmetry_multiplicity
 _atom_site_fract_x
 _atom_site_fract_y
 _atom_site_fract_z
 _atom_site_occupancy
  Na  Na0  1  0.817476  0.815947  0.500000  1
  Na  Na1  1  0.182524  0.998472  0.500000  1
  Na  Na2  1  0.668530  0.334687  0.000000  1
  Na  Na3  1  0.331470  0.666157  0.000000  1
  Er  Er4  1  0.000000  0.176289  0.500000  1
  As  As5  1  0.487117  0.320370  0.500000  1
  As  As6  1  0.816778  0.994703  0.000000  1
  As  As7  1  0.183222  0.177925  0.000000  1
  As  As8  1  0.000000  0.821128  0.000000  1
  As  As9  1  0.362244  0.000640  0.000000  1
  As  As10  1  0.680427  0.166758  0.500000  1
  As  As11  1  0.833860  0.514741  0.500000  1
  As  As12  1  0.512883  0.833254  0.500000  1
  As  As13  1  0.166140  0.680882  0.500000  1
  As  As14  1  0.319573  0.486330  0.500000  1
  As  As15  1  0.000000  0.361341  0.000000  1
  As  As16  1  0.637756  0.638396  0.000000  1
  Rh  Rh17  1  0.806279  0.177214  0.000000  1
  Rh  Rh18  1  0.379378  0.199639  0.000000  1
  Rh  Rh19  1  0.645396  0.519683  0.500000  1
  Rh  Rh20  1  0.872719  0.352839  0.500000  1
  Rh  Rh21  1  0.354604  0.874288  0.500000  1
  Rh  Rh22  1  0.517659  0.646064  0.500000  1
  Rh  Rh23  1  0.127281  0.480120  0.500000  1
  Rh  Rh24  1  0.820874  0.623775  0.000000  1
  Rh  Rh25  1  0.620622  0.820259  0.000000  1
  Rh  Rh26  1  0.179126  0.802900  0.000000  1
  Rh  Rh27  1  0.193721  0.370935  0.000000  1
  Rh  Rh28  1  0.000000  0.714122  0.500000  1
  Rh  Rh29  1  0.285945  0.286553  0.500000  1
  Rh  Rh30  1  0.714055  0.000608  0.500000  1
  Rh  Rh31  1  0.000000  0.546015  0.000000  1
  Rh  Rh32  1  0.450378  0.456640  0.000000  1
  Rh  Rh33  1  0.549622  0.006262  0.000000  1
  Rh  Rh34  1  0.000000  0.005660  0.000000  1
  Rh  Rh35  1  0.482341  0.128405  0.500000  1
