# generated using pymatgen
data_YThMn17
_symmetry_space_group_name_H-M   'P 1'
_cell_length_a   6.35361463
_cell_length_b   6.35361462
_cell_length_c   6.35361530
_cell_angle_alpha   86.22482976
_cell_angle_beta   86.22483294
_cell_angle_gamma   86.22482350
_symmetry_Int_Tables_number   1
_chemical_formula_structural   YThMn17
_chemical_formula_sum   'Y1 Th1 Mn17'
_cell_volume   254.88578751
_cell_formula_units_Z   1
loop_
 _symmetry_equiv_pos_site_id
 _symmetry_equiv_pos_as_xyz
  1  'x, y, z'
loop_
 _atom_site_type_symbol
 _atom_site_label
 _atom_site_symmetry_multiplicity
 _atom_site_fract_x
 _atom_site_fract_y
 _atom_site_fract_z
 _atom_site_occupancy
  Y  Y0  1  0.647815  0.647815  0.647815  1
  Th  Th1  1  0.354207  0.354207  0.354207  1
  Mn  Mn2  1  0.354547  0.354547  0.875535  1
  Mn  Mn3  1  0.875535  0.354547  0.354547  1
  Mn  Mn4  1  0.098931  0.098931  0.098931  1
  Mn  Mn5  1  0.902244  0.902244  0.902244  1
  Mn  Mn6  1  0.996979  0.996979  0.500668  1
  Mn  Mn7  1  0.996979  0.500668  0.996979  1
  Mn  Mn8  1  0.500668  0.996979  0.996979  1
  Mn  Mn9  1  0.727225  0.272305  0.998837  1
  Mn  Mn10  1  0.272305  0.998837  0.727225  1
  Mn  Mn11  1  0.998837  0.727225  0.272305  1
  Mn  Mn12  1  0.272305  0.727225  0.998837  1
  Mn  Mn13  1  0.727225  0.998837  0.272305  1
  Mn  Mn14  1  0.998837  0.272305  0.727225  1
  Mn  Mn15  1  0.127128  0.646843  0.646843  1
  Mn  Mn16  1  0.646843  0.646843  0.127128  1
  Mn  Mn17  1  0.646843  0.127128  0.646843  1
  Mn  Mn18  1  0.354547  0.875535  0.354547  1
