# generated using pymatgen
data_Pr4HgB4Rh9
_symmetry_space_group_name_H-M   'P 1'
_cell_length_a   5.60068501
_cell_length_b   5.60068633
_cell_length_c   21.38108900
_cell_angle_alpha   90.00000000
_cell_angle_beta   90.00000000
_cell_angle_gamma   119.99917410
_symmetry_Int_Tables_number   1
_chemical_formula_structural   Pr4HgB4Rh9
_chemical_formula_sum   'Pr8 Hg2 B8 Rh18'
_cell_volume   580.82655686
_cell_formula_units_Z   2
loop_
 _symmetry_equiv_pos_site_id
 _symmetry_equiv_pos_as_xyz
  1  'x, y, z'
loop_
 _atom_site_type_symbol
 _atom_site_label
 _atom_site_symmetry_multiplicity
 _atom_site_fract_x
 _atom_site_fract_y
 _atom_site_fract_z
 _atom_site_occupancy
  Pr  Pr0  1  0.666669  0.333331  0.525050  1
  Pr  Pr1  1  0.333331  0.666669  0.474950  1
  Pr  Pr2  1  0.333331  0.666669  0.025050  1
  Pr  Pr3  1  0.666669  0.333331  0.974950  1
  Pr  Pr4  1  0.666739  0.333261  0.675547  1
  Pr  Pr5  1  0.333261  0.666739  0.324453  1
  Pr  Pr6  1  0.333261  0.666739  0.175547  1
  Pr  Pr7  1  0.666739  0.333261  0.824453  1
  Hg  Hg8  1  0.000000  0.000000  0.500000  1
  Hg  Hg9  1  0.000000  0.000000  0.000000  1
  B  B10  1  0.000074  0.999926  0.676268  1
  B  B11  1  0.999926  0.000074  0.323732  1
  B  B12  1  0.999926  0.000074  0.176268  1
  B  B13  1  0.000074  0.999926  0.823732  1
  B  B14  1  0.666592  0.333408  0.323994  1
  B  B15  1  0.333408  0.666592  0.676006  1
  B  B16  1  0.333408  0.666592  0.823994  1
  B  B17  1  0.666592  0.333408  0.176006  1
  Rh  Rh18  1  0.166670  0.333083  0.750000  1
  Rh  Rh19  1  0.166641  0.833359  0.750000  1
  Rh  Rh20  1  0.666917  0.833330  0.750000  1
  Rh  Rh21  1  0.833330  0.666917  0.250000  1
  Rh  Rh22  1  0.833359  0.166641  0.250000  1
  Rh  Rh23  1  0.333083  0.166670  0.250000  1
  Rh  Rh24  1  0.167248  0.334279  0.610487  1
  Rh  Rh25  1  0.167249  0.832751  0.610483  1
  Rh  Rh26  1  0.665721  0.832752  0.610487  1
  Rh  Rh27  1  0.832752  0.665721  0.389513  1
  Rh  Rh28  1  0.832751  0.167249  0.389517  1
  Rh  Rh29  1  0.334279  0.167248  0.389513  1
  Rh  Rh30  1  0.832752  0.665721  0.110487  1
  Rh  Rh31  1  0.832751  0.167249  0.110483  1
  Rh  Rh32  1  0.334279  0.167248  0.110487  1
  Rh  Rh33  1  0.167248  0.334279  0.889513  1
  Rh  Rh34  1  0.167249  0.832751  0.889517  1
  Rh  Rh35  1  0.665721  0.832752  0.889513  1
