# generated using pymatgen
data_Na16ZrGeP8
_symmetry_space_group_name_H-M   'P 1'
_cell_length_a   9.61931598
_cell_length_b   9.61931650
_cell_length_c   9.61931600
_cell_angle_alpha   60.00000171
_cell_angle_beta   59.99999993
_cell_angle_gamma   59.99999776
_symmetry_Int_Tables_number   1
_chemical_formula_structural   Na16ZrGeP8
_chemical_formula_sum   'Na16 Zr1 Ge1 P8'
_cell_volume   629.38675185
_cell_formula_units_Z   1
loop_
 _symmetry_equiv_pos_site_id
 _symmetry_equiv_pos_as_xyz
  1  'x, y, z'
loop_
 _atom_site_type_symbol
 _atom_site_label
 _atom_site_symmetry_multiplicity
 _atom_site_fract_x
 _atom_site_fract_y
 _atom_site_fract_z
 _atom_site_occupancy
  Na  Na0  1  0.628513  0.628513  0.114460  1
  Na  Na1  1  0.628513  0.114460  0.628513  1
  Na  Na2  1  0.114460  0.628513  0.628513  1
  Na  Na3  1  0.628513  0.628513  0.628513  1
  Na  Na4  1  0.031284  0.468716  0.468716  1
  Na  Na5  1  0.772900  0.227100  0.227100  1
  Na  Na6  1  0.468716  0.031284  0.468716  1
  Na  Na7  1  0.468716  0.468716  0.031284  1
  Na  Na8  1  0.031284  0.031284  0.468716  1
  Na  Na9  1  0.031284  0.468716  0.031284  1
  Na  Na10  1  0.468716  0.031284  0.031284  1
  Na  Na11  1  0.772900  0.227100  0.772900  1
  Na  Na12  1  0.227100  0.772900  0.227100  1
  Na  Na13  1  0.227100  0.227100  0.772900  1
  Na  Na14  1  0.772900  0.772900  0.227100  1
  Na  Na15  1  0.227100  0.772900  0.772900  1
  Zr  Zr16  1  0.500000  0.500000  0.500000  1
  Ge  Ge17  1  0.750000  0.750000  0.750000  1
  P  P18  1  0.853539  0.853539  0.439386  1
  P  P19  1  0.853539  0.439386  0.853539  1
  P  P20  1  0.392283  0.392283  0.823150  1
  P  P21  1  0.392283  0.823150  0.392283  1
  P  P22  1  0.823150  0.392283  0.392283  1
  P  P23  1  0.853539  0.853539  0.853539  1
  P  P24  1  0.439386  0.853539  0.853539  1
  P  P25  1  0.392283  0.392283  0.392283  1
