# generated using pymatgen
data_Mn4ZnInPd10
_symmetry_space_group_name_H-M   'P 1'
_cell_length_a   4.07329300
_cell_length_b   5.52448016
_cell_length_c   10.94515402
_cell_angle_alpha   88.97124187
_cell_angle_beta   90.00000000
_cell_angle_gamma   90.00000000
_symmetry_Int_Tables_number   1
_chemical_formula_structural   Mn4ZnInPd10
_chemical_formula_sum   'Mn4 Zn1 In1 Pd10'
_cell_volume   246.25719971
_cell_formula_units_Z   1
loop_
 _symmetry_equiv_pos_site_id
 _symmetry_equiv_pos_as_xyz
  1  'x, y, z'
loop_
 _atom_site_type_symbol
 _atom_site_label
 _atom_site_symmetry_multiplicity
 _atom_site_fract_x
 _atom_site_fract_y
 _atom_site_fract_z
 _atom_site_occupancy
  Mn  Mn0  1  0.500000  0.301600  0.859793  1
  Mn  Mn1  1  0.500000  0.798530  0.631400  1
  Mn  Mn2  1  0.500000  0.698400  0.140207  1
  Mn  Mn3  1  0.500000  0.201470  0.368600  1
  Zn  Zn4  1  0.000000  0.500000  0.500000  1
  In  In5  1  0.000000  0.000000  0.000000  1
  Pd  Pd6  1  0.500000  0.703982  0.388573  1
  Pd  Pd7  1  0.500000  0.296018  0.611427  1
  Pd  Pd8  1  0.000000  0.053956  0.750065  1
  Pd  Pd9  1  0.500000  0.784309  0.878878  1
  Pd  Pd10  1  0.000000  0.446883  0.258890  1
  Pd  Pd11  1  0.000000  0.946044  0.249935  1
  Pd  Pd12  1  0.000000  0.553117  0.741110  1
  Pd  Pd13  1  0.000000  0.500000  0.000000  1
  Pd  Pd14  1  0.000000  0.000000  0.500000  1
  Pd  Pd15  1  0.500000  0.215691  0.121122  1
