# generated using pymatgen
data_Sm(S8F)3
_symmetry_space_group_name_H-M   'P 1'
_cell_length_a   4.51059696
_cell_length_b   14.80398513
_cell_length_c   15.21612789
_cell_angle_alpha   120.12744536
_cell_angle_beta   92.90255388
_cell_angle_gamma   97.22047586
_symmetry_Int_Tables_number   1
_chemical_formula_structural   Sm(S8F)3
_chemical_formula_sum   'Sm1 S24 F3'
_cell_volume   864.13626942
_cell_formula_units_Z   1
loop_
 _symmetry_equiv_pos_site_id
 _symmetry_equiv_pos_as_xyz
  1  'x, y, z'
loop_
 _atom_site_type_symbol
 _atom_site_label
 _atom_site_symmetry_multiplicity
 _atom_site_fract_x
 _atom_site_fract_y
 _atom_site_fract_z
 _atom_site_occupancy
  Sm  Sm0  1  0.790894  0.998926  0.033932  1
  S  S1  1  0.371181  0.403894  0.993174  1
  S  S2  1  0.577286  0.735636  0.006056  1
  S  S3  1  0.259567  0.522672  0.127686  1
  S  S4  1  0.398022  0.755961  0.136045  1
  S  S5  1  0.568428  0.659621  0.180312  1
  S  S6  1  0.644802  0.371657  0.247840  1
  S  S7  1  0.839391  0.264586  0.270938  1
  S  S8  1  0.904129  0.519908  0.338194  1
  S  S9  1  0.141267  0.867647  0.395710  1
  S  S10  1  0.641854  0.244396  0.381071  1
  S  S11  1  0.394356  0.000626  0.408373  1
  S  S12  1  0.383187  0.813883  0.473415  1
  S  S13  1  0.725588  0.602031  0.473697  1
  S  S14  1  0.270713  0.132691  0.528160  1
  S  S15  1  0.911021  0.339996  0.520455  1
  S  S16  1  0.968002  0.596091  0.588419  1
  S  S17  1  0.244204  0.866667  0.615982  1
  S  S18  1  0.739692  0.476983  0.604915  1
  S  S19  1  0.566011  0.186395  0.659178  1
  S  S20  1  0.542149  0.999445  0.724243  1
  S  S21  1  0.376116  0.132609  0.748837  1
  S  S22  1  0.386318  0.480886  0.819176  1
  S  S23  1  0.275841  0.629414  0.876531  1
  S  S24  1  0.124610  0.398411  0.872564  1
  F  F25  1  0.863977  0.127054  0.014486  1
  F  F26  1  0.296309  0.999127  0.073970  1
  F  F27  1  0.748004  0.872790  0.886643  1
