# generated using pymatgen
data_Mn28Ge
_symmetry_space_group_name_H-M   'P 1'
_cell_length_a   7.48340277
_cell_length_b   7.48340199
_cell_length_c   7.48340200
_cell_angle_alpha   109.47121796
_cell_angle_beta   109.47121585
_cell_angle_gamma   109.47122753
_symmetry_Int_Tables_number   1
_chemical_formula_structural   Mn28Ge
_chemical_formula_sum   'Mn28 Ge1'
_cell_volume   322.60818604
_cell_formula_units_Z   1
loop_
 _symmetry_equiv_pos_site_id
 _symmetry_equiv_pos_as_xyz
  1  'x, y, z'
loop_
 _atom_site_type_symbol
 _atom_site_label
 _atom_site_symmetry_multiplicity
 _atom_site_fract_x
 _atom_site_fract_y
 _atom_site_fract_z
 _atom_site_occupancy
  Mn  Mn0  1  0.630243  0.000000  0.000000  1
  Mn  Mn1  1  0.000000  0.630243  0.000000  1
  Mn  Mn2  1  0.000000  0.000000  0.630243  1
  Mn  Mn3  1  0.369757  0.369757  0.369757  1
  Mn  Mn4  1  0.388068  0.676187  0.000000  1
  Mn  Mn5  1  0.711879  0.323813  0.323813  1
  Mn  Mn6  1  0.388068  0.000000  0.676187  1
  Mn  Mn7  1  0.676187  0.388068  0.000000  1
  Mn  Mn8  1  0.000000  0.388068  0.676187  1
  Mn  Mn9  1  0.323813  0.711879  0.323813  1
  Mn  Mn10  1  0.323813  0.323813  0.711879  1
  Mn  Mn11  1  0.000000  0.676187  0.388068  1
  Mn  Mn12  1  0.676187  0.000000  0.388068  1
  Mn  Mn13  1  0.611932  0.611932  0.288121  1
  Mn  Mn14  1  0.288121  0.611932  0.611932  1
  Mn  Mn15  1  0.611932  0.288121  0.611932  1
  Mn  Mn16  1  0.372345  0.194771  0.000000  1
  Mn  Mn17  1  0.177574  0.805229  0.805229  1
  Mn  Mn18  1  0.372345  0.000000  0.194771  1
  Mn  Mn19  1  0.194771  0.372345  0.000000  1
  Mn  Mn20  1  0.000000  0.372345  0.194771  1
  Mn  Mn21  1  0.805229  0.177574  0.805229  1
  Mn  Mn22  1  0.805229  0.805229  0.177574  1
  Mn  Mn23  1  0.000000  0.194771  0.372345  1
  Mn  Mn24  1  0.194771  0.000000  0.372345  1
  Mn  Mn25  1  0.627655  0.627655  0.822426  1
  Mn  Mn26  1  0.822426  0.627655  0.627655  1
  Mn  Mn27  1  0.627655  0.822426  0.627655  1
  Ge  Ge28  1  0.000000  0.000000  0.000000  1
