# generated using pymatgen
data_Y12Tl2Fe2Os
_symmetry_space_group_name_H-M   'P 1'
_cell_length_a   8.42063761
_cell_length_b   8.42063785
_cell_length_c   8.42063800
_cell_angle_alpha   108.74868269
_cell_angle_beta   108.74867607
_cell_angle_gamma   110.92617293
_symmetry_Int_Tables_number   1
_chemical_formula_structural   Y12Tl2Fe2Os
_chemical_formula_sum   'Y12 Tl2 Fe2 Os1'
_cell_volume   459.41205191
_cell_formula_units_Z   1
loop_
 _symmetry_equiv_pos_site_id
 _symmetry_equiv_pos_as_xyz
  1  'x, y, z'
loop_
 _atom_site_type_symbol
 _atom_site_label
 _atom_site_symmetry_multiplicity
 _atom_site_fract_x
 _atom_site_fract_y
 _atom_site_fract_z
 _atom_site_occupancy
  Y  Y0  1  0.191161  0.429368  0.238206  1
  Y  Y1  1  0.808839  0.570632  0.761794  1
  Y  Y2  1  0.191161  0.952956  0.761794  1
  Y  Y3  1  0.952956  0.191161  0.761794  1
  Y  Y4  1  0.808839  0.047044  0.238206  1
  Y  Y5  1  0.047044  0.808839  0.238206  1
  Y  Y6  1  0.429368  0.191161  0.238206  1
  Y  Y7  1  0.570632  0.808839  0.761794  1
  Y  Y8  1  0.308136  0.308136  0.616271  1
  Y  Y9  1  0.691864  0.691864  0.383729  1
  Y  Y10  1  0.691864  0.308136  0.000000  1
  Y  Y11  1  0.308136  0.691864  0.000000  1
  Tl  Tl12  1  0.000000  0.500000  0.500000  1
  Tl  Tl13  1  0.500000  0.000000  0.500000  1
  Fe  Fe14  1  0.387947  0.387947  0.000000  1
  Fe  Fe15  1  0.612053  0.612053  0.000000  1
  Os  Os16  1  0.000000  0.000000  0.000000  1
