# generated using pymatgen
data_Zr13Al9CrRh7
_symmetry_space_group_name_H-M   'P 1'
_cell_length_a   9.16449048
_cell_length_b   9.16449063
_cell_length_c   9.16449100
_cell_angle_alpha   59.74937681
_cell_angle_beta   59.74937625
_cell_angle_gamma   59.74938450
_symmetry_Int_Tables_number   1
_chemical_formula_structural   Zr13Al9CrRh7
_chemical_formula_sum   'Zr13 Al9 Cr1 Rh7'
_cell_volume   541.16703987
_cell_formula_units_Z   1
loop_
 _symmetry_equiv_pos_site_id
 _symmetry_equiv_pos_as_xyz
  1  'x, y, z'
loop_
 _atom_site_type_symbol
 _atom_site_label
 _atom_site_symmetry_multiplicity
 _atom_site_fract_x
 _atom_site_fract_y
 _atom_site_fract_z
 _atom_site_occupancy
  Zr  Zr0  1  0.205566  0.205566  0.794843  1
  Zr  Zr1  1  0.794843  0.205566  0.205566  1
  Zr  Zr2  1  0.205566  0.794843  0.205566  1
  Zr  Zr3  1  0.806425  0.806425  0.173490  1
  Zr  Zr4  1  0.173490  0.806425  0.806425  1
  Zr  Zr5  1  0.806425  0.173490  0.806425  1
  Zr  Zr6  1  0.378554  0.378554  0.378554  1
  Zr  Zr7  1  0.379623  0.865959  0.379623  1
  Zr  Zr8  1  0.865959  0.379623  0.379623  1
  Zr  Zr9  1  0.379623  0.379623  0.865959  1
  Zr  Zr10  1  0.839963  0.480873  0.839963  1
  Zr  Zr11  1  0.480873  0.839963  0.839963  1
  Zr  Zr12  1  0.839963  0.839963  0.480873  1
  Al  Al13  1  0.154795  0.154795  0.154795  1
  Al  Al14  1  0.159565  0.526945  0.159565  1
  Al  Al15  1  0.526945  0.159565  0.159565  1
  Al  Al16  1  0.159565  0.159565  0.526945  1
  Al  Al17  1  0.616777  0.616777  0.616777  1
  Al  Al18  1  0.620268  0.146469  0.620268  1
  Al  Al19  1  0.146469  0.620268  0.620268  1
  Al  Al20  1  0.620268  0.620268  0.146469  1
  Al  Al21  1  0.826839  0.826839  0.826839  1
  Cr  Cr22  1  0.004493  0.004493  0.004493  1
  Rh  Rh23  1  0.005877  0.005877  0.499911  1
  Rh  Rh24  1  0.499911  0.005877  0.005877  1
  Rh  Rh25  1  0.005877  0.499911  0.005877  1
  Rh  Rh26  1  0.494921  0.494921  0.005867  1
  Rh  Rh27  1  0.005867  0.494921  0.494921  1
  Rh  Rh28  1  0.494921  0.005867  0.494921  1
  Rh  Rh29  1  0.499770  0.499770  0.499770  1
