# generated using pymatgen
data_Sm3ErAl18CuRh5
_symmetry_space_group_name_H-M   'P 1'
_cell_length_a   7.59565718
_cell_length_b   7.59763375
_cell_length_c   9.50265900
_cell_angle_alpha   90.05734380
_cell_angle_beta   90.06011954
_cell_angle_gamma   119.57218520
_symmetry_Int_Tables_number   1
_chemical_formula_structural   Sm3ErAl18CuRh5
_chemical_formula_sum   'Sm3 Er1 Al18 Cu1 Rh5'
_cell_volume   476.95203825
_cell_formula_units_Z   1
loop_
 _symmetry_equiv_pos_site_id
 _symmetry_equiv_pos_as_xyz
  1  'x, y, z'
loop_
 _atom_site_type_symbol
 _atom_site_label
 _atom_site_symmetry_multiplicity
 _atom_site_fract_x
 _atom_site_fract_y
 _atom_site_fract_z
 _atom_site_occupancy
  Sm  Sm0  1  0.994999  0.672509  0.249197  1
  Sm  Sm1  1  0.005124  0.327428  0.750802  1
  Sm  Sm2  1  0.672180  0.994783  0.249131  1
  Er  Er3  1  0.327474  0.005018  0.750297  1
  Al  Al4  1  0.131771  0.131177  0.252224  1
  Al  Al5  1  0.870735  0.869471  0.748334  1
  Al  Al6  1  0.002169  0.338930  0.076113  1
  Al  Al7  1  0.999532  0.663083  0.922373  1
  Al  Al8  1  0.000905  0.666453  0.574674  1
  Al  Al9  1  0.335169  0.000749  0.428572  1
  Al  Al10  1  0.000906  0.335019  0.426946  1
  Al  Al11  1  0.663677  0.999296  0.574672  1
  Al  Al12  1  0.659503  0.998016  0.922044  1
  Al  Al13  1  0.338334  0.001964  0.074225  1
  Al  Al14  1  0.333685  0.332516  0.550234  1
  Al  Al15  1  0.666627  0.666386  0.452498  1
  Al  Al16  1  0.662814  0.662760  0.049387  1
  Al  Al17  1  0.336599  0.335406  0.947728  1
  Al  Al18  1  0.339660  0.548541  0.250423  1
  Al  Al19  1  0.658915  0.449395  0.749435  1
  Al  Al20  1  0.548376  0.338933  0.250349  1
  Al  Al21  1  0.451059  0.661921  0.749470  1
  Cu  Cu22  1  0.999465  0.000114  0.000481  1
  Rh  Rh23  1  0.671274  0.328006  0.999081  1
  Rh  Rh24  1  0.328305  0.671790  0.999253  1
  Rh  Rh25  1  0.328505  0.671652  0.500558  1
  Rh  Rh26  1  0.671305  0.328156  0.500684  1
  Rh  Rh27  1  0.000935  0.000526  0.500815  1
