# generated using pymatgen
data_Pr16Ga6OsRu
_symmetry_space_group_name_H-M   'P 1'
_cell_length_a   10.59637701
_cell_length_b   10.59980326
_cell_length_c   7.16207000
_cell_angle_alpha   89.97442723
_cell_angle_beta   90.00191412
_cell_angle_gamma   120.05507551
_symmetry_Int_Tables_number   1
_chemical_formula_structural   Pr16Ga6OsRu
_chemical_formula_sum   'Pr16 Ga6 Os1 Ru1'
_cell_volume   696.27861061
_cell_formula_units_Z   1
loop_
 _symmetry_equiv_pos_site_id
 _symmetry_equiv_pos_as_xyz
  1  'x, y, z'
loop_
 _atom_site_type_symbol
 _atom_site_label
 _atom_site_symmetry_multiplicity
 _atom_site_fract_x
 _atom_site_fract_y
 _atom_site_fract_z
 _atom_site_occupancy
  Pr  Pr0  1  0.169035  0.830970  0.989499  1
  Pr  Pr1  1  0.338351  0.169195  0.489763  1
  Pr  Pr2  1  0.830817  0.661645  0.489765  1
  Pr  Pr3  1  0.169067  0.338135  0.989494  1
  Pr  Pr4  1  0.661892  0.830959  0.989464  1
  Pr  Pr5  1  0.830857  0.169152  0.489783  1
  Pr  Pr6  1  0.333348  0.666683  0.668465  1
  Pr  Pr7  1  0.666678  0.333342  0.165002  1
  Pr  Pr8  1  0.462651  0.537372  0.295634  1
  Pr  Pr9  1  0.924606  0.462319  0.794991  1
  Pr  Pr10  1  0.537676  0.075411  0.794976  1
  Pr  Pr11  1  0.462665  0.925299  0.295606  1
  Pr  Pr12  1  0.074680  0.537330  0.295647  1
  Pr  Pr13  1  0.537696  0.462279  0.794945  1
  Pr  Pr14  1  0.999986  0.000023  0.268734  1
  Pr  Pr15  1  0.000001  0.999937  0.771222  1
  Ga  Ga16  1  0.165230  0.834763  0.539802  1
  Ga  Ga17  1  0.328840  0.164449  0.039562  1
  Ga  Ga18  1  0.835485  0.671094  0.039541  1
  Ga  Ga19  1  0.165249  0.330360  0.539765  1
  Ga  Ga20  1  0.669686  0.834772  0.539725  1
  Ga  Ga21  1  0.835470  0.164469  0.039614  1
  Os  Os22  1  0.666717  0.333351  0.553017  1
  Ru  Ru23  1  0.333317  0.666693  0.051984  1
