# generated using pymatgen
data_La12Os(PtBr4)3
_symmetry_space_group_name_H-M   'P 1'
_cell_length_a   10.78341267
_cell_length_b   10.65547391
_cell_length_c   10.65547423
_cell_angle_alpha   109.22672008
_cell_angle_beta   109.71462984
_cell_angle_gamma   109.71462752
_symmetry_Int_Tables_number   1
_chemical_formula_structural   La12Os(PtBr4)3
_chemical_formula_sum   'La12 Os1 Pt3 Br12'
_cell_volume   939.65071011
_cell_formula_units_Z   1
loop_
 _symmetry_equiv_pos_site_id
 _symmetry_equiv_pos_as_xyz
  1  'x, y, z'
loop_
 _atom_site_type_symbol
 _atom_site_label
 _atom_site_symmetry_multiplicity
 _atom_site_fract_x
 _atom_site_fract_y
 _atom_site_fract_z
 _atom_site_occupancy
  La  La0  1  0.470592  0.490097  0.231702  1
  La  La1  1  0.750000  0.236369  0.263631  1
  La  La2  1  0.750000  0.013940  0.486060  1
  La  La3  1  0.236060  0.472120  0.486060  1
  La  La4  1  0.261110  0.741605  0.231702  1
  La  La5  1  0.029408  0.268298  0.009903  1
  La  La6  1  0.013631  0.027260  0.263631  1
  La  La7  1  0.480495  0.741605  0.009903  1
  La  La8  1  0.486369  0.236369  0.472740  1
  La  La9  1  0.019505  0.490097  0.758395  1
  La  La10  1  0.263940  0.013940  0.027880  1
  La  La11  1  0.238890  0.268298  0.758395  1
  Os  Os12  1  0.250000  0.500000  0.000000  1
  Pt  Pt13  1  0.250000  0.249821  0.250179  1
  Pt  Pt14  1  0.500179  0.000359  0.250179  1
  Pt  Pt15  1  0.999821  0.249821  0.499641  1
  Br  Br16  1  0.250000  0.754883  0.745117  1
  Br  Br17  1  0.508532  0.503684  0.753210  1
  Br  Br18  1  0.991468  0.746790  0.996316  1
  Br  Br19  1  0.744678  0.249526  0.753210  1
  Br  Br20  1  0.995117  0.990235  0.745117  1
  Br  Br21  1  0.250000  0.996690  0.503310  1
  Br  Br22  1  0.753310  0.506621  0.503310  1
  Br  Br23  1  0.504848  0.249526  0.996316  1
  Br  Br24  1  0.755322  0.746790  0.250474  1
  Br  Br25  1  0.746690  0.996690  0.993379  1
  Br  Br26  1  0.995152  0.503684  0.250474  1
  Br  Br27  1  0.504883  0.754883  0.509765  1
