# generated using pymatgen
data_Nd4Al18(IrPd)3
_symmetry_space_group_name_H-M   'P 1'
_cell_length_a   7.66592582
_cell_length_b   7.66592595
_cell_length_c   9.59576506
_cell_angle_alpha   89.98995192
_cell_angle_beta   89.98996016
_cell_angle_gamma   119.70252137
_symmetry_Int_Tables_number   1
_chemical_formula_structural   Nd4Al18(IrPd)3
_chemical_formula_sum   'Nd4 Al18 Ir3 Pd3'
_cell_volume   489.81659188
_cell_formula_units_Z   1
loop_
 _symmetry_equiv_pos_site_id
 _symmetry_equiv_pos_as_xyz
  1  'x, y, z'
loop_
 _atom_site_type_symbol
 _atom_site_label
 _atom_site_symmetry_multiplicity
 _atom_site_fract_x
 _atom_site_fract_y
 _atom_site_fract_z
 _atom_site_occupancy
  Nd  Nd0  1  0.995773  0.669288  0.250261  1
  Nd  Nd1  1  0.004995  0.331385  0.749796  1
  Nd  Nd2  1  0.668615  0.995005  0.250204  1
  Nd  Nd3  1  0.330712  0.004227  0.749739  1
  Al  Al4  1  0.128313  0.129083  0.250439  1
  Al  Al5  1  0.870917  0.871687  0.749561  1
  Al  Al6  1  0.001859  0.330943  0.074595  1
  Al  Al7  1  0.997874  0.669339  0.924796  1
  Al  Al8  1  0.995143  0.665460  0.573122  1
  Al  Al9  1  0.334540  0.004857  0.426878  1
  Al  Al10  1  0.997577  0.330486  0.427103  1
  Al  Al11  1  0.669514  0.002423  0.572897  1
  Al  Al12  1  0.669057  0.998141  0.925405  1
  Al  Al13  1  0.330661  0.002126  0.075204  1
  Al  Al14  1  0.334092  0.330853  0.549382  1
  Al  Al15  1  0.669147  0.665908  0.450618  1
  Al  Al16  1  0.668145  0.668154  0.052452  1
  Al  Al17  1  0.331846  0.331855  0.947548  1
  Al  Al18  1  0.340200  0.543726  0.250406  1
  Al  Al19  1  0.659456  0.454344  0.746955  1
  Al  Al20  1  0.545656  0.340544  0.253045  1
  Al  Al21  1  0.456274  0.659800  0.749594  1
  Ir  Ir22  1  0.671061  0.328939  0.500000  1
  Ir  Ir23  1  0.999979  0.000021  0.000000  1
  Ir  Ir24  1  0.000266  0.999734  0.500000  1
  Pd  Pd25  1  0.671182  0.328818  0.000000  1
  Pd  Pd26  1  0.328550  0.671450  0.000000  1
  Pd  Pd27  1  0.328594  0.671406  0.500000  1
