# generated using pymatgen
data_Tb15Y(LuSn4)4
_symmetry_space_group_name_H-M   'P 1'
_cell_length_a   8.00578117
_cell_length_b   8.16864416
_cell_length_c   15.47467254
_cell_angle_alpha   90.02020051
_cell_angle_beta   90.10002365
_cell_angle_gamma   90.00348224
_symmetry_Int_Tables_number   1
_chemical_formula_structural   Tb15Y(LuSn4)4
_chemical_formula_sum   'Tb15 Y1 Lu4 Sn16'
_cell_volume   1011.98592237
_cell_formula_units_Z   1
loop_
 _symmetry_equiv_pos_site_id
 _symmetry_equiv_pos_as_xyz
  1  'x, y, z'
loop_
 _atom_site_type_symbol
 _atom_site_label
 _atom_site_symmetry_multiplicity
 _atom_site_fract_x
 _atom_site_fract_y
 _atom_site_fract_z
 _atom_site_occupancy
  Tb  Tb0  1  0.864406  0.662254  0.622735  1
  Tb  Tb1  1  0.635395  0.162277  0.377258  1
  Tb  Tb2  1  0.135813  0.337671  0.122485  1
  Tb  Tb3  1  0.635763  0.162634  0.122848  1
  Tb  Tb4  1  0.135489  0.337675  0.377360  1
  Tb  Tb5  1  0.364625  0.837627  0.622613  1
  Tb  Tb6  1  0.864577  0.662488  0.877306  1
  Tb  Tb7  1  0.517796  0.320347  0.903636  1
  Tb  Tb8  1  0.018254  0.179353  0.596561  1
  Tb  Tb9  1  0.481870  0.679554  0.403538  1
  Tb  Tb10  1  0.982166  0.820479  0.096369  1
  Tb  Tb11  1  0.482276  0.679526  0.096154  1
  Tb  Tb12  1  0.981841  0.820515  0.403406  1
  Tb  Tb13  1  0.518290  0.320665  0.596643  1
  Tb  Tb14  1  0.017729  0.179080  0.903606  1
  Y  Y15  1  0.363785  0.837865  0.877016  1
  Lu  Lu16  1  0.195849  0.502961  0.750143  1
  Lu  Lu17  1  0.695545  0.996948  0.749971  1
  Lu  Lu18  1  0.804488  0.496906  0.250022  1
  Lu  Lu19  1  0.304548  0.003056  0.249856  1
  Sn  Sn20  1  0.295661  0.037013  0.042342  1
  Sn  Sn21  1  0.795055  0.462971  0.457544  1
  Sn  Sn22  1  0.705061  0.963146  0.542489  1
  Sn  Sn23  1  0.204697  0.537366  0.957397  1
  Sn  Sn24  1  0.703623  0.962304  0.957602  1
  Sn  Sn25  1  0.204667  0.536678  0.542778  1
  Sn  Sn26  1  0.294652  0.036928  0.457262  1
  Sn  Sn27  1  0.795414  0.462922  0.042510  1
  Sn  Sn28  1  0.560659  0.617096  0.749997  1
  Sn  Sn29  1  0.060580  0.883405  0.750110  1
  Sn  Sn30  1  0.439246  0.383632  0.250066  1
  Sn  Sn31  1  0.939399  0.116841  0.249946  1
  Sn  Sn32  1  0.328034  0.150487  0.750103  1
  Sn  Sn33  1  0.827321  0.349702  0.750063  1
  Sn  Sn34  1  0.672821  0.849567  0.250127  1
  Sn  Sn35  1  0.172609  0.650060  0.250135  1
