# generated using pymatgen
data_Hf8Ta12Si15Ni
_symmetry_space_group_name_H-M   'P 1'
_cell_length_a   6.66231874
_cell_length_b   6.82256083
_cell_length_c   13.06832100
_cell_angle_alpha   90.00000000
_cell_angle_beta   90.00000000
_cell_angle_gamma   89.89586284
_symmetry_Int_Tables_number   1
_chemical_formula_structural   Hf8Ta12Si15Ni
_chemical_formula_sum   'Hf8 Ta12 Si15 Ni1'
_cell_volume   594.00745994
_cell_formula_units_Z   1
loop_
 _symmetry_equiv_pos_site_id
 _symmetry_equiv_pos_as_xyz
  1  'x, y, z'
loop_
 _atom_site_type_symbol
 _atom_site_label
 _atom_site_symmetry_multiplicity
 _atom_site_fract_x
 _atom_site_fract_y
 _atom_site_fract_z
 _atom_site_occupancy
  Hf  Hf0  1  0.495829  0.673303  0.592764  1
  Hf  Hf1  1  0.997491  0.825731  0.904961  1
  Hf  Hf2  1  0.506298  0.327548  0.093942  1
  Hf  Hf3  1  0.005180  0.172290  0.407208  1
  Hf  Hf4  1  0.506298  0.327548  0.406058  1
  Hf  Hf5  1  0.005180  0.172290  0.092792  1
  Hf  Hf6  1  0.495829  0.673303  0.907236  1
  Hf  Hf7  1  0.997491  0.825731  0.595039  1
  Ta  Ta8  1  0.661307  0.171951  0.626350  1
  Ta  Ta9  1  0.161060  0.328882  0.875266  1
  Ta  Ta10  1  0.337541  0.827905  0.123629  1
  Ta  Ta11  1  0.836625  0.672102  0.376291  1
  Ta  Ta12  1  0.337541  0.827905  0.376371  1
  Ta  Ta13  1  0.836625  0.672102  0.123709  1
  Ta  Ta14  1  0.661307  0.171951  0.873650  1
  Ta  Ta15  1  0.161060  0.328882  0.624734  1
  Ta  Ta16  1  0.834805  0.494887  0.750000  1
  Ta  Ta17  1  0.335220  0.004017  0.750000  1
  Ta  Ta18  1  0.164100  0.505067  0.250000  1
  Ta  Ta19  1  0.663179  0.995699  0.250000  1
  Si  Si20  1  0.671728  0.964804  0.463177  1
  Si  Si21  1  0.172322  0.535849  0.037194  1
  Si  Si22  1  0.327999  0.037203  0.961239  1
  Si  Si23  1  0.826374  0.464142  0.539056  1
  Si  Si24  1  0.327999  0.037203  0.538761  1
  Si  Si25  1  0.826374  0.464142  0.960944  1
  Si  Si26  1  0.671728  0.964804  0.036823  1
  Si  Si27  1  0.172322  0.535849  0.462806  1
  Si  Si28  1  0.960821  0.111215  0.750000  1
  Si  Si29  1  0.539770  0.611103  0.250000  1
  Si  Si30  1  0.039816  0.888695  0.250000  1
  Si  Si31  1  0.701310  0.857860  0.750000  1
  Si  Si32  1  0.213197  0.633669  0.750000  1
  Si  Si33  1  0.297011  0.140198  0.250000  1
  Si  Si34  1  0.799177  0.359878  0.250000  1
  Ni  Ni35  1  0.452086  0.394289  0.750000  1
