# generated using pymatgen
data_TmLu15(ZnCo)4
_symmetry_space_group_name_H-M   'P 1'
_cell_length_a   9.14285851
_cell_length_b   9.14285806
_cell_length_c   9.14330500
_cell_angle_alpha   59.99838655
_cell_angle_beta   59.99838815
_cell_angle_gamma   59.98251966
_symmetry_Int_Tables_number   1
_chemical_formula_structural   TmLu15(ZnCo)4
_chemical_formula_sum   'Tm1 Lu15 Zn4 Co4'
_cell_volume   540.36124736
_cell_formula_units_Z   1
loop_
 _symmetry_equiv_pos_site_id
 _symmetry_equiv_pos_as_xyz
  1  'x, y, z'
loop_
 _atom_site_type_symbol
 _atom_site_label
 _atom_site_symmetry_multiplicity
 _atom_site_fract_x
 _atom_site_fract_y
 _atom_site_fract_z
 _atom_site_occupancy
  Tm  Tm0  1  0.937704  0.937704  0.562296  1
  Lu  Lu1  1  0.350403  0.350403  0.350321  1
  Lu  Lu2  1  0.350403  0.350403  0.948875  1
  Lu  Lu3  1  0.350522  0.948898  0.350291  1
  Lu  Lu4  1  0.948898  0.350522  0.350291  1
  Lu  Lu5  1  0.809615  0.190414  0.190191  1
  Lu  Lu6  1  0.190414  0.809615  0.809779  1
  Lu  Lu7  1  0.190414  0.809615  0.190191  1
  Lu  Lu8  1  0.809615  0.190414  0.809779  1
  Lu  Lu9  1  0.190311  0.190311  0.809689  1
  Lu  Lu10  1  0.809680  0.809680  0.190320  1
  Lu  Lu11  1  0.937680  0.562143  0.562279  1
  Lu  Lu12  1  0.562143  0.937680  0.937899  1
  Lu  Lu13  1  0.562143  0.937680  0.562279  1
  Lu  Lu14  1  0.937680  0.562143  0.937899  1
  Lu  Lu15  1  0.562279  0.562279  0.937721  1
  Zn  Zn16  1  0.577562  0.577562  0.577539  1
  Zn  Zn17  1  0.577562  0.577562  0.267338  1
  Zn  Zn18  1  0.577474  0.267472  0.577527  1
  Zn  Zn19  1  0.267472  0.577474  0.577527  1
  Co  Co20  1  0.142097  0.142097  0.142023  1
  Co  Co21  1  0.142097  0.142097  0.573784  1
  Co  Co22  1  0.142095  0.573741  0.142083  1
  Co  Co23  1  0.573741  0.142095  0.142083  1
