# generated using pymatgen
data_Tb2Dy2YSn3
_symmetry_space_group_name_H-M   'P 1'
_cell_length_a   8.99443367
_cell_length_b   9.00643741
_cell_length_c   6.56617400
_cell_angle_alpha   90.00000000
_cell_angle_beta   90.00000000
_cell_angle_gamma   120.04415899
_symmetry_Int_Tables_number   1
_chemical_formula_structural   Tb2Dy2YSn3
_chemical_formula_sum   'Tb4 Dy4 Y2 Sn6'
_cell_volume   460.44361518
_cell_formula_units_Z   2
loop_
 _symmetry_equiv_pos_site_id
 _symmetry_equiv_pos_as_xyz
  1  'x, y, z'
loop_
 _atom_site_type_symbol
 _atom_site_label
 _atom_site_symmetry_multiplicity
 _atom_site_fract_x
 _atom_site_fract_y
 _atom_site_fract_z
 _atom_site_occupancy
  Tb  Tb0  1  0.761071  0.761094  0.250000  1
  Tb  Tb1  1  0.761071  0.999976  0.750000  1
  Tb  Tb2  1  0.238929  0.238906  0.750000  1
  Tb  Tb3  1  0.238929  0.000024  0.250000  1
  Dy  Dy4  1  0.333321  0.666661  0.500000  1
  Dy  Dy5  1  0.666679  0.333339  0.000000  1
  Dy  Dy6  1  0.666679  0.333339  0.500000  1
  Dy  Dy7  1  0.333321  0.666661  0.000000  1
  Y  Y8  1  0.000000  0.760973  0.750000  1
  Y  Y9  1  0.000000  0.239027  0.250000  1
  Sn  Sn10  1  0.395254  0.999911  0.750000  1
  Sn  Sn11  1  0.395254  0.395343  0.250000  1
  Sn  Sn12  1  0.000000  0.604418  0.250000  1
  Sn  Sn13  1  0.000000  0.395582  0.750000  1
  Sn  Sn14  1  0.604746  0.604657  0.750000  1
  Sn  Sn15  1  0.604746  0.000089  0.250000  1
