# generated using pymatgen
data_Er7LuSc12Si15Sn
_symmetry_space_group_name_H-M   'P 1'
_cell_length_a   7.09820201
_cell_length_b   7.38580212
_cell_length_c   14.00995038
_cell_angle_alpha   89.97672088
_cell_angle_beta   89.55231557
_cell_angle_gamma   89.97725467
_symmetry_Int_Tables_number   1
_chemical_formula_structural   Er7LuSc12Si15Sn
_chemical_formula_sum   'Er7 Lu1 Sc12 Si15 Sn1'
_cell_volume   734.46193612
_cell_formula_units_Z   1
loop_
 _symmetry_equiv_pos_site_id
 _symmetry_equiv_pos_as_xyz
  1  'x, y, z'
loop_
 _atom_site_type_symbol
 _atom_site_label
 _atom_site_symmetry_multiplicity
 _atom_site_fract_x
 _atom_site_fract_y
 _atom_site_fract_z
 _atom_site_occupancy
  Er  Er0  1  0.988872  0.824627  0.904974  1
  Er  Er1  1  0.489458  0.676575  0.904816  1
  Er  Er2  1  0.989853  0.830234  0.598167  1
  Er  Er3  1  0.510307  0.323326  0.096591  1
  Er  Er4  1  0.004873  0.169729  0.399339  1
  Er  Er5  1  0.512765  0.319801  0.399433  1
  Er  Er6  1  0.501902  0.685128  0.599799  1
  Lu  Lu7  1  0.011055  0.176659  0.096655  1
  Sc  Sc8  1  0.163626  0.502710  0.755147  1
  Sc  Sc9  1  0.836117  0.496735  0.248917  1
  Sc  Sc10  1  0.335807  0.003370  0.249162  1
  Sc  Sc11  1  0.665403  0.996893  0.751811  1
  Sc  Sc12  1  0.344129  0.162459  0.630899  1
  Sc  Sc13  1  0.663233  0.824837  0.372391  1
  Sc  Sc14  1  0.162280  0.683971  0.368923  1
  Sc  Sc15  1  0.666823  0.823112  0.124093  1
  Sc  Sc16  1  0.824336  0.323455  0.626608  1
  Sc  Sc17  1  0.331401  0.176120  0.875861  1
  Sc  Sc18  1  0.832435  0.322643  0.875849  1
  Sc  Sc19  1  0.167548  0.677277  0.124961  1
  Si  Si20  1  0.035999  0.117228  0.751408  1
  Si  Si21  1  0.962288  0.887044  0.246420  1
  Si  Si22  1  0.464565  0.614037  0.248432  1
  Si  Si23  1  0.533932  0.386831  0.752435  1
  Si  Si24  1  0.287501  0.868927  0.752590  1
  Si  Si25  1  0.711963  0.128079  0.246971  1
  Si  Si26  1  0.210797  0.370776  0.248679  1
  Si  Si27  1  0.790114  0.629266  0.751709  1
  Si  Si28  1  0.829232  0.538651  0.458689  1
  Si  Si29  1  0.336826  0.964116  0.460264  1
  Si  Si30  1  0.840927  0.533938  0.039564  1
  Si  Si31  1  0.663985  0.037101  0.537714  1
  Si  Si32  1  0.158018  0.464391  0.961995  1
  Si  Si33  1  0.658786  0.035225  0.961042  1
  Si  Si34  1  0.339057  0.965956  0.039903  1
  Sn  Sn35  1  0.173786  0.458770  0.537791  1
