# generated using pymatgen
data_GdAl8CuRh3
_symmetry_space_group_name_H-M   'P 1'
_cell_length_a   11.60615966
_cell_length_b   11.58382748
_cell_length_c   11.74205217
_cell_angle_alpha   98.74954051
_cell_angle_beta   101.39732796
_cell_angle_gamma   131.21048079
_symmetry_Int_Tables_number   1
_chemical_formula_structural   GdAl8CuRh3
_chemical_formula_sum   'Gd1 Al8 Cu1 Rh3'
_cell_volume   1075.50724431
_cell_formula_units_Z   1
loop_
 _symmetry_equiv_pos_site_id
 _symmetry_equiv_pos_as_xyz
  1  'x, y, z'
loop_
 _atom_site_type_symbol
 _atom_site_label
 _atom_site_symmetry_multiplicity
 _atom_site_fract_x
 _atom_site_fract_y
 _atom_site_fract_z
 _atom_site_occupancy
  Gd  Gd0  1  0.000000  0.000000  0.000000  1
  Al  Al1  1  0.504753  0.728186  0.213927  1
  Al  Al2  1  0.290225  0.513633  0.786013  1
  Al  Al3  1  0.007755  0.351127  0.342181  1
  Al  Al4  1  0.664988  0.009094  0.657034  1
  Al  Al5  1  0.335012  0.990906  0.342966  1
  Al  Al6  1  0.992245  0.648873  0.657819  1
  Al  Al7  1  0.495247  0.271814  0.786073  1
  Al  Al8  1  0.709775  0.486367  0.213987  1
  Cu  Cu9  1  0.500000  0.000000  0.000000  1
  Rh  Rh10  1  0.000000  0.000000  0.500000  1
  Rh  Rh11  1  0.500000  0.500000  0.500000  1
  Rh  Rh12  1  0.000000  0.500000  0.000000  1
