# generated using pymatgen
data_Y3Mn8P6Rh
_symmetry_space_group_name_H-M   'P 1'
_cell_length_a   3.63982300
_cell_length_b   10.99591400
_cell_length_c   12.79640300
_cell_angle_alpha   90.00000000
_cell_angle_beta   90.00000000
_cell_angle_gamma   90.00000000
_symmetry_Int_Tables_number   1
_chemical_formula_structural   Y3Mn8P6Rh
_chemical_formula_sum   'Y6 Mn16 P12 Rh2'
_cell_volume   512.15274936
_cell_formula_units_Z   2
loop_
 _symmetry_equiv_pos_site_id
 _symmetry_equiv_pos_as_xyz
  1  'x, y, z'
loop_
 _atom_site_type_symbol
 _atom_site_label
 _atom_site_symmetry_multiplicity
 _atom_site_fract_x
 _atom_site_fract_y
 _atom_site_fract_z
 _atom_site_occupancy
  Y  Y0  1  0.000000  0.500000  0.528426  1
  Y  Y1  1  0.500000  0.000000  0.471574  1
  Y  Y2  1  0.500000  0.819314  0.205003  1
  Y  Y3  1  0.500000  0.180686  0.205003  1
  Y  Y4  1  0.000000  0.680686  0.794997  1
  Y  Y5  1  0.000000  0.319314  0.794997  1
  Mn  Mn6  1  0.500000  0.500000  0.166931  1
  Mn  Mn7  1  0.000000  0.000000  0.833069  1
  Mn  Mn8  1  0.000000  0.500000  0.995767  1
  Mn  Mn9  1  0.500000  0.000000  0.004233  1
  Mn  Mn10  1  0.500000  0.331530  0.998493  1
  Mn  Mn11  1  0.500000  0.668470  0.998493  1
  Mn  Mn12  1  0.000000  0.168470  0.001507  1
  Mn  Mn13  1  0.000000  0.831530  0.001507  1
  Mn  Mn14  1  0.500000  0.300144  0.432498  1
  Mn  Mn15  1  0.500000  0.699856  0.432498  1
  Mn  Mn16  1  0.000000  0.199856  0.567502  1
  Mn  Mn17  1  0.000000  0.800144  0.567502  1
  Mn  Mn18  1  0.500000  0.883324  0.703504  1
  Mn  Mn19  1  0.500000  0.116676  0.703504  1
  Mn  Mn20  1  0.000000  0.616676  0.296496  1
  Mn  Mn21  1  0.000000  0.383324  0.296496  1
  P  P22  1  0.500000  0.500000  0.889122  1
  P  P23  1  0.000000  0.000000  0.110878  1
  P  P24  1  0.500000  0.500000  0.358662  1
  P  P25  1  0.000000  0.000000  0.641338  1
  P  P26  1  0.500000  0.310679  0.616130  1
  P  P27  1  0.500000  0.689321  0.616130  1
  P  P28  1  0.000000  0.189321  0.383870  1
  P  P29  1  0.000000  0.810679  0.383870  1
  P  P30  1  0.500000  0.845861  0.885515  1
  P  P31  1  0.500000  0.154139  0.885515  1
  P  P32  1  0.000000  0.654139  0.114485  1
  P  P33  1  0.000000  0.345861  0.114485  1
  Rh  Rh34  1  0.500000  0.500000  0.706162  1
  Rh  Rh35  1  0.000000  0.000000  0.293838  1
