# generated using pymatgen
data_Sr4Tm(TcO4)3
_symmetry_space_group_name_H-M   'P 1'
_cell_length_a   5.70604754
_cell_length_b   5.71375116
_cell_length_c   8.15499853
_cell_angle_alpha   90.02774108
_cell_angle_beta   90.14213310
_cell_angle_gamma   89.96779769
_symmetry_Int_Tables_number   1
_chemical_formula_structural   Sr4Tm(TcO4)3
_chemical_formula_sum   'Sr4 Tm1 Tc3 O12'
_cell_volume   265.87600193
_cell_formula_units_Z   1
loop_
 _symmetry_equiv_pos_site_id
 _symmetry_equiv_pos_as_xyz
  1  'x, y, z'
loop_
 _atom_site_type_symbol
 _atom_site_label
 _atom_site_symmetry_multiplicity
 _atom_site_fract_x
 _atom_site_fract_y
 _atom_site_fract_z
 _atom_site_occupancy
  Sr  Sr0  1  0.478155  0.001181  0.756733  1
  Sr  Sr1  1  0.980505  0.498761  0.757730  1
  Sr  Sr2  1  0.521845  0.998819  0.243267  1
  Sr  Sr3  1  0.019495  0.501239  0.242270  1
  Tm  Tm4  1  0.500000  0.500000  0.500000  1
  Tc  Tc5  1  0.000000  0.000000  0.000000  1
  Tc  Tc6  1  0.500000  0.500000  0.000000  1
  Tc  Tc7  1  0.000000  0.000000  0.500000  1
  O  O8  1  0.008027  0.948063  0.750298  1
  O  O9  1  0.510850  0.556347  0.760566  1
  O  O10  1  0.991973  0.051937  0.249702  1
  O  O11  1  0.489150  0.443653  0.239434  1
  O  O12  1  0.715040  0.187457  0.526577  1
  O  O13  1  0.233514  0.266691  0.972274  1
  O  O14  1  0.265727  0.765803  0.026033  1
  O  O15  1  0.810908  0.716614  0.471582  1
  O  O16  1  0.284960  0.812543  0.473423  1
  O  O17  1  0.766486  0.733309  0.027726  1
  O  O18  1  0.734273  0.234197  0.973967  1
  O  O19  1  0.189092  0.283386  0.528418  1
