# generated using pymatgen
data_NaY2Si(PPd4)5
_symmetry_space_group_name_H-M   'P 1'
_cell_length_a   8.66957937
_cell_length_b   8.66957864
_cell_length_c   8.65862700
_cell_angle_alpha   60.04177458
_cell_angle_beta   60.04177738
_cell_angle_gamma   59.91645743
_symmetry_Int_Tables_number   1
_chemical_formula_structural   NaY2Si(PPd4)5
_chemical_formula_sum   'Na1 Y2 Si1 P5 Pd20'
_cell_volume   460.18101510
_cell_formula_units_Z   1
loop_
 _symmetry_equiv_pos_site_id
 _symmetry_equiv_pos_as_xyz
  1  'x, y, z'
loop_
 _atom_site_type_symbol
 _atom_site_label
 _atom_site_symmetry_multiplicity
 _atom_site_fract_x
 _atom_site_fract_y
 _atom_site_fract_z
 _atom_site_occupancy
  Na  Na0  1  0.999629  0.999629  0.000371  1
  Y  Y1  1  0.250803  0.250803  0.249197  1
  Y  Y2  1  0.750803  0.750803  0.749197  1
  Si  Si3  1  0.737307  0.737307  0.262693  1
  P  P4  1  0.739667  0.262106  0.260333  1
  P  P5  1  0.262106  0.739667  0.737894  1
  P  P6  1  0.262106  0.739667  0.260333  1
  P  P7  1  0.739667  0.262106  0.737894  1
  P  P8  1  0.261305  0.261305  0.738695  1
  Pd  Pd9  1  0.385173  0.385173  0.384939  1
  Pd  Pd10  1  0.614420  0.614420  0.617186  1
  Pd  Pd11  1  0.385173  0.385173  0.844715  1
  Pd  Pd12  1  0.382814  0.846028  0.385580  1
  Pd  Pd13  1  0.614420  0.614420  0.153972  1
  Pd  Pd14  1  0.615061  0.155285  0.614827  1
  Pd  Pd15  1  0.846028  0.382814  0.385580  1
  Pd  Pd16  1  0.155285  0.615061  0.614827  1
  Pd  Pd17  1  0.346424  0.999931  0.000069  1
  Pd  Pd18  1  0.653151  0.001864  0.998136  1
  Pd  Pd19  1  0.999931  0.346424  0.653576  1
  Pd  Pd20  1  0.001864  0.653151  0.346849  1
  Pd  Pd21  1  0.999931  0.346424  0.000069  1
  Pd  Pd22  1  0.653151  0.001864  0.346849  1
  Pd  Pd23  1  0.001864  0.653151  0.998136  1
  Pd  Pd24  1  0.346424  0.999931  0.653576  1
  Pd  Pd25  1  0.998874  0.998874  0.347149  1
  Pd  Pd26  1  0.998874  0.998874  0.655102  1
  Pd  Pd27  1  0.652851  0.344898  0.001126  1
  Pd  Pd28  1  0.344898  0.652851  0.001126  1
