# generated using pymatgen
data_PrNd3Mn4(Co4P3)4
_symmetry_space_group_name_H-M   'P 1'
_cell_length_a   3.69866900
_cell_length_b   10.45714502
_cell_length_c   11.93348103
_cell_angle_alpha   89.99241478
_cell_angle_beta   90.00000000
_cell_angle_gamma   90.00000000
_symmetry_Int_Tables_number   1
_chemical_formula_structural   PrNd3Mn4(Co4P3)4
_chemical_formula_sum   'Pr1 Nd3 Mn4 Co16 P12'
_cell_volume   461.55742464
_cell_formula_units_Z   1
loop_
 _symmetry_equiv_pos_site_id
 _symmetry_equiv_pos_as_xyz
  1  'x, y, z'
loop_
 _atom_site_type_symbol
 _atom_site_label
 _atom_site_symmetry_multiplicity
 _atom_site_fract_x
 _atom_site_fract_y
 _atom_site_fract_z
 _atom_site_occupancy
  Pr  Pr0  1  0.750000  0.082218  0.797172  1
  Nd  Nd1  1  0.250000  0.582139  0.702869  1
  Nd  Nd2  1  0.250000  0.917732  0.202824  1
  Nd  Nd3  1  0.750000  0.417725  0.297188  1
  Mn  Mn4  1  0.250000  0.707298  0.989187  1
  Mn  Mn5  1  0.250000  0.792815  0.489088  1
  Mn  Mn6  1  0.750000  0.292881  0.011028  1
  Mn  Mn7  1  0.750000  0.207469  0.510876  1
  Co  Co8  1  0.250000  0.405423  0.489878  1
  Co  Co9  1  0.250000  0.094479  0.990681  1
  Co  Co10  1  0.750000  0.594510  0.509987  1
  Co  Co11  1  0.750000  0.905147  0.010266  1
  Co  Co12  1  0.250000  0.221531  0.175444  1
  Co  Co13  1  0.250000  0.279024  0.675061  1
  Co  Co14  1  0.750000  0.778336  0.824771  1
  Co  Co15  1  0.750000  0.721379  0.324612  1
  Co  Co16  1  0.250000  0.882222  0.697866  1
  Co  Co17  1  0.250000  0.617170  0.198207  1
  Co  Co18  1  0.750000  0.117245  0.301809  1
  Co  Co19  1  0.750000  0.383176  0.801838  1
  Co  Co20  1  0.250000  0.467273  0.933260  1
  Co  Co21  1  0.250000  0.033101  0.432784  1
  Co  Co22  1  0.750000  0.533165  0.066992  1
  Co  Co23  1  0.750000  0.966687  0.566487  1
  P  P24  1  0.250000  0.419495  0.110778  1
  P  P25  1  0.250000  0.080750  0.609977  1
  P  P26  1  0.750000  0.580708  0.889411  1
  P  P27  1  0.750000  0.919436  0.389067  1
  P  P28  1  0.250000  0.275578  0.867216  1
  P  P29  1  0.250000  0.225379  0.367118  1
  P  P30  1  0.750000  0.725310  0.132858  1
  P  P31  1  0.750000  0.774615  0.633046  1
  P  P32  1  0.250000  0.603691  0.393170  1
  P  P33  1  0.250000  0.895110  0.893724  1
  P  P34  1  0.750000  0.395980  0.606631  1
  P  P35  1  0.750000  0.103801  0.106831  1
