# generated using pymatgen
data_Cs4Li2LuInAs4
_symmetry_space_group_name_H-M   'P 1'
_cell_length_a   9.94375666
_cell_length_b   9.94375567
_cell_length_c   9.94375535
_cell_angle_alpha   140.06261166
_cell_angle_beta   57.50375095
_cell_angle_gamma   140.39863021
_symmetry_Int_Tables_number   1
_chemical_formula_structural   Cs4Li2LuInAs4
_chemical_formula_sum   'Cs4 Li2 Lu1 In1 As4'
_cell_volume   398.88271862
_cell_formula_units_Z   1
loop_
 _symmetry_equiv_pos_site_id
 _symmetry_equiv_pos_as_xyz
  1  'x, y, z'
loop_
 _atom_site_type_symbol
 _atom_site_label
 _atom_site_symmetry_multiplicity
 _atom_site_fract_x
 _atom_site_fract_y
 _atom_site_fract_z
 _atom_site_occupancy
  Cs  Cs0  1  0.331199  0.773568  0.096882  1
  Cs  Cs1  1  0.168801  0.265683  0.442369  1
  Cs  Cs2  1  0.823315  0.726434  0.557631  1
  Cs  Cs3  1  0.676685  0.234318  0.903118  1
  Li  Li4  1  0.750000  0.250000  0.500000  1
  Li  Li5  1  0.250000  0.750001  0.500001  1
  Lu  Lu6  1  0.250000  0.250000  0.000000  1
  In  In7  1  0.749999  0.749999  0.000000  1
  As  As8  1  0.914500  0.238876  0.155492  1
  As  As9  1  0.585500  0.740993  0.324376  1
  As  As10  1  0.416617  0.261125  0.675625  1
  As  As11  1  0.083383  0.759008  0.844508  1
