# generated using pymatgen
data_CeY2Al8(SiOs)4
_symmetry_space_group_name_H-M   'P 1'
_cell_length_a   8.74192258
_cell_length_b   8.74192226
_cell_length_c   9.42630200
_cell_angle_alpha   90.00000000
_cell_angle_beta   90.00000000
_cell_angle_gamma   120.26196824
_symmetry_Int_Tables_number   1
_chemical_formula_structural   CeY2Al8(SiOs)4
_chemical_formula_sum   'Ce2 Y4 Al16 Si8 Os8'
_cell_volume   622.20482967
_cell_formula_units_Z   2
loop_
 _symmetry_equiv_pos_site_id
 _symmetry_equiv_pos_as_xyz
  1  'x, y, z'
loop_
 _atom_site_type_symbol
 _atom_site_label
 _atom_site_symmetry_multiplicity
 _atom_site_fract_x
 _atom_site_fract_y
 _atom_site_fract_z
 _atom_site_occupancy
  Ce  Ce0  1  0.192521  0.807479  0.250000  1
  Ce  Ce1  1  0.807479  0.192521  0.750000  1
  Y  Y2  1  0.192669  0.386742  0.250000  1
  Y  Y3  1  0.807331  0.613258  0.750000  1
  Y  Y4  1  0.613258  0.807331  0.250000  1
  Y  Y5  1  0.386742  0.192669  0.750000  1
  Al  Al6  1  0.165463  0.328459  0.577920  1
  Al  Al7  1  0.834537  0.671541  0.422080  1
  Al  Al8  1  0.671541  0.834537  0.577920  1
  Al  Al9  1  0.834537  0.671541  0.077920  1
  Al  Al10  1  0.328459  0.165463  0.422080  1
  Al  Al11  1  0.165463  0.328459  0.922080  1
  Al  Al12  1  0.164101  0.835899  0.577693  1
  Al  Al13  1  0.328459  0.165463  0.077920  1
  Al  Al14  1  0.835899  0.164101  0.422307  1
  Al  Al15  1  0.671541  0.834537  0.922080  1
  Al  Al16  1  0.835899  0.164101  0.077693  1
  Al  Al17  1  0.164101  0.835899  0.922307  1
  Al  Al18  1  0.564893  0.435107  0.250000  1
  Al  Al19  1  0.435107  0.564893  0.750000  1
  Al  Al20  1  0.000123  0.999877  0.250000  1
  Al  Al21  1  0.999877  0.000123  0.750000  1
  Si  Si22  1  0.335878  0.664122  0.038915  1
  Si  Si23  1  0.664122  0.335878  0.961085  1
  Si  Si24  1  0.664122  0.335878  0.538915  1
  Si  Si25  1  0.335878  0.664122  0.461085  1
  Si  Si26  1  0.565629  0.125735  0.250000  1
  Si  Si27  1  0.434371  0.874265  0.750000  1
  Si  Si28  1  0.874265  0.434371  0.250000  1
  Si  Si29  1  0.125735  0.565629  0.750000  1
  Os  Os30  1  0.500000  0.000000  0.000000  1
  Os  Os31  1  0.000000  0.500000  0.000000  1
  Os  Os32  1  0.500000  0.000000  0.500000  1
  Os  Os33  1  0.500000  0.500000  0.000000  1
  Os  Os34  1  0.000000  0.500000  0.500000  1
  Os  Os35  1  0.500000  0.500000  0.500000  1
  Os  Os36  1  0.000000  0.000000  0.000000  1
  Os  Os37  1  0.000000  0.000000  0.500000  1
