# generated using pymatgen
data_Tb3CeY4(ReB6)4
_symmetry_space_group_name_H-M   'P 1'
_cell_length_a   3.70332100
_cell_length_b   9.19872820
_cell_length_c   11.59168051
_cell_angle_alpha   90.05846582
_cell_angle_beta   90.00000000
_cell_angle_gamma   90.00000000
_symmetry_Int_Tables_number   1
_chemical_formula_structural   Tb3CeY4(ReB6)4
_chemical_formula_sum   'Tb3 Ce1 Y4 Re4 B24'
_cell_volume   394.88016628
_cell_formula_units_Z   1
loop_
 _symmetry_equiv_pos_site_id
 _symmetry_equiv_pos_as_xyz
  1  'x, y, z'
loop_
 _atom_site_type_symbol
 _atom_site_label
 _atom_site_symmetry_multiplicity
 _atom_site_fract_x
 _atom_site_fract_y
 _atom_site_fract_z
 _atom_site_occupancy
  Tb  Tb0  1  0.000000  0.824152  0.086117  1
  Tb  Tb1  1  0.000000  0.176345  0.914321  1
  Tb  Tb2  1  0.000000  0.323015  0.413261  1
  Ce  Ce3  1  0.000000  0.676325  0.586125  1
  Y  Y4  1  0.000000  0.442808  0.129698  1
  Y  Y5  1  0.000000  0.556881  0.871096  1
  Y  Y6  1  0.000000  0.943506  0.369855  1
  Y  Y7  1  0.000000  0.057289  0.629742  1
  Re  Re8  1  0.000000  0.138732  0.178837  1
  Re  Re9  1  0.000000  0.860577  0.820356  1
  Re  Re10  1  0.000000  0.638485  0.321513  1
  Re  Re11  1  0.000000  0.362095  0.679132  1
  B  B12  1  0.500000  0.053272  0.067302  1
  B  B13  1  0.500000  0.946488  0.932654  1
  B  B14  1  0.500000  0.553918  0.432137  1
  B  B15  1  0.500000  0.446226  0.567926  1
  B  B16  1  0.500000  0.248699  0.081742  1
  B  B17  1  0.500000  0.751583  0.918727  1
  B  B18  1  0.500000  0.748378  0.417663  1
  B  B19  1  0.500000  0.251197  0.581783  1
  B  B20  1  0.500000  0.291661  0.234329  1
  B  B21  1  0.500000  0.708932  0.766003  1
  B  B22  1  0.500000  0.791425  0.265277  1
  B  B23  1  0.500000  0.208455  0.734298  1
  B  B24  1  0.500000  0.131206  0.313790  1
  B  B25  1  0.500000  0.868837  0.686269  1
  B  B26  1  0.500000  0.630718  0.185848  1
  B  B27  1  0.500000  0.368578  0.814500  1
  B  B28  1  0.500000  0.482701  0.287382  1
  B  B29  1  0.500000  0.516126  0.712390  1
  B  B30  1  0.500000  0.983100  0.211842  1
  B  B31  1  0.500000  0.017073  0.788148  1
  B  B32  1  0.500000  0.102067  0.471320  1
  B  B33  1  0.500000  0.899363  0.528049  1
  B  B34  1  0.500000  0.600861  0.028511  1
  B  B35  1  0.500000  0.398923  0.972056  1
