# generated using pymatgen
data_Li2ErPaRh4
_symmetry_space_group_name_H-M   'P 1'
_cell_length_a   6.04490100
_cell_length_b   6.04449000
_cell_length_c   7.10313700
_cell_angle_alpha   90.00000000
_cell_angle_beta   90.00045496
_cell_angle_gamma   90.00000000
_symmetry_Int_Tables_number   1
_chemical_formula_structural   Li2ErPaRh4
_chemical_formula_sum   'Li4 Er2 Pa2 Rh8'
_cell_volume   259.53686067
_cell_formula_units_Z   2
loop_
 _symmetry_equiv_pos_site_id
 _symmetry_equiv_pos_as_xyz
  1  'x, y, z'
loop_
 _atom_site_type_symbol
 _atom_site_label
 _atom_site_symmetry_multiplicity
 _atom_site_fract_x
 _atom_site_fract_y
 _atom_site_fract_z
 _atom_site_occupancy
  Li  Li0  1  0.750020  0.250001  0.000018  1
  Li  Li1  1  0.250003  0.750000  0.000011  1
  Li  Li2  1  0.750037  0.250001  0.500029  1
  Li  Li3  1  0.249982  0.750000  0.500033  1
  Er  Er4  1  0.749826  0.750000  0.499958  1
  Er  Er5  1  0.250075  0.250001  0.500088  1
  Pa  Pa6  1  0.249973  0.250001  0.000019  1
  Pa  Pa7  1  0.750030  0.750000  0.999970  1
  Rh  Rh8  1  0.499932  0.000059  0.239119  1
  Rh  Rh9  1  0.499932  0.499942  0.239119  1
  Rh  Rh10  1  0.000073  0.000027  0.239110  1
  Rh  Rh11  1  0.000073  0.499976  0.239110  1
  Rh  Rh12  1  0.000065  0.999991  0.760864  1
  Rh  Rh13  1  0.000065  0.500007  0.760864  1
  Rh  Rh14  1  0.499958  0.000013  0.760844  1
  Rh  Rh15  1  0.499958  0.499985  0.760844  1
