# generated using pymatgen
data_Sc3ZnGa4Pd
_symmetry_space_group_name_H-M   'P 1'
_cell_length_a   6.57336700
_cell_length_b   6.56078895
_cell_length_c   4.12498100
_cell_angle_alpha   90.00000000
_cell_angle_beta   90.00000000
_cell_angle_gamma   120.06344430
_symmetry_Int_Tables_number   1
_chemical_formula_structural   Sc3ZnGa4Pd
_chemical_formula_sum   'Sc3 Zn1 Ga4 Pd1'
_cell_volume   153.96376740
_cell_formula_units_Z   1
loop_
 _symmetry_equiv_pos_site_id
 _symmetry_equiv_pos_as_xyz
  1  'x, y, z'
loop_
 _atom_site_type_symbol
 _atom_site_label
 _atom_site_symmetry_multiplicity
 _atom_site_fract_x
 _atom_site_fract_y
 _atom_site_fract_z
 _atom_site_occupancy
  Sc  Sc0  1  0.577480  0.000000  0.000000  1
  Sc  Sc1  1  0.420460  0.419378  0.000000  1
  Sc  Sc2  1  0.001082  0.580622  0.000000  1
  Zn  Zn3  1  0.246144  0.000000  0.500000  1
  Ga  Ga4  1  0.003576  0.245336  0.500000  1
  Ga  Ga5  1  0.664845  0.331102  0.500000  1
  Ga  Ga6  1  0.333744  0.668898  0.500000  1
  Ga  Ga7  1  0.758241  0.754665  0.500000  1
  Pd  Pd8  1  0.994428  0.000000  0.000000  1
