# generated using pymatgen
data_V(GaI4)2
_symmetry_space_group_name_H-M   'P 1'
_cell_length_a   11.33938334
_cell_length_b   11.33938335
_cell_length_c   13.65412798
_cell_angle_alpha   54.80165697
_cell_angle_beta   54.80165595
_cell_angle_gamma   48.96932338
_symmetry_Int_Tables_number   1
_chemical_formula_structural   V(GaI4)2
_chemical_formula_sum   'V2 Ga4 I16'
_cell_volume   1024.89330795
_cell_formula_units_Z   2
loop_
 _symmetry_equiv_pos_site_id
 _symmetry_equiv_pos_as_xyz
  1  'x, y, z'
loop_
 _atom_site_type_symbol
 _atom_site_label
 _atom_site_symmetry_multiplicity
 _atom_site_fract_x
 _atom_site_fract_y
 _atom_site_fract_z
 _atom_site_occupancy
  V  V0  1  0.995787  0.004213  0.750000  1
  V  V1  1  0.004213  0.995787  0.250000  1
  Ga  Ga2  1  0.677772  0.158275  0.030739  1
  Ga  Ga3  1  0.322228  0.841725  0.969261  1
  Ga  Ga4  1  0.841725  0.322228  0.469261  1
  Ga  Ga5  1  0.158275  0.677772  0.530739  1
  I  I6  1  0.867039  0.839192  0.507570  1
  I  I7  1  0.132961  0.160808  0.492430  1
  I  I8  1  0.689967  0.626018  0.441717  1
  I  I9  1  0.626018  0.689967  0.941717  1
  I  I10  1  0.839192  0.867039  0.007570  1
  I  I11  1  0.856552  0.305402  0.277213  1
  I  I12  1  0.146914  0.717256  0.189615  1
  I  I13  1  0.282744  0.853086  0.310385  1
  I  I14  1  0.143448  0.694598  0.722787  1
  I  I15  1  0.310033  0.373982  0.558283  1
  I  I16  1  0.694598  0.143448  0.222787  1
  I  I17  1  0.160808  0.132961  0.992430  1
  I  I18  1  0.373982  0.310033  0.058283  1
  I  I19  1  0.305402  0.856552  0.777213  1
  I  I20  1  0.717256  0.146914  0.689615  1
  I  I21  1  0.853086  0.282744  0.810385  1
