# generated using pymatgen
data_La4Pr12Cd4Pd3Ru
_symmetry_space_group_name_H-M   'P 1'
_cell_length_a   10.14922336
_cell_length_b   10.14922379
_cell_length_c   10.14922274
_cell_angle_alpha   59.47761630
_cell_angle_beta   59.47761234
_cell_angle_gamma   59.47761461
_symmetry_Int_Tables_number   1
_chemical_formula_structural   La4Pr12Cd4Pd3Ru
_chemical_formula_sum   'La4 Pr12 Cd4 Pd3 Ru1'
_cell_volume   730.45288472
_cell_formula_units_Z   1
loop_
 _symmetry_equiv_pos_site_id
 _symmetry_equiv_pos_as_xyz
  1  'x, y, z'
loop_
 _atom_site_type_symbol
 _atom_site_label
 _atom_site_symmetry_multiplicity
 _atom_site_fract_x
 _atom_site_fract_y
 _atom_site_fract_z
 _atom_site_occupancy
  La  La0  1  0.352463  0.352463  0.352463  1
  La  La1  1  0.345854  0.345854  0.952543  1
  La  La2  1  0.345854  0.952543  0.345854  1
  La  La3  1  0.952543  0.345854  0.345854  1
  Pr  Pr4  1  0.818136  0.188364  0.188364  1
  Pr  Pr5  1  0.189258  0.808209  0.808209  1
  Pr  Pr6  1  0.188364  0.818136  0.188364  1
  Pr  Pr7  1  0.808209  0.189258  0.808209  1
  Pr  Pr8  1  0.188364  0.188364  0.818136  1
  Pr  Pr9  1  0.808209  0.808209  0.189258  1
  Pr  Pr10  1  0.935029  0.564973  0.564973  1
  Pr  Pr11  1  0.560077  0.935845  0.935845  1
  Pr  Pr12  1  0.564973  0.935029  0.564973  1
  Pr  Pr13  1  0.935845  0.560077  0.935845  1
  Pr  Pr14  1  0.564973  0.564973  0.935029  1
  Pr  Pr15  1  0.935845  0.935845  0.560077  1
  Cd  Cd16  1  0.579638  0.579638  0.579638  1
  Cd  Cd17  1  0.580755  0.580755  0.257859  1
  Cd  Cd18  1  0.580755  0.257859  0.580755  1
  Cd  Cd19  1  0.257859  0.580755  0.580755  1
  Pd  Pd20  1  0.145844  0.145844  0.570622  1
  Pd  Pd21  1  0.145844  0.570622  0.145844  1
  Pd  Pd22  1  0.570622  0.145844  0.145844  1
  Ru  Ru23  1  0.144688  0.144688  0.144688  1
