# generated using pymatgen
data_Ho3Mg3CuAgRu
_symmetry_space_group_name_H-M   'P 1'
_cell_length_a   7.64102900
_cell_length_b   7.64102682
_cell_length_c   3.90661100
_cell_angle_alpha   90.00000000
_cell_angle_beta   90.00000000
_cell_angle_gamma   119.99999760
_symmetry_Int_Tables_number   1
_chemical_formula_structural   Ho3Mg3CuAgRu
_chemical_formula_sum   'Ho3 Mg3 Cu1 Ag1 Ru1'
_cell_volume   197.53060004
_cell_formula_units_Z   1
loop_
 _symmetry_equiv_pos_site_id
 _symmetry_equiv_pos_as_xyz
  1  'x, y, z'
loop_
 _atom_site_type_symbol
 _atom_site_label
 _atom_site_symmetry_multiplicity
 _atom_site_fract_x
 _atom_site_fract_y
 _atom_site_fract_z
 _atom_site_occupancy
  Ho  Ho0  1  0.572486  0.964051  0.000000  1
  Ho  Ho1  1  0.035949  0.608435  0.000000  1
  Ho  Ho2  1  0.391565  0.427514  0.000000  1
  Mg  Mg3  1  0.250552  0.004104  0.500000  1
  Mg  Mg4  1  0.995896  0.246448  0.500000  1
  Mg  Mg5  1  0.753552  0.749448  0.500000  1
  Cu  Cu6  1  0.000000  0.000000  0.000000  1
  Ag  Ag7  1  0.666667  0.333333  0.500000  1
  Ru  Ru8  1  0.333333  0.666667  0.500000  1
