# generated using pymatgen
data_Er4Cd2CuPd3
_symmetry_space_group_name_H-M   'P 1'
_cell_length_a   7.62068808
_cell_length_b   7.62068808
_cell_length_c   3.70068700
_cell_angle_alpha   90.00000000
_cell_angle_beta   90.00000000
_cell_angle_gamma   90.23537283
_symmetry_Int_Tables_number   1
_chemical_formula_structural   Er4Cd2CuPd3
_chemical_formula_sum   'Er4 Cd2 Cu1 Pd3'
_cell_volume   214.91516496
_cell_formula_units_Z   1
loop_
 _symmetry_equiv_pos_site_id
 _symmetry_equiv_pos_as_xyz
  1  'x, y, z'
loop_
 _atom_site_type_symbol
 _atom_site_label
 _atom_site_symmetry_multiplicity
 _atom_site_fract_x
 _atom_site_fract_y
 _atom_site_fract_z
 _atom_site_occupancy
  Er  Er0  1  0.672992  0.172992  0.500000  1
  Er  Er1  1  0.328006  0.828006  0.500000  1
  Er  Er2  1  0.171384  0.327548  0.500000  1
  Er  Er3  1  0.827548  0.671384  0.500000  1
  Cd  Cd4  1  0.001102  0.997237  0.000000  1
  Cd  Cd5  1  0.497237  0.501102  0.000000  1
  Cu  Cu6  1  0.124716  0.624716  0.000000  1
  Pd  Pd7  1  0.877212  0.377212  0.000000  1
  Pd  Pd8  1  0.628860  0.870943  0.000000  1
  Pd  Pd9  1  0.370943  0.128860  0.000000  1
