# generated using pymatgen
data_La4Tb6Si7Ir
_symmetry_space_group_name_H-M   'P 1'
_cell_length_a   7.75961800
_cell_length_b   7.80596317
_cell_length_c   14.44141400
_cell_angle_alpha   90.00000000
_cell_angle_beta   90.00000000
_cell_angle_gamma   90.15662848
_symmetry_Int_Tables_number   1
_chemical_formula_structural   La4Tb6Si7Ir
_chemical_formula_sum   'La8 Tb12 Si14 Ir2'
_cell_volume   874.73184014
_cell_formula_units_Z   2
loop_
 _symmetry_equiv_pos_site_id
 _symmetry_equiv_pos_as_xyz
  1  'x, y, z'
loop_
 _atom_site_type_symbol
 _atom_site_label
 _atom_site_symmetry_multiplicity
 _atom_site_fract_x
 _atom_site_fract_y
 _atom_site_fract_z
 _atom_site_occupancy
  La  La0  1  0.630996  0.988922  0.459847  1
  La  La1  1  0.369004  0.011078  0.959847  1
  La  La2  1  0.988596  0.638177  0.540609  1
  La  La3  1  0.491978  0.862537  0.204904  1
  La  La4  1  0.508022  0.137463  0.704904  1
  La  La5  1  0.861504  0.493742  0.792981  1
  La  La6  1  0.138496  0.506258  0.292981  1
  La  La7  1  0.011404  0.361823  0.040609  1
  Tb  Tb8  1  0.492735  0.360392  0.121648  1
  Tb  Tb9  1  0.993687  0.134053  0.625511  1
  Tb  Tb10  1  0.863612  0.015362  0.878320  1
  Tb  Tb11  1  0.136388  0.984638  0.378320  1
  Tb  Tb12  1  0.507265  0.639608  0.621648  1
  Tb  Tb13  1  0.364378  0.493436  0.876022  1
  Tb  Tb14  1  0.635622  0.506564  0.376022  1
  Tb  Tb15  1  0.006313  0.865947  0.125511  1
  Tb  Tb16  1  0.311698  0.306162  0.502718  1
  Tb  Tb17  1  0.188161  0.823085  0.744480  1
  Tb  Tb18  1  0.811839  0.176915  0.244480  1
  Tb  Tb19  1  0.688302  0.693838  0.002718  1
  Si  Si20  1  0.929219  0.288242  0.437610  1
  Si  Si21  1  0.428614  0.211503  0.311012  1
  Si  Si22  1  0.571386  0.788497  0.811012  1
  Si  Si23  1  0.211497  0.435242  0.690320  1
  Si  Si24  1  0.788503  0.564758  0.190320  1
  Si  Si25  1  0.070781  0.711758  0.937610  1
  Si  Si26  1  0.795107  0.846288  0.692778  1
  Si  Si27  1  0.204893  0.153712  0.192778  1
  Si  Si28  1  0.845267  0.789500  0.309859  1
  Si  Si29  1  0.343305  0.696151  0.441726  1
  Si  Si30  1  0.656695  0.303849  0.941726  1
  Si  Si31  1  0.706218  0.345223  0.557336  1
  Si  Si32  1  0.293782  0.654777  0.057336  1
  Si  Si33  1  0.154733  0.210500  0.809859  1
  Ir  Ir34  1  0.289172  0.934876  0.562321  1
  Ir  Ir35  1  0.710828  0.065124  0.062321  1
