# generated using pymatgen
data_Tb11Ho5In2(AgRh2)2
_symmetry_space_group_name_H-M   'P 1'
_cell_length_a   9.60000257
_cell_length_b   9.60887461
_cell_length_c   9.61615108
_cell_angle_alpha   59.92695514
_cell_angle_beta   59.90455958
_cell_angle_gamma   59.97811308
_symmetry_Int_Tables_number   1
_chemical_formula_structural   Tb11Ho5In2(AgRh2)2
_chemical_formula_sum   'Tb11 Ho5 In2 Ag2 Rh4'
_cell_volume   626.33148436
_cell_formula_units_Z   1
loop_
 _symmetry_equiv_pos_site_id
 _symmetry_equiv_pos_as_xyz
  1  'x, y, z'
loop_
 _atom_site_type_symbol
 _atom_site_label
 _atom_site_symmetry_multiplicity
 _atom_site_fract_x
 _atom_site_fract_y
 _atom_site_fract_z
 _atom_site_occupancy
  Tb  Tb0  1  0.185689  0.187133  0.812817  1
  Tb  Tb1  1  0.600659  0.600077  0.198480  1
  Tb  Tb2  1  0.439159  0.059902  0.440565  1
  Tb  Tb3  1  0.441368  0.441959  0.058085  1
  Tb  Tb4  1  0.813185  0.183425  0.813861  1
  Tb  Tb5  1  0.181817  0.812407  0.191488  1
  Tb  Tb6  1  0.438748  0.060731  0.059130  1
  Tb  Tb7  1  0.183490  0.813017  0.814117  1
  Tb  Tb8  1  0.060740  0.437900  0.060589  1
  Tb  Tb9  1  0.810714  0.811101  0.189458  1
  Tb  Tb10  1  0.197901  0.602085  0.601598  1
  Ho  Ho11  1  0.059000  0.438481  0.441355  1
  Ho  Ho12  1  0.061522  0.061642  0.436859  1
  Ho  Ho13  1  0.812183  0.182692  0.191271  1
  Ho  Ho14  1  0.601703  0.198357  0.601246  1
  Ho  Ho15  1  0.600565  0.599520  0.599821  1
  In  In16  1  0.507957  0.833409  0.828168  1
  In  In17  1  0.832944  0.507518  0.828659  1
  Ag  Ag18  1  0.833425  0.834005  0.831185  1
  Ag  Ag19  1  0.833465  0.834863  0.499879  1
  Rh  Rh20  1  0.393251  0.822760  0.393054  1
  Rh  Rh21  1  0.393453  0.391905  0.392200  1
  Rh  Rh22  1  0.822444  0.392411  0.394175  1
  Rh  Rh23  1  0.394619  0.392702  0.821943  1
