# generated using pymatgen
data_Sc4BiSb3
_symmetry_space_group_name_H-M   'P 1'
_cell_length_a   4.20788600
_cell_length_b   4.20788585
_cell_length_c   13.73547800
_cell_angle_alpha   90.00000000
_cell_angle_beta   90.00000000
_cell_angle_gamma   120.00000117
_symmetry_Int_Tables_number   1
_chemical_formula_structural   Sc4BiSb3
_chemical_formula_sum   'Sc4 Bi1 Sb3'
_cell_volume   210.62131485
_cell_formula_units_Z   1
loop_
 _symmetry_equiv_pos_site_id
 _symmetry_equiv_pos_as_xyz
  1  'x, y, z'
loop_
 _atom_site_type_symbol
 _atom_site_label
 _atom_site_symmetry_multiplicity
 _atom_site_fract_x
 _atom_site_fract_y
 _atom_site_fract_z
 _atom_site_occupancy
  Sc  Sc0  1  0.333333  0.666667  0.881809  1
  Sc  Sc1  1  0.666667  0.333333  0.123257  1
  Sc  Sc2  1  0.666667  0.333333  0.376743  1
  Sc  Sc3  1  0.333333  0.666667  0.618191  1
  Bi  Bi4  1  0.666667  0.333333  0.750000  1
  Sb  Sb5  1  0.333333  0.666667  0.250000  1
  Sb  Sb6  1  0.000000  0.000000  0.498577  1
  Sb  Sb7  1  0.000000  0.000000  0.001423  1
