# generated using pymatgen
data_NdPa3(Al3Rh)6
_symmetry_space_group_name_H-M   'P 1'
_cell_length_a   7.63167106
_cell_length_b   7.62453233
_cell_length_c   9.45854300
_cell_angle_alpha   90.00000000
_cell_angle_beta   90.00000000
_cell_angle_gamma   119.57405757
_symmetry_Int_Tables_number   1
_chemical_formula_structural   NdPa3(Al3Rh)6
_chemical_formula_sum   'Nd1 Pa3 Al18 Rh6'
_cell_volume   478.66954626
_cell_formula_units_Z   1
loop_
 _symmetry_equiv_pos_site_id
 _symmetry_equiv_pos_as_xyz
  1  'x, y, z'
loop_
 _atom_site_type_symbol
 _atom_site_label
 _atom_site_symmetry_multiplicity
 _atom_site_fract_x
 _atom_site_fract_y
 _atom_site_fract_z
 _atom_site_occupancy
  Nd  Nd0  1  0.330198  0.005295  0.250000  1
  Pa  Pa1  1  0.994705  0.668716  0.750000  1
  Pa  Pa2  1  0.001916  0.329126  0.250000  1
  Pa  Pa3  1  0.673217  0.997048  0.750000  1
  Al  Al4  1  0.129096  0.129335  0.750000  1
  Al  Al5  1  0.870628  0.873166  0.250000  1
  Al  Al6  1  0.003029  0.334997  0.573983  1
  Al  Al7  1  0.998208  0.665646  0.426242  1
  Al  Al8  1  0.998208  0.665646  0.073758  1
  Al  Al9  1  0.335205  0.002619  0.924616  1
  Al  Al10  1  0.003029  0.334997  0.926017  1
  Al  Al11  1  0.664550  0.997099  0.073635  1
  Al  Al12  1  0.664550  0.997099  0.426365  1
  Al  Al13  1  0.335205  0.002619  0.575384  1
  Al  Al14  1  0.334368  0.334511  0.051956  1
  Al  Al15  1  0.664765  0.664843  0.947954  1
  Al  Al16  1  0.664765  0.664843  0.552046  1
  Al  Al17  1  0.334368  0.334511  0.448044  1
  Al  Al18  1  0.340440  0.548288  0.750000  1
  Al  Al19  1  0.662853  0.453677  0.250000  1
  Al  Al20  1  0.546950  0.340423  0.750000  1
  Al  Al21  1  0.449978  0.656712  0.250000  1
  Rh  Rh22  1  0.673075  0.328526  0.501631  1
  Rh  Rh23  1  0.328202  0.672047  0.502068  1
  Rh  Rh24  1  0.328202  0.672047  0.997932  1
  Rh  Rh25  1  0.673075  0.328526  0.998369  1
  Rh  Rh26  1  0.998609  0.998819  0.502032  1
  Rh  Rh27  1  0.998609  0.998819  0.997968  1
