# generated using pymatgen
data_DyY2Fe7B2
_symmetry_space_group_name_H-M   'P 1'
_cell_length_a   5.12955032
_cell_length_b   5.12955011
_cell_length_c   14.55337600
_cell_angle_alpha   90.00000000
_cell_angle_beta   90.00000000
_cell_angle_gamma   120.01124004
_symmetry_Int_Tables_number   1
_chemical_formula_structural   DyY2Fe7B2
_chemical_formula_sum   'Dy2 Y4 Fe14 B4'
_cell_volume   331.59177751
_cell_formula_units_Z   2
loop_
 _symmetry_equiv_pos_site_id
 _symmetry_equiv_pos_as_xyz
  1  'x, y, z'
loop_
 _atom_site_type_symbol
 _atom_site_label
 _atom_site_symmetry_multiplicity
 _atom_site_fract_x
 _atom_site_fract_y
 _atom_site_fract_z
 _atom_site_occupancy
  Dy  Dy0  1  0.666681  0.333319  0.250000  1
  Dy  Dy1  1  0.333319  0.666681  0.750000  1
  Y  Y2  1  0.666654  0.333346  0.034553  1
  Y  Y3  1  0.333346  0.666654  0.965447  1
  Y  Y4  1  0.333346  0.666654  0.534553  1
  Y  Y5  1  0.666654  0.333346  0.465447  1
  Fe  Fe6  1  0.834443  0.668920  0.647056  1
  Fe  Fe7  1  0.834446  0.165554  0.647065  1
  Fe  Fe8  1  0.331080  0.165557  0.647056  1
  Fe  Fe9  1  0.165557  0.331080  0.352944  1
  Fe  Fe10  1  0.165554  0.834446  0.352935  1
  Fe  Fe11  1  0.668920  0.834443  0.352944  1
  Fe  Fe12  1  0.165557  0.331080  0.147056  1
  Fe  Fe13  1  0.165554  0.834446  0.147065  1
  Fe  Fe14  1  0.668920  0.834443  0.147056  1
  Fe  Fe15  1  0.834443  0.668920  0.852944  1
  Fe  Fe16  1  0.834446  0.165554  0.852935  1
  Fe  Fe17  1  0.331080  0.165557  0.852944  1
  Fe  Fe18  1  0.000000  0.000000  0.500000  1
  Fe  Fe19  1  0.000000  0.000000  0.000000  1
  B  B20  1  0.666645  0.333355  0.750000  1
  B  B21  1  0.333355  0.666645  0.250000  1
  B  B22  1  0.999989  0.000011  0.750000  1
  B  B23  1  0.000011  0.999989  0.250000  1
