# generated using pymatgen
data_La12Dy2IrRh5
_symmetry_space_group_name_H-M   'P 1'
_cell_length_a   10.23817700
_cell_length_b   10.24109529
_cell_length_c   6.44159780
_cell_angle_alpha   90.04943091
_cell_angle_beta   90.00000000
_cell_angle_gamma   119.99058376
_symmetry_Int_Tables_number   1
_chemical_formula_structural   La12Dy2IrRh5
_chemical_formula_sum   'La12 Dy2 Ir1 Rh5'
_cell_volume   584.97089933
_cell_formula_units_Z   1
loop_
 _symmetry_equiv_pos_site_id
 _symmetry_equiv_pos_as_xyz
  1  'x, y, z'
loop_
 _atom_site_type_symbol
 _atom_site_label
 _atom_site_symmetry_multiplicity
 _atom_site_fract_x
 _atom_site_fract_y
 _atom_site_fract_z
 _atom_site_occupancy
  La  La0  1  0.873250  0.746501  0.764492  1
  La  La1  1  0.253006  0.127296  0.764674  1
  La  La2  1  0.874289  0.127296  0.764674  1
  La  La3  1  0.126742  0.253483  0.263865  1
  La  La4  1  0.746638  0.873380  0.264358  1
  La  La5  1  0.126742  0.873380  0.264358  1
  La  La6  1  0.457647  0.915294  0.595242  1
  La  La7  1  0.084534  0.541814  0.595640  1
  La  La8  1  0.457280  0.541814  0.595640  1
  La  La9  1  0.542607  0.085214  0.094992  1
  La  La10  1  0.915335  0.457104  0.094690  1
  La  La11  1  0.541769  0.457104  0.094690  1
  Dy  Dy12  1  0.666677  0.333354  0.567587  1
  Dy  Dy13  1  0.332881  0.665763  0.066346  1
  Ir  Ir14  1  0.190501  0.381001  0.854602  1
  Rh  Rh15  1  0.619466  0.810052  0.854197  1
  Rh  Rh16  1  0.190586  0.810052  0.854197  1
  Rh  Rh17  1  0.809600  0.619200  0.353616  1
  Rh  Rh18  1  0.381460  0.190449  0.353595  1
  Rh  Rh19  1  0.808989  0.190449  0.353595  1
