# generated using pymatgen
data_Ca12Tm3Ge12Mo5O48
_symmetry_space_group_name_H-M   'P 1'
_cell_length_a   11.07055650
_cell_length_b   11.07182802
_cell_length_c   11.07291513
_cell_angle_alpha   109.45651495
_cell_angle_beta   109.47976527
_cell_angle_gamma   109.46328487
_symmetry_Int_Tables_number   1
_chemical_formula_structural   Ca12Tm3Ge12Mo5O48
_chemical_formula_sum   'Ca12 Tm3 Ge12 Mo5 O48'
_cell_volume   1044.97134806
_cell_formula_units_Z   1
loop_
 _symmetry_equiv_pos_site_id
 _symmetry_equiv_pos_as_xyz
  1  'x, y, z'
loop_
 _atom_site_type_symbol
 _atom_site_label
 _atom_site_symmetry_multiplicity
 _atom_site_fract_x
 _atom_site_fract_y
 _atom_site_fract_z
 _atom_site_occupancy
  Ca  Ca0  1  0.250533  0.876247  0.626390  1
  Ca  Ca1  1  0.752581  0.625784  0.877464  1
  Ca  Ca2  1  0.627440  0.877976  0.755551  1
  Ca  Ca3  1  0.873825  0.626425  0.249332  1
  Ca  Ca4  1  0.625552  0.252738  0.878073  1
  Ca  Ca5  1  0.877539  0.755750  0.628125  1
  Ca  Ca6  1  0.749467  0.123753  0.373610  1
  Ca  Ca7  1  0.247419  0.374216  0.122536  1
  Ca  Ca8  1  0.372560  0.122024  0.244449  1
  Ca  Ca9  1  0.126175  0.373575  0.750668  1
  Ca  Ca10  1  0.374448  0.747262  0.121927  1
  Ca  Ca11  1  0.122461  0.244250  0.371875  1
  Tm  Tm12  1  0.500000  0.500000  0.500000  1
  Tm  Tm13  1  0.500000  0.000000  0.500000  1
  Tm  Tm14  1  0.000000  0.500000  0.500000  1
  Ge  Ge15  1  0.125813  0.752883  0.877411  1
  Ge  Ge16  1  0.874187  0.247117  0.122589  1
  Ge  Ge17  1  0.621988  0.373297  0.245574  1
  Ge  Ge18  1  0.749975  0.875014  0.125010  1
  Ge  Ge19  1  0.877417  0.125833  0.752819  1
  Ge  Ge20  1  0.247052  0.624145  0.372572  1
  Ge  Ge21  1  0.752948  0.375855  0.627428  1
  Ge  Ge22  1  0.250025  0.124986  0.874990  1
  Ge  Ge23  1  0.122583  0.874167  0.247181  1
  Ge  Ge24  1  0.378012  0.626703  0.754426  1
  Ge  Ge25  1  0.628057  0.751342  0.373452  1
  Ge  Ge26  1  0.371943  0.248658  0.626548  1
  Mo  Mo27  1  0.500000  0.500000  0.000000  1
  Mo  Mo28  1  0.000000  0.000000  0.500000  1
  Mo  Mo29  1  0.000000  0.500000  0.000000  1
  Mo  Mo30  1  0.500000  0.000000  0.000000  1
  Mo  Mo31  1  0.000000  0.000000  0.000000  1
  O  O32  1  0.411116  0.808474  0.790360  1
  O  O33  1  0.878035  0.395027  0.087870  1
  O  O34  1  0.103968  0.981453  0.691445  1
  O  O35  1  0.522414  0.626588  0.716263  1
  O  O36  1  0.695458  0.089677  0.714475  1
  O  O37  1  0.625329  0.714305  0.518004  1
  O  O38  1  0.622493  0.410460  0.099863  1
  O  O39  1  0.715864  0.520708  0.626005  1
  O  O40  1  0.803299  0.517263  0.393081  1
  O  O41  1  0.980983  0.790168  0.879828  1
  O  O42  1  0.790296  0.878492  0.982046  1
  O  O43  1  0.710351  0.691742  0.088022  1
  O  O44  1  0.409911  0.103966  0.626314  1
  O  O45  1  0.395130  0.804600  0.519062  1
  O  O46  1  0.089235  0.714959  0.695177  1
  O  O47  1  0.101702  0.625112  0.408693  1
  O  O48  1  0.517914  0.397444  0.807988  1
  O  O49  1  0.087958  0.878808  0.395183  1
  O  O50  1  0.978292  0.690226  0.102284  1
  O  O51  1  0.196701  0.482737  0.606919  1
  O  O52  1  0.690185  0.102143  0.978863  1
  O  O53  1  0.788327  0.410497  0.809528  1
  O  O54  1  0.396346  0.088062  0.878367  1
  O  O55  1  0.878889  0.980358  0.789853  1
  O  O56  1  0.588884  0.191526  0.209640  1
  O  O57  1  0.121965  0.604973  0.912130  1
  O  O58  1  0.896032  0.018547  0.308555  1
  O  O59  1  0.477586  0.373412  0.283737  1
  O  O60  1  0.304542  0.910323  0.285525  1
  O  O61  1  0.374671  0.285695  0.481996  1
  O  O62  1  0.377507  0.589540  0.900137  1
  O  O63  1  0.284136  0.479292  0.373995  1
  O  O64  1  0.121111  0.019642  0.210147  1
  O  O65  1  0.603654  0.911938  0.121633  1
  O  O66  1  0.211673  0.589503  0.190472  1
  O  O67  1  0.189158  0.211496  0.589521  1
  O  O68  1  0.309815  0.897857  0.021137  1
  O  O69  1  0.021708  0.309774  0.897716  1
  O  O70  1  0.912042  0.121192  0.604817  1
  O  O71  1  0.482086  0.602556  0.192012  1
  O  O72  1  0.898298  0.374888  0.591307  1
  O  O73  1  0.910765  0.285041  0.304823  1
  O  O74  1  0.604870  0.195400  0.480938  1
  O  O75  1  0.590089  0.896034  0.373686  1
  O  O76  1  0.289649  0.308258  0.911978  1
  O  O77  1  0.209704  0.121508  0.017954  1
  O  O78  1  0.019017  0.209832  0.120172  1
  O  O79  1  0.810842  0.788504  0.410479  1
