# generated using pymatgen
data_Tb5Tm3Sc12Si15Sn
_symmetry_space_group_name_H-M   'P 1'
_cell_length_a   7.12331349
_cell_length_b   7.41123608
_cell_length_c   14.05656345
_cell_angle_alpha   89.98819231
_cell_angle_beta   89.59436588
_cell_angle_gamma   90.07172935
_symmetry_Int_Tables_number   1
_chemical_formula_structural   Tb5Tm3Sc12Si15Sn
_chemical_formula_sum   'Tb5 Tm3 Sc12 Si15 Sn1'
_cell_volume   742.06274508
_cell_formula_units_Z   1
loop_
 _symmetry_equiv_pos_site_id
 _symmetry_equiv_pos_as_xyz
  1  'x, y, z'
loop_
 _atom_site_type_symbol
 _atom_site_label
 _atom_site_symmetry_multiplicity
 _atom_site_fract_x
 _atom_site_fract_y
 _atom_site_fract_z
 _atom_site_occupancy
  Tb  Tb0  1  0.011139  0.175605  0.096730  1
  Tb  Tb1  1  0.988566  0.825052  0.903813  1
  Tb  Tb2  1  0.489268  0.675474  0.904542  1
  Tb  Tb3  1  0.989137  0.830049  0.597438  1
  Tb  Tb4  1  0.510661  0.324456  0.097006  1
  Tm  Tm5  1  0.005730  0.170339  0.398796  1
  Tm  Tm6  1  0.512653  0.319519  0.399486  1
  Tm  Tm7  1  0.501699  0.685071  0.599715  1
  Sc  Sc8  1  0.162651  0.502010  0.754593  1
  Sc  Sc9  1  0.836869  0.497497  0.249916  1
  Sc  Sc10  1  0.337013  0.003046  0.250222  1
  Sc  Sc11  1  0.664095  0.997670  0.751182  1
  Sc  Sc12  1  0.343933  0.162786  0.630675  1
  Sc  Sc13  1  0.663650  0.824914  0.373015  1
  Sc  Sc14  1  0.163288  0.683258  0.369498  1
  Sc  Sc15  1  0.667691  0.823269  0.125001  1
  Sc  Sc16  1  0.823503  0.323949  0.626088  1
  Sc  Sc17  1  0.330976  0.175598  0.875034  1
  Sc  Sc18  1  0.831157  0.323694  0.875181  1
  Sc  Sc19  1  0.168814  0.676438  0.125721  1
  Si  Si20  1  0.035229  0.119731  0.750674  1
  Si  Si21  1  0.962990  0.885477  0.247708  1
  Si  Si22  1  0.465272  0.614858  0.249506  1
  Si  Si23  1  0.533165  0.385675  0.751422  1
  Si  Si24  1  0.288156  0.869799  0.751403  1
  Si  Si25  1  0.712023  0.127075  0.249197  1
  Si  Si26  1  0.211694  0.372309  0.250841  1
  Si  Si27  1  0.788780  0.627560  0.750433  1
  Si  Si28  1  0.828636  0.536932  0.458145  1
  Si  Si29  1  0.337806  0.965164  0.459893  1
  Si  Si30  1  0.842857  0.535320  0.039488  1
  Si  Si31  1  0.661331  0.037507  0.537494  1
  Si  Si32  1  0.156245  0.464374  0.961562  1
  Si  Si33  1  0.656677  0.035716  0.960991  1
  Si  Si34  1  0.342440  0.964846  0.039805  1
  Sn  Sn35  1  0.174207  0.457965  0.537786  1
