# generated using pymatgen
data_Zr4Sn2Ir9Rh
_symmetry_space_group_name_H-M   'P 1'
_cell_length_a   5.70006781
_cell_length_b   5.70006743
_cell_length_c   8.24030400
_cell_angle_alpha   90.00081866
_cell_angle_beta   90.00081981
_cell_angle_gamma   95.53908645
_symmetry_Int_Tables_number   1
_chemical_formula_structural   Zr4Sn2Ir9Rh
_chemical_formula_sum   'Zr4 Sn2 Ir9 Rh1'
_cell_volume   266.48366770
_cell_formula_units_Z   1
loop_
 _symmetry_equiv_pos_site_id
 _symmetry_equiv_pos_as_xyz
  1  'x, y, z'
loop_
 _atom_site_type_symbol
 _atom_site_label
 _atom_site_symmetry_multiplicity
 _atom_site_fract_x
 _atom_site_fract_y
 _atom_site_fract_z
 _atom_site_occupancy
  Zr  Zr0  1  0.780345  0.223556  0.499981  1
  Zr  Zr1  1  0.223407  0.776147  0.000035  1
  Zr  Zr2  1  0.223556  0.780345  0.499981  1
  Zr  Zr3  1  0.776147  0.223407  0.000035  1
  Sn  Sn4  1  0.499136  0.499136  0.748543  1
  Sn  Sn5  1  0.497425  0.497425  0.251345  1
  Ir  Ir6  1  0.735803  0.735803  0.000430  1
  Ir  Ir7  1  0.738083  0.738083  0.499614  1
  Ir  Ir8  1  0.261691  0.261691  0.999747  1
  Ir  Ir9  1  0.500140  0.000064  0.750034  1
  Ir  Ir10  1  0.500229  0.999248  0.249986  1
  Ir  Ir11  1  0.999807  0.999807  0.249466  1
  Ir  Ir12  1  0.999590  0.999590  0.750503  1
  Ir  Ir13  1  0.000064  0.500140  0.750034  1
  Ir  Ir14  1  0.999248  0.500229  0.249986  1
  Rh  Rh15  1  0.265328  0.265328  0.500280  1
