# generated using pymatgen
data_Ho4Lu16GaBi11
_symmetry_space_group_name_H-M   'P 1'
_cell_length_a   8.09571436
_cell_length_b   9.35524800
_cell_length_c   11.82768488
_cell_angle_alpha   90.00000000
_cell_angle_beta   90.26254602
_cell_angle_gamma   90.00000000
_symmetry_Int_Tables_number   1
_chemical_formula_structural   Ho4Lu16GaBi11
_chemical_formula_sum   'Ho4 Lu16 Ga1 Bi11'
_cell_volume   895.78888046
_cell_formula_units_Z   1
loop_
 _symmetry_equiv_pos_site_id
 _symmetry_equiv_pos_as_xyz
  1  'x, y, z'
loop_
 _atom_site_type_symbol
 _atom_site_label
 _atom_site_symmetry_multiplicity
 _atom_site_fract_x
 _atom_site_fract_y
 _atom_site_fract_z
 _atom_site_occupancy
  Ho  Ho0  1  0.313639  0.250000  0.218362  1
  Ho  Ho1  1  0.812670  0.250000  0.282570  1
  Ho  Ho2  1  0.676834  0.750000  0.787926  1
  Ho  Ho3  1  0.189774  0.750000  0.721618  1
  Lu  Lu4  1  0.354487  0.750000  0.208405  1
  Lu  Lu5  1  0.853433  0.750000  0.282490  1
  Lu  Lu6  1  0.647648  0.250000  0.781591  1
  Lu  Lu7  1  0.148080  0.250000  0.718299  1
  Lu  Lu8  1  0.683436  0.573161  0.056928  1
  Lu  Lu9  1  0.192465  0.933024  0.439201  1
  Lu  Lu10  1  0.309542  0.053487  0.940365  1
  Lu  Lu11  1  0.807704  0.433013  0.560145  1
  Lu  Lu12  1  0.309542  0.446513  0.940365  1
  Lu  Lu13  1  0.807704  0.066987  0.560145  1
  Lu  Lu14  1  0.683436  0.926839  0.056928  1
  Lu  Lu15  1  0.192465  0.566976  0.439201  1
  Lu  Lu16  1  0.477633  0.250000  0.489911  1
  Lu  Lu17  1  0.979654  0.250000  0.010058  1
  Lu  Lu18  1  0.522718  0.750000  0.510244  1
  Lu  Lu19  1  0.035874  0.750000  0.989792  1
  Ga  Ga20  1  0.404922  0.750000  0.961193  1
  Bi  Bi21  1  0.903043  0.750000  0.542808  1
  Bi  Bi22  1  0.597231  0.250000  0.041035  1
  Bi  Bi23  1  0.097854  0.250000  0.458880  1
  Bi  Bi24  1  0.565004  0.994767  0.326213  1
  Bi  Bi25  1  0.064018  0.504042  0.174835  1
  Bi  Bi26  1  0.435049  0.495248  0.674088  1
  Bi  Bi27  1  0.935037  0.004112  0.825634  1
  Bi  Bi28  1  0.435049  0.004752  0.674088  1
  Bi  Bi29  1  0.935037  0.495888  0.825634  1
  Bi  Bi30  1  0.565004  0.505233  0.326213  1
  Bi  Bi31  1  0.064018  0.995958  0.174835  1
