# generated using pymatgen
data_SrNd(Al3Pd)3
_symmetry_space_group_name_H-M   'P 1'
_cell_length_a   7.72835651
_cell_length_b   7.73682646
_cell_length_c   9.68068100
_cell_angle_alpha   90.00000000
_cell_angle_beta   90.00000000
_cell_angle_gamma   119.56610198
_symmetry_Int_Tables_number   1
_chemical_formula_structural   SrNd(Al3Pd)3
_chemical_formula_sum   'Sr2 Nd2 Al18 Pd6'
_cell_volume   503.46447304
_cell_formula_units_Z   2
loop_
 _symmetry_equiv_pos_site_id
 _symmetry_equiv_pos_as_xyz
  1  'x, y, z'
loop_
 _atom_site_type_symbol
 _atom_site_label
 _atom_site_symmetry_multiplicity
 _atom_site_fract_x
 _atom_site_fract_y
 _atom_site_fract_z
 _atom_site_occupancy
  Sr  Sr0  1  0.995265  0.668722  0.250000  1
  Sr  Sr1  1  0.004735  0.331278  0.750000  1
  Nd  Nd2  1  0.668330  0.995013  0.250000  1
  Nd  Nd3  1  0.331670  0.004987  0.750000  1
  Al  Al4  1  0.132409  0.134672  0.250000  1
  Al  Al5  1  0.867591  0.865328  0.750000  1
  Al  Al6  1  0.002836  0.333047  0.074387  1
  Al  Al7  1  0.997164  0.666953  0.925613  1
  Al  Al8  1  0.997164  0.666953  0.574387  1
  Al  Al9  1  0.336163  0.003547  0.428142  1
  Al  Al10  1  0.002836  0.333047  0.425613  1
  Al  Al11  1  0.663837  0.996453  0.571858  1
  Al  Al12  1  0.663837  0.996453  0.928142  1
  Al  Al13  1  0.336163  0.003547  0.071858  1
  Al  Al14  1  0.336004  0.334356  0.552082  1
  Al  Al15  1  0.663996  0.665644  0.447918  1
  Al  Al16  1  0.663996  0.665644  0.052082  1
  Al  Al17  1  0.336004  0.334356  0.947918  1
  Al  Al18  1  0.344485  0.546044  0.250000  1
  Al  Al19  1  0.655515  0.453956  0.750000  1
  Al  Al20  1  0.539429  0.334297  0.250000  1
  Al  Al21  1  0.460571  0.665703  0.750000  1
  Pd  Pd22  1  0.671022  0.329426  0.000438  1
  Pd  Pd23  1  0.328978  0.670574  0.999562  1
  Pd  Pd24  1  0.328978  0.670574  0.500438  1
  Pd  Pd25  1  0.671022  0.329426  0.499562  1
  Pd  Pd26  1  0.000000  0.000000  0.000000  1
  Pd  Pd27  1  0.000000  0.000000  0.500000  1
