# generated using pymatgen
data_ZrSnAs3PO14
_symmetry_space_group_name_H-M   'P 1'
_cell_length_a   5.43160017
_cell_length_b   7.10940986
_cell_length_c   8.81568518
_cell_angle_alpha   69.34115739
_cell_angle_beta   88.86440345
_cell_angle_gamma   88.95347258
_symmetry_Int_Tables_number   1
_chemical_formula_structural   ZrSnAs3PO14
_chemical_formula_sum   'Zr1 Sn1 As3 P1 O14'
_cell_volume   318.44625414
_cell_formula_units_Z   1
loop_
 _symmetry_equiv_pos_site_id
 _symmetry_equiv_pos_as_xyz
  1  'x, y, z'
loop_
 _atom_site_type_symbol
 _atom_site_label
 _atom_site_symmetry_multiplicity
 _atom_site_fract_x
 _atom_site_fract_y
 _atom_site_fract_z
 _atom_site_occupancy
  Zr  Zr0  1  0.235836  0.197980  0.731108  1
  Sn  Sn1  1  0.761763  0.793569  0.265168  1
  As  As2  1  0.247282  0.105015  0.167749  1
  As  As3  1  0.282481  0.464238  0.307130  1
  As  As4  1  0.724134  0.551254  0.683406  1
  P  P5  1  0.742892  0.879665  0.843388  1
  O  O6  1  0.177255  0.284738  0.478542  1
  O  O7  1  0.002979  0.949443  0.781258  1
  O  O8  1  0.099525  0.671261  0.225857  1
  O  O9  1  0.294719  0.357095  0.153531  1
  O  O10  1  0.303946  0.129006  0.973782  1
  O  O11  1  0.450582  0.949387  0.300771  1
  O  O12  1  0.436254  0.470157  0.672893  1
  O  O13  1  0.582815  0.522805  0.323074  1
  O  O14  1  0.547222  0.018447  0.734224  1
  O  O15  1  0.698590  0.852678  0.021346  1
  O  O16  1  0.707775  0.658469  0.838279  1
  O  O17  1  0.923010  0.357309  0.763106  1
  O  O18  1  0.945568  0.059403  0.224971  1
  O  O19  1  0.835373  0.728084  0.510419  1
