# generated using pymatgen
data_Yb5(CeRh2)3
_symmetry_space_group_name_H-M   'P 1'
_cell_length_a   8.33030243
_cell_length_b   8.45299556
_cell_length_c   5.91835900
_cell_angle_alpha   78.23613807
_cell_angle_beta   74.40930054
_cell_angle_gamma   119.91846253
_symmetry_Int_Tables_number   1
_chemical_formula_structural   Yb5(CeRh2)3
_chemical_formula_sum   'Yb5 Ce3 Rh6'
_cell_volume   318.14252829
_cell_formula_units_Z   1
loop_
 _symmetry_equiv_pos_site_id
 _symmetry_equiv_pos_as_xyz
  1  'x, y, z'
loop_
 _atom_site_type_symbol
 _atom_site_label
 _atom_site_symmetry_multiplicity
 _atom_site_fract_x
 _atom_site_fract_y
 _atom_site_fract_z
 _atom_site_occupancy
  Yb  Yb0  1  0.889241  0.615803  0.149315  1
  Yb  Yb1  1  0.342179  0.321551  0.304198  1
  Yb  Yb2  1  0.108691  0.395107  0.838813  1
  Yb  Yb3  1  0.386346  0.111325  0.844751  1
  Yb  Yb4  1  0.173809  0.834639  0.499072  1
  Ce  Ce5  1  0.674508  0.677004  0.693195  1
  Ce  Ce6  1  0.847857  0.187312  0.492294  1
  Ce  Ce7  1  0.602377  0.874763  0.166550  1
  Rh  Rh8  1  0.787214  0.452645  0.744983  1
  Rh  Rh9  1  0.990978  0.000273  0.241905  1
  Rh  Rh10  1  0.440833  0.813265  0.747963  1
  Rh  Rh11  1  0.604530  0.165971  0.231776  1
  Rh  Rh12  1  0.980374  0.996916  0.777746  1
  Rh  Rh13  1  0.171063  0.553427  0.267436  1
