# generated using pymatgen
data_Tm4Al5TcMo2
_symmetry_space_group_name_H-M   'P 1'
_cell_length_a   5.50428605
_cell_length_b   5.56438743
_cell_length_c   8.82167797
_cell_angle_alpha   89.99999751
_cell_angle_beta   89.51627683
_cell_angle_gamma   120.36186659
_symmetry_Int_Tables_number   1
_chemical_formula_structural   Tm4Al5TcMo2
_chemical_formula_sum   'Tm4 Al5 Tc1 Mo2'
_cell_volume   233.12250789
_cell_formula_units_Z   1
loop_
 _symmetry_equiv_pos_site_id
 _symmetry_equiv_pos_as_xyz
  1  'x, y, z'
loop_
 _atom_site_type_symbol
 _atom_site_label
 _atom_site_symmetry_multiplicity
 _atom_site_fract_x
 _atom_site_fract_y
 _atom_site_fract_z
 _atom_site_occupancy
  Tm  Tm0  1  0.331952  0.665977  0.442373  1
  Tm  Tm1  1  0.665632  0.332816  0.553880  1
  Tm  Tm2  1  0.666762  0.333381  0.945402  1
  Tm  Tm3  1  0.335399  0.667700  0.056198  1
  Al  Al4  1  0.830081  0.161095  0.246911  1
  Al  Al5  1  0.830081  0.668986  0.246911  1
  Al  Al6  1  0.322367  0.161183  0.247384  1
  Al  Al7  1  0.188537  0.846165  0.751989  1
  Al  Al8  1  0.188537  0.342371  0.751989  1
  Tc  Tc9  1  0.979772  0.989886  0.993359  1
  Mo  Mo10  1  0.973924  0.986961  0.510389  1
  Mo  Mo11  1  0.686956  0.843479  0.753217  1
