# generated using pymatgen
data_La2Al2SiGePt2
_symmetry_space_group_name_H-M   'P 1'
_cell_length_a   9.29455354
_cell_length_b   9.29455240
_cell_length_c   4.18484300
_cell_angle_alpha   90.00000000
_cell_angle_beta   90.00000000
_cell_angle_gamma   152.43036413
_symmetry_Int_Tables_number   1
_chemical_formula_structural   La2Al2SiGePt2
_chemical_formula_sum   'La2 Al2 Si1 Ge1 Pt2'
_cell_volume   167.32245750
_cell_formula_units_Z   1
loop_
 _symmetry_equiv_pos_site_id
 _symmetry_equiv_pos_as_xyz
  1  'x, y, z'
loop_
 _atom_site_type_symbol
 _atom_site_label
 _atom_site_symmetry_multiplicity
 _atom_site_fract_x
 _atom_site_fract_y
 _atom_site_fract_z
 _atom_site_occupancy
  La  La0  1  0.100650  0.899350  0.250000  1
  La  La1  1  0.899054  0.100946  0.750000  1
  Al  Al2  1  0.754570  0.245430  0.250000  1
  Al  Al3  1  0.246614  0.753386  0.750000  1
  Si  Si4  1  0.460113  0.539887  0.250000  1
  Ge  Ge5  1  0.536035  0.463965  0.750000  1
  Pt  Pt6  1  0.675191  0.324809  0.750000  1
  Pt  Pt7  1  0.327774  0.672226  0.250000  1
