# generated using pymatgen
data_Y6LuSc3(Si3H)2
_symmetry_space_group_name_H-M   'P 1'
_cell_length_a   8.32538300
_cell_length_b   8.32538310
_cell_length_c   6.00889000
_cell_angle_alpha   90.00000000
_cell_angle_beta   90.00000000
_cell_angle_gamma   120.00000358
_symmetry_Int_Tables_number   1
_chemical_formula_structural   Y6LuSc3(Si3H)2
_chemical_formula_sum   'Y6 Lu1 Sc3 Si6 H2'
_cell_volume   360.68934964
_cell_formula_units_Z   1
loop_
 _symmetry_equiv_pos_site_id
 _symmetry_equiv_pos_as_xyz
  1  'x, y, z'
loop_
 _atom_site_type_symbol
 _atom_site_label
 _atom_site_symmetry_multiplicity
 _atom_site_fract_x
 _atom_site_fract_y
 _atom_site_fract_z
 _atom_site_occupancy
  Y  Y0  1  0.747198  0.747396  0.751536  1
  Y  Y1  1  0.252604  0.999802  0.751536  1
  Y  Y2  1  0.000198  0.252802  0.751536  1
  Y  Y3  1  0.252604  0.252802  0.248464  1
  Y  Y4  1  0.747198  0.999802  0.248464  1
  Y  Y5  1  0.000198  0.747396  0.248464  1
  Lu  Lu6  1  0.666667  0.333333  0.500000  1
  Sc  Sc7  1  0.666667  0.333333  0.000000  1
  Sc  Sc8  1  0.333333  0.666667  0.000000  1
  Sc  Sc9  1  0.333333  0.666667  0.500000  1
  Si  Si10  1  0.391610  0.394681  0.754900  1
  Si  Si11  1  0.605319  0.996929  0.754900  1
  Si  Si12  1  0.003071  0.608390  0.754900  1
  Si  Si13  1  0.605319  0.608390  0.245100  1
  Si  Si14  1  0.391610  0.996929  0.245100  1
  Si  Si15  1  0.003071  0.394681  0.245100  1
  H  H16  1  0.000000  0.000000  0.500000  1
  H  H17  1  0.000000  0.000000  0.000000  1
