# generated using pymatgen
data_Nd7Ho10Lu3Si16
_symmetry_space_group_name_H-M   'P 1'
_cell_length_a   7.71086204
_cell_length_b   7.71636334
_cell_length_c   14.25260768
_cell_angle_alpha   89.96783108
_cell_angle_beta   89.89867287
_cell_angle_gamma   90.08156040
_symmetry_Int_Tables_number   1
_chemical_formula_structural   Nd7Ho10Lu3Si16
_chemical_formula_sum   'Nd7 Ho10 Lu3 Si16'
_cell_volume   848.02517449
_cell_formula_units_Z   1
loop_
 _symmetry_equiv_pos_site_id
 _symmetry_equiv_pos_as_xyz
  1  'x, y, z'
loop_
 _atom_site_type_symbol
 _atom_site_label
 _atom_site_symmetry_multiplicity
 _atom_site_fract_x
 _atom_site_fract_y
 _atom_site_fract_z
 _atom_site_occupancy
  Nd  Nd0  1  0.358368  0.007453  0.958521  1
  Nd  Nd1  1  0.992023  0.643189  0.540178  1
  Nd  Nd2  1  0.490133  0.858230  0.210057  1
  Nd  Nd3  1  0.510192  0.139310  0.707648  1
  Nd  Nd4  1  0.860226  0.489992  0.791568  1
  Nd  Nd5  1  0.139302  0.509603  0.292291  1
  Nd  Nd6  1  0.007468  0.358048  0.042424  1
  Ho  Ho7  1  0.491584  0.361180  0.124840  1
  Ho  Ho8  1  0.991674  0.136037  0.624315  1
  Ho  Ho9  1  0.862479  0.008255  0.874879  1
  Ho  Ho10  1  0.136974  0.993230  0.374912  1
  Ho  Ho11  1  0.511785  0.639865  0.622791  1
  Ho  Ho12  1  0.361209  0.491248  0.875449  1
  Ho  Ho13  1  0.639718  0.510107  0.376033  1
  Ho  Ho14  1  0.006570  0.861706  0.126842  1
  Ho  Ho15  1  0.635834  0.996083  0.456032  1
  Ho  Ho16  1  0.316762  0.317152  0.499573  1
  Lu  Lu17  1  0.185194  0.815702  0.749251  1
  Lu  Lu18  1  0.813993  0.183054  0.250479  1
  Lu  Lu19  1  0.683020  0.682228  0.000451  1
  Si  Si20  1  0.293337  0.938046  0.560914  1
  Si  Si21  1  0.709457  0.062750  0.062767  1
  Si  Si22  1  0.932673  0.287602  0.437318  1
  Si  Si23  1  0.438497  0.209396  0.312537  1
  Si  Si24  1  0.564800  0.788006  0.812516  1
  Si  Si25  1  0.211803  0.437068  0.687708  1
  Si  Si26  1  0.788142  0.564529  0.188161  1
  Si  Si27  1  0.064418  0.710434  0.938094  1
  Si  Si28  1  0.800449  0.843672  0.691269  1
  Si  Si29  1  0.202517  0.153515  0.189729  1
  Si  Si30  1  0.842822  0.802202  0.314164  1
  Si  Si31  1  0.350228  0.707216  0.437536  1
  Si  Si32  1  0.653536  0.296574  0.939867  1
  Si  Si33  1  0.701392  0.342017  0.558678  1
  Si  Si34  1  0.296619  0.653779  0.060853  1
  Si  Si35  1  0.154799  0.201521  0.809356  1
