# generated using pymatgen
data_La5Ir2Os
_symmetry_space_group_name_H-M   'P 1'
_cell_length_a   11.42155600
_cell_length_b   11.42155600
_cell_length_c   6.67853300
_cell_angle_alpha   90.00000000
_cell_angle_beta   90.00000000
_cell_angle_gamma   90.00000000
_symmetry_Int_Tables_number   1
_chemical_formula_structural   La5Ir2Os
_chemical_formula_sum   'La20 Ir8 Os4'
_cell_volume   871.22759596
_cell_formula_units_Z   4
loop_
 _symmetry_equiv_pos_site_id
 _symmetry_equiv_pos_as_xyz
  1  'x, y, z'
loop_
 _atom_site_type_symbol
 _atom_site_label
 _atom_site_symmetry_multiplicity
 _atom_site_fract_x
 _atom_site_fract_y
 _atom_site_fract_z
 _atom_site_occupancy
  La  La0  1  0.295020  0.089420  0.385795  1
  La  La1  1  0.295020  0.910580  0.885795  1
  La  La2  1  0.704980  0.089420  0.885795  1
  La  La3  1  0.704980  0.910580  0.385795  1
  La  La4  1  0.589420  0.795020  0.885795  1
  La  La5  1  0.589420  0.204980  0.385795  1
  La  La6  1  0.410580  0.795020  0.385795  1
  La  La7  1  0.410580  0.204980  0.885795  1
  La  La8  1  0.204980  0.410580  0.614205  1
  La  La9  1  0.204980  0.589420  0.114205  1
  La  La10  1  0.795020  0.410580  0.114205  1
  La  La11  1  0.795020  0.589420  0.614205  1
  La  La12  1  0.910580  0.704980  0.114205  1
  La  La13  1  0.910580  0.295020  0.614205  1
  La  La14  1  0.089420  0.704980  0.614205  1
  La  La15  1  0.089420  0.295020  0.114205  1
  La  La16  1  0.000000  0.000000  0.500000  1
  La  La17  1  0.000000  0.000000  0.000000  1
  La  La18  1  0.500000  0.500000  0.000000  1
  La  La19  1  0.500000  0.500000  0.500000  1
  Ir  Ir20  1  0.848377  0.151623  0.250000  1
  Ir  Ir21  1  0.848377  0.848377  0.750000  1
  Ir  Ir22  1  0.151623  0.151623  0.750000  1
  Ir  Ir23  1  0.151623  0.848377  0.250000  1
  Ir  Ir24  1  0.651623  0.348377  0.750000  1
  Ir  Ir25  1  0.651623  0.651623  0.250000  1
  Ir  Ir26  1  0.348377  0.348377  0.250000  1
  Ir  Ir27  1  0.348377  0.651623  0.750000  1
  Os  Os28  1  0.500000  0.000000  0.121503  1
  Os  Os29  1  0.500000  0.000000  0.621503  1
  Os  Os30  1  0.000000  0.500000  0.878497  1
  Os  Os31  1  0.000000  0.500000  0.378497  1
