# generated using pymatgen
data_Ho2P7(IrRu3)3
_symmetry_space_group_name_H-M   'P 1'
_cell_length_a   9.44602000
_cell_length_b   9.44601889
_cell_length_c   3.93474400
_cell_angle_alpha   90.00000000
_cell_angle_beta   90.00000000
_cell_angle_gamma   120.00000390
_symmetry_Int_Tables_number   1
_chemical_formula_structural   Ho2P7(IrRu3)3
_chemical_formula_sum   'Ho2 P7 Ir3 Ru9'
_cell_volume   304.04983134
_cell_formula_units_Z   1
loop_
 _symmetry_equiv_pos_site_id
 _symmetry_equiv_pos_as_xyz
  1  'x, y, z'
loop_
 _atom_site_type_symbol
 _atom_site_label
 _atom_site_symmetry_multiplicity
 _atom_site_fract_x
 _atom_site_fract_y
 _atom_site_fract_z
 _atom_site_occupancy
  Ho  Ho0  1  0.000000  0.000000  0.000000  1
  Ho  Ho1  1  0.333333  0.666667  0.500000  1
  P  P2  1  0.546589  0.914760  0.000000  1
  P  P3  1  0.368171  0.453411  0.000000  1
  P  P4  1  0.085240  0.631829  0.000000  1
  P  P5  1  0.952521  0.218623  0.500000  1
  P  P6  1  0.266103  0.047479  0.500000  1
  P  P7  1  0.781377  0.733897  0.500000  1
  P  P8  1  0.666667  0.333333  0.000000  1
  Ir  Ir9  1  0.725210  0.946083  0.500000  1
  Ir  Ir10  1  0.220874  0.274790  0.500000  1
  Ir  Ir11  1  0.053917  0.779126  0.500000  1
  Ru  Ru12  1  0.297809  0.899320  0.000000  1
  Ru  Ru13  1  0.601512  0.702191  0.000000  1
  Ru  Ru14  1  0.100680  0.398488  0.000000  1
  Ru  Ru15  1  0.776612  0.171807  0.000000  1
  Ru  Ru16  1  0.395195  0.223388  0.000000  1
  Ru  Ru17  1  0.828193  0.604805  0.000000  1
  Ru  Ru18  1  0.537028  0.113120  0.500000  1
  Ru  Ru19  1  0.576092  0.462972  0.500000  1
  Ru  Ru20  1  0.886880  0.423908  0.500000  1
