# generated using pymatgen
data_Tb6MnFe8(Co3P4)3
_symmetry_space_group_name_H-M   'P 1'
_cell_length_a   3.71482900
_cell_length_b   10.58678400
_cell_length_c   12.14136000
_cell_angle_alpha   90.00000000
_cell_angle_beta   90.00000000
_cell_angle_gamma   90.00000000
_symmetry_Int_Tables_number   1
_chemical_formula_structural   Tb6MnFe8(Co3P4)3
_chemical_formula_sum   'Tb6 Mn1 Fe8 Co9 P12'
_cell_volume   477.49652576
_cell_formula_units_Z   1
loop_
 _symmetry_equiv_pos_site_id
 _symmetry_equiv_pos_as_xyz
  1  'x, y, z'
loop_
 _atom_site_type_symbol
 _atom_site_label
 _atom_site_symmetry_multiplicity
 _atom_site_fract_x
 _atom_site_fract_y
 _atom_site_fract_z
 _atom_site_occupancy
  Tb  Tb0  1  0.000000  0.500000  0.523684  1
  Tb  Tb1  1  0.500000  0.000000  0.475715  1
  Tb  Tb2  1  0.500000  0.820361  0.205118  1
  Tb  Tb3  1  0.500000  0.179639  0.205118  1
  Tb  Tb4  1  0.000000  0.682164  0.796113  1
  Tb  Tb5  1  0.000000  0.317836  0.796113  1
  Mn  Mn6  1  0.500000  0.500000  0.152341  1
  Fe  Fe7  1  0.000000  0.000000  0.846635  1
  Fe  Fe8  1  0.500000  0.000000  0.011579  1
  Fe  Fe9  1  0.500000  0.331513  0.994818  1
  Fe  Fe10  1  0.500000  0.668487  0.994818  1
  Fe  Fe11  1  0.500000  0.297300  0.429977  1
  Fe  Fe12  1  0.500000  0.702700  0.429977  1
  Fe  Fe13  1  0.500000  0.881752  0.709498  1
  Fe  Fe14  1  0.500000  0.118248  0.709498  1
  Co  Co15  1  0.500000  0.500000  0.700673  1
  Co  Co16  1  0.000000  0.000000  0.300655  1
  Co  Co17  1  0.000000  0.500000  0.986854  1
  Co  Co18  1  0.000000  0.166025  0.005702  1
  Co  Co19  1  0.000000  0.833975  0.005702  1
  Co  Co20  1  0.000000  0.201324  0.570583  1
  Co  Co21  1  0.000000  0.798676  0.570583  1
  Co  Co22  1  0.000000  0.619396  0.288188  1
  Co  Co23  1  0.000000  0.380604  0.288188  1
  P  P24  1  0.500000  0.500000  0.884854  1
  P  P25  1  0.000000  0.000000  0.115357  1
  P  P26  1  0.500000  0.500000  0.345811  1
  P  P27  1  0.000000  0.000000  0.662298  1
  P  P28  1  0.500000  0.306897  0.616013  1
  P  P29  1  0.500000  0.693103  0.616013  1
  P  P30  1  0.000000  0.193966  0.385202  1
  P  P31  1  0.000000  0.806034  0.385202  1
  P  P32  1  0.500000  0.848826  0.892585  1
  P  P33  1  0.500000  0.151174  0.892585  1
  P  P34  1  0.000000  0.655669  0.102974  1
  P  P35  1  0.000000  0.344331  0.102974  1
