# generated using pymatgen
data_GdDy(NiSn)2
_symmetry_space_group_name_H-M   'P 1'
_cell_length_a   4.51635100
_cell_length_b   7.16908107
_cell_length_c   7.62798108
_cell_angle_alpha   90.01613091
_cell_angle_beta   90.00000000
_cell_angle_gamma   90.00000000
_symmetry_Int_Tables_number   1
_chemical_formula_structural   GdDy(NiSn)2
_chemical_formula_sum   'Gd2 Dy2 Ni4 Sn4'
_cell_volume   246.97942103
_cell_formula_units_Z   2
loop_
 _symmetry_equiv_pos_site_id
 _symmetry_equiv_pos_as_xyz
  1  'x, y, z'
loop_
 _atom_site_type_symbol
 _atom_site_label
 _atom_site_symmetry_multiplicity
 _atom_site_fract_x
 _atom_site_fract_y
 _atom_site_fract_z
 _atom_site_occupancy
  Gd  Gd0  1  0.750000  0.015901  0.702317  1
  Gd  Gd1  1  0.250000  0.984099  0.297683  1
  Dy  Dy2  1  0.750000  0.516309  0.798987  1
  Dy  Dy3  1  0.250000  0.483691  0.201013  1
  Ni  Ni4  1  0.750000  0.796683  0.083307  1
  Ni  Ni5  1  0.250000  0.203317  0.916693  1
  Ni  Ni6  1  0.750000  0.302113  0.416081  1
  Ni  Ni7  1  0.250000  0.697887  0.583919  1
  Sn  Sn8  1  0.750000  0.685956  0.412471  1
  Sn  Sn9  1  0.250000  0.314044  0.587529  1
  Sn  Sn10  1  0.750000  0.189982  0.087589  1
  Sn  Sn11  1  0.250000  0.810018  0.912411  1
