# generated using pymatgen
data_Tb19Tm(SnBi)8
_symmetry_space_group_name_H-M   'P 1'
_cell_length_a   8.20008114
_cell_length_b   8.23836014
_cell_length_c   15.69818400
_cell_angle_alpha   90.00000000
_cell_angle_beta   90.00000000
_cell_angle_gamma   90.02105225
_symmetry_Int_Tables_number   1
_chemical_formula_structural   Tb19Tm(SnBi)8
_chemical_formula_sum   'Tb19 Tm1 Sn8 Bi8'
_cell_volume   1060.49422705
_cell_formula_units_Z   1
loop_
 _symmetry_equiv_pos_site_id
 _symmetry_equiv_pos_as_xyz
  1  'x, y, z'
loop_
 _atom_site_type_symbol
 _atom_site_label
 _atom_site_symmetry_multiplicity
 _atom_site_fract_x
 _atom_site_fract_y
 _atom_site_fract_z
 _atom_site_occupancy
  Tb  Tb0  1  0.386663  0.837839  0.876497  1
  Tb  Tb1  1  0.887106  0.661554  0.623437  1
  Tb  Tb2  1  0.613033  0.162066  0.376738  1
  Tb  Tb3  1  0.112802  0.337901  0.123162  1
  Tb  Tb4  1  0.613033  0.162066  0.123262  1
  Tb  Tb5  1  0.112802  0.337901  0.376838  1
  Tb  Tb6  1  0.386663  0.837839  0.623503  1
  Tb  Tb7  1  0.887106  0.661554  0.876563  1
  Tb  Tb8  1  0.553249  0.328092  0.889651  1
  Tb  Tb9  1  0.053611  0.172404  0.610400  1
  Tb  Tb10  1  0.446930  0.672457  0.389689  1
  Tb  Tb11  1  0.946633  0.827739  0.110274  1
  Tb  Tb12  1  0.446930  0.672457  0.110311  1
  Tb  Tb13  1  0.946633  0.827739  0.389726  1
  Tb  Tb14  1  0.553249  0.328092  0.610349  1
  Tb  Tb15  1  0.053611  0.172404  0.889600  1
  Tb  Tb16  1  0.718135  0.001786  0.750000  1
  Tb  Tb17  1  0.782167  0.501813  0.250000  1
  Tb  Tb18  1  0.282076  0.998046  0.250000  1
  Tm  Tm19  1  0.218571  0.498135  0.750000  1
  Sn  Sn20  1  0.581863  0.625322  0.750000  1
  Sn  Sn21  1  0.083922  0.872940  0.750000  1
  Sn  Sn22  1  0.416157  0.374246  0.250000  1
  Sn  Sn23  1  0.916375  0.125888  0.250000  1
  Sn  Sn24  1  0.356001  0.145258  0.750000  1
  Sn  Sn25  1  0.858362  0.357064  0.750000  1
  Sn  Sn26  1  0.643561  0.856642  0.250000  1
  Sn  Sn27  1  0.143673  0.643221  0.250000  1
  Bi  Bi28  1  0.270647  0.020642  0.044294  1
  Bi  Bi29  1  0.770373  0.479338  0.455660  1
  Bi  Bi30  1  0.729474  0.979323  0.544482  1
  Bi  Bi31  1  0.229046  0.520465  0.954500  1
  Bi  Bi32  1  0.729474  0.979323  0.955518  1
  Bi  Bi33  1  0.229046  0.520465  0.545500  1
  Bi  Bi34  1  0.270647  0.020642  0.455706  1
  Bi  Bi35  1  0.770373  0.479338  0.044340  1
