# generated using pymatgen
data_Na4CaRuO6
_symmetry_space_group_name_H-M   'P 1'
_cell_length_a   5.70930803
_cell_length_b   5.70929386
_cell_length_c   5.73249284
_cell_angle_alpha   99.65263125
_cell_angle_beta   99.65237665
_cell_angle_gamma   120.05891777
_symmetry_Int_Tables_number   1
_chemical_formula_structural   Na4CaRuO6
_chemical_formula_sum   'Na4 Ca1 Ru1 O6'
_cell_volume   152.34484870
_cell_formula_units_Z   1
loop_
 _symmetry_equiv_pos_site_id
 _symmetry_equiv_pos_as_xyz
  1  'x, y, z'
loop_
 _atom_site_type_symbol
 _atom_site_label
 _atom_site_symmetry_multiplicity
 _atom_site_fract_x
 _atom_site_fract_y
 _atom_site_fract_z
 _atom_site_occupancy
  Na  Na0  1  0.501049  0.498951  0.000000  1
  Na  Na1  1  0.993331  0.006669  0.500000  1
  Na  Na2  1  0.663673  0.336329  0.500001  1
  Na  Na3  1  0.339469  0.660531  0.500001  1
  Ca  Ca4  1  0.166055  0.833945  0.000000  1
  Ru  Ru5  1  0.833266  0.166735  0.999999  1
  O  O6  1  0.616339  0.956685  0.205009  1
  O  O7  1  0.912071  0.524269  0.214665  1
  O  O8  1  0.185154  0.229455  0.214163  1
  O  O9  1  0.770545  0.814844  0.785836  1
  O  O10  1  0.475733  0.087930  0.785336  1
  O  O11  1  0.043315  0.383661  0.794992  1
