# generated using pymatgen
data_Ca2Fe2PdN3
_symmetry_space_group_name_H-M   'P 1'
_cell_length_a   6.27436964
_cell_length_b   6.27437062
_cell_length_c   6.34007082
_cell_angle_alpha   90.02561019
_cell_angle_beta   90.02559172
_cell_angle_gamma   116.40504188
_symmetry_Int_Tables_number   1
_chemical_formula_structural   Ca2Fe2PdN3
_chemical_formula_sum   'Ca4 Fe4 Pd2 N6'
_cell_volume   223.55455594
_cell_formula_units_Z   2
loop_
 _symmetry_equiv_pos_site_id
 _symmetry_equiv_pos_as_xyz
  1  'x, y, z'
loop_
 _atom_site_type_symbol
 _atom_site_label
 _atom_site_symmetry_multiplicity
 _atom_site_fract_x
 _atom_site_fract_y
 _atom_site_fract_z
 _atom_site_occupancy
  Ca  Ca0  1  0.826441  0.679858  0.894519  1
  Ca  Ca1  1  0.320142  0.173559  0.605481  1
  Ca  Ca2  1  0.173559  0.320142  0.105481  1
  Ca  Ca3  1  0.679858  0.826441  0.394519  1
  Fe  Fe4  1  0.568978  0.172235  0.100716  1
  Fe  Fe5  1  0.431022  0.827765  0.899284  1
  Fe  Fe6  1  0.827765  0.431022  0.399284  1
  Fe  Fe7  1  0.172235  0.568978  0.600716  1
  Pd  Pd8  1  0.812225  0.187775  0.750000  1
  Pd  Pd9  1  0.187775  0.812225  0.250000  1
  N  N10  1  0.422620  0.577380  0.750000  1
  N  N11  1  0.577380  0.422620  0.250000  1
  N  N12  1  0.991345  0.723671  0.529492  1
  N  N13  1  0.723671  0.991345  0.029492  1
  N  N14  1  0.008655  0.276329  0.470508  1
  N  N15  1  0.276329  0.008655  0.970508  1
