# generated using pymatgen
data_Cs4Ta3(NbBr6)3
_symmetry_space_group_name_H-M   'P 1'
_cell_length_a   10.91834349
_cell_length_b   10.92903365
_cell_length_c   10.80668891
_cell_angle_alpha   76.38022047
_cell_angle_beta   76.34560645
_cell_angle_gamma   116.07556911
_symmetry_Int_Tables_number   1
_chemical_formula_structural   Cs4Ta3(NbBr6)3
_chemical_formula_sum   'Cs4 Ta3 Nb3 Br18'
_cell_volume   1037.04604122
_cell_formula_units_Z   1
loop_
 _symmetry_equiv_pos_site_id
 _symmetry_equiv_pos_as_xyz
  1  'x, y, z'
loop_
 _atom_site_type_symbol
 _atom_site_label
 _atom_site_symmetry_multiplicity
 _atom_site_fract_x
 _atom_site_fract_y
 _atom_site_fract_z
 _atom_site_occupancy
  Cs  Cs0  1  0.735944  0.050792  0.322866  1
  Cs  Cs1  1  0.263304  0.946748  0.678559  1
  Cs  Cs2  1  0.948325  0.263751  0.677774  1
  Cs  Cs3  1  0.051344  0.734352  0.323095  1
  Ta  Ta4  1  0.604050  0.604392  0.117118  1
  Ta  Ta5  1  0.396110  0.396356  0.882404  1
  Ta  Ta6  1  0.457910  0.299556  0.127835  1
  Nb  Nb7  1  0.542733  0.703343  0.870369  1
  Nb  Nb8  1  0.702970  0.543126  0.870524  1
  Nb  Nb9  1  0.297171  0.457594  0.129103  1
  Br  Br10  1  0.695990  0.301975  0.001313  1
  Br  Br11  1  0.302073  0.697749  0.000029  1
  Br  Br12  1  0.398786  0.022287  0.305115  1
  Br  Br13  1  0.602019  0.981888  0.692312  1
  Br  Br14  1  0.981420  0.601191  0.693198  1
  Br  Br15  1  0.018256  0.396642  0.307994  1
  Br  Br16  1  0.321963  0.124312  0.013505  1
  Br  Br17  1  0.679216  0.876617  0.987662  1
  Br  Br18  1  0.876776  0.679578  0.987622  1
  Br  Br19  1  0.123270  0.320774  0.012149  1
  Br  Br20  1  0.743778  0.742866  0.275232  1
  Br  Br21  1  0.255677  0.254410  0.726478  1
  Br  Br22  1  0.804612  0.804657  0.681130  1
  Br  Br23  1  0.197362  0.195831  0.317629  1
  Br  Br24  1  0.574829  0.379269  0.301430  1
  Br  Br25  1  0.424041  0.619502  0.697743  1
  Br  Br26  1  0.619741  0.424229  0.697595  1
  Br  Br27  1  0.380329  0.576216  0.302216  1
