# generated using pymatgen
data_Tb9Y3Pd3Rh
_symmetry_space_group_name_H-M   'P 1'
_cell_length_a   6.42813057
_cell_length_b   7.12259615
_cell_length_c   9.71720500
_cell_angle_alpha   90.00000000
_cell_angle_beta   90.00000000
_cell_angle_gamma   89.89491031
_symmetry_Int_Tables_number   1
_chemical_formula_structural   Tb9Y3Pd3Rh
_chemical_formula_sum   'Tb9 Y3 Pd3 Rh1'
_cell_volume   444.90126905
_cell_formula_units_Z   1
loop_
 _symmetry_equiv_pos_site_id
 _symmetry_equiv_pos_as_xyz
  1  'x, y, z'
loop_
 _atom_site_type_symbol
 _atom_site_label
 _atom_site_symmetry_multiplicity
 _atom_site_fract_x
 _atom_site_fract_y
 _atom_site_fract_z
 _atom_site_occupancy
  Tb  Tb0  1  0.328828  0.681041  0.058474  1
  Tb  Tb1  1  0.169798  0.179707  0.440732  1
  Tb  Tb2  1  0.669849  0.323811  0.563030  1
  Tb  Tb3  1  0.825517  0.817198  0.937855  1
  Tb  Tb4  1  0.669849  0.323811  0.936970  1
  Tb  Tb5  1  0.825517  0.817198  0.562145  1
  Tb  Tb6  1  0.328828  0.681041  0.441526  1
  Tb  Tb7  1  0.169798  0.179707  0.059268  1
  Tb  Tb8  1  0.370045  0.964889  0.750000  1
  Y  Y9  1  0.864970  0.524929  0.250000  1
  Y  Y10  1  0.635002  0.026426  0.250000  1
  Y  Y11  1  0.140721  0.475235  0.750000  1
  Pd  Pd12  1  0.065247  0.886429  0.250000  1
  Pd  Pd13  1  0.433512  0.387401  0.250000  1
  Pd  Pd14  1  0.939791  0.114023  0.750000  1
  Rh  Rh15  1  0.562730  0.617155  0.750000  1
