# generated using pymatgen
data_RbNi(Sb4Ru)3
_symmetry_space_group_name_H-M   'P 1'
_cell_length_a   8.14418220
_cell_length_b   8.14418211
_cell_length_c   8.14418243
_cell_angle_alpha   109.41328660
_cell_angle_beta   109.41327891
_cell_angle_gamma   109.41328201
_symmetry_Int_Tables_number   1
_chemical_formula_structural   RbNi(Sb4Ru)3
_chemical_formula_sum   'Rb1 Ni1 Sb12 Ru3'
_cell_volume   416.72416158
_cell_formula_units_Z   1
loop_
 _symmetry_equiv_pos_site_id
 _symmetry_equiv_pos_as_xyz
  1  'x, y, z'
loop_
 _atom_site_type_symbol
 _atom_site_label
 _atom_site_symmetry_multiplicity
 _atom_site_fract_x
 _atom_site_fract_y
 _atom_site_fract_z
 _atom_site_occupancy
  Rb  Rb0  1  0.000000  0.000000  0.000000  1
  Ni  Ni1  1  0.500000  0.500000  0.500000  1
  Sb  Sb2  1  0.159868  0.501132  0.343113  1
  Sb  Sb3  1  0.498868  0.656887  0.840132  1
  Sb  Sb4  1  0.342816  0.840641  0.183494  1
  Sb  Sb5  1  0.816506  0.657184  0.159359  1
  Sb  Sb6  1  0.656887  0.840132  0.498868  1
  Sb  Sb7  1  0.183494  0.342816  0.840641  1
  Sb  Sb8  1  0.657184  0.159359  0.816506  1
  Sb  Sb9  1  0.343113  0.159868  0.501132  1
  Sb  Sb10  1  0.501132  0.343113  0.159868  1
  Sb  Sb11  1  0.840132  0.498868  0.656887  1
  Sb  Sb12  1  0.840641  0.183494  0.342816  1
  Sb  Sb13  1  0.159359  0.816506  0.657184  1
  Ru  Ru14  1  0.500000  0.000000  0.000000  1
  Ru  Ru15  1  0.000000  0.500000  0.000000  1
  Ru  Ru16  1  0.000000  0.000000  0.500000  1
