# generated using pymatgen
data_K2Ag(PdO2)3
_symmetry_space_group_name_H-M   'P 1'
_cell_length_a   7.21880496
_cell_length_b   7.21880526
_cell_length_c   7.18869248
_cell_angle_alpha   50.97453184
_cell_angle_beta   50.97453308
_cell_angle_gamma   53.22668482
_symmetry_Int_Tables_number   1
_chemical_formula_structural   K2Ag(PdO2)3
_chemical_formula_sum   'K2 Ag1 Pd3 O6'
_cell_volume   213.02302578
_cell_formula_units_Z   1
loop_
 _symmetry_equiv_pos_site_id
 _symmetry_equiv_pos_as_xyz
  1  'x, y, z'
loop_
 _atom_site_type_symbol
 _atom_site_label
 _atom_site_symmetry_multiplicity
 _atom_site_fract_x
 _atom_site_fract_y
 _atom_site_fract_z
 _atom_site_occupancy
  K  K0  1  0.825931  0.825931  0.834130  1
  K  K1  1  0.174069  0.174069  0.165870  1
  Ag  Ag2  1  0.500000  0.500000  0.000000  1
  Pd  Pd3  1  0.000000  0.500000  0.500000  1
  Pd  Pd4  1  0.500000  0.000000  0.500000  1
  Pd  Pd5  1  0.000000  0.000000  0.000000  1
  O  O6  1  0.911670  0.378139  0.882794  1
  O  O7  1  0.881841  0.881841  0.393144  1
  O  O8  1  0.378139  0.911670  0.882794  1
  O  O9  1  0.088330  0.621861  0.117206  1
  O  O10  1  0.118159  0.118159  0.606856  1
  O  O11  1  0.621861  0.088330  0.117206  1
