# generated using pymatgen
data_Zr2TiB2Ru5
_symmetry_space_group_name_H-M   'P 1'
_cell_length_a   9.41731800
_cell_length_b   9.41731800
_cell_length_c   3.11120500
_cell_angle_alpha   90.00000000
_cell_angle_beta   90.00000000
_cell_angle_gamma   90.00000000
_symmetry_Int_Tables_number   1
_chemical_formula_structural   Zr2TiB2Ru5
_chemical_formula_sum   'Zr4 Ti2 B4 Ru10'
_cell_volume   275.91994804
_cell_formula_units_Z   2
loop_
 _symmetry_equiv_pos_site_id
 _symmetry_equiv_pos_as_xyz
  1  'x, y, z'
loop_
 _atom_site_type_symbol
 _atom_site_label
 _atom_site_symmetry_multiplicity
 _atom_site_fract_x
 _atom_site_fract_y
 _atom_site_fract_z
 _atom_site_occupancy
  Zr  Zr0  1  0.675139  0.175139  0.000000  1
  Zr  Zr1  1  0.324861  0.824861  0.000000  1
  Zr  Zr2  1  0.175139  0.324861  0.000000  1
  Zr  Zr3  1  0.824861  0.675139  0.000000  1
  Ti  Ti4  1  0.000000  0.000000  0.000000  1
  Ti  Ti5  1  0.500000  0.500000  0.000000  1
  B  B6  1  0.123707  0.623707  0.000000  1
  B  B7  1  0.876293  0.376293  0.000000  1
  B  B8  1  0.623707  0.876293  0.000000  1
  B  B9  1  0.376293  0.123707  0.000000  1
  Ru  Ru10  1  0.215957  0.071431  0.500000  1
  Ru  Ru11  1  0.784043  0.928569  0.500000  1
  Ru  Ru12  1  0.071431  0.784043  0.500000  1
  Ru  Ru13  1  0.715957  0.428569  0.500000  1
  Ru  Ru14  1  0.928569  0.215957  0.500000  1
  Ru  Ru15  1  0.284043  0.571431  0.500000  1
  Ru  Ru16  1  0.571431  0.715957  0.500000  1
  Ru  Ru17  1  0.428569  0.284043  0.500000  1
  Ru  Ru18  1  0.500000  0.000000  0.500000  1
  Ru  Ru19  1  0.000000  0.500000  0.500000  1
