# generated using pymatgen
data_TbY9(SiHg)4
_symmetry_space_group_name_H-M   'P 1'
_cell_length_a   8.80551018
_cell_length_b   8.80587865
_cell_length_c   7.57601804
_cell_angle_alpha   89.99326936
_cell_angle_beta   90.01108554
_cell_angle_gamma   129.17750101
_symmetry_Int_Tables_number   1
_chemical_formula_structural   TbY9(SiHg)4
_chemical_formula_sum   'Tb1 Y9 Si4 Hg4'
_cell_volume   455.38407396
_cell_formula_units_Z   1
loop_
 _symmetry_equiv_pos_site_id
 _symmetry_equiv_pos_as_xyz
  1  'x, y, z'
loop_
 _atom_site_type_symbol
 _atom_site_label
 _atom_site_symmetry_multiplicity
 _atom_site_fract_x
 _atom_site_fract_y
 _atom_site_fract_z
 _atom_site_occupancy
  Tb  Tb0  1  0.055164  0.310331  0.324303  1
  Y  Y1  1  0.944906  0.689971  0.675662  1
  Y  Y2  1  0.444907  0.189958  0.824392  1
  Y  Y3  1  0.810099  0.555198  0.175600  1
  Y  Y4  1  0.555075  0.809981  0.175555  1
  Y  Y5  1  0.190046  0.444949  0.824421  1
  Y  Y6  1  0.689899  0.944749  0.675654  1
  Y  Y7  1  0.310092  0.055116  0.324350  1
  Y  Y8  1  0.000059  0.000022  0.000018  1
  Y  Y9  1  0.499836  0.499941  0.499926  1
  Si  Si10  1  0.381589  0.381488  0.121710  1
  Si  Si11  1  0.618579  0.618514  0.878183  1
  Si  Si12  1  0.118554  0.118493  0.621920  1
  Si  Si13  1  0.881442  0.881393  0.378170  1
  Hg  Hg14  1  0.781906  0.217996  0.999985  1
  Hg  Hg15  1  0.218013  0.781937  0.000028  1
  Hg  Hg16  1  0.717869  0.281902  0.500090  1
  Hg  Hg17  1  0.281967  0.718062  0.500032  1
