# generated using pymatgen
data_Tb5Tm15(BiSb5)2
_symmetry_space_group_name_H-M   'P 1'
_cell_length_a   8.06982375
_cell_length_b   9.28670041
_cell_length_c   11.79595323
_cell_angle_alpha   90.07843493
_cell_angle_beta   90.05538669
_cell_angle_gamma   90.01285757
_symmetry_Int_Tables_number   1
_chemical_formula_structural   Tb5Tm15(BiSb5)2
_chemical_formula_sum   'Tb5 Tm15 Bi2 Sb10'
_cell_volume   884.01148262
_cell_formula_units_Z   1
loop_
 _symmetry_equiv_pos_site_id
 _symmetry_equiv_pos_as_xyz
  1  'x, y, z'
loop_
 _atom_site_type_symbol
 _atom_site_label
 _atom_site_symmetry_multiplicity
 _atom_site_fract_x
 _atom_site_fract_y
 _atom_site_fract_z
 _atom_site_occupancy
  Tb  Tb0  1  0.189704  0.560535  0.440561  1
  Tb  Tb1  1  0.315911  0.251254  0.218656  1
  Tb  Tb2  1  0.816400  0.248719  0.281203  1
  Tb  Tb3  1  0.685323  0.750374  0.781181  1
  Tb  Tb4  1  0.185337  0.750429  0.719416  1
  Tm  Tm5  1  0.353588  0.751330  0.214758  1
  Tm  Tm6  1  0.851977  0.749958  0.284669  1
  Tm  Tm7  1  0.647062  0.250461  0.784343  1
  Tm  Tm8  1  0.147322  0.250496  0.715820  1
  Tm  Tm9  1  0.693061  0.562579  0.057320  1
  Tm  Tm10  1  0.193025  0.936834  0.442297  1
  Tm  Tm11  1  0.308907  0.062679  0.937706  1
  Tm  Tm12  1  0.809476  0.437135  0.562302  1
  Tm  Tm13  1  0.308450  0.438021  0.939429  1
  Tm  Tm14  1  0.807245  0.061677  0.561063  1
  Tm  Tm15  1  0.689890  0.937383  0.059134  1
  Tm  Tm16  1  0.472927  0.247721  0.490643  1
  Tm  Tm17  1  0.972820  0.252667  0.009094  1
  Tm  Tm18  1  0.526558  0.752447  0.513423  1
  Tm  Tm19  1  0.026126  0.747933  0.986605  1
  Bi  Bi20  1  0.566982  0.505521  0.326317  1
  Bi  Bi21  1  0.066024  0.994742  0.173132  1
  Sb  Sb22  1  0.407371  0.750025  0.960414  1
  Sb  Sb23  1  0.906699  0.750817  0.539835  1
  Sb  Sb24  1  0.592312  0.250187  0.039183  1
  Sb  Sb25  1  0.091179  0.246283  0.461493  1
  Sb  Sb26  1  0.565394  0.994259  0.327445  1
  Sb  Sb27  1  0.064950  0.506387  0.171936  1
  Sb  Sb28  1  0.434746  0.494369  0.672546  1
  Sb  Sb29  1  0.934560  0.006334  0.827930  1
  Sb  Sb30  1  0.434575  0.006318  0.673154  1
  Sb  Sb31  1  0.934097  0.494122  0.826991  1
