# generated using pymatgen
data_Nd2Cu17Si8Ni
_symmetry_space_group_name_H-M   'P 1'
_cell_length_a   8.12032493
_cell_length_b   8.12032610
_cell_length_c   8.16240745
_cell_angle_alpha   120.54771207
_cell_angle_beta   120.54771444
_cell_angle_gamma   88.75204176
_symmetry_Int_Tables_number   1
_chemical_formula_structural   Nd2Cu17Si8Ni
_chemical_formula_sum   'Nd2 Cu17 Si8 Ni1'
_cell_volume   378.34309871
_cell_formula_units_Z   1
loop_
 _symmetry_equiv_pos_site_id
 _symmetry_equiv_pos_as_xyz
  1  'x, y, z'
loop_
 _atom_site_type_symbol
 _atom_site_label
 _atom_site_symmetry_multiplicity
 _atom_site_fract_x
 _atom_site_fract_y
 _atom_site_fract_z
 _atom_site_occupancy
  Nd  Nd0  1  0.750000  0.750000  0.000000  1
  Nd  Nd1  1  0.250000  0.250000  0.000000  1
  Cu  Cu2  1  0.688168  0.445295  0.500000  1
  Cu  Cu3  1  0.442715  0.942715  0.750853  1
  Cu  Cu4  1  0.191862  0.691862  0.249147  1
  Cu  Cu5  1  0.557285  0.057285  0.249147  1
  Cu  Cu6  1  0.945295  0.188168  0.500000  1
  Cu  Cu7  1  0.200172  0.930989  0.131161  1
  Cu  Cu8  1  0.799828  0.069011  0.868839  1
  Cu  Cu9  1  0.430989  0.700172  0.131161  1
  Cu  Cu10  1  0.569011  0.299828  0.868839  1
  Cu  Cu11  1  0.701798  0.567330  0.269128  1
  Cu  Cu12  1  0.298202  0.432670  0.730872  1
  Cu  Cu13  1  0.932670  0.798202  0.730872  1
  Cu  Cu14  1  0.311832  0.554705  0.500000  1
  Cu  Cu15  1  0.808138  0.308138  0.750853  1
  Cu  Cu16  1  0.000000  0.500000  0.500000  1
  Cu  Cu17  1  0.067330  0.201798  0.269128  1
  Cu  Cu18  1  0.054705  0.811832  0.500000  1
  Si  Si19  1  0.292348  0.792348  0.846682  1
  Si  Si20  1  0.054333  0.554333  0.846682  1
  Si  Si21  1  0.554529  0.715158  0.500000  1
  Si  Si22  1  0.784842  0.945471  0.500000  1
  Si  Si23  1  0.445471  0.284842  0.500000  1
  Si  Si24  1  0.945667  0.445667  0.153318  1
  Si  Si25  1  0.707652  0.207652  0.153318  1
  Si  Si26  1  0.215158  0.054529  0.500000  1
  Ni  Ni27  1  0.500000  0.000000  0.500000  1
