# generated using pymatgen
data_Pr8Er10Sc2Si15Tc
_symmetry_space_group_name_H-M   'P 1'
_cell_length_a   7.42446401
_cell_length_b   7.76258474
_cell_length_c   14.72667700
_cell_angle_alpha   90.00000000
_cell_angle_beta   90.00000000
_cell_angle_gamma   90.31739452
_symmetry_Int_Tables_number   1
_chemical_formula_structural   Pr8Er10Sc2Si15Tc
_chemical_formula_sum   'Pr8 Er10 Sc2 Si15 Tc1'
_cell_volume   848.73000969
_cell_formula_units_Z   1
loop_
 _symmetry_equiv_pos_site_id
 _symmetry_equiv_pos_as_xyz
  1  'x, y, z'
loop_
 _atom_site_type_symbol
 _atom_site_label
 _atom_site_symmetry_multiplicity
 _atom_site_fract_x
 _atom_site_fract_y
 _atom_site_fract_z
 _atom_site_occupancy
  Pr  Pr0  1  0.019423  0.177203  0.398625  1
  Pr  Pr1  1  0.518426  0.325473  0.400740  1
  Pr  Pr2  1  0.474252  0.683186  0.902696  1
  Pr  Pr3  1  0.474252  0.683186  0.597304  1
  Pr  Pr4  1  0.982871  0.821230  0.597102  1
  Pr  Pr5  1  0.982871  0.821230  0.902898  1
  Pr  Pr6  1  0.518426  0.325473  0.099260  1
  Pr  Pr7  1  0.019423  0.177203  0.101375  1
  Er  Er8  1  0.320066  0.169380  0.624843  1
  Er  Er9  1  0.678074  0.820657  0.375259  1
  Er  Er10  1  0.645120  0.985041  0.750000  1
  Er  Er11  1  0.178285  0.678721  0.373971  1
  Er  Er12  1  0.823526  0.324344  0.877559  1
  Er  Er13  1  0.823526  0.324344  0.622441  1
  Er  Er14  1  0.320066  0.169380  0.875157  1
  Er  Er15  1  0.178285  0.678721  0.126029  1
  Er  Er16  1  0.678074  0.820657  0.124741  1
  Er  Er17  1  0.159648  0.515288  0.750000  1
  Sc  Sc18  1  0.847452  0.494256  0.250000  1
  Sc  Sc19  1  0.347048  0.010518  0.250000  1
  Si  Si20  1  0.476490  0.611714  0.250000  1
  Si  Si21  1  0.024740  0.111600  0.750000  1
  Si  Si22  1  0.532894  0.384853  0.750000  1
  Si  Si23  1  0.148101  0.464653  0.535981  1
  Si  Si24  1  0.976250  0.888853  0.250000  1
  Si  Si25  1  0.717754  0.125021  0.250000  1
  Si  Si26  1  0.855526  0.528139  0.044022  1
  Si  Si27  1  0.354887  0.971059  0.043864  1
  Si  Si28  1  0.148101  0.464653  0.964019  1
  Si  Si29  1  0.650971  0.038294  0.535487  1
  Si  Si30  1  0.354887  0.971059  0.456136  1
  Si  Si31  1  0.855526  0.528139  0.455978  1
  Si  Si32  1  0.770084  0.613605  0.750000  1
  Si  Si33  1  0.221325  0.375588  0.250000  1
  Si  Si34  1  0.650971  0.038294  0.964513  1
  Tc  Tc35  1  0.272386  0.878989  0.750000  1
