# generated using pymatgen
data_Zr6Ti2Al14AsRh7
_symmetry_space_group_name_H-M   'P 1'
_cell_length_a   8.82802753
_cell_length_b   8.82863135
_cell_length_c   8.82802680
_cell_angle_alpha   120.02700345
_cell_angle_beta   119.76383530
_cell_angle_gamma   90.17941764
_symmetry_Int_Tables_number   1
_chemical_formula_structural   Zr6Ti2Al14AsRh7
_chemical_formula_sum   'Zr6 Ti2 Al14 As1 Rh7'
_cell_volume   487.29722717
_cell_formula_units_Z   1
loop_
 _symmetry_equiv_pos_site_id
 _symmetry_equiv_pos_as_xyz
  1  'x, y, z'
loop_
 _atom_site_type_symbol
 _atom_site_label
 _atom_site_symmetry_multiplicity
 _atom_site_fract_x
 _atom_site_fract_y
 _atom_site_fract_z
 _atom_site_occupancy
  Zr  Zr0  1  0.796965  0.293913  0.083494  1
  Zr  Zr1  1  0.210418  0.293913  0.496948  1
  Zr  Zr2  1  0.205457  0.705439  0.499983  1
  Zr  Zr3  1  0.210409  0.713469  0.916505  1
  Zr  Zr4  1  0.796965  0.713469  0.503060  1
  Zr  Zr5  1  0.789120  0.289122  0.500002  1
  Ti  Ti6  1  0.380495  0.123294  0.742799  1
  Ti  Ti7  1  0.380485  0.637685  0.257199  1
  Al  Al8  1  0.164876  0.335362  0.170485  1
  Al  Al9  1  0.164852  0.994403  0.829550  1
  Al  Al10  1  0.161701  0.335914  0.825864  1
  Al  Al11  1  0.510049  0.335914  0.174213  1
  Al  Al12  1  0.834054  0.663788  0.829735  1
  Al  Al13  1  0.834056  0.004305  0.170249  1
  Al  Al14  1  0.833911  0.665210  0.168684  1
  Al  Al15  1  0.496526  0.665210  0.831299  1
  Al  Al16  1  0.380371  0.120012  0.260364  1
  Al  Al17  1  0.859649  0.120012  0.739640  1
  Al  Al18  1  0.618890  0.877518  0.258628  1
  Al  Al19  1  0.618915  0.360274  0.741359  1
  Al  Al20  1  0.618526  0.879010  0.739437  1
  Al  Al21  1  0.139572  0.879010  0.260484  1
  As  As22  1  0.997290  0.497283  0.499993  1
  Rh  Rh23  1  0.001384  0.000298  0.501655  1
  Rh  Rh24  1  0.498642  0.000298  0.998914  1
  Rh  Rh25  1  0.498142  0.498166  0.000025  1
  Rh  Rh26  1  0.498642  0.499713  0.498347  1
  Rh  Rh27  1  0.001365  0.499713  0.001071  1
  Rh  Rh28  1  0.000519  0.000529  0.000010  1
  Rh  Rh29  1  0.497747  0.997753  0.500005  1
