# generated using pymatgen
data_LiZr3(Ni4P3)2
_symmetry_space_group_name_H-M   'P 1'
_cell_length_a   12.09695762
_cell_length_b   12.12394364
_cell_length_c   3.69110200
_cell_angle_alpha   90.00000000
_cell_angle_beta   90.00000000
_cell_angle_gamma   120.07382728
_symmetry_Int_Tables_number   1
_chemical_formula_structural   LiZr3(Ni4P3)2
_chemical_formula_sum   'Li2 Zr6 Ni16 P12'
_cell_volume   468.47150474
_cell_formula_units_Z   2
loop_
 _symmetry_equiv_pos_site_id
 _symmetry_equiv_pos_as_xyz
  1  'x, y, z'
loop_
 _atom_site_type_symbol
 _atom_site_label
 _atom_site_symmetry_multiplicity
 _atom_site_fract_x
 _atom_site_fract_y
 _atom_site_fract_z
 _atom_site_occupancy
  Li  Li0  1  0.440140  0.438683  0.000000  1
  Li  Li1  1  0.559860  0.998542  0.000000  1
  Zr  Zr2  1  0.814919  0.819052  0.500000  1
  Zr  Zr3  1  0.000000  0.177867  0.500000  1
  Zr  Zr4  1  0.337767  0.669904  0.000000  1
  Zr  Zr5  1  0.662233  0.332135  0.000000  1
  Zr  Zr6  1  0.000000  0.554587  0.000000  1
  Zr  Zr7  1  0.185081  0.004133  0.500000  1
  Ni  Ni8  1  0.621931  0.817131  0.000000  1
  Ni  Ni9  1  0.378069  0.195199  0.000000  1
  Ni  Ni10  1  0.000000  0.727690  0.500000  1
  Ni  Ni11  1  0.281662  0.282576  0.500000  1
  Ni  Ni12  1  0.872080  0.351621  0.500000  1
  Ni  Ni13  1  0.718338  0.000914  0.500000  1
  Ni  Ni14  1  0.814661  0.626861  0.000000  1
  Ni  Ni15  1  0.185339  0.812200  0.000000  1
  Ni  Ni16  1  0.361900  0.878385  0.500000  1
  Ni  Ni17  1  0.127920  0.479541  0.500000  1
  Ni  Ni18  1  0.638100  0.516486  0.500000  1
  Ni  Ni19  1  0.000000  0.000923  0.000000  1
  Ni  Ni20  1  0.520215  0.642333  0.500000  1
  Ni  Ni21  1  0.479785  0.122117  0.500000  1
  Ni  Ni22  1  0.198539  0.379311  0.000000  1
  Ni  Ni23  1  0.801461  0.180772  0.000000  1
  P  P24  1  0.000000  0.346849  0.000000  1
  P  P25  1  0.825328  0.516292  0.500000  1
  P  P26  1  0.683880  0.167787  0.500000  1
  P  P27  1  0.179030  0.178024  0.000000  1
  P  P28  1  0.638549  0.640177  0.000000  1
  P  P29  1  0.820970  0.998994  0.000000  1
  P  P30  1  0.519379  0.830818  0.500000  1
  P  P31  1  0.174672  0.690963  0.500000  1
  P  P32  1  0.361451  0.001628  0.000000  1
  P  P33  1  0.480621  0.311439  0.500000  1
  P  P34  1  0.000000  0.824155  0.000000  1
  P  P35  1  0.316120  0.483906  0.500000  1
