# generated using pymatgen
data_Dy5CdRh2Pb3
_symmetry_space_group_name_H-M   'P 1'
_cell_length_a   3.74020300
_cell_length_b   8.06758591
_cell_length_c   18.23261500
_cell_angle_alpha   90.02726448
_cell_angle_beta   90.00000000
_cell_angle_gamma   90.00000000
_symmetry_Int_Tables_number   1
_chemical_formula_structural   Dy5CdRh2Pb3
_chemical_formula_sum   'Dy10 Cd2 Rh4 Pb6'
_cell_volume   550.15832052
_cell_formula_units_Z   2
loop_
 _symmetry_equiv_pos_site_id
 _symmetry_equiv_pos_as_xyz
  1  'x, y, z'
loop_
 _atom_site_type_symbol
 _atom_site_label
 _atom_site_symmetry_multiplicity
 _atom_site_fract_x
 _atom_site_fract_y
 _atom_site_fract_z
 _atom_site_occupancy
  Dy  Dy0  1  0.500000  0.384061  0.587201  1
  Dy  Dy1  1  0.500000  0.885127  0.911556  1
  Dy  Dy2  1  0.500000  0.114648  0.090177  1
  Dy  Dy3  1  0.500000  0.755758  0.718580  1
  Dy  Dy4  1  0.500000  0.254439  0.780652  1
  Dy  Dy5  1  0.500000  0.500697  0.000494  1
  Dy  Dy6  1  0.500000  0.743775  0.220405  1
  Dy  Dy7  1  0.500000  0.250600  0.279278  1
  Dy  Dy8  1  0.500000  0.998928  0.499523  1
  Dy  Dy9  1  0.500000  0.609188  0.409494  1
  Cd  Cd10  1  0.000000  0.294065  0.433611  1
  Cd  Cd11  1  0.000000  0.420430  0.151309  1
  Rh  Rh12  1  0.000000  0.972666  0.805546  1
  Rh  Rh13  1  0.000000  0.525650  0.304838  1
  Rh  Rh14  1  0.000000  0.471522  0.694336  1
  Rh  Rh15  1  0.000000  0.026370  0.195728  1
  Pb  Pb16  1  0.000000  0.790748  0.066402  1
  Pb  Pb17  1  0.000000  0.928519  0.351225  1
  Pb  Pb18  1  0.000000  0.083270  0.650954  1
  Pb  Pb19  1  0.000000  0.581959  0.848854  1
  Pb  Pb20  1  0.000000  0.702438  0.564020  1
  Pb  Pb21  1  0.000000  0.205144  0.935817  1
