# generated using pymatgen
data_Ho16MgIn(AgRh2)2
_symmetry_space_group_name_H-M   'P 1'
_cell_length_a   9.57624602
_cell_length_b   9.54803894
_cell_length_c   9.57810400
_cell_angle_alpha   59.89579001
_cell_angle_beta   59.99358858
_cell_angle_gamma   60.05033115
_symmetry_Int_Tables_number   1
_chemical_formula_structural   Ho16MgIn(AgRh2)2
_chemical_formula_sum   'Ho16 Mg1 In1 Ag2 Rh4'
_cell_volume   618.97692048
_cell_formula_units_Z   1
loop_
 _symmetry_equiv_pos_site_id
 _symmetry_equiv_pos_as_xyz
  1  'x, y, z'
loop_
 _atom_site_type_symbol
 _atom_site_label
 _atom_site_symmetry_multiplicity
 _atom_site_fract_x
 _atom_site_fract_y
 _atom_site_fract_z
 _atom_site_occupancy
  Ho  Ho0  1  0.185584  0.184195  0.815110  1
  Ho  Ho1  1  0.600189  0.598306  0.202702  1
  Ho  Ho2  1  0.434886  0.063110  0.438749  1
  Ho  Ho3  1  0.440468  0.437939  0.060796  1
  Ho  Ho4  1  0.813635  0.179659  0.816407  1
  Ho  Ho5  1  0.184859  0.811383  0.188776  1
  Ho  Ho6  1  0.434886  0.063110  0.063255  1
  Ho  Ho7  1  0.184859  0.811383  0.814982  1
  Ho  Ho8  1  0.058050  0.439625  0.059920  1
  Ho  Ho9  1  0.812370  0.810887  0.188371  1
  Ho  Ho10  1  0.195362  0.602011  0.601313  1
  Ho  Ho11  1  0.058050  0.439625  0.442405  1
  Ho  Ho12  1  0.059033  0.061482  0.439743  1
  Ho  Ho13  1  0.813635  0.179659  0.190298  1
  Ho  Ho14  1  0.599635  0.206521  0.596922  1
  Ho  Ho15  1  0.600189  0.598306  0.598804  1
  Mg  Mg16  1  0.530145  0.827655  0.821100  1
  In  In17  1  0.833322  0.504285  0.831197  1
  Ag  Ag18  1  0.833202  0.835750  0.832241  1
  Ag  Ag19  1  0.833202  0.835750  0.498809  1
  Rh  Rh20  1  0.391295  0.822335  0.393185  1
  Rh  Rh21  1  0.389885  0.395547  0.390924  1
  Rh  Rh22  1  0.823373  0.395930  0.390349  1
  Rh  Rh23  1  0.389885  0.395547  0.823644  1
