# generated using pymatgen
data_Zr8Ga7Si
_symmetry_space_group_name_H-M   'P 1'
_cell_length_a   14.67182380
_cell_length_b   3.85180900
_cell_length_c   5.47659230
_cell_angle_alpha   90.00000000
_cell_angle_beta   89.96217884
_cell_angle_gamma   90.00000000
_symmetry_Int_Tables_number   1
_chemical_formula_structural   Zr8Ga7Si
_chemical_formula_sum   'Zr8 Ga7 Si1'
_cell_volume   309.49893791
_cell_formula_units_Z   1
loop_
 _symmetry_equiv_pos_site_id
 _symmetry_equiv_pos_as_xyz
  1  'x, y, z'
loop_
 _atom_site_type_symbol
 _atom_site_label
 _atom_site_symmetry_multiplicity
 _atom_site_fract_x
 _atom_site_fract_y
 _atom_site_fract_z
 _atom_site_occupancy
  Zr  Zr0  1  0.217403  0.250001  0.998963  1
  Zr  Zr1  1  0.036695  0.749999  0.248965  1
  Zr  Zr2  1  0.534436  0.749999  0.246513  1
  Zr  Zr3  1  0.713699  0.250001  0.496344  1
  Zr  Zr4  1  0.287780  0.749999  0.508602  1
  Zr  Zr5  1  0.460575  0.250001  0.755133  1
  Zr  Zr6  1  0.965244  0.250001  0.750051  1
  Zr  Zr7  1  0.784904  0.749999  0.996029  1
  Ga  Ga8  1  0.644340  0.250001  0.015573  1
  Ga  Ga9  1  0.895268  0.250001  0.230927  1
  Ga  Ga10  1  0.395286  0.250001  0.269948  1
  Ga  Ga11  1  0.146898  0.250001  0.480572  1
  Ga  Ga12  1  0.854699  0.749999  0.517436  1
  Ga  Ga13  1  0.602623  0.749999  0.728690  1
  Ga  Ga14  1  0.105820  0.749999  0.767920  1
  Si  Si15  1  0.354328  0.749999  0.988322  1
