# generated using pymatgen
data_Ti3Zn2GaCu6
_symmetry_space_group_name_H-M   'P 1'
_cell_length_a   4.25000901
_cell_length_b   5.92487800
_cell_length_c   12.76614102
_cell_angle_alpha   90.00001865
_cell_angle_beta   89.99366774
_cell_angle_gamma   89.99999033
_symmetry_Int_Tables_number   1
_chemical_formula_structural   Ti3Zn2GaCu6
_chemical_formula_sum   'Ti6 Zn4 Ga2 Cu12'
_cell_volume   321.46144857
_cell_formula_units_Z   2
loop_
 _symmetry_equiv_pos_site_id
 _symmetry_equiv_pos_as_xyz
  1  'x, y, z'
loop_
 _atom_site_type_symbol
 _atom_site_label
 _atom_site_symmetry_multiplicity
 _atom_site_fract_x
 _atom_site_fract_y
 _atom_site_fract_z
 _atom_site_occupancy
  Ti  Ti0  1  0.999995  0.000001  0.000023  1
  Ti  Ti1  1  0.500198  0.500002  0.166627  1
  Ti  Ti2  1  0.000192  0.000000  0.333221  1
  Ti  Ti3  1  0.500001  0.500000  0.499942  1
  Ti  Ti4  1  0.999807  0.000002  0.666804  1
  Ti  Ti5  1  0.499796  0.500002  0.833491  1
  Zn  Zn6  1  0.000195  0.500000  0.333723  1
  Zn  Zn7  1  0.499999  0.000001  0.500182  1
  Zn  Zn8  1  0.999807  0.500001  0.666556  1
  Zn  Zn9  1  0.499790  0.000001  0.832935  1
  Ga  Ga10  1  0.999994  0.500002  0.999568  1
  Ga  Ga11  1  0.500202  0.000001  0.167059  1
  Cu  Cu12  1  0.499949  0.248595  0.999050  1
  Cu  Cu13  1  0.499975  0.751411  0.999054  1
  Cu  Cu14  1  0.000263  0.251593  0.167308  1
  Cu  Cu15  1  0.000248  0.748406  0.167327  1
  Cu  Cu16  1  0.500195  0.250377  0.334007  1
  Cu  Cu17  1  0.500214  0.749594  0.334010  1
  Cu  Cu18  1  0.999961  0.249859  0.500159  1
  Cu  Cu19  1  0.999960  0.750145  0.500161  1
  Cu  Cu20  1  0.499833  0.250275  0.666740  1
  Cu  Cu21  1  0.499836  0.749736  0.666749  1
  Cu  Cu22  1  0.999820  0.250112  0.832657  1
  Cu  Cu23  1  0.999763  0.749883  0.832651  1
