# generated using pymatgen
data_Hf6Al16Co2Pt5
_symmetry_space_group_name_H-M   'P 1'
_cell_length_a   8.66882289
_cell_length_b   8.66882232
_cell_length_c   8.66120818
_cell_angle_alpha   60.35394287
_cell_angle_beta   60.35394721
_cell_angle_gamma   59.98071455
_symmetry_Int_Tables_number   1
_chemical_formula_structural   Hf6Al16Co2Pt5
_chemical_formula_sum   'Hf6 Al16 Co2 Pt5'
_cell_volume   462.61800162
_cell_formula_units_Z   1
loop_
 _symmetry_equiv_pos_site_id
 _symmetry_equiv_pos_as_xyz
  1  'x, y, z'
loop_
 _atom_site_type_symbol
 _atom_site_label
 _atom_site_symmetry_multiplicity
 _atom_site_fract_x
 _atom_site_fract_y
 _atom_site_fract_z
 _atom_site_occupancy
  Hf  Hf0  1  0.682802  0.682802  0.319178  1
  Hf  Hf1  1  0.315601  0.682718  0.317619  1
  Hf  Hf2  1  0.682718  0.315601  0.317619  1
  Hf  Hf3  1  0.317198  0.317198  0.680822  1
  Hf  Hf4  1  0.684399  0.317282  0.682381  1
  Hf  Hf5  1  0.317282  0.684399  0.682381  1
  Al  Al6  1  0.874260  0.874260  0.362977  1
  Al  Al7  1  0.883423  0.363204  0.867118  1
  Al  Al8  1  0.363204  0.883423  0.867118  1
  Al  Al9  1  0.879983  0.879983  0.877177  1
  Al  Al10  1  0.125740  0.125740  0.637023  1
  Al  Al11  1  0.116577  0.636796  0.132882  1
  Al  Al12  1  0.636796  0.116577  0.132882  1
  Al  Al13  1  0.120017  0.120017  0.122823  1
  Al  Al14  1  0.662262  0.662262  0.011537  1
  Al  Al15  1  0.659064  0.009379  0.657065  1
  Al  Al16  1  0.009379  0.659064  0.657065  1
  Al  Al17  1  0.668689  0.668689  0.654530  1
  Al  Al18  1  0.337738  0.337738  0.988463  1
  Al  Al19  1  0.340936  0.990621  0.342935  1
  Al  Al20  1  0.990621  0.340936  0.342935  1
  Al  Al21  1  0.331311  0.331311  0.345470  1
  Co  Co22  1  0.500000  0.000000  0.500000  1
  Co  Co23  1  0.000000  0.500000  0.500000  1
  Pt  Pt24  1  0.000000  0.000000  0.000000  1
  Pt  Pt25  1  0.000000  0.000000  0.500000  1
  Pt  Pt26  1  0.500000  0.500000  0.000000  1
  Pt  Pt27  1  0.000000  0.500000  0.000000  1
  Pt  Pt28  1  0.500000  0.000000  0.000000  1
