# generated using pymatgen
data_Y8Sc12Si13Ni3
_symmetry_space_group_name_H-M   'P 1'
_cell_length_a   6.95715306
_cell_length_b   7.50949403
_cell_length_c   13.87740600
_cell_angle_alpha   90.00000000
_cell_angle_beta   90.00000000
_cell_angle_gamma   90.01250709
_symmetry_Int_Tables_number   1
_chemical_formula_structural   Y8Sc12Si13Ni3
_chemical_formula_sum   'Y8 Sc12 Si13 Ni3'
_cell_volume   725.02088706
_cell_formula_units_Z   1
loop_
 _symmetry_equiv_pos_site_id
 _symmetry_equiv_pos_as_xyz
  1  'x, y, z'
loop_
 _atom_site_type_symbol
 _atom_site_label
 _atom_site_symmetry_multiplicity
 _atom_site_fract_x
 _atom_site_fract_y
 _atom_site_fract_z
 _atom_site_occupancy
  Y  Y0  1  0.507977  0.678333  0.593840  1
  Y  Y1  1  0.009471  0.820194  0.905339  1
  Y  Y2  1  0.490889  0.320281  0.091320  1
  Y  Y3  1  0.989777  0.179691  0.407238  1
  Y  Y4  1  0.490889  0.320281  0.408680  1
  Y  Y5  1  0.989777  0.179691  0.092762  1
  Y  Y6  1  0.507977  0.678333  0.906160  1
  Y  Y7  1  0.009471  0.820194  0.594661  1
  Sc  Sc8  1  0.680633  0.172725  0.630565  1
  Sc  Sc9  1  0.179175  0.328582  0.870012  1
  Sc  Sc10  1  0.332832  0.821027  0.126376  1
  Sc  Sc11  1  0.816415  0.672853  0.373122  1
  Sc  Sc12  1  0.332832  0.821027  0.373624  1
  Sc  Sc13  1  0.816415  0.672853  0.126878  1
  Sc  Sc14  1  0.680633  0.172725  0.869435  1
  Sc  Sc15  1  0.179175  0.328582  0.629988  1
  Sc  Sc16  1  0.825871  0.505589  0.750000  1
  Sc  Sc17  1  0.326825  0.996555  0.750000  1
  Sc  Sc18  1  0.173192  0.498353  0.250000  1
  Sc  Sc19  1  0.658768  0.009435  0.250000  1
  Si  Si20  1  0.658247  0.965444  0.461843  1
  Si  Si21  1  0.156612  0.534185  0.040263  1
  Si  Si22  1  0.340582  0.034988  0.960526  1
  Si  Si23  1  0.841654  0.466835  0.540136  1
  Si  Si24  1  0.340582  0.034988  0.539474  1
  Si  Si25  1  0.841654  0.466835  0.959864  1
  Si  Si26  1  0.658247  0.965444  0.038157  1
  Si  Si27  1  0.156612  0.534185  0.459737  1
  Si  Si28  1  0.030277  0.888074  0.250000  1
  Si  Si29  1  0.721077  0.876497  0.750000  1
  Si  Si30  1  0.222510  0.625897  0.750000  1
  Si  Si31  1  0.279561  0.124205  0.250000  1
  Si  Si32  1  0.780340  0.374314  0.250000  1
  Ni  Ni33  1  0.468833  0.393893  0.750000  1
  Ni  Ni34  1  0.970627  0.107447  0.750000  1
  Ni  Ni35  1  0.533591  0.609466  0.250000  1
