# generated using pymatgen
data_LiCe3TmAl3Ir4
_symmetry_space_group_name_H-M   'P 1'
_cell_length_a   6.92404392
_cell_length_b   4.16586800
_cell_length_c   8.14843708
_cell_angle_alpha   90.00000000
_cell_angle_beta   89.53833605
_cell_angle_gamma   90.00000000
_symmetry_Int_Tables_number   1
_chemical_formula_structural   LiCe3TmAl3Ir4
_chemical_formula_sum   'Li1 Ce3 Tm1 Al3 Ir4'
_cell_volume   235.03121021
_cell_formula_units_Z   1
loop_
 _symmetry_equiv_pos_site_id
 _symmetry_equiv_pos_as_xyz
  1  'x, y, z'
loop_
 _atom_site_type_symbol
 _atom_site_label
 _atom_site_symmetry_multiplicity
 _atom_site_fract_x
 _atom_site_fract_y
 _atom_site_fract_z
 _atom_site_occupancy
  Li  Li0  1  0.125290  0.750000  0.436709  1
  Ce  Ce1  1  0.459750  0.250000  0.315412  1
  Ce  Ce2  1  0.034831  0.750000  0.817247  1
  Ce  Ce3  1  0.537289  0.750000  0.683168  1
  Tm  Tm4  1  0.960372  0.250000  0.183473  1
  Al  Al5  1  0.869683  0.250000  0.554028  1
  Al  Al6  1  0.368451  0.250000  0.943746  1
  Al  Al7  1  0.642931  0.750000  0.062735  1
  Ir  Ir8  1  0.742770  0.250000  0.877091  1
  Ir  Ir9  1  0.245566  0.250000  0.638722  1
  Ir  Ir10  1  0.265315  0.750000  0.108798  1
  Ir  Ir11  1  0.747751  0.750000  0.378871  1
