# generated using pymatgen
data_Ho4Th3Sn23Ru6
_symmetry_space_group_name_H-M   'P 1'
_cell_length_a   9.87848294
_cell_length_b   9.87848339
_cell_length_c   10.16560100
_cell_angle_alpha   90.28585126
_cell_angle_beta   89.71414873
_cell_angle_gamma   119.95981605
_symmetry_Int_Tables_number   1
_chemical_formula_structural   Ho4Th3Sn23Ru6
_chemical_formula_sum   'Ho4 Th3 Sn23 Ru6'
_cell_volume   859.43437879
_cell_formula_units_Z   1
loop_
 _symmetry_equiv_pos_site_id
 _symmetry_equiv_pos_as_xyz
  1  'x, y, z'
loop_
 _atom_site_type_symbol
 _atom_site_label
 _atom_site_symmetry_multiplicity
 _atom_site_fract_x
 _atom_site_fract_y
 _atom_site_fract_z
 _atom_site_occupancy
  Ho  Ho0  1  0.483866  0.965610  0.303042  1
  Ho  Ho1  1  0.516134  0.034390  0.696958  1
  Ho  Ho2  1  0.034390  0.516134  0.303042  1
  Ho  Ho3  1  0.965610  0.483866  0.696958  1
  Th  Th4  1  0.482967  0.517033  0.305533  1
  Th  Th5  1  0.517033  0.482967  0.694467  1
  Th  Th6  1  0.000000  0.000000  0.000000  1
  Sn  Sn7  1  0.120321  0.879679  0.275627  1
  Sn  Sn8  1  0.879679  0.120321  0.724373  1
  Sn  Sn9  1  0.113639  0.233864  0.278388  1
  Sn  Sn10  1  0.886361  0.766136  0.721612  1
  Sn  Sn11  1  0.766136  0.886361  0.278388  1
  Sn  Sn12  1  0.233864  0.113639  0.721612  1
  Sn  Sn13  1  0.781248  0.218752  0.458655  1
  Sn  Sn14  1  0.218752  0.781248  0.541345  1
  Sn  Sn15  1  0.789082  0.563053  0.459512  1
  Sn  Sn16  1  0.210918  0.436947  0.540488  1
  Sn  Sn17  1  0.436947  0.210918  0.459512  1
  Sn  Sn18  1  0.563053  0.789082  0.540488  1
  Sn  Sn19  1  0.350892  0.000613  0.000311  1
  Sn  Sn20  1  0.649108  0.999387  0.999689  1
  Sn  Sn21  1  0.000613  0.350892  0.999689  1
  Sn  Sn22  1  0.999387  0.649108  0.000311  1
  Sn  Sn23  1  0.650116  0.650116  0.000000  1
  Sn  Sn24  1  0.349884  0.349884  0.000000  1
  Sn  Sn25  1  0.330032  0.669968  0.121023  1
  Sn  Sn26  1  0.669968  0.330032  0.878977  1
  Sn  Sn27  1  0.331953  0.668047  0.823130  1
  Sn  Sn28  1  0.668047  0.331953  0.176870  1
  Sn  Sn29  1  0.000000  0.000000  0.500000  1
  Ru  Ru30  1  0.830462  0.169538  0.198918  1
  Ru  Ru31  1  0.169538  0.830462  0.801082  1
  Ru  Ru32  1  0.828914  0.662087  0.200379  1
  Ru  Ru33  1  0.171086  0.337913  0.799621  1
  Ru  Ru34  1  0.337913  0.171086  0.200379  1
  Ru  Ru35  1  0.662087  0.828914  0.799621  1
