# generated using pymatgen
data_Ho3Er2Lu3Cd2PdPt
_symmetry_space_group_name_H-M   'P 1'
_cell_length_a   9.56493465
_cell_length_b   9.56493550
_cell_length_c   9.56493500
_cell_angle_alpha   59.99999829
_cell_angle_beta   59.99999532
_cell_angle_gamma   59.99999785
_symmetry_Int_Tables_number   1
_chemical_formula_structural   Ho3Er2Lu3Cd2PdPt
_chemical_formula_sum   'Ho6 Er4 Lu6 Cd4 Pd2 Pt2'
_cell_volume   618.77256558
_cell_formula_units_Z   2
loop_
 _symmetry_equiv_pos_site_id
 _symmetry_equiv_pos_as_xyz
  1  'x, y, z'
loop_
 _atom_site_type_symbol
 _atom_site_label
 _atom_site_symmetry_multiplicity
 _atom_site_fract_x
 _atom_site_fract_y
 _atom_site_fract_z
 _atom_site_occupancy
  Ho  Ho0  1  0.185437  0.814982  0.814163  1
  Ho  Ho1  1  0.814982  0.185437  0.185418  1
  Ho  Ho2  1  0.814982  0.185437  0.814163  1
  Ho  Ho3  1  0.185437  0.814982  0.185418  1
  Ho  Ho4  1  0.814123  0.814123  0.185877  1
  Ho  Ho5  1  0.184987  0.184987  0.815013  1
  Er  Er6  1  0.603539  0.603539  0.601927  1
  Er  Er7  1  0.603539  0.603539  0.190995  1
  Er  Er8  1  0.604175  0.190636  0.602594  1
  Er  Er9  1  0.190636  0.604175  0.602594  1
  Lu  Lu10  1  0.060780  0.438328  0.438206  1
  Lu  Lu11  1  0.438328  0.060780  0.062685  1
  Lu  Lu12  1  0.438328  0.060780  0.438206  1
  Lu  Lu13  1  0.060780  0.438328  0.062685  1
  Lu  Lu14  1  0.438280  0.438280  0.061720  1
  Lu  Lu15  1  0.061709  0.061709  0.438291  1
  Cd  Cd16  1  0.831878  0.831878  0.831897  1
  Cd  Cd17  1  0.831878  0.831878  0.504347  1
  Cd  Cd18  1  0.831845  0.504457  0.831849  1
  Cd  Cd19  1  0.504457  0.831845  0.831849  1
  Pd  Pd20  1  0.392617  0.392617  0.392685  1
  Pd  Pd21  1  0.392617  0.392617  0.822081  1
  Pt  Pt22  1  0.392514  0.822150  0.392667  1
  Pt  Pt23  1  0.822150  0.392514  0.392667  1
