# generated using pymatgen
data_ErAl2(Fe4Re)2
_symmetry_space_group_name_H-M   'P 1'
_cell_length_a   4.75647508
_cell_length_b   6.50768562
_cell_length_c   6.50768629
_cell_angle_alpha   96.79073977
_cell_angle_beta   111.43531655
_cell_angle_gamma   68.56468780
_symmetry_Int_Tables_number   1
_chemical_formula_structural   ErAl2(Fe4Re)2
_chemical_formula_sum   'Er1 Al2 Fe8 Re2'
_cell_volume   174.50666732
_cell_formula_units_Z   1
loop_
 _symmetry_equiv_pos_site_id
 _symmetry_equiv_pos_as_xyz
  1  'x, y, z'
loop_
 _atom_site_type_symbol
 _atom_site_label
 _atom_site_symmetry_multiplicity
 _atom_site_fract_x
 _atom_site_fract_y
 _atom_site_fract_z
 _atom_site_occupancy
  Er  Er0  1  0.000000  0.000000  0.000000  1
  Al  Al1  1  0.710445  0.789555  0.210445  1
  Al  Al2  1  0.289555  0.210445  0.789555  1
  Fe  Fe3  1  0.500000  0.770420  0.770420  1
  Fe  Fe4  1  0.500000  0.229580  0.229580  1
  Fe  Fe5  1  0.500000  0.000000  0.500000  1
  Fe  Fe6  1  0.000000  0.000000  0.500000  1
  Fe  Fe7  1  0.500000  0.500000  0.000000  1
  Fe  Fe8  1  0.000000  0.500000  0.000000  1
  Fe  Fe9  1  0.639872  0.360128  0.639872  1
  Fe  Fe10  1  0.360128  0.639872  0.360128  1
  Re  Re11  1  0.000000  0.357726  0.357726  1
  Re  Re12  1  0.000000  0.642274  0.642274  1
