# generated using pymatgen
data_ThAsO4F
_symmetry_space_group_name_H-M   'P 1'
_cell_length_a   8.98760400
_cell_length_b   7.33874600
_cell_length_c   6.78564800
_cell_angle_alpha   90.00000000
_cell_angle_beta   90.00000000
_cell_angle_gamma   90.00000000
_symmetry_Int_Tables_number   1
_chemical_formula_structural   ThAsO4F
_chemical_formula_sum   'Th4 As4 O16 F4'
_cell_volume   447.56602623
_cell_formula_units_Z   4
loop_
 _symmetry_equiv_pos_site_id
 _symmetry_equiv_pos_as_xyz
  1  'x, y, z'
loop_
 _atom_site_type_symbol
 _atom_site_label
 _atom_site_symmetry_multiplicity
 _atom_site_fract_x
 _atom_site_fract_y
 _atom_site_fract_z
 _atom_site_occupancy
  Th  Th0  1  0.454477  0.750000  0.146636  1
  Th  Th1  1  0.954478  0.750000  0.353363  1
  Th  Th2  1  0.045523  0.250000  0.646636  1
  Th  Th3  1  0.545522  0.250000  0.853364  1
  As  As4  1  0.897551  0.250000  0.178104  1
  As  As5  1  0.397550  0.250000  0.321895  1
  As  As6  1  0.602449  0.750000  0.678105  1
  As  As7  1  0.102449  0.750000  0.821896  1
  O  O8  1  0.983234  0.750000  0.015861  1
  O  O9  1  0.717667  0.250000  0.104321  1
  O  O10  1  0.432603  0.070729  0.161644  1
  O  O11  1  0.432603  0.429271  0.161644  1
  O  O12  1  0.932604  0.070729  0.338356  1
  O  O13  1  0.932604  0.429271  0.338356  1
  O  O14  1  0.217667  0.250000  0.395677  1
  O  O15  1  0.483234  0.750000  0.484139  1
  O  O16  1  0.516767  0.250000  0.515860  1
  O  O17  1  0.782334  0.750000  0.604322  1
  O  O18  1  0.067396  0.570729  0.661642  1
  O  O19  1  0.067396  0.929272  0.661642  1
  O  O20  1  0.567396  0.570729  0.838356  1
  O  O21  1  0.567396  0.929272  0.838356  1
  O  O22  1  0.282333  0.750000  0.895678  1
  O  O23  1  0.016766  0.250000  0.984140  1
  F  F24  1  0.712448  0.750000  0.201034  1
  F  F25  1  0.212449  0.750000  0.298966  1
  F  F26  1  0.787551  0.250000  0.701034  1
  F  F27  1  0.287552  0.250000  0.798967  1
