# generated using pymatgen
data_Dy3Lu(ScIr)4
_symmetry_space_group_name_H-M   'P 1'
_cell_length_a   4.26866000
_cell_length_b   7.13237876
_cell_length_c   8.66306400
_cell_angle_alpha   89.95974566
_cell_angle_beta   90.00000000
_cell_angle_gamma   90.00000000
_symmetry_Int_Tables_number   1
_chemical_formula_structural   Dy3Lu(ScIr)4
_chemical_formula_sum   'Dy3 Lu1 Sc4 Ir4'
_cell_volume   263.75298183
_cell_formula_units_Z   1
loop_
 _symmetry_equiv_pos_site_id
 _symmetry_equiv_pos_as_xyz
  1  'x, y, z'
loop_
 _atom_site_type_symbol
 _atom_site_label
 _atom_site_symmetry_multiplicity
 _atom_site_fract_x
 _atom_site_fract_y
 _atom_site_fract_z
 _atom_site_occupancy
  Dy  Dy0  1  0.250000  0.982434  0.326829  1
  Dy  Dy1  1  0.250000  0.482688  0.172082  1
  Dy  Dy2  1  0.750000  0.018102  0.674380  1
  Lu  Lu3  1  0.750000  0.517841  0.828731  1
  Sc  Sc4  1  0.250000  0.359326  0.567188  1
  Sc  Sc5  1  0.250000  0.856817  0.934037  1
  Sc  Sc6  1  0.750000  0.641125  0.435665  1
  Sc  Sc7  1  0.750000  0.141507  0.064899  1
  Ir  Ir8  1  0.250000  0.241298  0.891598  1
  Ir  Ir9  1  0.250000  0.738390  0.606842  1
  Ir  Ir10  1  0.750000  0.759426  0.104203  1
  Ir  Ir11  1  0.750000  0.261048  0.393545  1
