# generated using pymatgen
data_TaCrGaNiPt4
_symmetry_space_group_name_H-M   'P 1'
_cell_length_a   3.92368300
_cell_length_b   3.92368300
_cell_length_c   7.70417100
_cell_angle_alpha   90.00000000
_cell_angle_beta   90.00000000
_cell_angle_gamma   90.00000000
_symmetry_Int_Tables_number   1
_chemical_formula_structural   TaCrGaNiPt4
_chemical_formula_sum   'Ta1 Cr1 Ga1 Ni1 Pt4'
_cell_volume   118.60793354
_cell_formula_units_Z   1
loop_
 _symmetry_equiv_pos_site_id
 _symmetry_equiv_pos_as_xyz
  1  'x, y, z'
loop_
 _atom_site_type_symbol
 _atom_site_label
 _atom_site_symmetry_multiplicity
 _atom_site_fract_x
 _atom_site_fract_y
 _atom_site_fract_z
 _atom_site_occupancy
  Ta  Ta0  1  0.000000  0.000000  0.500000  1
  Cr  Cr1  1  0.500000  0.500000  0.000000  1
  Ga  Ga2  1  0.000000  0.000000  0.000000  1
  Ni  Ni3  1  0.500000  0.500000  0.500000  1
  Pt  Pt4  1  0.500000  0.000000  0.251532  1
  Pt  Pt5  1  0.500000  0.000000  0.748468  1
  Pt  Pt6  1  0.000000  0.500000  0.251532  1
  Pt  Pt7  1  0.000000  0.500000  0.748468  1
