# generated using pymatgen
data_TbLu3(CrB4)4
_symmetry_space_group_name_H-M   'P 1'
_cell_length_a   3.40830800
_cell_length_b   5.89937917
_cell_length_c   11.39146203
_cell_angle_alpha   89.92755257
_cell_angle_beta   90.00000000
_cell_angle_gamma   90.00000000
_symmetry_Int_Tables_number   1
_chemical_formula_structural   TbLu3(CrB4)4
_chemical_formula_sum   'Tb1 Lu3 Cr4 B16'
_cell_volume   229.04681864
_cell_formula_units_Z   1
loop_
 _symmetry_equiv_pos_site_id
 _symmetry_equiv_pos_as_xyz
  1  'x, y, z'
loop_
 _atom_site_type_symbol
 _atom_site_label
 _atom_site_symmetry_multiplicity
 _atom_site_fract_x
 _atom_site_fract_y
 _atom_site_fract_z
 _atom_site_occupancy
  Tb  Tb0  1  0.000000  0.625337  0.349134  1
  Lu  Lu1  1  0.000000  0.374857  0.650974  1
  Lu  Lu2  1  0.000000  0.125150  0.149924  1
  Lu  Lu3  1  0.000000  0.874709  0.849447  1
  Cr  Cr4  1  0.000000  0.624182  0.079531  1
  Cr  Cr5  1  0.000000  0.375289  0.918742  1
  Cr  Cr6  1  0.000000  0.124617  0.419955  1
  Cr  Cr7  1  0.000000  0.876140  0.581919  1
  B  B8  1  0.500000  0.783387  0.183052  1
  B  B9  1  0.500000  0.216985  0.815246  1
  B  B10  1  0.500000  0.280678  0.315080  1
  B  B11  1  0.500000  0.717153  0.685438  1
  B  B12  1  0.500000  0.864344  0.031365  1
  B  B13  1  0.500000  0.135514  0.967237  1
  B  B14  1  0.500000  0.363497  0.468975  1
  B  B15  1  0.500000  0.636538  0.533867  1
  B  B16  1  0.500000  0.888178  0.453972  1
  B  B17  1  0.500000  0.114887  0.548620  1
  B  B18  1  0.500000  0.385074  0.046655  1
  B  B19  1  0.500000  0.613967  0.951992  1
  B  B20  1  0.500000  0.976951  0.307408  1
  B  B21  1  0.500000  0.024417  0.693413  1
  B  B22  1  0.500000  0.473996  0.190897  1
  B  B23  1  0.500000  0.524154  0.807156  1
