# generated using pymatgen
data_Hf18Ta6Co2RuW
_symmetry_space_group_name_H-M   'P 1'
_cell_length_a   8.81584800
_cell_length_b   8.81584772
_cell_length_c   8.46884500
_cell_angle_alpha   90.00000000
_cell_angle_beta   90.00000000
_cell_angle_gamma   120.00000105
_symmetry_Int_Tables_number   1
_chemical_formula_structural   Hf18Ta6Co2RuW
_chemical_formula_sum   'Hf18 Ta6 Co2 Ru1 W1'
_cell_volume   570.01066937
_cell_formula_units_Z   1
loop_
 _symmetry_equiv_pos_site_id
 _symmetry_equiv_pos_as_xyz
  1  'x, y, z'
loop_
 _atom_site_type_symbol
 _atom_site_label
 _atom_site_symmetry_multiplicity
 _atom_site_fract_x
 _atom_site_fract_y
 _atom_site_fract_z
 _atom_site_occupancy
  Hf  Hf0  1  0.202777  0.797223  0.438860  1
  Hf  Hf1  1  0.202777  0.405554  0.438860  1
  Hf  Hf2  1  0.594446  0.797223  0.438860  1
  Hf  Hf3  1  0.797223  0.202777  0.561140  1
  Hf  Hf4  1  0.797223  0.594446  0.561140  1
  Hf  Hf5  1  0.405554  0.202777  0.561140  1
  Hf  Hf6  1  0.797962  0.202038  0.939855  1
  Hf  Hf7  1  0.797962  0.595923  0.939855  1
  Hf  Hf8  1  0.404077  0.202038  0.939855  1
  Hf  Hf9  1  0.202038  0.797962  0.060145  1
  Hf  Hf10  1  0.202038  0.404077  0.060145  1
  Hf  Hf11  1  0.595923  0.797962  0.060145  1
  Hf  Hf12  1  0.541018  0.458982  0.251246  1
  Hf  Hf13  1  0.541018  0.082034  0.251246  1
  Hf  Hf14  1  0.917966  0.458982  0.251246  1
  Hf  Hf15  1  0.458982  0.541018  0.748754  1
  Hf  Hf16  1  0.458982  0.917966  0.748754  1
  Hf  Hf17  1  0.082034  0.541018  0.748754  1
  Ta  Ta18  1  0.887656  0.112344  0.250347  1
  Ta  Ta19  1  0.887656  0.775311  0.250347  1
  Ta  Ta20  1  0.224689  0.112344  0.250347  1
  Ta  Ta21  1  0.112344  0.887656  0.749653  1
  Ta  Ta22  1  0.112344  0.224689  0.749653  1
  Ta  Ta23  1  0.775311  0.887656  0.749653  1
  Co  Co24  1  0.333333  0.666667  0.250855  1
  Co  Co25  1  0.666667  0.333333  0.749145  1
  Ru  Ru26  1  0.000000  0.000000  0.500000  1
  W  W27  1  0.000000  0.000000  0.000000  1
