# generated using pymatgen
data_Eu20Si11Au
_symmetry_space_group_name_H-M   'P 1'
_cell_length_a   7.73242800
_cell_length_b   7.73242800
_cell_length_c   14.97296200
_cell_angle_alpha   90.00000000
_cell_angle_beta   90.00000000
_cell_angle_gamma   90.00000000
_symmetry_Int_Tables_number   1
_chemical_formula_structural   Eu20Si11Au
_chemical_formula_sum   'Eu20 Si11 Au1'
_cell_volume   895.24002764
_cell_formula_units_Z   1
loop_
 _symmetry_equiv_pos_site_id
 _symmetry_equiv_pos_as_xyz
  1  'x, y, z'
loop_
 _atom_site_type_symbol
 _atom_site_label
 _atom_site_symmetry_multiplicity
 _atom_site_fract_x
 _atom_site_fract_y
 _atom_site_fract_z
 _atom_site_occupancy
  Eu  Eu0  1  0.321646  0.674692  0.106085  1
  Eu  Eu1  1  0.174692  0.178354  0.106085  1
  Eu  Eu2  1  0.500000  0.000000  0.731438  1
  Eu  Eu3  1  0.328188  0.681819  0.395827  1
  Eu  Eu4  1  0.665286  0.685835  0.893750  1
  Eu  Eu5  1  0.181819  0.171812  0.395827  1
  Eu  Eu6  1  0.671812  0.318181  0.395827  1
  Eu  Eu7  1  0.171712  0.816586  0.604432  1
  Eu  Eu8  1  0.334714  0.314165  0.893750  1
  Eu  Eu9  1  0.185835  0.834714  0.893750  1
  Eu  Eu10  1  0.500000  0.000000  0.244579  1
  Eu  Eu11  1  0.828288  0.183414  0.604432  1
  Eu  Eu12  1  0.316586  0.328288  0.604432  1
  Eu  Eu13  1  0.818181  0.828188  0.395827  1
  Eu  Eu14  1  0.814165  0.165286  0.893750  1
  Eu  Eu15  1  0.825308  0.821646  0.106085  1
  Eu  Eu16  1  0.000000  0.500000  0.265080  1
  Eu  Eu17  1  0.000000  0.500000  0.760545  1
  Eu  Eu18  1  0.678354  0.325308  0.106085  1
  Eu  Eu19  1  0.683414  0.671712  0.604432  1
  Si  Si20  1  0.110902  0.111614  0.749723  1
  Si  Si21  1  0.388386  0.610902  0.749723  1
  Si  Si22  1  0.611540  0.610565  0.250080  1
  Si  Si23  1  0.500000  0.000000  0.006718  1
  Si  Si24  1  0.110565  0.888460  0.250080  1
  Si  Si25  1  0.611614  0.389098  0.749723  1
  Si  Si26  1  0.889098  0.888386  0.749723  1
  Si  Si27  1  0.388460  0.389435  0.250080  1
  Si  Si28  1  0.889435  0.111540  0.250080  1
  Si  Si29  1  0.500000  0.000000  0.504874  1
  Si  Si30  1  0.000000  0.500000  0.494336  1
  Au  Au31  1  0.000000  0.500000  0.992841  1
