# generated using pymatgen
data_Sc5PaCo2
_symmetry_space_group_name_H-M   'P 1'
_cell_length_a   5.89946900
_cell_length_b   8.79234600
_cell_length_c   13.10010500
_cell_angle_alpha   90.00000000
_cell_angle_beta   90.00000000
_cell_angle_gamma   90.00000000
_symmetry_Int_Tables_number   1
_chemical_formula_structural   Sc5PaCo2
_chemical_formula_sum   'Sc20 Pa4 Co8'
_cell_volume   679.50470827
_cell_formula_units_Z   4
loop_
 _symmetry_equiv_pos_site_id
 _symmetry_equiv_pos_as_xyz
  1  'x, y, z'
loop_
 _atom_site_type_symbol
 _atom_site_label
 _atom_site_symmetry_multiplicity
 _atom_site_fract_x
 _atom_site_fract_y
 _atom_site_fract_z
 _atom_site_occupancy
  Sc  Sc0  1  0.792858  0.750000  0.102595  1
  Sc  Sc1  1  0.292858  0.250000  0.397405  1
  Sc  Sc2  1  0.207142  0.250000  0.897405  1
  Sc  Sc3  1  0.707142  0.750000  0.602595  1
  Sc  Sc4  1  0.408278  0.933660  0.790150  1
  Sc  Sc5  1  0.908278  0.066340  0.709850  1
  Sc  Sc6  1  0.591722  0.433660  0.209850  1
  Sc  Sc7  1  0.091722  0.566340  0.290150  1
  Sc  Sc8  1  0.591722  0.066340  0.209850  1
  Sc  Sc9  1  0.091722  0.933660  0.290150  1
  Sc  Sc10  1  0.408278  0.566340  0.790150  1
  Sc  Sc11  1  0.908278  0.433660  0.709850  1
  Sc  Sc12  1  0.240719  0.931385  0.535783  1
  Sc  Sc13  1  0.740719  0.068615  0.964217  1
  Sc  Sc14  1  0.759281  0.431385  0.464217  1
  Sc  Sc15  1  0.259281  0.568615  0.035783  1
  Sc  Sc16  1  0.759281  0.068615  0.464217  1
  Sc  Sc17  1  0.259281  0.931385  0.035783  1
  Sc  Sc18  1  0.240719  0.568615  0.535783  1
  Sc  Sc19  1  0.740719  0.431385  0.964217  1
  Pa  Pa20  1  0.577784  0.750000  0.349680  1
  Pa  Pa21  1  0.077784  0.250000  0.150320  1
  Pa  Pa22  1  0.422216  0.250000  0.650320  1
  Pa  Pa23  1  0.922216  0.750000  0.849680  1
  Co  Co24  1  0.936148  0.750000  0.437947  1
  Co  Co25  1  0.436148  0.250000  0.062053  1
  Co  Co26  1  0.063852  0.250000  0.562053  1
  Co  Co27  1  0.563852  0.750000  0.937947  1
  Co  Co28  1  0.393996  0.750000  0.193463  1
  Co  Co29  1  0.893996  0.250000  0.306537  1
  Co  Co30  1  0.606004  0.250000  0.806537  1
  Co  Co31  1  0.106004  0.750000  0.693463  1
