# generated using pymatgen
data_Tm4B8MoRu9
_symmetry_space_group_name_H-M   'P 1'
_cell_length_a   3.07332500
_cell_length_b   8.75400382
_cell_length_c   10.17858687
_cell_angle_alpha   90.33773832
_cell_angle_beta   90.00000000
_cell_angle_gamma   90.00000000
_symmetry_Int_Tables_number   1
_chemical_formula_structural   Tm4B8MoRu9
_chemical_formula_sum   'Tm4 B8 Mo1 Ru9'
_cell_volume   273.83891314
_cell_formula_units_Z   1
loop_
 _symmetry_equiv_pos_site_id
 _symmetry_equiv_pos_as_xyz
  1  'x, y, z'
loop_
 _atom_site_type_symbol
 _atom_site_label
 _atom_site_symmetry_multiplicity
 _atom_site_fract_x
 _atom_site_fract_y
 _atom_site_fract_z
 _atom_site_occupancy
  Tm  Tm0  1  0.500000  0.840784  0.180315  1
  Tm  Tm1  1  0.500000  0.160163  0.818871  1
  Tm  Tm2  1  0.500000  0.661255  0.682762  1
  Tm  Tm3  1  0.500000  0.340923  0.316461  1
  B  B4  1  0.500000  0.967270  0.588290  1
  B  B5  1  0.500000  0.033718  0.410481  1
  B  B6  1  0.500000  0.850376  0.901487  1
  B  B7  1  0.500000  0.148390  0.098153  1
  B  B8  1  0.500000  0.645292  0.399519  1
  B  B9  1  0.500000  0.352036  0.601028  1
  B  B10  1  0.500000  0.465402  0.914345  1
  B  B11  1  0.500000  0.533890  0.087193  1
  Mo  Mo12  1  0.000000  0.658280  0.954650  1
  Ru  Ru13  1  0.000000  0.336352  0.048729  1
  Ru  Ru14  1  0.000000  0.842475  0.453342  1
  Ru  Ru15  1  0.000000  0.158412  0.544574  1
  Ru  Ru16  1  0.000000  0.001728  0.999835  1
  Ru  Ru17  1  0.000000  0.406918  0.761008  1
  Ru  Ru18  1  0.000000  0.593989  0.240186  1
  Ru  Ru19  1  0.000000  0.499487  0.500848  1
  Ru  Ru20  1  0.000000  0.909937  0.736943  1
  Ru  Ru21  1  0.000000  0.092923  0.260979  1
