# generated using pymatgen
data_Dy2Y18Cd6RuRh
_symmetry_space_group_name_H-M   'P 1'
_cell_length_a   9.68700800
_cell_length_b   9.68700712
_cell_length_c   9.84372300
_cell_angle_alpha   90.00000000
_cell_angle_beta   90.00000000
_cell_angle_gamma   120.00000300
_symmetry_Int_Tables_number   1
_chemical_formula_structural   Dy2Y18Cd6RuRh
_chemical_formula_sum   'Dy2 Y18 Cd6 Ru1 Rh1'
_cell_volume   799.96185764
_cell_formula_units_Z   1
loop_
 _symmetry_equiv_pos_site_id
 _symmetry_equiv_pos_as_xyz
  1  'x, y, z'
loop_
 _atom_site_type_symbol
 _atom_site_label
 _atom_site_symmetry_multiplicity
 _atom_site_fract_x
 _atom_site_fract_y
 _atom_site_fract_z
 _atom_site_occupancy
  Dy  Dy0  1  0.000000  0.000000  0.499856  1
  Dy  Dy1  1  0.000000  0.000000  0.000144  1
  Y  Y2  1  0.208976  0.791024  0.440266  1
  Y  Y3  1  0.208976  0.417953  0.440266  1
  Y  Y4  1  0.582047  0.791024  0.440266  1
  Y  Y5  1  0.790526  0.209474  0.560268  1
  Y  Y6  1  0.790526  0.581050  0.560268  1
  Y  Y7  1  0.418950  0.209474  0.560268  1
  Y  Y8  1  0.790526  0.209474  0.939732  1
  Y  Y9  1  0.790526  0.581050  0.939732  1
  Y  Y10  1  0.418950  0.209474  0.939732  1
  Y  Y11  1  0.208976  0.791024  0.059734  1
  Y  Y12  1  0.208976  0.417953  0.059734  1
  Y  Y13  1  0.582047  0.791024  0.059734  1
  Y  Y14  1  0.542236  0.457764  0.250000  1
  Y  Y15  1  0.542236  0.084474  0.250000  1
  Y  Y16  1  0.915526  0.457764  0.250000  1
  Y  Y17  1  0.458697  0.541303  0.750000  1
  Y  Y18  1  0.458697  0.917396  0.750000  1
  Y  Y19  1  0.082604  0.541303  0.750000  1
  Cd  Cd20  1  0.885116  0.114884  0.250000  1
  Cd  Cd21  1  0.885116  0.770233  0.250000  1
  Cd  Cd22  1  0.229767  0.114884  0.250000  1
  Cd  Cd23  1  0.114738  0.885262  0.750000  1
  Cd  Cd24  1  0.114738  0.229473  0.750000  1
  Cd  Cd25  1  0.770527  0.885262  0.750000  1
  Ru  Ru26  1  0.666667  0.333333  0.750000  1
  Rh  Rh27  1  0.333333  0.666667  0.250000  1
