# generated using pymatgen
data_Ho12Tc3Ag2
_symmetry_space_group_name_H-M   'P 1'
_cell_length_a   8.33275358
_cell_length_b   8.33275396
_cell_length_c   8.33275401
_cell_angle_alpha   110.18498958
_cell_angle_beta   110.18498710
_cell_angle_gamma   108.05293021
_symmetry_Int_Tables_number   1
_chemical_formula_structural   Ho12Tc3Ag2
_chemical_formula_sum   'Ho12 Tc3 Ag2'
_cell_volume   445.18930495
_cell_formula_units_Z   1
loop_
 _symmetry_equiv_pos_site_id
 _symmetry_equiv_pos_as_xyz
  1  'x, y, z'
loop_
 _atom_site_type_symbol
 _atom_site_label
 _atom_site_symmetry_multiplicity
 _atom_site_fract_x
 _atom_site_fract_y
 _atom_site_fract_z
 _atom_site_occupancy
  Ho  Ho0  1  0.183992  0.432156  0.248164  1
  Ho  Ho1  1  0.816008  0.567844  0.751836  1
  Ho  Ho2  1  0.183992  0.935829  0.751836  1
  Ho  Ho3  1  0.935829  0.183992  0.751836  1
  Ho  Ho4  1  0.816008  0.064171  0.248164  1
  Ho  Ho5  1  0.064171  0.816008  0.248164  1
  Ho  Ho6  1  0.432156  0.183992  0.248164  1
  Ho  Ho7  1  0.567844  0.816008  0.751836  1
  Ho  Ho8  1  0.319949  0.319949  0.639900  1
  Ho  Ho9  1  0.680051  0.680051  0.360100  1
  Ho  Ho10  1  0.680051  0.319949  0.000000  1
  Ho  Ho11  1  0.319949  0.680051  0.000000  1
  Tc  Tc12  1  0.338536  0.338536  0.000000  1
  Tc  Tc13  1  0.661464  0.661464  0.000000  1
  Tc  Tc14  1  0.000000  0.000000  0.000000  1
  Ag  Ag15  1  0.000000  0.500000  0.500000  1
  Ag  Ag16  1  0.500000  0.000000  0.500000  1
