# generated using pymatgen
data_La6NdNi3
_symmetry_space_group_name_H-M   'P 1'
_cell_length_a   10.06970600
_cell_length_b   10.06970496
_cell_length_c   6.39530800
_cell_angle_alpha   90.00000000
_cell_angle_beta   90.00000000
_cell_angle_gamma   120.00000343
_symmetry_Int_Tables_number   1
_chemical_formula_structural   La6NdNi3
_chemical_formula_sum   'La12 Nd2 Ni6'
_cell_volume   561.59808538
_cell_formula_units_Z   2
loop_
 _symmetry_equiv_pos_site_id
 _symmetry_equiv_pos_as_xyz
  1  'x, y, z'
loop_
 _atom_site_type_symbol
 _atom_site_label
 _atom_site_symmetry_multiplicity
 _atom_site_fract_x
 _atom_site_fract_y
 _atom_site_fract_z
 _atom_site_occupancy
  La  La0  1  0.872636  0.745272  0.750304  1
  La  La1  1  0.254728  0.127364  0.750304  1
  La  La2  1  0.872636  0.127364  0.750304  1
  La  La3  1  0.127364  0.254728  0.250304  1
  La  La4  1  0.745272  0.872636  0.250304  1
  La  La5  1  0.127364  0.872636  0.250304  1
  La  La6  1  0.461856  0.923713  0.562374  1
  La  La7  1  0.076287  0.538144  0.562374  1
  La  La8  1  0.461856  0.538144  0.562374  1
  La  La9  1  0.538144  0.076287  0.062374  1
  La  La10  1  0.923713  0.461856  0.062374  1
  La  La11  1  0.538144  0.461856  0.062374  1
  Nd  Nd12  1  0.666667  0.333333  0.540011  1
  Nd  Nd13  1  0.333333  0.666667  0.040011  1
  Ni  Ni14  1  0.188337  0.376675  0.809740  1
  Ni  Ni15  1  0.623325  0.811663  0.809740  1
  Ni  Ni16  1  0.188337  0.811663  0.809740  1
  Ni  Ni17  1  0.811663  0.623325  0.309740  1
  Ni  Ni18  1  0.376675  0.188337  0.309740  1
  Ni  Ni19  1  0.811663  0.188337  0.309740  1
