# generated using pymatgen
data_Y3(H6Os)2
_symmetry_space_group_name_H-M   'P 1'
_cell_length_a   4.76261400
_cell_length_b   4.76261425
_cell_length_c   8.24122900
_cell_angle_alpha   90.00000000
_cell_angle_beta   90.00000000
_cell_angle_gamma   119.99999827
_symmetry_Int_Tables_number   1
_chemical_formula_structural   Y3(H6Os)2
_chemical_formula_sum   'Y3 H12 Os2'
_cell_volume   161.88753587
_cell_formula_units_Z   1
loop_
 _symmetry_equiv_pos_site_id
 _symmetry_equiv_pos_as_xyz
  1  'x, y, z'
loop_
 _atom_site_type_symbol
 _atom_site_label
 _atom_site_symmetry_multiplicity
 _atom_site_fract_x
 _atom_site_fract_y
 _atom_site_fract_z
 _atom_site_occupancy
  Y  Y0  1  0.000000  0.000000  0.000000  1
  Y  Y1  1  0.666667  0.333333  0.362687  1
  Y  Y2  1  0.333333  0.666667  0.637313  1
  H  H3  1  0.165958  0.834042  0.370120  1
  H  H4  1  0.668086  0.834042  0.370120  1
  H  H5  1  0.165958  0.331914  0.370120  1
  H  H6  1  0.834042  0.165958  0.629880  1
  H  H7  1  0.331914  0.165958  0.629880  1
  H  H8  1  0.834042  0.668086  0.629880  1
  H  H9  1  0.498977  0.997955  0.879000  1
  H  H10  1  0.498977  0.501023  0.879000  1
  H  H11  1  0.002045  0.501023  0.879000  1
  H  H12  1  0.501023  0.002045  0.121000  1
  H  H13  1  0.501023  0.498977  0.121000  1
  H  H14  1  0.997955  0.498977  0.121000  1
  Os  Os15  1  0.666667  0.333333  0.756799  1
  Os  Os16  1  0.333333  0.666667  0.243201  1
