# generated using pymatgen
data_LaCe2(ZnPd)4
_symmetry_space_group_name_H-M   'P 1'
_cell_length_a   8.34010343
_cell_length_b   8.34010390
_cell_length_c   8.34010289
_cell_angle_alpha   151.60240551
_cell_angle_beta   125.48538622
_cell_angle_gamma   62.60232145
_symmetry_Int_Tables_number   1
_chemical_formula_structural   LaCe2(ZnPd)4
_chemical_formula_sum   'La1 Ce2 Zn4 Pd4'
_cell_volume   222.73481563
_cell_formula_units_Z   1
loop_
 _symmetry_equiv_pos_site_id
 _symmetry_equiv_pos_as_xyz
  1  'x, y, z'
loop_
 _atom_site_type_symbol
 _atom_site_label
 _atom_site_symmetry_multiplicity
 _atom_site_fract_x
 _atom_site_fract_y
 _atom_site_fract_z
 _atom_site_occupancy
  La  La0  1  0.500000  0.000000  0.500000  1
  Ce  Ce1  1  0.871202  0.871202  0.000000  1
  Ce  Ce2  1  0.128798  0.128798  0.000000  1
  Zn  Zn3  1  0.477267  0.674133  0.803134  1
  Zn  Zn4  1  0.870998  0.674133  0.196866  1
  Zn  Zn5  1  0.129002  0.325867  0.803134  1
  Zn  Zn6  1  0.522733  0.325867  0.196866  1
  Pd  Pd7  1  0.279093  0.779093  0.500000  1
  Pd  Pd8  1  0.720907  0.220907  0.500000  1
  Pd  Pd9  1  0.811747  0.500000  0.311747  1
  Pd  Pd10  1  0.188253  0.500000  0.688253  1
