# generated using pymatgen
data_Sr6Ca2Ta3RuO18
_symmetry_space_group_name_H-M   'P 1'
_cell_length_a   5.86104400
_cell_length_b   10.02112750
_cell_length_c   14.29635452
_cell_angle_alpha   89.78455527
_cell_angle_beta   90.00000000
_cell_angle_gamma   90.00000000
_symmetry_Int_Tables_number   1
_chemical_formula_structural   Sr6Ca2Ta3RuO18
_chemical_formula_sum   'Sr12 Ca4 Ta6 Ru2 O36'
_cell_volume   839.67999863
_cell_formula_units_Z   2
loop_
 _symmetry_equiv_pos_site_id
 _symmetry_equiv_pos_as_xyz
  1  'x, y, z'
loop_
 _atom_site_type_symbol
 _atom_site_label
 _atom_site_symmetry_multiplicity
 _atom_site_fract_x
 _atom_site_fract_y
 _atom_site_fract_z
 _atom_site_occupancy
  Sr  Sr0  1  0.537124  0.834863  0.413431  1
  Sr  Sr1  1  0.533058  0.494114  0.752936  1
  Sr  Sr2  1  0.962876  0.334863  0.413431  1
  Sr  Sr3  1  0.467820  0.834991  0.914854  1
  Sr  Sr4  1  0.538576  0.166249  0.090985  1
  Sr  Sr5  1  0.037366  0.007294  0.244671  1
  Sr  Sr6  1  0.032180  0.334991  0.914854  1
  Sr  Sr7  1  0.966942  0.994114  0.752936  1
  Sr  Sr8  1  0.460664  0.165257  0.582901  1
  Sr  Sr9  1  0.039336  0.665257  0.582901  1
  Sr  Sr10  1  0.462634  0.507294  0.244671  1
  Sr  Sr11  1  0.961424  0.666249  0.090985  1
  Ca  Ca12  1  0.499213  0.499600  0.000074  1
  Ca  Ca13  1  0.999312  0.000292  0.499439  1
  Ca  Ca14  1  0.500688  0.500292  0.499439  1
  Ca  Ca15  1  0.000787  0.999600  0.000074  1
  Ta  Ta16  1  0.505274  0.829641  0.664680  1
  Ta  Ta17  1  0.994726  0.329641  0.664680  1
  Ta  Ta18  1  0.495628  0.163516  0.835184  1
  Ta  Ta19  1  0.004592  0.671960  0.333917  1
  Ta  Ta20  1  0.004372  0.663516  0.835184  1
  Ta  Ta21  1  0.495408  0.171960  0.333917  1
  Ru  Ru22  1  0.503968  0.837049  0.167628  1
  Ru  Ru23  1  0.996032  0.337049  0.167628  1
  O  O24  1  0.021514  0.792545  0.935361  1
  O  O25  1  0.812613  0.603257  0.433524  1
  O  O26  1  0.779171  0.865313  0.593506  1
  O  O27  1  0.778186  0.261025  0.774378  1
  O  O28  1  0.782897  0.215279  0.248075  1
  O  O29  1  0.193854  0.449152  0.094407  1
  O  O30  1  0.698548  0.047570  0.905611  1
  O  O31  1  0.515412  0.018484  0.726614  1
  O  O32  1  0.721814  0.761025  0.774378  1
  O  O33  1  0.222708  0.134349  0.405912  1
  O  O34  1  0.687387  0.103257  0.433524  1
  O  O35  1  0.026308  0.148494  0.620245  1
  O  O36  1  0.981869  0.205283  0.069972  1
  O  O37  1  0.731588  0.425263  0.118629  1
  O  O38  1  0.014715  0.483205  0.271442  1
  O  O39  1  0.478486  0.292545  0.935361  1
  O  O40  1  0.984588  0.518484  0.726614  1
  O  O41  1  0.717103  0.715279  0.248075  1
  O  O42  1  0.306146  0.949152  0.094407  1
  O  O43  1  0.273439  0.571136  0.880166  1
  O  O44  1  0.280492  0.240828  0.225803  1
  O  O45  1  0.526530  0.352469  0.378856  1
  O  O46  1  0.216851  0.784327  0.751760  1
  O  O47  1  0.219508  0.740828  0.225803  1
  O  O48  1  0.518131  0.705283  0.069972  1
  O  O49  1  0.768412  0.925263  0.118629  1
  O  O50  1  0.485285  0.983205  0.271442  1
  O  O51  1  0.187442  0.397195  0.565038  1
  O  O52  1  0.473692  0.648494  0.620245  1
  O  O53  1  0.720829  0.365313  0.593506  1
  O  O54  1  0.973470  0.852469  0.378856  1
  O  O55  1  0.277292  0.634349  0.405912  1
  O  O56  1  0.283149  0.284327  0.751760  1
  O  O57  1  0.226561  0.071136  0.880166  1
  O  O58  1  0.312558  0.897195  0.565038  1
  O  O59  1  0.801452  0.547570  0.905611  1
