# generated using pymatgen
data_Tb4Pr2TcBi2
_symmetry_space_group_name_H-M   'P 1'
_cell_length_a   8.50522800
_cell_length_b   8.43136467
_cell_length_c   4.34593700
_cell_angle_alpha   90.00000000
_cell_angle_beta   90.00000000
_cell_angle_gamma   120.29022992
_symmetry_Int_Tables_number   1
_chemical_formula_structural   Tb4Pr2TcBi2
_chemical_formula_sum   'Tb4 Pr2 Tc1 Bi2'
_cell_volume   269.10411115
_cell_formula_units_Z   1
loop_
 _symmetry_equiv_pos_site_id
 _symmetry_equiv_pos_as_xyz
  1  'x, y, z'
loop_
 _atom_site_type_symbol
 _atom_site_label
 _atom_site_symmetry_multiplicity
 _atom_site_fract_x
 _atom_site_fract_y
 _atom_site_fract_z
 _atom_site_occupancy
  Tb  Tb0  1  0.225093  0.000000  0.000000  1
  Tb  Tb1  1  0.767187  0.766195  0.000000  1
  Tb  Tb2  1  0.000991  0.233805  0.000000  1
  Tb  Tb3  1  0.609459  0.000000  0.500000  1
  Pr  Pr4  1  0.002797  0.603823  0.500000  1
  Pr  Pr5  1  0.398975  0.396177  0.500000  1
  Tc  Tc6  1  0.989687  0.000000  0.500000  1
  Bi  Bi7  1  0.340720  0.675630  0.000000  1
  Bi  Bi8  1  0.665091  0.324370  0.000000  1
