# generated using pymatgen
data_NaTb(InCl3)2
_symmetry_space_group_name_H-M   'P 1'
_cell_length_a   7.25480620
_cell_length_b   7.78344000
_cell_length_c   12.66928300
_cell_angle_alpha   90.00000000
_cell_angle_beta   123.51649384
_cell_angle_gamma   90.00000000
_symmetry_Int_Tables_number   1
_chemical_formula_structural   NaTb(InCl3)2
_chemical_formula_sum   'Na2 Tb2 In4 Cl12'
_cell_volume   596.44890949
_cell_formula_units_Z   2
loop_
 _symmetry_equiv_pos_site_id
 _symmetry_equiv_pos_as_xyz
  1  'x, y, z'
loop_
 _atom_site_type_symbol
 _atom_site_label
 _atom_site_symmetry_multiplicity
 _atom_site_fract_x
 _atom_site_fract_y
 _atom_site_fract_z
 _atom_site_occupancy
  Na  Na0  1  0.500000  0.000000  0.000000  1
  Na  Na1  1  0.500001  0.500000  0.500000  1
  Tb  Tb2  1  0.000000  0.500000  0.000000  1
  Tb  Tb3  1  0.000000  0.000000  0.500000  1
  In  In4  1  0.284198  0.079666  0.254763  1
  In  In5  1  0.715802  0.579666  0.245237  1
  In  In6  1  0.284197  0.420334  0.754763  1
  In  In7  1  0.715802  0.920334  0.745236  1
  Cl  Cl8  1  0.343236  0.315442  0.041578  1
  Cl  Cl9  1  0.237521  0.786600  0.052348  1
  Cl  Cl10  1  0.144783  0.472907  0.244220  1
  Cl  Cl11  1  0.855217  0.972907  0.255780  1
  Cl  Cl12  1  0.762480  0.286600  0.447653  1
  Cl  Cl13  1  0.656764  0.815442  0.458423  1
  Cl  Cl14  1  0.343237  0.184558  0.541578  1
  Cl  Cl15  1  0.237521  0.713400  0.552348  1
  Cl  Cl16  1  0.144782  0.027093  0.744220  1
  Cl  Cl17  1  0.855218  0.527094  0.755780  1
  Cl  Cl18  1  0.762479  0.213400  0.947653  1
  Cl  Cl19  1  0.656763  0.684558  0.958423  1
