# generated using pymatgen
data_AgBi3Pt2(RhO7)2
_symmetry_space_group_name_H-M   'P 1'
_cell_length_a   7.40949726
_cell_length_b   7.24717918
_cell_length_c   7.40949696
_cell_angle_alpha   59.31064522
_cell_angle_beta   60.03841098
_cell_angle_gamma   59.31064193
_symmetry_Int_Tables_number   1
_chemical_formula_structural   AgBi3Pt2(RhO7)2
_chemical_formula_sum   'Ag1 Bi3 Pt2 Rh2 O14'
_cell_volume   278.45179380
_cell_formula_units_Z   1
loop_
 _symmetry_equiv_pos_site_id
 _symmetry_equiv_pos_as_xyz
  1  'x, y, z'
loop_
 _atom_site_type_symbol
 _atom_site_label
 _atom_site_symmetry_multiplicity
 _atom_site_fract_x
 _atom_site_fract_y
 _atom_site_fract_z
 _atom_site_occupancy
  Ag  Ag0  1  0.125000  0.625000  0.125000  1
  Bi  Bi1  1  0.125000  0.125000  0.125000  1
  Bi  Bi2  1  0.625000  0.125000  0.125000  1
  Bi  Bi3  1  0.125000  0.125000  0.625000  1
  Pt  Pt4  1  0.625000  0.625000  0.125000  1
  Pt  Pt5  1  0.125000  0.625000  0.625000  1
  Rh  Rh6  1  0.625000  0.625000  0.625000  1
  Rh  Rh7  1  0.625000  0.125000  0.625000  1
  O  O8  1  0.247971  0.259572  0.247971  1
  O  O9  1  0.294100  0.709431  0.294100  1
  O  O10  1  0.956544  0.962535  0.540620  1
  O  O11  1  0.542101  0.960263  0.542101  1
  O  O12  1  0.699732  0.709417  0.295957  1
  O  O13  1  0.954043  0.540583  0.550268  1
  O  O14  1  0.707899  0.289737  0.707899  1
  O  O15  1  0.293456  0.287465  0.709380  1
  O  O16  1  0.709380  0.287465  0.293456  1
  O  O17  1  0.295957  0.709417  0.699732  1
  O  O18  1  0.955900  0.540569  0.955900  1
  O  O19  1  0.550268  0.540583  0.954043  1
  O  O20  1  0.002029  0.990428  0.002029  1
  O  O21  1  0.540620  0.962535  0.956544  1
