# generated using pymatgen
data_Nb2ZnCuRh4
_symmetry_space_group_name_H-M   'P 1'
_cell_length_a   4.11019500
_cell_length_b   7.01760200
_cell_length_c   12.34851900
_cell_angle_alpha   90.00000000
_cell_angle_beta   90.00000000
_cell_angle_gamma   90.00000000
_symmetry_Int_Tables_number   1
_chemical_formula_structural   Nb2ZnCuRh4
_chemical_formula_sum   'Nb6 Zn3 Cu3 Rh12'
_cell_volume   356.17713372
_cell_formula_units_Z   3
loop_
 _symmetry_equiv_pos_site_id
 _symmetry_equiv_pos_as_xyz
  1  'x, y, z'
loop_
 _atom_site_type_symbol
 _atom_site_label
 _atom_site_symmetry_multiplicity
 _atom_site_fract_x
 _atom_site_fract_y
 _atom_site_fract_z
 _atom_site_occupancy
  Nb  Nb0  1  0.000000  0.499999  0.006380  1
  Nb  Nb1  1  0.500007  0.000000  0.166619  1
  Nb  Nb2  1  0.000000  0.499999  0.326904  1
  Nb  Nb3  1  0.499999  0.000000  0.493699  1
  Nb  Nb4  1  0.000000  0.499999  0.666629  1
  Nb  Nb5  1  0.499992  0.000000  0.839576  1
  Zn  Zn6  1  0.499999  0.499999  0.499127  1
  Zn  Zn7  1  0.000000  0.000000  0.666610  1
  Zn  Zn8  1  0.499994  0.499999  0.834132  1
  Cu  Cu9  1  0.000000  0.000000  0.999977  1
  Cu  Cu10  1  0.500004  0.499999  0.167047  1
  Cu  Cu11  1  0.000000  0.000000  0.333271  1
  Rh  Rh12  1  0.499999  0.251251  0.000757  1
  Rh  Rh13  1  0.499999  0.748749  0.000757  1
  Rh  Rh14  1  0.000000  0.248098  0.166675  1
  Rh  Rh15  1  0.000000  0.751903  0.166675  1
  Rh  Rh16  1  0.500009  0.251221  0.332581  1
  Rh  Rh17  1  0.500009  0.748779  0.332581  1
  Rh  Rh18  1  0.000000  0.251475  0.499167  1
  Rh  Rh19  1  0.000000  0.748525  0.499167  1
  Rh  Rh20  1  0.499992  0.247742  0.666661  1
  Rh  Rh21  1  0.499992  0.752258  0.666661  1
  Rh  Rh22  1  0.000000  0.251472  0.834172  1
  Rh  Rh23  1  0.000000  0.748529  0.834172  1
