# generated using pymatgen
data_Y3Tm3(CoSn6)2
_symmetry_space_group_name_H-M   'P 1'
_cell_length_a   8.45540016
_cell_length_b   8.45539974
_cell_length_c   13.13420811
_cell_angle_alpha   89.98561294
_cell_angle_beta   90.01438820
_cell_angle_gamma   148.77489978
_symmetry_Int_Tables_number   1
_chemical_formula_structural   Y3Tm3(CoSn6)2
_chemical_formula_sum   'Y3 Tm3 Co2 Sn12'
_cell_volume   486.78656993
_cell_formula_units_Z   1
loop_
 _symmetry_equiv_pos_site_id
 _symmetry_equiv_pos_as_xyz
  1  'x, y, z'
loop_
 _atom_site_type_symbol
 _atom_site_label
 _atom_site_symmetry_multiplicity
 _atom_site_fract_x
 _atom_site_fract_y
 _atom_site_fract_z
 _atom_site_occupancy
  Y  Y0  1  0.100403  0.899597  0.593204  1
  Y  Y1  1  0.100324  0.899676  0.906836  1
  Y  Y2  1  0.899607  0.100393  0.406689  1
  Tm  Tm3  1  0.899327  0.100673  0.093357  1
  Tm  Tm4  1  0.900439  0.099561  0.749974  1
  Tm  Tm5  1  0.099457  0.900543  0.249883  1
  Co  Co6  1  0.298752  0.701248  0.249757  1
  Co  Co7  1  0.701396  0.298604  0.750128  1
  Sn  Sn8  1  0.755344  0.244656  0.571322  1
  Sn  Sn9  1  0.427700  0.572300  0.576749  1
  Sn  Sn10  1  0.572280  0.427720  0.423250  1
  Sn  Sn11  1  0.733086  0.266914  0.249888  1
  Sn  Sn12  1  0.267066  0.732934  0.749957  1
  Sn  Sn13  1  0.244943  0.755057  0.071252  1
  Sn  Sn14  1  0.244651  0.755349  0.428655  1
  Sn  Sn15  1  0.572174  0.427826  0.076783  1
  Sn  Sn16  1  0.453198  0.546802  0.249405  1
  Sn  Sn17  1  0.546661  0.453339  0.750021  1
  Sn  Sn18  1  0.755641  0.244359  0.929004  1
  Sn  Sn19  1  0.427550  0.572450  0.923884  1
