# generated using pymatgen
data_Ac4DyHo5Pb8
_symmetry_space_group_name_H-M   'P 1'
_cell_length_a   8.49977200
_cell_length_b   8.52706500
_cell_length_c   16.22907100
_cell_angle_alpha   90.00000000
_cell_angle_beta   90.00000000
_cell_angle_gamma   90.00000000
_symmetry_Int_Tables_number   1
_chemical_formula_structural   Ac4DyHo5Pb8
_chemical_formula_sum   'Ac8 Dy2 Ho10 Pb16'
_cell_volume   1176.25236602
_cell_formula_units_Z   2
loop_
 _symmetry_equiv_pos_site_id
 _symmetry_equiv_pos_as_xyz
  1  'x, y, z'
loop_
 _atom_site_type_symbol
 _atom_site_label
 _atom_site_symmetry_multiplicity
 _atom_site_fract_x
 _atom_site_fract_y
 _atom_site_fract_z
 _atom_site_occupancy
  Ac  Ac0  1  0.526354  0.322937  0.903133  1
  Ac  Ac1  1  0.026354  0.177063  0.596867  1
  Ac  Ac2  1  0.473462  0.676801  0.402951  1
  Ac  Ac3  1  0.973462  0.823199  0.097049  1
  Ac  Ac4  1  0.473462  0.676801  0.097049  1
  Ac  Ac5  1  0.973462  0.823199  0.402951  1
  Ac  Ac6  1  0.526354  0.322937  0.596867  1
  Ac  Ac7  1  0.026354  0.177063  0.903133  1
  Dy  Dy8  1  0.795919  0.493970  0.250000  1
  Dy  Dy9  1  0.295919  0.006030  0.250000  1
  Ho  Ho10  1  0.369422  0.843050  0.877746  1
  Ho  Ho11  1  0.869422  0.656950  0.622254  1
  Ho  Ho12  1  0.630840  0.156791  0.377255  1
  Ho  Ho13  1  0.130840  0.343209  0.122745  1
  Ho  Ho14  1  0.630840  0.156791  0.122745  1
  Ho  Ho15  1  0.130840  0.343209  0.377255  1
  Ho  Ho16  1  0.369422  0.843050  0.622254  1
  Ho  Ho17  1  0.869422  0.656950  0.877746  1
  Ho  Ho18  1  0.204248  0.506499  0.750000  1
  Ho  Ho19  1  0.704248  0.993501  0.750000  1
  Pb  Pb20  1  0.298154  0.044510  0.046353  1
  Pb  Pb21  1  0.798154  0.455490  0.453647  1
  Pb  Pb22  1  0.701723  0.955486  0.545998  1
  Pb  Pb23  1  0.201723  0.544514  0.954002  1
  Pb  Pb24  1  0.701723  0.955486  0.954002  1
  Pb  Pb25  1  0.201723  0.544514  0.545998  1
  Pb  Pb26  1  0.298154  0.044510  0.453647  1
  Pb  Pb27  1  0.798154  0.455490  0.046353  1
  Pb  Pb28  1  0.565753  0.636631  0.750000  1
  Pb  Pb29  1  0.065753  0.863369  0.750000  1
  Pb  Pb30  1  0.434368  0.363646  0.250000  1
  Pb  Pb31  1  0.934368  0.136354  0.250000  1
  Pb  Pb32  1  0.338610  0.142162  0.750000  1
  Pb  Pb33  1  0.838610  0.357838  0.750000  1
  Pb  Pb34  1  0.661188  0.857623  0.250000  1
  Pb  Pb35  1  0.161188  0.642377  0.250000  1
