# generated using pymatgen
data_Pr4As4IrRu3O4
_symmetry_space_group_name_H-M   'P 1'
_cell_length_a   4.13666400
_cell_length_b   4.13666400
_cell_length_c   16.87096800
_cell_angle_alpha   90.00000000
_cell_angle_beta   90.00000000
_cell_angle_gamma   90.00000000
_symmetry_Int_Tables_number   1
_chemical_formula_structural   Pr4As4IrRu3O4
_chemical_formula_sum   'Pr4 As4 Ir1 Ru3 O4'
_cell_volume   288.69581966
_cell_formula_units_Z   1
loop_
 _symmetry_equiv_pos_site_id
 _symmetry_equiv_pos_as_xyz
  1  'x, y, z'
loop_
 _atom_site_type_symbol
 _atom_site_label
 _atom_site_symmetry_multiplicity
 _atom_site_fract_x
 _atom_site_fract_y
 _atom_site_fract_z
 _atom_site_occupancy
  Pr  Pr0  1  0.500000  0.000000  0.182768  1
  Pr  Pr1  1  0.500000  0.000000  0.678302  1
  Pr  Pr2  1  0.000000  0.500000  0.817232  1
  Pr  Pr3  1  0.000000  0.500000  0.321698  1
  As  As4  1  0.500000  0.000000  0.921172  1
  As  As5  1  0.500000  0.000000  0.422810  1
  As  As6  1  0.000000  0.500000  0.078828  1
  As  As7  1  0.000000  0.500000  0.577190  1
  Ir  Ir8  1  0.500000  0.500000  0.000000  1
  Ru  Ru9  1  0.500000  0.500000  0.500000  1
  Ru  Ru10  1  0.000000  0.000000  0.000000  1
  Ru  Ru11  1  0.000000  0.000000  0.500000  1
  O  O12  1  0.500000  0.500000  0.749153  1
  O  O13  1  0.500000  0.500000  0.250847  1
  O  O14  1  0.000000  0.000000  0.749322  1
  O  O15  1  0.000000  0.000000  0.250678  1
