# generated using pymatgen
data_HfZr5Si4
_symmetry_space_group_name_H-M   'P 1'
_cell_length_a   7.10072700
_cell_length_b   7.10072700
_cell_length_c   3.72329800
_cell_angle_alpha   90.00000000
_cell_angle_beta   90.00000000
_cell_angle_gamma   90.00000000
_symmetry_Int_Tables_number   1
_chemical_formula_structural   HfZr5Si4
_chemical_formula_sum   'Hf1 Zr5 Si4'
_cell_volume   187.72989124
_cell_formula_units_Z   1
loop_
 _symmetry_equiv_pos_site_id
 _symmetry_equiv_pos_as_xyz
  1  'x, y, z'
loop_
 _atom_site_type_symbol
 _atom_site_label
 _atom_site_symmetry_multiplicity
 _atom_site_fract_x
 _atom_site_fract_y
 _atom_site_fract_z
 _atom_site_occupancy
  Hf  Hf0  1  0.000000  0.000000  0.000000  1
  Zr  Zr1  1  0.827212  0.673480  0.500000  1
  Zr  Zr2  1  0.326520  0.827212  0.500000  1
  Zr  Zr3  1  0.172788  0.326520  0.500000  1
  Zr  Zr4  1  0.673480  0.172788  0.500000  1
  Zr  Zr5  1  0.500000  0.500000  0.000000  1
  Si  Si6  1  0.122251  0.623418  0.000000  1
  Si  Si7  1  0.623418  0.877749  0.000000  1
  Si  Si8  1  0.376582  0.122251  0.000000  1
  Si  Si9  1  0.877749  0.376582  0.000000  1
