# generated using pymatgen
data_HfPa3Co3NiGe4
_symmetry_space_group_name_H-M   'P 1'
_cell_length_a   4.17204200
_cell_length_b   6.82803284
_cell_length_c   7.20801885
_cell_angle_alpha   89.22622403
_cell_angle_beta   90.00000000
_cell_angle_gamma   90.00000000
_symmetry_Int_Tables_number   1
_chemical_formula_structural   HfPa3Co3NiGe4
_chemical_formula_sum   'Hf1 Pa3 Co3 Ni1 Ge4'
_cell_volume   205.31495376
_cell_formula_units_Z   1
loop_
 _symmetry_equiv_pos_site_id
 _symmetry_equiv_pos_as_xyz
  1  'x, y, z'
loop_
 _atom_site_type_symbol
 _atom_site_label
 _atom_site_symmetry_multiplicity
 _atom_site_fract_x
 _atom_site_fract_y
 _atom_site_fract_z
 _atom_site_occupancy
  Hf  Hf0  1  0.750000  0.507560  0.703439  1
  Pa  Pa1  1  0.250000  0.991254  0.211582  1
  Pa  Pa2  1  0.250000  0.491394  0.299043  1
  Pa  Pa3  1  0.750000  0.017689  0.791416  1
  Co  Co4  1  0.250000  0.241107  0.577481  1
  Co  Co5  1  0.750000  0.766838  0.416896  1
  Co  Co6  1  0.750000  0.286591  0.085734  1
  Ni  Ni7  1  0.250000  0.695549  0.916218  1
  Ge  Ge8  1  0.250000  0.799423  0.594406  1
  Ge  Ge9  1  0.250000  0.312864  0.907249  1
  Ge  Ge10  1  0.750000  0.193641  0.418343  1
  Ge  Ge11  1  0.750000  0.696088  0.078193  1
