# generated using pymatgen
data_Nd2AgAs3O
_symmetry_space_group_name_H-M   'P 1'
_cell_length_a   35.67493934
_cell_length_b   4.11330600
_cell_length_c   4.10884600
_cell_angle_alpha   90.00000000
_cell_angle_beta   89.99206611
_cell_angle_gamma   90.00000000
_symmetry_Int_Tables_number   1
_chemical_formula_structural   Nd2AgAs3O
_chemical_formula_sum   'Nd8 Ag4 As12 O4'
_cell_volume   602.94003582
_cell_formula_units_Z   4
loop_
 _symmetry_equiv_pos_site_id
 _symmetry_equiv_pos_as_xyz
  1  'x, y, z'
loop_
 _atom_site_type_symbol
 _atom_site_label
 _atom_site_symmetry_multiplicity
 _atom_site_fract_x
 _atom_site_fract_y
 _atom_site_fract_z
 _atom_site_occupancy
  Nd  Nd0  1  0.467766  0.750002  0.250296  1
  Nd  Nd1  1  0.032231  0.250002  0.750157  1
  Nd  Nd2  1  0.967769  0.750002  0.249844  1
  Nd  Nd3  1  0.532234  0.250002  0.749703  1
  Nd  Nd4  1  0.328044  0.250002  0.802588  1
  Nd  Nd5  1  0.171974  0.750002  0.302860  1
  Nd  Nd6  1  0.828026  0.250002  0.697142  1
  Nd  Nd7  1  0.671956  0.750002  0.197411  1
  Ag  Ag8  1  0.250024  0.250002  0.303519  1
  Ag  Ag9  1  0.250020  0.750002  0.803528  1
  Ag  Ag10  1  0.749980  0.250002  0.196471  1
  Ag  Ag11  1  0.749977  0.750002  0.696482  1
  As  As12  1  0.395473  0.250002  0.335024  1
  As  As13  1  0.104600  0.750002  0.835033  1
  As  As14  1  0.895400  0.250002  0.164969  1
  As  As15  1  0.604527  0.750002  0.664975  1
  As  As16  1  0.397026  0.750002  0.740530  1
  As  As17  1  0.102978  0.250002  0.240616  1
  As  As18  1  0.897022  0.750002  0.759383  1
  As  As19  1  0.602974  0.250002  0.259469  1
  As  As20  1  0.197379  0.250002  0.804049  1
  As  As21  1  0.302694  0.750002  0.303877  1
  As  As22  1  0.697306  0.250002  0.696125  1
  As  As23  1  0.802621  0.750002  0.195952  1
  O  O24  1  0.500219  0.750002  0.750492  1
  O  O25  1  0.999763  0.250002  0.250525  1
  O  O26  1  0.000236  0.750002  0.749474  1
  O  O27  1  0.499781  0.250002  0.249507  1
