# generated using pymatgen
data_Nd6PaO12
_symmetry_space_group_name_H-M   'P 1'
_cell_length_a   6.84898857
_cell_length_b   6.84898774
_cell_length_c   6.84898846
_cell_angle_alpha   99.13588529
_cell_angle_beta   99.13589700
_cell_angle_gamma   99.13590886
_symmetry_Int_Tables_number   1
_chemical_formula_structural   Nd6PaO12
_chemical_formula_sum   'Nd6 Pa1 O12'
_cell_volume   307.54832285
_cell_formula_units_Z   1
loop_
 _symmetry_equiv_pos_site_id
 _symmetry_equiv_pos_as_xyz
  1  'x, y, z'
loop_
 _atom_site_type_symbol
 _atom_site_label
 _atom_site_symmetry_multiplicity
 _atom_site_fract_x
 _atom_site_fract_y
 _atom_site_fract_z
 _atom_site_occupancy
  Nd  Nd0  1  0.304997  0.609704  0.141009  1
  Nd  Nd1  1  0.609704  0.141009  0.304997  1
  Nd  Nd2  1  0.390296  0.858991  0.695003  1
  Nd  Nd3  1  0.695003  0.390296  0.858991  1
  Nd  Nd4  1  0.858991  0.695003  0.390296  1
  Nd  Nd5  1  0.141009  0.304997  0.609704  1
  Pa  Pa6  1  0.000000  0.000000  0.000000  1
  O  O7  1  0.437050  0.177480  0.585927  1
  O  O8  1  0.931242  0.690994  0.054076  1
  O  O9  1  0.177480  0.585927  0.437050  1
  O  O10  1  0.822520  0.414073  0.562950  1
  O  O11  1  0.562950  0.822520  0.414073  1
  O  O12  1  0.585927  0.437050  0.177480  1
  O  O13  1  0.414073  0.562950  0.822520  1
  O  O14  1  0.945924  0.068758  0.309006  1
  O  O15  1  0.054076  0.931242  0.690994  1
  O  O16  1  0.690994  0.054076  0.931242  1
  O  O17  1  0.068758  0.309006  0.945924  1
  O  O18  1  0.309006  0.945924  0.068758  1
