# generated using pymatgen
data_Tb3Ho5(Tm3Pt4)4
_symmetry_space_group_name_H-M   'P 1'
_cell_length_a   7.42952003
_cell_length_b   7.52001803
_cell_length_c   14.63636401
_cell_angle_alpha   89.99817350
_cell_angle_beta   90.00243600
_cell_angle_gamma   90.00962752
_symmetry_Int_Tables_number   1
_chemical_formula_structural   Tb3Ho5(Tm3Pt4)4
_chemical_formula_sum   'Tb3 Ho5 Tm12 Pt16'
_cell_volume   817.73546716
_cell_formula_units_Z   1
loop_
 _symmetry_equiv_pos_site_id
 _symmetry_equiv_pos_as_xyz
  1  'x, y, z'
loop_
 _atom_site_type_symbol
 _atom_site_label
 _atom_site_symmetry_multiplicity
 _atom_site_fract_x
 _atom_site_fract_y
 _atom_site_fract_z
 _atom_site_occupancy
  Tb  Tb0  1  0.500910  0.679536  0.592572  1
  Tb  Tb1  1  0.000893  0.820481  0.907432  1
  Tb  Tb2  1  0.499120  0.320488  0.092579  1
  Ho  Ho3  1  0.998841  0.179652  0.407376  1
  Ho  Ho4  1  0.498801  0.320194  0.407311  1
  Ho  Ho5  1  0.998843  0.179742  0.092708  1
  Ho  Ho6  1  0.501190  0.679728  0.907252  1
  Ho  Ho7  1  0.001163  0.820400  0.592671  1
  Tm  Tm8  1  0.656864  0.167756  0.622624  1
  Tm  Tm9  1  0.156787  0.332226  0.877331  1
  Tm  Tm10  1  0.343204  0.832241  0.122675  1
  Tm  Tm11  1  0.843286  0.667782  0.377358  1
  Tm  Tm12  1  0.343018  0.832429  0.377291  1
  Tm  Tm13  1  0.843214  0.667742  0.122753  1
  Tm  Tm14  1  0.656808  0.167733  0.877261  1
  Tm  Tm15  1  0.156672  0.332176  0.622643  1
  Tm  Tm16  1  0.819321  0.510891  0.750012  1
  Tm  Tm17  1  0.319352  0.989122  0.749969  1
  Tm  Tm18  1  0.180572  0.489004  0.250089  1
  Tm  Tm19  1  0.680806  0.010965  0.250066  1
  Pt  Pt20  1  0.683430  0.966879  0.458246  1
  Pt  Pt21  1  0.182919  0.533428  0.041668  1
  Pt  Pt22  1  0.317053  0.033442  0.958321  1
  Pt  Pt23  1  0.817138  0.466350  0.541604  1
  Pt  Pt24  1  0.316577  0.033666  0.541587  1
  Pt  Pt25  1  0.816688  0.466450  0.958294  1
  Pt  Pt26  1  0.683295  0.966433  0.041690  1
  Pt  Pt27  1  0.183160  0.533140  0.458215  1
  Pt  Pt28  1  0.454285  0.386036  0.750104  1
  Pt  Pt29  1  0.954280  0.113978  0.749892  1
  Pt  Pt30  1  0.545747  0.613923  0.250108  1
  Pt  Pt31  1  0.045680  0.886215  0.250004  1
  Pt  Pt32  1  0.682711  0.856981  0.750112  1
  Pt  Pt33  1  0.182704  0.643020  0.749877  1
  Pt  Pt34  1  0.317127  0.143034  0.250213  1
  Pt  Pt35  1  0.817542  0.356740  0.250092  1
