# generated using pymatgen
data_Ac2SiS5
_symmetry_space_group_name_H-M   'P 1'
_cell_length_a   13.04228500
_cell_length_b   7.85240731
_cell_length_c   8.15182817
_cell_angle_alpha   78.63144604
_cell_angle_beta   90.00000000
_cell_angle_gamma   90.00000000
_symmetry_Int_Tables_number   1
_chemical_formula_structural   Ac2SiS5
_chemical_formula_sum   'Ac8 Si4 S20'
_cell_volume   818.47561825
_cell_formula_units_Z   4
loop_
 _symmetry_equiv_pos_site_id
 _symmetry_equiv_pos_as_xyz
  1  'x, y, z'
loop_
 _atom_site_type_symbol
 _atom_site_label
 _atom_site_symmetry_multiplicity
 _atom_site_fract_x
 _atom_site_fract_y
 _atom_site_fract_z
 _atom_site_occupancy
  Ac  Ac0  1  0.595457  0.742899  0.452550  1
  Ac  Ac1  1  0.836111  0.334879  0.630390  1
  Ac  Ac2  1  0.904543  0.742899  0.952550  1
  Ac  Ac3  1  0.336111  0.665121  0.869610  1
  Ac  Ac4  1  0.095457  0.257101  0.047450  1
  Ac  Ac5  1  0.163889  0.665121  0.369610  1
  Ac  Ac6  1  0.663889  0.334879  0.130390  1
  Ac  Ac7  1  0.404543  0.257101  0.547450  1
  Si  Si8  1  0.616695  0.828338  0.902661  1
  Si  Si9  1  0.383305  0.171662  0.097339  1
  Si  Si10  1  0.116695  0.171662  0.597339  1
  Si  Si11  1  0.883305  0.828338  0.402661  1
  S  S12  1  0.777071  0.018651  0.448001  1
  S  S13  1  0.622150  0.362329  0.492908  1
  S  S14  1  0.299814  0.369213  0.192805  1
  S  S15  1  0.377850  0.637671  0.507092  1
  S  S16  1  0.877850  0.362329  0.992908  1
  S  S17  1  0.277071  0.981349  0.051999  1
  S  S18  1  0.967552  0.679173  0.606974  1
  S  S19  1  0.997851  0.919899  0.220986  1
  S  S20  1  0.467552  0.320827  0.893026  1
  S  S21  1  0.502149  0.919899  0.720986  1
  S  S22  1  0.700186  0.630787  0.807195  1
  S  S23  1  0.002149  0.080101  0.779014  1
  S  S24  1  0.722929  0.018651  0.948001  1
  S  S25  1  0.532448  0.679173  0.106974  1
  S  S26  1  0.222929  0.981349  0.551999  1
  S  S27  1  0.032448  0.320827  0.393026  1
  S  S28  1  0.497851  0.080101  0.279014  1
  S  S29  1  0.122150  0.637671  0.007092  1
  S  S30  1  0.799814  0.630787  0.307195  1
  S  S31  1  0.200186  0.369213  0.692805  1
