# generated using pymatgen
data_Tm5MoRuC7
_symmetry_space_group_name_H-M   'P 1'
_cell_length_a   8.17694296
_cell_length_b   8.17694353
_cell_length_c   3.42553000
_cell_angle_alpha   90.00000000
_cell_angle_beta   90.00000000
_cell_angle_gamma   121.63857216
_symmetry_Int_Tables_number   1
_chemical_formula_structural   Tm5MoRuC7
_chemical_formula_sum   'Tm5 Mo1 Ru1 C7'
_cell_volume   194.99798316
_cell_formula_units_Z   1
loop_
 _symmetry_equiv_pos_site_id
 _symmetry_equiv_pos_as_xyz
  1  'x, y, z'
loop_
 _atom_site_type_symbol
 _atom_site_label
 _atom_site_symmetry_multiplicity
 _atom_site_fract_x
 _atom_site_fract_y
 _atom_site_fract_z
 _atom_site_occupancy
  Tm  Tm0  1  0.501872  0.498128  0.000000  1
  Tm  Tm1  1  0.075564  0.336446  0.500000  1
  Tm  Tm2  1  0.919843  0.660006  0.500000  1
  Tm  Tm3  1  0.663554  0.924436  0.500000  1
  Tm  Tm4  1  0.339994  0.080157  0.500000  1
  Mo  Mo5  1  0.286490  0.713510  0.000000  1
  Ru  Ru6  1  0.711365  0.288635  0.000000  1
  C  C7  1  0.627451  0.372549  0.500000  1
  C  C8  1  0.378720  0.621280  0.500000  1
  C  C9  1  0.999118  0.000882  0.000000  1
  C  C10  1  0.169688  0.170795  0.000000  1
  C  C11  1  0.829205  0.830312  0.000000  1
  C  C12  1  0.000241  0.503105  0.000000  1
  C  C13  1  0.496895  0.999759  0.000000  1
