# generated using pymatgen
data_BiRhBr18
_symmetry_space_group_name_H-M   'P 1'
_cell_length_a   9.39274256
_cell_length_b   9.39274304
_cell_length_c   9.39274314
_cell_angle_alpha   86.71586216
_cell_angle_beta   86.71585703
_cell_angle_gamma   86.71585713
_symmetry_Int_Tables_number   1
_chemical_formula_structural   BiRhBr18
_chemical_formula_sum   'Bi1 Rh1 Br18'
_cell_volume   824.72888879
_cell_formula_units_Z   1
loop_
 _symmetry_equiv_pos_site_id
 _symmetry_equiv_pos_as_xyz
  1  'x, y, z'
loop_
 _atom_site_type_symbol
 _atom_site_label
 _atom_site_symmetry_multiplicity
 _atom_site_fract_x
 _atom_site_fract_y
 _atom_site_fract_z
 _atom_site_occupancy
  Bi  Bi0  1  0.500000  0.500000  0.500000  1
  Rh  Rh1  1  0.000000  0.000000  0.000000  1
  Br  Br2  1  0.733345  0.991429  0.034185  1
  Br  Br3  1  0.754201  0.114115  0.624493  1
  Br  Br4  1  0.034185  0.733345  0.991429  1
  Br  Br5  1  0.245799  0.885885  0.375507  1
  Br  Br6  1  0.114115  0.624493  0.754201  1
  Br  Br7  1  0.008571  0.965815  0.266655  1
  Br  Br8  1  0.624493  0.754201  0.114115  1
  Br  Br9  1  0.965815  0.266655  0.008571  1
  Br  Br10  1  0.885885  0.375507  0.245799  1
  Br  Br11  1  0.375507  0.245799  0.885885  1
  Br  Br12  1  0.991429  0.034185  0.733345  1
  Br  Br13  1  0.266655  0.008571  0.965815  1
  Br  Br14  1  0.809169  0.520508  0.467540  1
  Br  Br15  1  0.532460  0.190831  0.479492  1
  Br  Br16  1  0.479492  0.532460  0.190831  1
  Br  Br17  1  0.467540  0.809169  0.520508  1
  Br  Br18  1  0.520508  0.467540  0.809169  1
  Br  Br19  1  0.190831  0.479492  0.532460  1
