# generated using pymatgen
data_Ho12Si12TcIr3
_symmetry_space_group_name_H-M   'P 1'
_cell_length_a   4.20898500
_cell_length_b   10.66259699
_cell_length_c   12.28610445
_cell_angle_alpha   90.06492809
_cell_angle_beta   90.00000000
_cell_angle_gamma   90.00000000
_symmetry_Int_Tables_number   1
_chemical_formula_structural   Ho12Si12TcIr3
_chemical_formula_sum   'Ho12 Si12 Tc1 Ir3'
_cell_volume   551.38417441
_cell_formula_units_Z   1
loop_
 _symmetry_equiv_pos_site_id
 _symmetry_equiv_pos_as_xyz
  1  'x, y, z'
loop_
 _atom_site_type_symbol
 _atom_site_label
 _atom_site_symmetry_multiplicity
 _atom_site_fract_x
 _atom_site_fract_y
 _atom_site_fract_z
 _atom_site_occupancy
  Ho  Ho0  1  0.250000  0.878834  0.020434  1
  Ho  Ho1  1  0.250000  0.620536  0.521342  1
  Ho  Ho2  1  0.750000  0.118846  0.980051  1
  Ho  Ho3  1  0.750000  0.379018  0.479908  1
  Ho  Ho4  1  0.250000  0.921259  0.603614  1
  Ho  Ho5  1  0.250000  0.580207  0.105601  1
  Ho  Ho6  1  0.750000  0.079719  0.394530  1
  Ho  Ho7  1  0.750000  0.420165  0.896052  1
  Ho  Ho8  1  0.250000  0.663589  0.799245  1
  Ho  Ho9  1  0.250000  0.840219  0.300406  1
  Ho  Ho10  1  0.750000  0.340887  0.198534  1
  Ho  Ho11  1  0.750000  0.159145  0.699577  1
  Si  Si12  1  0.250000  0.010742  0.821773  1
  Si  Si13  1  0.250000  0.488133  0.322435  1
  Si  Si14  1  0.750000  0.988598  0.178345  1
  Si  Si15  1  0.750000  0.510877  0.679981  1
  Si  Si16  1  0.250000  0.247283  0.842288  1
  Si  Si17  1  0.250000  0.252221  0.340354  1
  Si  Si18  1  0.750000  0.752938  0.158816  1
  Si  Si19  1  0.750000  0.750246  0.657684  1
  Si  Si20  1  0.250000  0.200259  0.541925  1
  Si  Si21  1  0.250000  0.296796  0.044007  1
  Si  Si22  1  0.750000  0.799723  0.456099  1
  Si  Si23  1  0.750000  0.699262  0.956659  1
  Tc  Tc24  1  0.250000  0.391190  0.680332  1
  Ir  Ir25  1  0.250000  0.109253  0.180092  1
  Ir  Ir26  1  0.750000  0.610796  0.319524  1
  Ir  Ir27  1  0.750000  0.889257  0.820391  1
