# generated using pymatgen
data_LaPr3Sn8(IrRh)2
_symmetry_space_group_name_H-M   'P 1'
_cell_length_a   8.87090572
_cell_length_b   8.87090554
_cell_length_c   9.71212229
_cell_angle_alpha   89.92040457
_cell_angle_beta   90.07959460
_cell_angle_gamma   149.24797712
_symmetry_Int_Tables_number   1
_chemical_formula_structural   LaPr3Sn8(IrRh)2
_chemical_formula_sum   'La1 Pr3 Sn8 Ir2 Rh2'
_cell_volume   390.79167307
_cell_formula_units_Z   1
loop_
 _symmetry_equiv_pos_site_id
 _symmetry_equiv_pos_as_xyz
  1  'x, y, z'
loop_
 _atom_site_type_symbol
 _atom_site_label
 _atom_site_symmetry_multiplicity
 _atom_site_fract_x
 _atom_site_fract_y
 _atom_site_fract_z
 _atom_site_occupancy
  La  La0  1  0.498113  0.501887  0.000371  1
  Pr  Pr1  1  0.501813  0.498187  0.500276  1
  Pr  Pr2  1  0.296287  0.703713  0.249851  1
  Pr  Pr3  1  0.703652  0.296348  0.748763  1
  Sn  Sn4  1  0.909169  0.090831  0.749179  1
  Sn  Sn5  1  0.924279  0.075721  0.251795  1
  Sn  Sn6  1  0.090762  0.909238  0.249652  1
  Sn  Sn7  1  0.075698  0.924302  0.749472  1
  Sn  Sn8  1  0.697855  0.302145  0.409236  1
  Sn  Sn9  1  0.303320  0.696680  0.590397  1
  Sn  Sn10  1  0.301514  0.698486  0.909774  1
  Sn  Sn11  1  0.697361  0.302639  0.089837  1
  Ir  Ir12  1  0.147423  0.852577  0.504540  1
  Ir  Ir13  1  0.853208  0.146792  0.004957  1
  Rh  Rh14  1  0.147283  0.852717  0.995744  1
  Rh  Rh15  1  0.852265  0.147735  0.496158  1
