# generated using pymatgen
data_Y3Hf4Zr3(Si5Ir2)4
_symmetry_space_group_name_H-M   'P 1'
_cell_length_a   12.45668865
_cell_length_b   12.45599547
_cell_length_c   4.13903800
_cell_angle_alpha   90.00000000
_cell_angle_beta   90.00000000
_cell_angle_gamma   90.16761607
_symmetry_Int_Tables_number   1
_chemical_formula_structural   Y3Hf4Zr3(Si5Ir2)4
_chemical_formula_sum   'Y3 Hf4 Zr3 Si20 Ir8'
_cell_volume   642.21228108
_cell_formula_units_Z   1
loop_
 _symmetry_equiv_pos_site_id
 _symmetry_equiv_pos_as_xyz
  1  'x, y, z'
loop_
 _atom_site_type_symbol
 _atom_site_label
 _atom_site_symmetry_multiplicity
 _atom_site_fract_x
 _atom_site_fract_y
 _atom_site_fract_z
 _atom_site_occupancy
  Y  Y0  1  0.115176  0.614776  0.500000  1
  Y  Y1  1  0.384313  0.116443  0.500000  1
  Y  Y2  1  0.615985  0.883869  0.500000  1
  Hf  Hf3  1  0.499849  0.500360  0.000000  1
  Hf  Hf4  1  0.677553  0.178059  0.500000  1
  Hf  Hf5  1  0.174042  0.324677  0.500000  1
  Hf  Hf6  1  0.824173  0.673501  0.500000  1
  Zr  Zr7  1  0.000301  0.999926  0.000000  1
  Zr  Zr8  1  0.324466  0.823867  0.500000  1
  Zr  Zr9  1  0.881728  0.382104  0.500000  1
  Si  Si10  1  0.567750  0.068523  0.000000  1
  Si  Si11  1  0.433616  0.932908  0.000000  1
  Si  Si12  1  0.065479  0.432951  0.000000  1
  Si  Si13  1  0.932219  0.564633  0.000000  1
  Si  Si14  1  0.665093  0.699635  0.000000  1
  Si  Si15  1  0.335904  0.299415  0.000000  1
  Si  Si16  1  0.163628  0.799879  0.000000  1
  Si  Si17  1  0.837262  0.202320  0.000000  1
  Si  Si18  1  0.299420  0.663954  0.000000  1
  Si  Si19  1  0.702846  0.336970  0.000000  1
  Si  Si20  1  0.199143  0.164750  0.000000  1
  Si  Si21  1  0.799903  0.836301  0.000000  1
  Si  Si22  1  0.652341  0.504923  0.500000  1
  Si  Si23  1  0.348489  0.491550  0.500000  1
  Si  Si24  1  0.152920  0.993326  0.500000  1
  Si  Si25  1  0.847406  0.007032  0.500000  1
  Si  Si26  1  0.493210  0.651106  0.500000  1
  Si  Si27  1  0.507245  0.349116  0.500000  1
  Si  Si28  1  0.004706  0.154050  0.500000  1
  Si  Si29  1  0.991622  0.846806  0.500000  1
  Ir  Ir30  1  0.744019  0.521303  0.000000  1
  Ir  Ir31  1  0.256547  0.477176  0.000000  1
  Ir  Ir32  1  0.243240  0.979150  0.000000  1
  Ir  Ir33  1  0.757176  0.023721  0.000000  1
  Ir  Ir34  1  0.479276  0.741820  0.000000  1
  Ir  Ir35  1  0.523539  0.258566  0.000000  1
  Ir  Ir36  1  0.021381  0.245359  0.000000  1
  Ir  Ir37  1  0.977035  0.755176  0.000000  1
