# generated using pymatgen
data_YHo5Co17TcP12
_symmetry_space_group_name_H-M   'P 1'
_cell_length_a   3.68756400
_cell_length_b   10.49441300
_cell_length_c   12.17772900
_cell_angle_alpha   90.00000000
_cell_angle_beta   90.00000000
_cell_angle_gamma   90.00000000
_symmetry_Int_Tables_number   1
_chemical_formula_structural   YHo5Co17TcP12
_chemical_formula_sum   'Y1 Ho5 Co17 Tc1 P12'
_cell_volume   471.26373746
_cell_formula_units_Z   1
loop_
 _symmetry_equiv_pos_site_id
 _symmetry_equiv_pos_as_xyz
  1  'x, y, z'
loop_
 _atom_site_type_symbol
 _atom_site_label
 _atom_site_symmetry_multiplicity
 _atom_site_fract_x
 _atom_site_fract_y
 _atom_site_fract_z
 _atom_site_occupancy
  Y  Y0  1  0.500000  0.000000  0.477990  1
  Ho  Ho1  1  0.000000  0.500000  0.524077  1
  Ho  Ho2  1  0.500000  0.817512  0.206602  1
  Ho  Ho3  1  0.500000  0.182488  0.206602  1
  Ho  Ho4  1  0.000000  0.682832  0.794917  1
  Ho  Ho5  1  0.000000  0.317168  0.794917  1
  Co  Co6  1  0.000000  0.000000  0.840294  1
  Co  Co7  1  0.500000  0.500000  0.702947  1
  Co  Co8  1  0.000000  0.000000  0.295878  1
  Co  Co9  1  0.000000  0.500000  0.987234  1
  Co  Co10  1  0.500000  0.000000  0.014778  1
  Co  Co11  1  0.500000  0.331974  0.991035  1
  Co  Co12  1  0.500000  0.668026  0.991035  1
  Co  Co13  1  0.000000  0.166506  0.005830  1
  Co  Co14  1  0.000000  0.833494  0.005830  1
  Co  Co15  1  0.500000  0.296995  0.430681  1
  Co  Co16  1  0.500000  0.703005  0.430681  1
  Co  Co17  1  0.000000  0.203528  0.569104  1
  Co  Co18  1  0.000000  0.796472  0.569104  1
  Co  Co19  1  0.500000  0.878928  0.709375  1
  Co  Co20  1  0.500000  0.121072  0.709375  1
  Co  Co21  1  0.000000  0.620769  0.291703  1
  Co  Co22  1  0.000000  0.379231  0.291703  1
  Tc  Tc23  1  0.500000  0.500000  0.156641  1
  P  P24  1  0.500000  0.500000  0.881113  1
  P  P25  1  0.000000  0.000000  0.117503  1
  P  P26  1  0.500000  0.500000  0.349214  1
  P  P27  1  0.000000  0.000000  0.656232  1
  P  P28  1  0.500000  0.311272  0.616678  1
  P  P29  1  0.500000  0.688728  0.616678  1
  P  P30  1  0.000000  0.188645  0.383719  1
  P  P31  1  0.000000  0.811355  0.383719  1
  P  P32  1  0.500000  0.849388  0.892005  1
  P  P33  1  0.500000  0.150612  0.892005  1
  P  P34  1  0.000000  0.655805  0.106397  1
  P  P35  1  0.000000  0.344195  0.106397  1
