# generated using pymatgen
data_SmLuNi2P7Ru10
_symmetry_space_group_name_H-M   'P 1'
_cell_length_a   9.46259449
_cell_length_b   9.28949641
_cell_length_c   3.87065900
_cell_angle_alpha   90.00000000
_cell_angle_beta   90.00000000
_cell_angle_gamma   119.81551247
_symmetry_Int_Tables_number   1
_chemical_formula_structural   SmLuNi2P7Ru10
_chemical_formula_sum   'Sm1 Lu1 Ni2 P7 Ru10'
_cell_volume   295.20404734
_cell_formula_units_Z   1
loop_
 _symmetry_equiv_pos_site_id
 _symmetry_equiv_pos_as_xyz
  1  'x, y, z'
loop_
 _atom_site_type_symbol
 _atom_site_label
 _atom_site_symmetry_multiplicity
 _atom_site_fract_x
 _atom_site_fract_y
 _atom_site_fract_z
 _atom_site_occupancy
  Sm  Sm0  1  0.665680  0.335476  0.000000  1
  Lu  Lu1  1  0.004427  0.000896  0.500000  1
  Ni  Ni2  1  0.445877  0.940228  0.000000  1
  Ni  Ni3  1  0.061107  0.503303  0.000000  1
  P  P4  1  0.755607  0.781391  0.000000  1
  P  P5  1  0.221101  0.965463  0.000000  1
  P  P6  1  0.028419  0.246339  0.000000  1
  P  P7  1  0.449498  0.381139  0.500000  1
  P  P8  1  0.622765  0.069798  0.500000  1
  P  P9  1  0.932284  0.554089  0.500000  1
  P  P10  1  0.327289  0.666251  0.000000  1
  Ru  Ru11  1  0.758479  0.029050  0.000000  1
  Ru  Ru12  1  0.973032  0.730487  0.000000  1
  Ru  Ru13  1  0.262631  0.232453  0.000000  1
  Ru  Ru14  1  0.492512  0.555116  0.000000  1
  Ru  Ru15  1  0.724483  0.623267  0.500000  1
  Ru  Ru16  1  0.386175  0.101692  0.500000  1
  Ru  Ru17  1  0.901202  0.283316  0.500000  1
  Ru  Ru18  1  0.531515  0.785946  0.500000  1
  Ru  Ru19  1  0.207757  0.754614  0.500000  1
  Ru  Ru20  1  0.248161  0.459685  0.500000  1
