# generated using pymatgen
data_PrErNp(SnIr)3
_symmetry_space_group_name_H-M   'P 1'
_cell_length_a   7.46214958
_cell_length_b   7.43273147
_cell_length_c   4.03167200
_cell_angle_alpha   90.00000000
_cell_angle_beta   90.00000000
_cell_angle_gamma   118.51551058
_symmetry_Int_Tables_number   1
_chemical_formula_structural   PrErNp(SnIr)3
_chemical_formula_sum   'Pr1 Er1 Np1 Sn3 Ir3'
_cell_volume   196.48628239
_cell_formula_units_Z   1
loop_
 _symmetry_equiv_pos_site_id
 _symmetry_equiv_pos_as_xyz
  1  'x, y, z'
loop_
 _atom_site_type_symbol
 _atom_site_label
 _atom_site_symmetry_multiplicity
 _atom_site_fract_x
 _atom_site_fract_y
 _atom_site_fract_z
 _atom_site_occupancy
  Pr  Pr0  1  0.999456  0.590797  0.500000  1
  Er  Er1  1  0.594082  0.999278  0.500000  1
  Np  Np2  1  0.414146  0.413674  0.500000  1
  Sn  Sn3  1  0.989980  0.254161  0.000000  1
  Sn  Sn4  1  0.753278  0.756413  0.000000  1
  Sn  Sn5  1  0.258099  0.992560  0.000000  1
  Ir  Ir6  1  0.343863  0.645396  0.000000  1
  Ir  Ir7  1  0.009188  0.015883  0.500000  1
  Ir  Ir8  1  0.637910  0.331839  0.000000  1
