# generated using pymatgen
data_Dy5Tm11CdIn2AgRh4
_symmetry_space_group_name_H-M   'P 1'
_cell_length_a   9.52520175
_cell_length_b   9.50680468
_cell_length_c   9.50680500
_cell_angle_alpha   59.74835209
_cell_angle_beta   59.63267263
_cell_angle_gamma   59.63266966
_symmetry_Int_Tables_number   1
_chemical_formula_structural   Dy5Tm11CdIn2AgRh4
_chemical_formula_sum   'Dy5 Tm11 Cd1 In2 Ag1 Rh4'
_cell_volume   604.18663452
_cell_formula_units_Z   1
loop_
 _symmetry_equiv_pos_site_id
 _symmetry_equiv_pos_as_xyz
  1  'x, y, z'
loop_
 _atom_site_type_symbol
 _atom_site_label
 _atom_site_symmetry_multiplicity
 _atom_site_fract_x
 _atom_site_fract_y
 _atom_site_fract_z
 _atom_site_occupancy
  Dy  Dy0  1  0.058226  0.068766  0.437886  1
  Dy  Dy1  1  0.435101  0.064557  0.436439  1
  Dy  Dy2  1  0.058226  0.437886  0.068766  1
  Dy  Dy3  1  0.053820  0.649229  0.649229  1
  Dy  Dy4  1  0.435101  0.436439  0.064557  1
  Tm  Tm5  1  0.648515  0.050929  0.648181  1
  Tm  Tm6  1  0.188769  0.813104  0.187977  1
  Tm  Tm7  1  0.188769  0.187977  0.813104  1
  Tm  Tm8  1  0.810566  0.811327  0.189292  1
  Tm  Tm9  1  0.438173  0.061908  0.061908  1
  Tm  Tm10  1  0.813903  0.187166  0.187166  1
  Tm  Tm11  1  0.057483  0.440299  0.440299  1
  Tm  Tm12  1  0.810566  0.189292  0.811327  1
  Tm  Tm13  1  0.190538  0.810761  0.810761  1
  Tm  Tm14  1  0.648515  0.648181  0.050929  1
  Tm  Tm15  1  0.648016  0.650251  0.650251  1
  Cd  Cd16  1  0.421951  0.417433  0.417433  1
  In  In17  1  0.423093  0.743930  0.415862  1
  In  In18  1  0.423093  0.415862  0.743930  1
  Ag  Ag19  1  0.749917  0.416633  0.416633  1
  Rh  Rh20  1  0.856823  0.855161  0.427677  1
  Rh  Rh21  1  0.855615  0.858112  0.858112  1
  Rh  Rh22  1  0.428401  0.857116  0.857116  1
  Rh  Rh23  1  0.856823  0.427677  0.855161  1
