# generated using pymatgen
data_Yb3Pa(MnB4)4
_symmetry_space_group_name_H-M   'P 1'
_cell_length_a   3.39907300
_cell_length_b   5.91211939
_cell_length_c   11.44918576
_cell_angle_alpha   89.95823689
_cell_angle_beta   90.00000000
_cell_angle_gamma   90.00000000
_symmetry_Int_Tables_number   1
_chemical_formula_structural   Yb3Pa(MnB4)4
_chemical_formula_sum   'Yb3 Pa1 Mn4 B16'
_cell_volume   230.07963198
_cell_formula_units_Z   1
loop_
 _symmetry_equiv_pos_site_id
 _symmetry_equiv_pos_as_xyz
  1  'x, y, z'
loop_
 _atom_site_type_symbol
 _atom_site_label
 _atom_site_symmetry_multiplicity
 _atom_site_fract_x
 _atom_site_fract_y
 _atom_site_fract_z
 _atom_site_occupancy
  Yb  Yb0  1  0.500000  0.626339  0.847471  1
  Yb  Yb1  1  0.500000  0.124662  0.650588  1
  Yb  Yb2  1  0.500000  0.875800  0.350744  1
  Pa  Pa3  1  0.500000  0.374508  0.151951  1
  Mn  Mn4  1  0.500000  0.377960  0.416092  1
  Mn  Mn5  1  0.500000  0.625185  0.580625  1
  Mn  Mn6  1  0.500000  0.129442  0.917363  1
  Mn  Mn7  1  0.500000  0.873129  0.086517  1
  B  B8  1  0.000000  0.109659  0.046310  1
  B  B9  1  0.000000  0.886269  0.952952  1
  B  B10  1  0.000000  0.385575  0.546149  1
  B  B11  1  0.000000  0.612165  0.453951  1
  B  B12  1  0.000000  0.138035  0.467691  1
  B  B13  1  0.000000  0.861830  0.532518  1
  B  B14  1  0.000000  0.360569  0.966915  1
  B  B15  1  0.000000  0.639401  0.032643  1
  B  B16  1  0.000000  0.024449  0.190143  1
  B  B17  1  0.000000  0.975221  0.808906  1
  B  B18  1  0.000000  0.475506  0.690338  1
  B  B19  1  0.000000  0.523302  0.311164  1
  B  B20  1  0.000000  0.220752  0.318106  1
  B  B21  1  0.000000  0.780226  0.682782  1
  B  B22  1  0.000000  0.278964  0.815376  1
  B  B23  1  0.000000  0.721052  0.182706  1
