# generated using pymatgen
data_Pr2Nd9SmFe2I17
_symmetry_space_group_name_H-M   'P 1'
_cell_length_a   10.03062874
_cell_length_b   12.04749484
_cell_length_c   12.09009770
_cell_angle_alpha   93.64067224
_cell_angle_beta   104.72660681
_cell_angle_gamma   114.29274856
_symmetry_Int_Tables_number   1
_chemical_formula_structural   Pr2Nd9SmFe2I17
_chemical_formula_sum   'Pr2 Nd9 Sm1 Fe2 I17'
_cell_volume   1264.27708830
_cell_formula_units_Z   1
loop_
 _symmetry_equiv_pos_site_id
 _symmetry_equiv_pos_as_xyz
  1  'x, y, z'
loop_
 _atom_site_type_symbol
 _atom_site_label
 _atom_site_symmetry_multiplicity
 _atom_site_fract_x
 _atom_site_fract_y
 _atom_site_fract_z
 _atom_site_occupancy
  Pr  Pr0  1  0.778470  0.329139  0.014433  1
  Pr  Pr1  1  0.858779  0.713595  0.847512  1
  Nd  Nd2  1  0.988294  0.809933  0.582721  1
  Nd  Nd3  1  0.650303  0.241625  0.283205  1
  Nd  Nd4  1  0.010053  0.192524  0.412853  1
  Nd  Nd5  1  0.224147  0.671054  0.988699  1
  Nd  Nd6  1  0.258178  0.985175  0.891039  1
  Nd  Nd7  1  0.342877  0.757890  0.719276  1
  Nd  Nd8  1  0.943453  0.489880  0.677972  1
  Nd  Nd9  1  0.744382  0.018589  0.110140  1
  Nd  Nd10  1  0.147631  0.287505  0.152555  1
  Sm  Sm11  1  0.052177  0.502835  0.319822  1
  Fe  Fe12  1  0.103658  0.738100  0.785853  1
  Fe  Fe13  1  0.896486  0.262210  0.214366  1
  I  I14  1  0.787054  0.528397  0.418615  1
  I  I15  1  0.643866  0.419178  0.758418  1
  I  I16  1  0.843843  0.896925  0.325093  1
  I  I17  1  0.326020  0.213295  0.368749  1
  I  I18  1  0.156449  0.103369  0.674589  1
  I  I19  1  0.585165  0.050083  0.844112  1
  I  I20  1  0.757602  0.185695  0.537205  1
  I  I21  1  0.548191  0.710155  0.953036  1
  I  I22  1  0.353959  0.580581  0.241012  1
  I  I23  1  0.213393  0.472832  0.580503  1
  I  I24  1  0.058213  0.369309  0.897360  1
  I  I25  1  0.449581  0.290118  0.047495  1
  I  I26  1  0.000451  0.000518  0.999673  1
  I  I27  1  0.240285  0.810850  0.462884  1
  I  I28  1  0.412898  0.948182  0.155243  1
  I  I29  1  0.675033  0.787056  0.630566  1
  I  I30  1  0.949112  0.633404  0.105002  1
