# generated using pymatgen
data_Li2Dy3ErAs4
_symmetry_space_group_name_H-M   'P 1'
_cell_length_a   4.16721500
_cell_length_b   4.16721334
_cell_length_c   14.08307700
_cell_angle_alpha   90.00000000
_cell_angle_beta   90.00000000
_cell_angle_gamma   119.99998938
_symmetry_Int_Tables_number   1
_chemical_formula_structural   Li2Dy3ErAs4
_chemical_formula_sum   'Li2 Dy3 Er1 As4'
_cell_volume   211.79703409
_cell_formula_units_Z   1
loop_
 _symmetry_equiv_pos_site_id
 _symmetry_equiv_pos_as_xyz
  1  'x, y, z'
loop_
 _atom_site_type_symbol
 _atom_site_label
 _atom_site_symmetry_multiplicity
 _atom_site_fract_x
 _atom_site_fract_y
 _atom_site_fract_z
 _atom_site_occupancy
  Li  Li0  1  0.000000  0.000000  0.249461  1
  Li  Li1  1  0.000000  0.000000  0.749859  1
  Dy  Dy2  1  0.333333  0.666667  0.389142  1
  Dy  Dy3  1  0.666667  0.333333  0.610522  1
  Dy  Dy4  1  0.666667  0.333333  0.889681  1
  Er  Er5  1  0.333333  0.666667  0.110601  1
  As  As6  1  0.000000  0.000000  0.499922  1
  As  As7  1  0.000000  0.000000  0.001815  1
  As  As8  1  0.333333  0.666667  0.750321  1
  As  As9  1  0.666667  0.333333  0.248675  1
