# generated using pymatgen
data_SmTm3Hf3ZrF28
_symmetry_space_group_name_H-M   'P 1'
_cell_length_a   5.70152026
_cell_length_b   9.02683991
_cell_length_c   12.12670718
_cell_angle_alpha   62.42064169
_cell_angle_beta   89.96626124
_cell_angle_gamma   90.02203126
_symmetry_Int_Tables_number   1
_chemical_formula_structural   SmTm3Hf3ZrF28
_chemical_formula_sum   'Sm1 Tm3 Hf3 Zr1 F28'
_cell_volume   553.20279820
_cell_formula_units_Z   1
loop_
 _symmetry_equiv_pos_site_id
 _symmetry_equiv_pos_as_xyz
  1  'x, y, z'
loop_
 _atom_site_type_symbol
 _atom_site_label
 _atom_site_symmetry_multiplicity
 _atom_site_fract_x
 _atom_site_fract_y
 _atom_site_fract_z
 _atom_site_occupancy
  Sm  Sm0  1  0.756601  0.817151  0.766171  1
  Tm  Tm1  1  0.743746  0.816518  0.266352  1
  Tm  Tm2  1  0.243646  0.183977  0.235291  1
  Tm  Tm3  1  0.257344  0.188835  0.732292  1
  Hf  Hf4  1  0.743605  0.277414  0.452790  1
  Hf  Hf5  1  0.244301  0.725452  0.049226  1
  Hf  Hf6  1  0.255258  0.725652  0.541005  1
  Zr  Zr7  1  0.755245  0.270049  0.957193  1
  F  F8  1  0.460537  0.708820  0.925460  1
  F  F9  1  0.965169  0.289062  0.576690  1
  F  F10  1  0.529780  0.287413  0.080683  1
  F  F11  1  0.032055  0.710928  0.419173  1
  F  F12  1  0.455886  0.281587  0.548898  1
  F  F13  1  0.956521  0.715850  0.956613  1
  F  F14  1  0.546641  0.719805  0.448049  1
  F  F15  1  0.048473  0.278537  0.052663  1
  F  F16  1  0.769199  0.522398  0.858697  1
  F  F17  1  0.267416  0.475341  0.639290  1
  F  F18  1  0.234416  0.474536  0.144034  1
  F  F19  1  0.732798  0.526970  0.356776  1
  F  F20  1  0.759784  0.017608  0.060477  1
  F  F21  1  0.258988  0.975166  0.440717  1
  F  F22  1  0.240067  0.973683  0.943550  1
  F  F23  1  0.739810  0.028308  0.553147  1
  F  F24  1  0.986222  0.731582  0.644715  1
  F  F25  1  0.481568  0.266238  0.849900  1
  F  F26  1  0.011725  0.265653  0.349186  1
  F  F27  1  0.514081  0.734616  0.152513  1
  F  F28  1  0.032336  0.746619  0.175161  1
  F  F29  1  0.530892  0.254273  0.327612  1
  F  F30  1  0.969403  0.251263  0.827087  1
  F  F31  1  0.459621  0.743666  0.669780  1
  F  F32  1  0.432121  0.975483  0.235656  1
  F  F33  1  0.932025  0.025349  0.264529  1
  F  F34  1  0.568856  0.036161  0.765653  1
  F  F35  1  0.083869  0.978036  0.732976  1
