# generated using pymatgen
data_Dy12Si16NiOs7
_symmetry_space_group_name_H-M   'P 1'
_cell_length_a   4.23690800
_cell_length_b   12.24245967
_cell_length_c   12.79651394
_cell_angle_alpha   89.84184965
_cell_angle_beta   90.00000000
_cell_angle_gamma   90.00000000
_symmetry_Int_Tables_number   1
_chemical_formula_structural   Dy12Si16NiOs7
_chemical_formula_sum   'Dy12 Si16 Ni1 Os7'
_cell_volume   663.75489298
_cell_formula_units_Z   1
loop_
 _symmetry_equiv_pos_site_id
 _symmetry_equiv_pos_as_xyz
  1  'x, y, z'
loop_
 _atom_site_type_symbol
 _atom_site_label
 _atom_site_symmetry_multiplicity
 _atom_site_fract_x
 _atom_site_fract_y
 _atom_site_fract_z
 _atom_site_occupancy
  Dy  Dy0  1  0.750000  0.982866  0.814079  1
  Dy  Dy1  1  0.250000  0.016731  0.186820  1
  Dy  Dy2  1  0.750000  0.483268  0.692603  1
  Dy  Dy3  1  0.250000  0.517276  0.307365  1
  Dy  Dy4  1  0.750000  0.756194  0.649555  1
  Dy  Dy5  1  0.250000  0.245603  0.354130  1
  Dy  Dy6  1  0.750000  0.254441  0.852424  1
  Dy  Dy7  1  0.250000  0.745105  0.143553  1
  Dy  Dy8  1  0.750000  0.691040  0.917032  1
  Dy  Dy9  1  0.250000  0.305300  0.083906  1
  Dy  Dy10  1  0.750000  0.193157  0.585336  1
  Dy  Dy11  1  0.250000  0.806420  0.414759  1
  Si  Si12  1  0.750000  0.953544  0.539032  1
  Si  Si13  1  0.250000  0.046203  0.461353  1
  Si  Si14  1  0.750000  0.450695  0.961406  1
  Si  Si15  1  0.250000  0.547932  0.037003  1
  Si  Si16  1  0.750000  0.893195  0.057798  1
  Si  Si17  1  0.250000  0.106413  0.941273  1
  Si  Si18  1  0.750000  0.393905  0.441874  1
  Si  Si19  1  0.250000  0.608176  0.559268  1
  Si  Si20  1  0.750000  0.872743  0.260465  1
  Si  Si21  1  0.250000  0.127353  0.736831  1
  Si  Si22  1  0.750000  0.368969  0.236637  1
  Si  Si23  1  0.250000  0.629887  0.765277  1
  Si  Si24  1  0.750000  0.672938  0.296994  1
  Si  Si25  1  0.250000  0.328080  0.701045  1
  Si  Si26  1  0.750000  0.170246  0.204132  1
  Si  Si27  1  0.250000  0.829636  0.799987  1
  Ni  Ni28  1  0.250000  0.913080  0.973458  1
  Os  Os29  1  0.750000  0.536230  0.132589  1
  Os  Os30  1  0.250000  0.459589  0.866966  1
  Os  Os31  1  0.750000  0.037795  0.368014  1
  Os  Os32  1  0.250000  0.960611  0.632416  1
  Os  Os33  1  0.750000  0.592142  0.473700  1
  Os  Os34  1  0.250000  0.410561  0.525742  1
  Os  Os35  1  0.750000  0.092678  0.025177  1
