# generated using pymatgen
data_Li2TbEu3P4
_symmetry_space_group_name_H-M   'P 1'
_cell_length_a   4.22159900
_cell_length_b   4.22159977
_cell_length_c   14.30545600
_cell_angle_alpha   90.00000000
_cell_angle_beta   90.00000000
_cell_angle_gamma   120.00001749
_symmetry_Int_Tables_number   1
_chemical_formula_structural   Li2TbEu3P4
_chemical_formula_sum   'Li2 Tb1 Eu3 P4'
_cell_volume   220.79350651
_cell_formula_units_Z   1
loop_
 _symmetry_equiv_pos_site_id
 _symmetry_equiv_pos_as_xyz
  1  'x, y, z'
loop_
 _atom_site_type_symbol
 _atom_site_label
 _atom_site_symmetry_multiplicity
 _atom_site_fract_x
 _atom_site_fract_y
 _atom_site_fract_z
 _atom_site_occupancy
  Li  Li0  1  0.000000  0.000000  0.248374  1
  Li  Li1  1  0.000000  0.000000  0.748352  1
  Tb  Tb2  1  0.333333  0.666667  0.111345  1
  Eu  Eu3  1  0.333333  0.666667  0.388124  1
  Eu  Eu4  1  0.666667  0.333333  0.611732  1
  Eu  Eu5  1  0.666667  0.333333  0.889744  1
  P  P6  1  0.000000  0.000000  0.498527  1
  P  P7  1  0.000000  0.000000  0.009820  1
  P  P8  1  0.333333  0.666667  0.753695  1
  P  P9  1  0.666667  0.333333  0.240286  1
