# generated using pymatgen
data_NdY3(Rh2O7)2
_symmetry_space_group_name_H-M   'P 1'
_cell_length_a   7.29772000
_cell_length_b   7.29772146
_cell_length_c   7.29772009
_cell_angle_alpha   59.66914568
_cell_angle_beta   59.66914306
_cell_angle_gamma   59.66914240
_symmetry_Int_Tables_number   1
_chemical_formula_structural   NdY3(Rh2O7)2
_chemical_formula_sum   'Nd1 Y3 Rh4 O14'
_cell_volume   272.75319755
_cell_formula_units_Z   1
loop_
 _symmetry_equiv_pos_site_id
 _symmetry_equiv_pos_as_xyz
  1  'x, y, z'
loop_
 _atom_site_type_symbol
 _atom_site_label
 _atom_site_symmetry_multiplicity
 _atom_site_fract_x
 _atom_site_fract_y
 _atom_site_fract_z
 _atom_site_occupancy
  Nd  Nd0  1  0.500000  0.500000  0.500000  1
  Y  Y1  1  0.000000  0.500000  0.500000  1
  Y  Y2  1  0.500000  0.500000  0.000000  1
  Y  Y3  1  0.500000  0.000000  0.500000  1
  Rh  Rh4  1  0.000000  0.000000  0.000000  1
  Rh  Rh5  1  0.500000  0.000000  0.000000  1
  Rh  Rh6  1  0.000000  0.000000  0.500000  1
  Rh  Rh7  1  0.000000  0.500000  0.000000  1
  O  O8  1  0.371750  0.371750  0.371750  1
  O  O9  1  0.628250  0.628250  0.628250  1
  O  O10  1  0.920570  0.335092  0.335092  1
  O  O11  1  0.335186  0.914590  0.914590  1
  O  O12  1  0.335092  0.335092  0.920570  1
  O  O13  1  0.914590  0.914590  0.335186  1
  O  O14  1  0.914590  0.335186  0.914590  1
  O  O15  1  0.335092  0.920570  0.335092  1
  O  O16  1  0.079430  0.664908  0.664908  1
  O  O17  1  0.664814  0.085410  0.085410  1
  O  O18  1  0.664908  0.664908  0.079430  1
  O  O19  1  0.085410  0.085410  0.664814  1
  O  O20  1  0.085410  0.664814  0.085410  1
  O  O21  1  0.664908  0.079430  0.664908  1
