# generated using pymatgen
data_Y8Ti9Si16W3
_symmetry_space_group_name_H-M   'P 1'
_cell_length_a   7.00713836
_cell_length_b   7.00713829
_cell_length_c   12.89127800
_cell_angle_alpha   89.98079980
_cell_angle_beta   90.01920118
_cell_angle_gamma   89.94140291
_symmetry_Int_Tables_number   1
_chemical_formula_structural   Y8Ti9Si16W3
_chemical_formula_sum   'Y8 Ti9 Si16 W3'
_cell_volume   632.96118668
_cell_formula_units_Z   1
loop_
 _symmetry_equiv_pos_site_id
 _symmetry_equiv_pos_as_xyz
  1  'x, y, z'
loop_
 _atom_site_type_symbol
 _atom_site_label
 _atom_site_symmetry_multiplicity
 _atom_site_fract_x
 _atom_site_fract_y
 _atom_site_fract_z
 _atom_site_occupancy
  Y  Y0  1  0.997822  0.659967  0.033337  1
  Y  Y1  1  0.000747  0.340331  0.533001  1
  Y  Y2  1  0.659967  0.997822  0.966663  1
  Y  Y3  1  0.158640  0.501600  0.782027  1
  Y  Y4  1  0.840862  0.499301  0.283257  1
  Y  Y5  1  0.501600  0.158640  0.217973  1
  Y  Y6  1  0.499301  0.840862  0.716743  1
  Y  Y7  1  0.340331  0.000747  0.466999  1
  Ti  Ti8  1  0.346946  0.509330  0.374371  1
  Ti  Ti9  1  0.847175  0.990896  0.376317  1
  Ti  Ti10  1  0.008349  0.151756  0.124872  1
  Ti  Ti11  1  0.990896  0.847175  0.623683  1
  Ti  Ti12  1  0.509330  0.346946  0.625629  1
  Ti  Ti13  1  0.151756  0.008349  0.875128  1
  Ti  Ti14  1  0.327149  0.327149  0.000000  1
  Ti  Ti15  1  0.491823  0.653914  0.127430  1
  Ti  Ti16  1  0.653914  0.491823  0.872570  1
  Si  Si17  1  0.046508  0.708223  0.434724  1
  Si  Si18  1  0.951958  0.291916  0.933881  1
  Si  Si19  1  0.708223  0.046508  0.565276  1
  Si  Si20  1  0.208816  0.454231  0.184916  1
  Si  Si21  1  0.791472  0.546828  0.684481  1
  Si  Si22  1  0.454231  0.208816  0.815084  1
  Si  Si23  1  0.546828  0.791472  0.315519  1
  Si  Si24  1  0.291916  0.951958  0.066119  1
  Si  Si25  1  0.799018  0.870218  0.184760  1
  Si  Si26  1  0.299776  0.630186  0.565177  1
  Si  Si27  1  0.702115  0.369857  0.065217  1
  Si  Si28  1  0.630186  0.299776  0.434823  1
  Si  Si29  1  0.369857  0.702115  0.934783  1
  Si  Si30  1  0.129872  0.200526  0.314871  1
  Si  Si31  1  0.200526  0.129872  0.685129  1
  Si  Si32  1  0.870218  0.799018  0.815240  1
  W  W33  1  0.672956  0.672956  0.500000  1
  W  W34  1  0.826214  0.172704  0.749345  1
  W  W35  1  0.172704  0.826214  0.250655  1
