# generated using pymatgen
data_Er13Tm7(GaBi2)4
_symmetry_space_group_name_H-M   'P 1'
_cell_length_a   8.01403700
_cell_length_b   9.21790900
_cell_length_c   11.99293801
_cell_angle_alpha   90.00063234
_cell_angle_beta   90.00350972
_cell_angle_gamma   89.99827093
_symmetry_Int_Tables_number   1
_chemical_formula_structural   Er13Tm7(GaBi2)4
_chemical_formula_sum   'Er13 Tm7 Ga4 Bi8'
_cell_volume   885.95027565
_cell_formula_units_Z   1
loop_
 _symmetry_equiv_pos_site_id
 _symmetry_equiv_pos_as_xyz
  1  'x, y, z'
loop_
 _atom_site_type_symbol
 _atom_site_label
 _atom_site_symmetry_multiplicity
 _atom_site_fract_x
 _atom_site_fract_y
 _atom_site_fract_z
 _atom_site_occupancy
  Er  Er0  1  0.667710  0.749944  0.715758  1
  Er  Er1  1  0.332333  0.249988  0.284276  1
  Er  Er2  1  0.167666  0.250031  0.784306  1
  Er  Er3  1  0.832304  0.749991  0.215742  1
  Er  Er4  1  0.143166  0.749965  0.795263  1
  Er  Er5  1  0.856766  0.249980  0.204787  1
  Er  Er6  1  0.643237  0.249992  0.704796  1
  Er  Er7  1  0.356813  0.749960  0.295148  1
  Er  Er8  1  0.540195  0.749940  0.002626  1
  Er  Er9  1  0.459849  0.250011  0.997402  1
  Er  Er10  1  0.040084  0.250052  0.497350  1
  Er  Er11  1  0.959762  0.749987  0.502631  1
  Er  Er12  1  0.319240  0.946406  0.564005  1
  Tm  Tm13  1  0.819402  0.446304  0.936011  1
  Tm  Tm14  1  0.180620  0.553708  0.063986  1
  Tm  Tm15  1  0.319399  0.553617  0.564025  1
  Tm  Tm16  1  0.180582  0.946300  0.063986  1
  Tm  Tm17  1  0.680619  0.446307  0.436004  1
  Tm  Tm18  1  0.819427  0.053706  0.936009  1
  Tm  Tm19  1  0.680635  0.053755  0.435976  1
  Ga  Ga20  1  0.909110  0.750014  0.975923  1
  Ga  Ga21  1  0.090887  0.249979  0.024068  1
  Ga  Ga22  1  0.409188  0.250235  0.524013  1
  Ga  Ga23  1  0.590979  0.749884  0.475865  1
  Bi  Bi24  1  0.935188  0.008739  0.674177  1
  Bi  Bi25  1  0.064784  0.991267  0.325821  1
  Bi  Bi26  1  0.435296  0.991255  0.825911  1
  Bi  Bi27  1  0.064750  0.508728  0.325841  1
  Bi  Bi28  1  0.564751  0.008745  0.174139  1
  Bi  Bi29  1  0.935262  0.491230  0.674141  1
  Bi  Bi30  1  0.564757  0.491256  0.174145  1
  Bi  Bi31  1  0.435240  0.508723  0.825870  1
