# generated using pymatgen
data_Al18Co3Ni
_symmetry_space_group_name_H-M   'P 1'
_cell_length_a   6.29763634
_cell_length_b   6.24528832
_cell_length_c   8.50955155
_cell_angle_alpha   84.97616409
_cell_angle_beta   90.03289637
_cell_angle_gamma   90.02249676
_symmetry_Int_Tables_number   1
_chemical_formula_structural   Al18Co3Ni
_chemical_formula_sum   'Al18 Co3 Ni1'
_cell_volume   333.39956495
_cell_formula_units_Z   1
loop_
 _symmetry_equiv_pos_site_id
 _symmetry_equiv_pos_as_xyz
  1  'x, y, z'
loop_
 _atom_site_type_symbol
 _atom_site_label
 _atom_site_symmetry_multiplicity
 _atom_site_fract_x
 _atom_site_fract_y
 _atom_site_fract_z
 _atom_site_occupancy
  Al  Al0  1  0.997514  0.999166  0.000220  1
  Al  Al1  1  0.498015  0.999892  0.499162  1
  Al  Al2  1  0.973631  0.406091  0.731408  1
  Al  Al3  1  0.467273  0.600586  0.768184  1
  Al  Al4  1  0.031111  0.596483  0.267280  1
  Al  Al5  1  0.533231  0.405104  0.232940  1
  Al  Al6  1  0.285692  0.086488  0.770477  1
  Al  Al7  1  0.790715  0.907907  0.729348  1
  Al  Al8  1  0.710515  0.912195  0.230233  1
  Al  Al9  1  0.211890  0.086843  0.269009  1
  Al  Al10  1  0.192842  0.390485  0.003564  1
  Al  Al11  1  0.693493  0.613163  0.495024  1
  Al  Al12  1  0.808415  0.607163  0.996811  1
  Al  Al13  1  0.305421  0.391268  0.501047  1
  Al  Al14  1  0.612061  0.213538  0.959690  1
  Al  Al15  1  0.115172  0.786413  0.543785  1
  Al  Al16  1  0.384405  0.785947  0.044881  1
  Al  Al17  1  0.886989  0.212721  0.454578  1
  Co  Co18  1  0.119048  0.735276  0.833594  1
  Co  Co19  1  0.380412  0.734247  0.333564  1
  Co  Co20  1  0.881682  0.263921  0.167107  1
  Ni  Ni21  1  0.620472  0.265102  0.668098  1
