# generated using pymatgen
data_Nd4LuIrPt2
_symmetry_space_group_name_H-M   'P 1'
_cell_length_a   11.31127700
_cell_length_b   11.31127700
_cell_length_c   6.47183300
_cell_angle_alpha   90.00000000
_cell_angle_beta   90.00000000
_cell_angle_gamma   90.00000000
_symmetry_Int_Tables_number   1
_chemical_formula_structural   Nd4LuIrPt2
_chemical_formula_sum   'Nd16 Lu4 Ir4 Pt8'
_cell_volume   828.03859145
_cell_formula_units_Z   4
loop_
 _symmetry_equiv_pos_site_id
 _symmetry_equiv_pos_as_xyz
  1  'x, y, z'
loop_
 _atom_site_type_symbol
 _atom_site_label
 _atom_site_symmetry_multiplicity
 _atom_site_fract_x
 _atom_site_fract_y
 _atom_site_fract_z
 _atom_site_occupancy
  Nd  Nd0  1  0.087254  0.290841  0.119500  1
  Nd  Nd1  1  0.790841  0.412746  0.119500  1
  Nd  Nd2  1  0.209159  0.587254  0.119500  1
  Nd  Nd3  1  0.912746  0.709159  0.119500  1
  Nd  Nd4  1  0.412746  0.790841  0.380500  1
  Nd  Nd5  1  0.587254  0.209159  0.380500  1
  Nd  Nd6  1  0.290841  0.087254  0.380500  1
  Nd  Nd7  1  0.709159  0.912746  0.380500  1
  Nd  Nd8  1  0.412746  0.209159  0.880500  1
  Nd  Nd9  1  0.709159  0.087254  0.880500  1
  Nd  Nd10  1  0.290841  0.912746  0.880500  1
  Nd  Nd11  1  0.587254  0.790841  0.880500  1
  Nd  Nd12  1  0.087254  0.709159  0.619500  1
  Nd  Nd13  1  0.912746  0.290841  0.619500  1
  Nd  Nd14  1  0.209159  0.412746  0.619500  1
  Nd  Nd15  1  0.790841  0.587254  0.619500  1
  Lu  Lu16  1  0.000000  0.000000  0.000000  1
  Lu  Lu17  1  0.500000  0.500000  0.000000  1
  Lu  Lu18  1  0.500000  0.500000  0.500000  1
  Lu  Lu19  1  0.000000  0.000000  0.500000  1
  Ir  Ir20  1  0.000000  0.500000  0.379255  1
  Ir  Ir21  1  0.500000  0.000000  0.120745  1
  Ir  Ir22  1  0.500000  0.000000  0.620745  1
  Ir  Ir23  1  0.000000  0.500000  0.879255  1
  Pt  Pt24  1  0.145743  0.854257  0.250000  1
  Pt  Pt25  1  0.354257  0.354257  0.250000  1
  Pt  Pt26  1  0.645743  0.645743  0.250000  1
  Pt  Pt27  1  0.854257  0.145743  0.250000  1
  Pt  Pt28  1  0.354257  0.645743  0.750000  1
  Pt  Pt29  1  0.145743  0.145743  0.750000  1
  Pt  Pt30  1  0.854257  0.854257  0.750000  1
  Pt  Pt31  1  0.645743  0.354257  0.750000  1
