# generated using pymatgen
data_SmY2Cd3CuPt2
_symmetry_space_group_name_H-M   'P 1'
_cell_length_a   7.73976109
_cell_length_b   7.75174330
_cell_length_c   3.78169100
_cell_angle_alpha   90.00000000
_cell_angle_beta   90.00000000
_cell_angle_gamma   120.05122171
_symmetry_Int_Tables_number   1
_chemical_formula_structural   SmY2Cd3CuPt2
_chemical_formula_sum   'Sm1 Y2 Cd3 Cu1 Pt2'
_cell_volume   196.38993202
_cell_formula_units_Z   1
loop_
 _symmetry_equiv_pos_site_id
 _symmetry_equiv_pos_as_xyz
  1  'x, y, z'
loop_
 _atom_site_type_symbol
 _atom_site_label
 _atom_site_symmetry_multiplicity
 _atom_site_fract_x
 _atom_site_fract_y
 _atom_site_fract_z
 _atom_site_occupancy
  Sm  Sm0  1  0.000000  0.585575  0.500000  1
  Y  Y1  1  0.411870  0.412577  0.500000  1
  Y  Y2  1  0.588130  0.000708  0.500000  1
  Cd  Cd3  1  0.750499  0.752459  0.000000  1
  Cd  Cd4  1  0.249501  0.001960  0.000000  1
  Cd  Cd5  1  0.000000  0.245751  0.000000  1
  Cu  Cu6  1  0.000000  0.001178  0.500000  1
  Pt  Pt7  1  0.663902  0.331846  0.000000  1
  Pt  Pt8  1  0.336098  0.667945  0.000000  1
