# generated using pymatgen
data_LiY16Cd3CoNi3
_symmetry_space_group_name_H-M   'P 1'
_cell_length_a   9.59102529
_cell_length_b   9.59102503
_cell_length_c   9.59102518
_cell_angle_alpha   59.74992125
_cell_angle_beta   59.74992146
_cell_angle_gamma   59.74992816
_symmetry_Int_Tables_number   1
_chemical_formula_structural   LiY16Cd3CoNi3
_chemical_formula_sum   'Li1 Y16 Cd3 Co1 Ni3'
_cell_volume   620.30721535
_cell_formula_units_Z   1
loop_
 _symmetry_equiv_pos_site_id
 _symmetry_equiv_pos_as_xyz
  1  'x, y, z'
loop_
 _atom_site_type_symbol
 _atom_site_label
 _atom_site_symmetry_multiplicity
 _atom_site_fract_x
 _atom_site_fract_y
 _atom_site_fract_z
 _atom_site_occupancy
  Li  Li0  1  0.820388  0.820388  0.820388  1
  Y  Y1  1  0.599253  0.599253  0.599253  1
  Y  Y2  1  0.595700  0.595700  0.208868  1
  Y  Y3  1  0.595700  0.208868  0.595700  1
  Y  Y4  1  0.208868  0.595700  0.595700  1
  Y  Y5  1  0.064542  0.439903  0.439903  1
  Y  Y6  1  0.436414  0.063112  0.063112  1
  Y  Y7  1  0.439903  0.064542  0.439903  1
  Y  Y8  1  0.063112  0.436414  0.063112  1
  Y  Y9  1  0.439903  0.439903  0.064542  1
  Y  Y10  1  0.063112  0.063112  0.436414  1
  Y  Y11  1  0.186454  0.814138  0.814138  1
  Y  Y12  1  0.813360  0.186476  0.186476  1
  Y  Y13  1  0.814138  0.186454  0.814138  1
  Y  Y14  1  0.186476  0.813360  0.186476  1
  Y  Y15  1  0.814138  0.814138  0.186454  1
  Y  Y16  1  0.186476  0.186476  0.813360  1
  Cd  Cd17  1  0.831577  0.831577  0.506164  1
  Cd  Cd18  1  0.831577  0.506164  0.831577  1
  Cd  Cd19  1  0.506164  0.831577  0.831577  1
  Co  Co20  1  0.392633  0.392633  0.392633  1
  Ni  Ni21  1  0.392643  0.392643  0.824825  1
  Ni  Ni22  1  0.392643  0.824825  0.392643  1
  Ni  Ni23  1  0.824825  0.392643  0.392643  1
