# generated using pymatgen
data_Ho2Tm8FeCoSb4
_symmetry_space_group_name_H-M   'P 1'
_cell_length_a   7.72479300
_cell_length_b   8.71412200
_cell_length_c   12.00282100
_cell_angle_alpha   90.00000000
_cell_angle_beta   90.00000000
_cell_angle_gamma   90.00000000
_symmetry_Int_Tables_number   1
_chemical_formula_structural   Ho2Tm8FeCoSb4
_chemical_formula_sum   'Ho4 Tm16 Fe2 Co2 Sb8'
_cell_volume   807.96735854
_cell_formula_units_Z   2
loop_
 _symmetry_equiv_pos_site_id
 _symmetry_equiv_pos_as_xyz
  1  'x, y, z'
loop_
 _atom_site_type_symbol
 _atom_site_label
 _atom_site_symmetry_multiplicity
 _atom_site_fract_x
 _atom_site_fract_y
 _atom_site_fract_z
 _atom_site_occupancy
  Ho  Ho0  1  0.623900  0.750000  0.307407  1
  Ho  Ho1  1  0.123900  0.250000  0.192593  1
  Ho  Ho2  1  0.376523  0.250000  0.692323  1
  Ho  Ho3  1  0.876523  0.750000  0.807677  1
  Tm  Tm4  1  0.157445  0.750000  0.206605  1
  Tm  Tm5  1  0.657445  0.250000  0.293395  1
  Tm  Tm6  1  0.844715  0.250000  0.796797  1
  Tm  Tm7  1  0.344715  0.750000  0.703203  1
  Tm  Tm8  1  0.446563  0.750000  0.996568  1
  Tm  Tm9  1  0.946563  0.250000  0.503432  1
  Tm  Tm10  1  0.550009  0.250000  0.003541  1
  Tm  Tm11  1  0.050009  0.750000  0.496459  1
  Tm  Tm12  1  0.824994  0.966050  0.064569  1
  Tm  Tm13  1  0.324994  0.033950  0.435431  1
  Tm  Tm14  1  0.177674  0.460070  0.934388  1
  Tm  Tm15  1  0.677674  0.539930  0.565612  1
  Tm  Tm16  1  0.177674  0.039930  0.934388  1
  Tm  Tm17  1  0.677674  0.960070  0.565612  1
  Tm  Tm18  1  0.824994  0.533950  0.064569  1
  Tm  Tm19  1  0.324994  0.466050  0.435431  1
  Fe  Fe20  1  0.428444  0.750000  0.488949  1
  Fe  Fe21  1  0.928444  0.250000  0.011051  1
  Co  Co22  1  0.568204  0.250000  0.507979  1
  Co  Co23  1  0.068204  0.750000  0.992021  1
  Sb  Sb24  1  0.930798  0.992801  0.328164  1
  Sb  Sb25  1  0.430798  0.007199  0.171836  1
  Sb  Sb26  1  0.068633  0.492207  0.671850  1
  Sb  Sb27  1  0.568633  0.507793  0.828150  1
  Sb  Sb28  1  0.068633  0.007793  0.671850  1
  Sb  Sb29  1  0.568633  0.992207  0.828150  1
  Sb  Sb30  1  0.930798  0.507199  0.328164  1
  Sb  Sb31  1  0.430798  0.492801  0.171836  1
