# generated using pymatgen
data_Li4Sn2HgS7
_symmetry_space_group_name_H-M   'P 1'
_cell_length_a   9.53922909
_cell_length_b   9.53922889
_cell_length_c   10.48105683
_cell_angle_alpha   86.64896141
_cell_angle_beta   86.64896149
_cell_angle_gamma   43.18946395
_symmetry_Int_Tables_number   1
_chemical_formula_structural   Li4Sn2HgS7
_chemical_formula_sum   'Li8 Sn4 Hg2 S14'
_cell_volume   651.46338519
_cell_formula_units_Z   2
loop_
 _symmetry_equiv_pos_site_id
 _symmetry_equiv_pos_as_xyz
  1  'x, y, z'
loop_
 _atom_site_type_symbol
 _atom_site_label
 _atom_site_symmetry_multiplicity
 _atom_site_fract_x
 _atom_site_fract_y
 _atom_site_fract_z
 _atom_site_occupancy
  Li  Li0  1  0.528540  0.182311  0.411910  1
  Li  Li1  1  0.182311  0.528540  0.911910  1
  Li  Li2  1  0.913586  0.219999  0.335546  1
  Li  Li3  1  0.219999  0.913586  0.835546  1
  Li  Li4  1  0.681954  0.311528  0.696092  1
  Li  Li5  1  0.311528  0.681954  0.196092  1
  Li  Li6  1  0.039763  0.382744  0.616370  1
  Li  Li7  1  0.382744  0.039763  0.116370  1
  Sn  Sn8  1  0.468116  0.810185  0.469138  1
  Sn  Sn9  1  0.810185  0.468116  0.969138  1
  Sn  Sn10  1  0.083633  0.767289  0.538545  1
  Sn  Sn11  1  0.767289  0.083633  0.038545  1
  Hg  Hg12  1  0.929284  0.634896  0.259359  1
  Hg  Hg13  1  0.634896  0.929284  0.759359  1
  S  S14  1  0.366154  0.695007  0.633361  1
  S  S15  1  0.695007  0.366154  0.133361  1
  S  S16  1  0.233213  0.548967  0.355957  1
  S  S17  1  0.548967  0.233213  0.855957  1
  S  S18  1  0.018969  0.629249  0.704183  1
  S  S19  1  0.629249  0.018969  0.204183  1
  S  S20  1  0.274590  0.938351  0.280850  1
  S  S21  1  0.938351  0.274590  0.780850  1
  S  S22  1  0.406399  0.078963  0.560843  1
  S  S23  1  0.078963  0.406399  0.060843  1
  S  S24  1  0.828757  0.508519  0.428019  1
  S  S25  1  0.508519  0.828757  0.928019  1
  S  S26  1  0.799162  0.124373  0.498158  1
  S  S27  1  0.124373  0.799162  0.998158  1
