# generated using pymatgen
data_Ta4ZnFe(B2Ru5)2
_symmetry_space_group_name_H-M   'P 1'
_cell_length_a   9.27677900
_cell_length_b   9.27677900
_cell_length_c   3.00558500
_cell_angle_alpha   90.00000000
_cell_angle_beta   90.00000000
_cell_angle_gamma   90.00000000
_symmetry_Int_Tables_number   1
_chemical_formula_structural   Ta4ZnFe(B2Ru5)2
_chemical_formula_sum   'Ta4 Zn1 Fe1 B4 Ru10'
_cell_volume   258.65652329
_cell_formula_units_Z   1
loop_
 _symmetry_equiv_pos_site_id
 _symmetry_equiv_pos_as_xyz
  1  'x, y, z'
loop_
 _atom_site_type_symbol
 _atom_site_label
 _atom_site_symmetry_multiplicity
 _atom_site_fract_x
 _atom_site_fract_y
 _atom_site_fract_z
 _atom_site_occupancy
  Ta  Ta0  1  0.822557  0.675918  0.000000  1
  Ta  Ta1  1  0.177443  0.324082  0.000000  1
  Ta  Ta2  1  0.324082  0.822557  0.000000  1
  Ta  Ta3  1  0.675918  0.177443  0.000000  1
  Zn  Zn4  1  0.500000  0.500000  0.000000  1
  Fe  Fe5  1  0.000000  0.000000  0.000000  1
  B  B6  1  0.622877  0.873017  0.000000  1
  B  B7  1  0.377123  0.126983  0.000000  1
  B  B8  1  0.126983  0.622877  0.000000  1
  B  B9  1  0.873017  0.377123  0.000000  1
  Ru  Ru10  1  0.572813  0.715375  0.500000  1
  Ru  Ru11  1  0.427187  0.284625  0.500000  1
  Ru  Ru12  1  0.070017  0.786773  0.500000  1
  Ru  Ru13  1  0.929983  0.213227  0.500000  1
  Ru  Ru14  1  0.284625  0.572813  0.500000  1
  Ru  Ru15  1  0.715375  0.427187  0.500000  1
  Ru  Ru16  1  0.213227  0.070017  0.500000  1
  Ru  Ru17  1  0.786773  0.929983  0.500000  1
  Ru  Ru18  1  0.500000  0.000000  0.500000  1
  Ru  Ru19  1  0.000000  0.500000  0.500000  1
