# generated using pymatgen
data_Cs2CdSn(GeAs2)2
_symmetry_space_group_name_H-M   'P 1'
_cell_length_a   8.77668566
_cell_length_b   9.19187338
_cell_length_c   8.74070680
_cell_angle_alpha   84.30554085
_cell_angle_beta   78.15032144
_cell_angle_gamma   72.45726045
_symmetry_Int_Tables_number   1
_chemical_formula_structural   Cs2CdSn(GeAs2)2
_chemical_formula_sum   'Cs4 Cd2 Sn2 Ge4 As8'
_cell_volume   657.49979649
_cell_formula_units_Z   2
loop_
 _symmetry_equiv_pos_site_id
 _symmetry_equiv_pos_as_xyz
  1  'x, y, z'
loop_
 _atom_site_type_symbol
 _atom_site_label
 _atom_site_symmetry_multiplicity
 _atom_site_fract_x
 _atom_site_fract_y
 _atom_site_fract_z
 _atom_site_occupancy
  Cs  Cs0  1  0.452692  0.755829  0.380220  1
  Cs  Cs1  1  0.547308  0.244171  0.619780  1
  Cs  Cs2  1  0.433817  0.789966  0.865254  1
  Cs  Cs3  1  0.566183  0.210034  0.134746  1
  Cd  Cd4  1  0.962978  0.824282  0.243924  1
  Cd  Cd5  1  0.037022  0.175718  0.756076  1
  Sn  Sn6  1  0.944365  0.887339  0.781686  1
  Sn  Sn7  1  0.055635  0.112661  0.218314  1
  Ge  Ge8  1  0.939416  0.576109  0.618844  1
  Ge  Ge9  1  0.060584  0.423891  0.381156  1
  Ge  Ge10  1  0.147950  0.468197  0.967712  1
  Ge  Ge11  1  0.852050  0.531803  0.032288  1
  As  As12  1  0.792214  0.840076  0.550676  1
  As  As13  1  0.207786  0.159924  0.449324  1
  As  As14  1  0.820923  0.389323  0.287356  1
  As  As15  1  0.179077  0.610677  0.712644  1
  As  As16  1  0.757585  0.811624  0.049890  1
  As  As17  1  0.242415  0.188376  0.950110  1
  As  As18  1  0.777539  0.436426  0.811129  1
  As  As19  1  0.222461  0.563574  0.188871  1
