# generated using pymatgen
data_SmPa3(TlRh2)2
_symmetry_space_group_name_H-M   'P 1'
_cell_length_a   7.73883700
_cell_length_b   7.73883723
_cell_length_c   3.61377800
_cell_angle_alpha   90.00000000
_cell_angle_beta   90.00000000
_cell_angle_gamma   92.83061842
_symmetry_Int_Tables_number   1
_chemical_formula_structural   SmPa3(TlRh2)2
_chemical_formula_sum   'Sm1 Pa3 Tl2 Rh4'
_cell_volume   216.16365297
_cell_formula_units_Z   1
loop_
 _symmetry_equiv_pos_site_id
 _symmetry_equiv_pos_as_xyz
  1  'x, y, z'
loop_
 _atom_site_type_symbol
 _atom_site_label
 _atom_site_symmetry_multiplicity
 _atom_site_fract_x
 _atom_site_fract_y
 _atom_site_fract_z
 _atom_site_occupancy
  Sm  Sm0  1  0.829831  0.670169  0.500000  1
  Pa  Pa1  1  0.671615  0.169114  0.500000  1
  Pa  Pa2  1  0.330886  0.828385  0.500000  1
  Pa  Pa3  1  0.169530  0.330470  0.500000  1
  Tl  Tl4  1  0.999013  0.990087  0.000000  1
  Tl  Tl5  1  0.509913  0.500987  0.000000  1
  Rh  Rh6  1  0.150520  0.626063  0.000000  1
  Rh  Rh7  1  0.873937  0.349480  0.000000  1
  Rh  Rh8  1  0.608698  0.891302  0.000000  1
  Rh  Rh9  1  0.356056  0.143944  0.000000  1
