# generated using pymatgen
data_Ce2MnAl20Ir3
_symmetry_space_group_name_H-M   'P 1'
_cell_length_a   6.87626028
_cell_length_b   6.86191839
_cell_length_c   9.16504206
_cell_angle_alpha   89.86361379
_cell_angle_beta   89.82251517
_cell_angle_gamma   97.40600796
_symmetry_Int_Tables_number   1
_chemical_formula_structural   Ce2MnAl20Ir3
_chemical_formula_sum   'Ce2 Mn1 Al20 Ir3'
_cell_volume   428.83507127
_cell_formula_units_Z   1
loop_
 _symmetry_equiv_pos_site_id
 _symmetry_equiv_pos_as_xyz
  1  'x, y, z'
loop_
 _atom_site_type_symbol
 _atom_site_label
 _atom_site_symmetry_multiplicity
 _atom_site_fract_x
 _atom_site_fract_y
 _atom_site_fract_z
 _atom_site_occupancy
  Ce  Ce0  1  0.880390  0.128197  0.747510  1
  Ce  Ce1  1  0.119610  0.871803  0.252490  1
  Mn  Mn2  1  0.000000  0.500000  0.500000  1
  Al  Al3  1  0.406793  0.142414  0.749203  1
  Al  Al4  1  0.138733  0.409323  0.254734  1
  Al  Al5  1  0.593207  0.857586  0.250797  1
  Al  Al6  1  0.861267  0.590677  0.745266  1
  Al  Al7  1  0.520527  0.776088  0.749774  1
  Al  Al8  1  0.777596  0.517370  0.256077  1
  Al  Al9  1  0.479473  0.223912  0.250226  1
  Al  Al10  1  0.222404  0.482630  0.743923  1
  Al  Al11  1  0.844734  0.162382  0.398964  1
  Al  Al12  1  0.155266  0.837618  0.601036  1
  Al  Al13  1  0.841360  0.157909  0.104801  1
  Al  Al14  1  0.158640  0.842091  0.895199  1
  Al  Al15  1  0.622068  0.379377  0.947192  1
  Al  Al16  1  0.377932  0.620623  0.052808  1
  Al  Al17  1  0.627998  0.381258  0.548693  1
  Al  Al18  1  0.372002  0.618742  0.451307  1
  Al  Al19  1  0.780907  0.779932  0.998567  1
  Al  Al20  1  0.783381  0.775351  0.497653  1
  Al  Al21  1  0.219093  0.220068  0.001433  1
  Al  Al22  1  0.216619  0.224649  0.502347  1
  Ir  Ir23  1  0.500000  0.000000  0.000000  1
  Ir  Ir24  1  0.000000  0.500000  0.000000  1
  Ir  Ir25  1  0.500000  0.000000  0.500000  1
