# generated using pymatgen
data_Dy2Ho4TcRu
_symmetry_space_group_name_H-M   'P 1'
_cell_length_a   6.25189900
_cell_length_b   7.37193500
_cell_length_c   9.12189300
_cell_angle_alpha   90.00000000
_cell_angle_beta   90.00000000
_cell_angle_gamma   90.00000000
_symmetry_Int_Tables_number   1
_chemical_formula_structural   Dy2Ho4TcRu
_chemical_formula_sum   'Dy4 Ho8 Tc2 Ru2'
_cell_volume   420.41521436
_cell_formula_units_Z   2
loop_
 _symmetry_equiv_pos_site_id
 _symmetry_equiv_pos_as_xyz
  1  'x, y, z'
loop_
 _atom_site_type_symbol
 _atom_site_label
 _atom_site_symmetry_multiplicity
 _atom_site_fract_x
 _atom_site_fract_y
 _atom_site_fract_z
 _atom_site_occupancy
  Dy  Dy0  1  0.876068  0.539727  0.250000  1
  Dy  Dy1  1  0.623932  0.039727  0.250000  1
  Dy  Dy2  1  0.131595  0.457544  0.750000  1
  Dy  Dy3  1  0.368405  0.957543  0.750000  1
  Ho  Ho4  1  0.335061  0.676647  0.063916  1
  Ho  Ho5  1  0.164939  0.176647  0.436084  1
  Ho  Ho6  1  0.663906  0.324268  0.562712  1
  Ho  Ho7  1  0.836094  0.824268  0.937288  1
  Ho  Ho8  1  0.663906  0.324268  0.937288  1
  Ho  Ho9  1  0.836094  0.824268  0.562712  1
  Ho  Ho10  1  0.335061  0.676647  0.436084  1
  Ho  Ho11  1  0.164939  0.176647  0.063916  1
  Tc  Tc12  1  0.038602  0.885206  0.250000  1
  Tc  Tc13  1  0.461398  0.385206  0.250000  1
  Ru  Ru14  1  0.960482  0.115694  0.750000  1
  Ru  Ru15  1  0.539518  0.615694  0.750000  1
