# generated using pymatgen
data_Zr2Co11Si7W
_symmetry_space_group_name_H-M   'P 1'
_cell_length_a   9.12436990
_cell_length_b   9.09711159
_cell_length_c   3.61056000
_cell_angle_alpha   90.00000000
_cell_angle_beta   90.00000000
_cell_angle_gamma   120.54861635
_symmetry_Int_Tables_number   1
_chemical_formula_structural   Zr2Co11Si7W
_chemical_formula_sum   'Zr2 Co11 Si7 W1'
_cell_volume   258.09766966
_cell_formula_units_Z   1
loop_
 _symmetry_equiv_pos_site_id
 _symmetry_equiv_pos_as_xyz
  1  'x, y, z'
loop_
 _atom_site_type_symbol
 _atom_site_label
 _atom_site_symmetry_multiplicity
 _atom_site_fract_x
 _atom_site_fract_y
 _atom_site_fract_z
 _atom_site_occupancy
  Zr  Zr0  1  0.998627  0.004054  0.000000  1
  Zr  Zr1  1  0.335751  0.669707  0.500000  1
  Co  Co2  1  0.293225  0.390810  0.000000  1
  Co  Co3  1  0.101609  0.708299  0.000000  1
  Co  Co4  1  0.548404  0.435667  0.500000  1
  Co  Co5  1  0.379303  0.174439  0.000000  1
  Co  Co6  1  0.790585  0.615480  0.000000  1
  Co  Co7  1  0.820498  0.209960  0.000000  1
  Co  Co8  1  0.235460  0.951788  0.500000  1
  Co  Co9  1  0.048867  0.277753  0.500000  1
  Co  Co10  1  0.717760  0.768887  0.500000  1
  Co  Co11  1  0.568122  0.107586  0.500000  1
  Co  Co12  1  0.608940  0.900322  0.000000  1
  Si  Si13  1  0.651128  0.326558  0.000000  1
  Si  Si14  1  0.086842  0.450883  0.000000  1
  Si  Si15  1  0.261522  0.218216  0.500000  1
  Si  Si16  1  0.780480  0.040590  0.500000  1
  Si  Si17  1  0.961856  0.751287  0.500000  1
  Si  Si18  1  0.550633  0.624225  0.000000  1
  Si  Si19  1  0.377354  0.928128  0.000000  1
  W  W20  1  0.883033  0.445366  0.500000  1
