# generated using pymatgen
data_Li4As6Pt7
_symmetry_space_group_name_H-M   'P 1'
_cell_length_a   7.14619254
_cell_length_b   7.14619291
_cell_length_c   7.14619200
_cell_angle_alpha   109.47121805
_cell_angle_beta   109.47121911
_cell_angle_gamma   109.47122510
_symmetry_Int_Tables_number   1
_chemical_formula_structural   Li4As6Pt7
_chemical_formula_sum   'Li4 As6 Pt7'
_cell_volume   280.93266350
_cell_formula_units_Z   1
loop_
 _symmetry_equiv_pos_site_id
 _symmetry_equiv_pos_as_xyz
  1  'x, y, z'
loop_
 _atom_site_type_symbol
 _atom_site_label
 _atom_site_symmetry_multiplicity
 _atom_site_fract_x
 _atom_site_fract_y
 _atom_site_fract_z
 _atom_site_occupancy
  Li  Li0  1  0.000000  0.000000  0.500000  1
  Li  Li1  1  0.500000  0.000000  0.000000  1
  Li  Li2  1  0.000000  0.500000  0.000000  1
  Li  Li3  1  0.500000  0.500000  0.500000  1
  As  As4  1  0.685302  0.685302  0.000000  1
  As  As5  1  0.314698  0.314698  0.000000  1
  As  As6  1  0.000000  0.685302  0.685302  1
  As  As7  1  0.000000  0.314698  0.314698  1
  As  As8  1  0.685302  0.000000  0.685302  1
  As  As9  1  0.314698  0.000000  0.314698  1
  Pt  Pt10  1  0.000000  0.000000  0.000000  1
  Pt  Pt11  1  0.250000  0.500000  0.750000  1
  Pt  Pt12  1  0.750000  0.250000  0.500000  1
  Pt  Pt13  1  0.500000  0.250000  0.750000  1
  Pt  Pt14  1  0.500000  0.750000  0.250000  1
  Pt  Pt15  1  0.750000  0.500000  0.250000  1
  Pt  Pt16  1  0.250000  0.750000  0.500000  1
