# generated using pymatgen
data_Nb8Si2Sn4Pd
_symmetry_space_group_name_H-M   'P 1'
_cell_length_a   5.02344286
_cell_length_b   7.89419543
_cell_length_c   7.89419546
_cell_angle_alpha   95.81024222
_cell_angle_beta   108.55248721
_cell_angle_gamma   71.44752471
_symmetry_Int_Tables_number   1
_chemical_formula_structural   Nb8Si2Sn4Pd
_chemical_formula_sum   'Nb8 Si2 Sn4 Pd1'
_cell_volume   281.36091863
_cell_formula_units_Z   1
loop_
 _symmetry_equiv_pos_site_id
 _symmetry_equiv_pos_as_xyz
  1  'x, y, z'
loop_
 _atom_site_type_symbol
 _atom_site_label
 _atom_site_symmetry_multiplicity
 _atom_site_fract_x
 _atom_site_fract_y
 _atom_site_fract_z
 _atom_site_occupancy
  Nb  Nb0  1  0.413533  0.875394  0.715884  1
  Nb  Nb1  1  0.573043  0.124606  0.284116  1
  Nb  Nb2  1  0.926957  0.284116  0.124606  1
  Nb  Nb3  1  0.086467  0.715884  0.875394  1
  Nb  Nb4  1  0.711073  0.715884  0.124606  1
  Nb  Nb5  1  0.302350  0.284116  0.875394  1
  Nb  Nb6  1  0.788927  0.124606  0.715884  1
  Nb  Nb7  1  0.197650  0.875394  0.284116  1
  Si  Si8  1  0.250000  0.000000  0.000000  1
  Si  Si9  1  0.750000  0.000000  0.000000  1
  Sn  Sn10  1  0.378423  0.500000  0.202355  1
  Sn  Sn11  1  0.676068  0.500000  0.797645  1
  Sn  Sn12  1  0.823932  0.797645  0.500000  1
  Sn  Sn13  1  0.121577  0.202355  0.500000  1
  Pd  Pd14  1  0.250000  0.500000  0.500000  1
