# generated using pymatgen
data_Y11Ho4Th(CdPt)4
_symmetry_space_group_name_H-M   'P 1'
_cell_length_a   9.69840049
_cell_length_b   9.71033291
_cell_length_c   9.71033304
_cell_angle_alpha   60.21522058
_cell_angle_beta   60.26609770
_cell_angle_gamma   60.26609957
_symmetry_Int_Tables_number   1
_chemical_formula_structural   Y11Ho4Th(CdPt)4
_chemical_formula_sum   'Y11 Ho4 Th1 Cd4 Pt4'
_cell_volume   650.27271561
_cell_formula_units_Z   1
loop_
 _symmetry_equiv_pos_site_id
 _symmetry_equiv_pos_as_xyz
  1  'x, y, z'
loop_
 _atom_site_type_symbol
 _atom_site_label
 _atom_site_symmetry_multiplicity
 _atom_site_fract_x
 _atom_site_fract_y
 _atom_site_fract_z
 _atom_site_occupancy
  Y  Y0  1  0.190915  0.810323  0.810323  1
  Y  Y1  1  0.188922  0.812640  0.189352  1
  Y  Y2  1  0.810558  0.190882  0.810482  1
  Y  Y3  1  0.188922  0.189352  0.812640  1
  Y  Y4  1  0.810558  0.810482  0.190882  1
  Y  Y5  1  0.936226  0.565545  0.565545  1
  Y  Y6  1  0.563822  0.936791  0.936791  1
  Y  Y7  1  0.565994  0.936375  0.565167  1
  Y  Y8  1  0.937026  0.563073  0.937303  1
  Y  Y9  1  0.565994  0.565167  0.936375  1
  Y  Y10  1  0.937026  0.937303  0.563073  1
  Ho  Ho11  1  0.353552  0.353275  0.940487  1
  Ho  Ho12  1  0.353552  0.940487  0.353275  1
  Ho  Ho13  1  0.939699  0.353585  0.353585  1
  Ho  Ho14  1  0.813014  0.188984  0.188984  1
  Th  Th15  1  0.349686  0.349447  0.349447  1
  Cd  Cd16  1  0.581600  0.581729  0.581729  1
  Cd  Cd17  1  0.582620  0.582971  0.252844  1
  Cd  Cd18  1  0.582620  0.252844  0.582971  1
  Cd  Cd19  1  0.252843  0.582773  0.582773  1
  Pt  Pt20  1  0.142754  0.145456  0.145456  1
  Pt  Pt21  1  0.141314  0.140803  0.568170  1
  Pt  Pt22  1  0.141314  0.568170  0.140803  1
  Pt  Pt23  1  0.569471  0.141542  0.141542  1
