# generated using pymatgen
data_La4PdRhAu2
_symmetry_space_group_name_H-M   'P 1'
_cell_length_a   4.82080800
_cell_length_b   5.86888233
_cell_length_c   7.52364615
_cell_angle_alpha   92.82032999
_cell_angle_beta   90.00000000
_cell_angle_gamma   90.00000000
_symmetry_Int_Tables_number   1
_chemical_formula_structural   La4PdRhAu2
_chemical_formula_sum   'La4 Pd1 Rh1 Au2'
_cell_volume   212.60684207
_cell_formula_units_Z   1
loop_
 _symmetry_equiv_pos_site_id
 _symmetry_equiv_pos_as_xyz
  1  'x, y, z'
loop_
 _atom_site_type_symbol
 _atom_site_label
 _atom_site_symmetry_multiplicity
 _atom_site_fract_x
 _atom_site_fract_y
 _atom_site_fract_z
 _atom_site_occupancy
  La  La0  1  0.250000  0.635603  0.173786  1
  La  La1  1  0.750000  0.346337  0.827507  1
  La  La2  1  0.750000  0.141582  0.298950  1
  La  La3  1  0.250000  0.858048  0.698789  1
  Pd  Pd4  1  0.750000  0.844104  0.955982  1
  Rh  Rh5  1  0.250000  0.175745  0.043944  1
  Au  Au6  1  0.750000  0.652967  0.460968  1
  Au  Au7  1  0.250000  0.345614  0.540075  1
