# generated using pymatgen
data_NbTcWS6
_symmetry_space_group_name_H-M   'P 1'
_cell_length_a   5.57684443
_cell_length_b   5.57694454
_cell_length_c   7.07269409
_cell_angle_alpha   82.45167663
_cell_angle_beta   82.46836353
_cell_angle_gamma   120.00203786
_symmetry_Int_Tables_number   1
_chemical_formula_structural   NbTcWS6
_chemical_formula_sum   'Nb1 Tc1 W1 S6'
_cell_volume   183.82094538
_cell_formula_units_Z   1
loop_
 _symmetry_equiv_pos_site_id
 _symmetry_equiv_pos_as_xyz
  1  'x, y, z'
loop_
 _atom_site_type_symbol
 _atom_site_label
 _atom_site_symmetry_multiplicity
 _atom_site_fract_x
 _atom_site_fract_y
 _atom_site_fract_z
 _atom_site_occupancy
  Nb  Nb0  1  0.499994  0.833375  0.500021  1
  Tc  Tc1  1  0.833296  0.499988  0.500040  1
  W  W2  1  0.166671  0.166648  0.500011  1
  S  S3  1  0.577738  0.253166  0.271105  1
  S  S4  1  0.232564  0.567509  0.270974  1
  S  S5  1  0.918225  0.907983  0.271042  1
  S  S6  1  0.765917  0.755553  0.728990  1
  S  S7  1  0.425424  0.100776  0.729064  1
  S  S8  1  0.080072  0.414907  0.729052  1
