# generated using pymatgen
data_Ba2ThCu2Te5
_symmetry_space_group_name_H-M   'P 1'
_cell_length_a   4.54683557
_cell_length_b   7.95492778
_cell_length_c   10.17838358
_cell_angle_alpha   103.26246643
_cell_angle_beta   102.90630664
_cell_angle_gamma   106.60592155
_symmetry_Int_Tables_number   1
_chemical_formula_structural   Ba2ThCu2Te5
_chemical_formula_sum   'Ba2 Th1 Cu2 Te5'
_cell_volume   326.49680176
_cell_formula_units_Z   1
loop_
 _symmetry_equiv_pos_site_id
 _symmetry_equiv_pos_as_xyz
  1  'x, y, z'
loop_
 _atom_site_type_symbol
 _atom_site_label
 _atom_site_symmetry_multiplicity
 _atom_site_fract_x
 _atom_site_fract_y
 _atom_site_fract_z
 _atom_site_occupancy
  Ba  Ba0  1  0.480420  0.655291  0.305550  1
  Ba  Ba1  1  0.519580  0.344709  0.694450  1
  Th  Th2  1  0.000000  0.000000  0.000000  1
  Cu  Cu3  1  0.733003  0.181127  0.284878  1
  Cu  Cu4  1  0.266997  0.818873  0.715122  1
  Te  Te5  1  0.685160  0.305747  0.064573  1
  Te  Te6  1  0.167184  0.016155  0.318213  1
  Te  Te7  1  0.000001  0.500001  0.500000  1
  Te  Te8  1  0.832816  0.983845  0.681788  1
  Te  Te9  1  0.314841  0.694255  0.935427  1
