# generated using pymatgen
data_TbDyAg2(Pt2O7)2
_symmetry_space_group_name_H-M   'P 1'
_cell_length_a   7.24216154
_cell_length_b   7.24201693
_cell_length_c   7.16322800
_cell_angle_alpha   60.35924037
_cell_angle_beta   60.35989137
_cell_angle_gamma   61.46974131
_symmetry_Int_Tables_number   1
_chemical_formula_structural   TbDyAg2(Pt2O7)2
_chemical_formula_sum   'Tb1 Dy1 Ag2 Pt4 O14'
_cell_volume   269.96445812
_cell_formula_units_Z   1
loop_
 _symmetry_equiv_pos_site_id
 _symmetry_equiv_pos_as_xyz
  1  'x, y, z'
loop_
 _atom_site_type_symbol
 _atom_site_label
 _atom_site_symmetry_multiplicity
 _atom_site_fract_x
 _atom_site_fract_y
 _atom_site_fract_z
 _atom_site_occupancy
  Tb  Tb0  1  0.125000  0.625000  0.125000  1
  Dy  Dy1  1  0.625000  0.125000  0.125000  1
  Ag  Ag2  1  0.125000  0.125000  0.625000  1
  Ag  Ag3  1  0.125000  0.125000  0.125000  1
  Pt  Pt4  1  0.625000  0.625000  0.625000  1
  Pt  Pt5  1  0.125000  0.625000  0.625000  1
  Pt  Pt6  1  0.625000  0.125000  0.625000  1
  Pt  Pt7  1  0.625000  0.625000  0.125000  1
  O  O8  1  0.294316  0.695669  0.720358  1
  O  O9  1  0.554526  0.956056  0.960930  1
  O  O10  1  0.695474  0.293944  0.721512  1
  O  O11  1  0.295503  0.295819  0.704339  1
  O  O12  1  0.718165  0.719255  0.281290  1
  O  O13  1  0.011248  0.013134  0.987809  1
  O  O14  1  0.294316  0.695669  0.289657  1
  O  O15  1  0.955684  0.554331  0.960343  1
  O  O16  1  0.954497  0.954181  0.545661  1
  O  O17  1  0.531835  0.530745  0.968710  1
  O  O18  1  0.238752  0.236866  0.262191  1
  O  O19  1  0.554526  0.956056  0.528488  1
  O  O20  1  0.695474  0.293944  0.289070  1
  O  O21  1  0.955684  0.554331  0.529642  1
