# generated using pymatgen
data_Er4Lu8Tc3Ru
_symmetry_space_group_name_H-M   'P 1'
_cell_length_a   6.18067306
_cell_length_b   7.35694003
_cell_length_c   8.90582400
_cell_angle_alpha   90.00000000
_cell_angle_beta   90.00000000
_cell_angle_gamma   89.98708523
_symmetry_Int_Tables_number   1
_chemical_formula_structural   Er4Lu8Tc3Ru
_chemical_formula_sum   'Er4 Lu8 Tc3 Ru1'
_cell_volume   404.95529698
_cell_formula_units_Z   1
loop_
 _symmetry_equiv_pos_site_id
 _symmetry_equiv_pos_as_xyz
  1  'x, y, z'
loop_
 _atom_site_type_symbol
 _atom_site_label
 _atom_site_symmetry_multiplicity
 _atom_site_fract_x
 _atom_site_fract_y
 _atom_site_fract_z
 _atom_site_occupancy
  Er  Er0  1  0.875029  0.540226  0.250000  1
  Er  Er1  1  0.624472  0.038953  0.250000  1
  Er  Er2  1  0.129012  0.458366  0.750000  1
  Er  Er3  1  0.376070  0.958944  0.750000  1
  Lu  Lu4  1  0.339819  0.675718  0.062731  1
  Lu  Lu5  1  0.157368  0.175347  0.437621  1
  Lu  Lu6  1  0.658411  0.325438  0.562845  1
  Lu  Lu7  1  0.841586  0.824401  0.937489  1
  Lu  Lu8  1  0.658411  0.325438  0.937155  1
  Lu  Lu9  1  0.841586  0.824401  0.562511  1
  Lu  Lu10  1  0.339819  0.675718  0.437269  1
  Lu  Lu11  1  0.157368  0.175347  0.062379  1
  Tc  Tc12  1  0.042835  0.883001  0.250000  1
  Tc  Tc13  1  0.458448  0.384593  0.250000  1
  Tc  Tc14  1  0.958350  0.116718  0.750000  1
  Ru  Ru15  1  0.541413  0.617389  0.750000  1
