# generated using pymatgen
data_DyY2Nb3(B2Ru5)2
_symmetry_space_group_name_H-M   'P 1'
_cell_length_a   9.61423421
_cell_length_b   9.61423417
_cell_length_c   3.13174900
_cell_angle_alpha   90.00000000
_cell_angle_beta   90.00000000
_cell_angle_gamma   90.44614780
_symmetry_Int_Tables_number   1
_chemical_formula_structural   DyY2Nb3(B2Ru5)2
_chemical_formula_sum   'Dy1 Y2 Nb3 B4 Ru10'
_cell_volume   289.46974212
_cell_formula_units_Z   1
loop_
 _symmetry_equiv_pos_site_id
 _symmetry_equiv_pos_as_xyz
  1  'x, y, z'
loop_
 _atom_site_type_symbol
 _atom_site_label
 _atom_site_symmetry_multiplicity
 _atom_site_fract_x
 _atom_site_fract_y
 _atom_site_fract_z
 _atom_site_occupancy
  Dy  Dy0  1  0.325575  0.825575  0.000000  1
  Y  Y1  1  0.823769  0.675325  0.000000  1
  Y  Y2  1  0.175325  0.323769  0.000000  1
  Nb  Nb3  1  0.675880  0.175880  0.000000  1
  Nb  Nb4  1  0.498232  0.502766  0.000000  1
  Nb  Nb5  1  0.002766  0.998232  0.000000  1
  B  B6  1  0.623159  0.881229  0.000000  1
  B  B7  1  0.381229  0.123159  0.000000  1
  B  B8  1  0.118996  0.618996  0.000000  1
  B  B9  1  0.876146  0.376146  0.000000  1
  Ru  Ru10  1  0.570531  0.722743  0.500000  1
  Ru  Ru11  1  0.441486  0.279748  0.500000  1
  Ru  Ru12  1  0.069706  0.780231  0.500000  1
  Ru  Ru13  1  0.915320  0.213665  0.500000  1
  Ru  Ru14  1  0.280231  0.569706  0.500000  1
  Ru  Ru15  1  0.713665  0.415320  0.500000  1
  Ru  Ru16  1  0.222743  0.070531  0.500000  1
  Ru  Ru17  1  0.779748  0.941486  0.500000  1
  Ru  Ru18  1  0.509519  0.009519  0.500000  1
  Ru  Ru19  1  0.995973  0.495973  0.500000  1
