# generated using pymatgen
data_Tm3ZnFeRu4
_symmetry_space_group_name_H-M   'P 1'
_cell_length_a   5.21111785
_cell_length_b   5.17424185
_cell_length_c   13.08265161
_cell_angle_alpha   91.19424834
_cell_angle_beta   89.06963443
_cell_angle_gamma   117.96134852
_symmetry_Int_Tables_number   1
_chemical_formula_structural   Tm3ZnFeRu4
_chemical_formula_sum   'Tm6 Zn2 Fe2 Ru8'
_cell_volume   311.49995384
_cell_formula_units_Z   2
loop_
 _symmetry_equiv_pos_site_id
 _symmetry_equiv_pos_as_xyz
  1  'x, y, z'
loop_
 _atom_site_type_symbol
 _atom_site_label
 _atom_site_symmetry_multiplicity
 _atom_site_fract_x
 _atom_site_fract_y
 _atom_site_fract_z
 _atom_site_occupancy
  Tm  Tm0  1  0.336666  0.665356  0.910480  1
  Tm  Tm1  1  0.989027  0.993939  0.256653  1
  Tm  Tm2  1  0.668249  0.333508  0.584970  1
  Tm  Tm3  1  0.331751  0.666492  0.665030  1
  Tm  Tm4  1  0.010973  0.006061  0.993347  1
  Tm  Tm5  1  0.663334  0.334644  0.339520  1
  Zn  Zn6  1  0.500000  0.500000  0.125000  1
  Zn  Zn7  1  0.500000  0.000000  0.125000  1
  Fe  Fe8  1  0.168965  0.838760  0.459381  1
  Fe  Fe9  1  0.831035  0.161240  0.790619  1
  Ru  Ru10  1  0.170841  0.341351  0.457307  1
  Ru  Ru11  1  0.829159  0.658649  0.792693  1
  Ru  Ru12  1  0.321263  0.670774  0.291812  1
  Ru  Ru13  1  0.000000  0.000000  0.625000  1
  Ru  Ru14  1  0.678737  0.329226  0.958188  1
  Ru  Ru15  1  0.000000  0.500000  0.125000  1
  Ru  Ru16  1  0.669028  0.836192  0.460385  1
  Ru  Ru17  1  0.330972  0.163808  0.789615  1
