# generated using pymatgen
data_Yb4Sn4As2Rh7
_symmetry_space_group_name_H-M   'P 1'
_cell_length_a   7.43884398
_cell_length_b   7.43884479
_cell_length_c   7.48971144
_cell_angle_alpha   109.47506746
_cell_angle_beta   109.47507820
_cell_angle_gamma   109.18667018
_symmetry_Int_Tables_number   1
_chemical_formula_structural   Yb4Sn4As2Rh7
_chemical_formula_sum   'Yb4 Sn4 As2 Rh7'
_cell_volume   320.13001854
_cell_formula_units_Z   1
loop_
 _symmetry_equiv_pos_site_id
 _symmetry_equiv_pos_as_xyz
  1  'x, y, z'
loop_
 _atom_site_type_symbol
 _atom_site_label
 _atom_site_symmetry_multiplicity
 _atom_site_fract_x
 _atom_site_fract_y
 _atom_site_fract_z
 _atom_site_occupancy
  Yb  Yb0  1  0.460894  0.460894  0.466976  1
  Yb  Yb1  1  0.007354  0.507354  0.014708  1
  Yb  Yb2  1  0.507354  0.007354  0.014708  1
  Yb  Yb3  1  0.006082  0.006082  0.466976  1
  Sn  Sn4  1  0.701017  0.990266  0.691283  1
  Sn  Sn5  1  0.674041  0.674041  0.981565  1
  Sn  Sn6  1  0.307524  0.307524  0.981565  1
  Sn  Sn7  1  0.990266  0.701017  0.691283  1
  As  As8  1  0.993873  0.337480  0.331353  1
  As  As9  1  0.337480  0.993873  0.331353  1
  Rh  Rh10  1  0.502037  0.748403  0.250439  1
  Rh  Rh11  1  0.751242  0.251242  0.502484  1
  Rh  Rh12  1  0.251242  0.751242  0.502484  1
  Rh  Rh13  1  0.237292  0.502641  0.739932  1
  Rh  Rh14  1  0.021258  0.021258  0.042515  1
  Rh  Rh15  1  0.502641  0.237292  0.739932  1
  Rh  Rh16  1  0.748403  0.502037  0.250439  1
