# generated using pymatgen
data_Pr3Y13(CdPd)4
_symmetry_space_group_name_H-M   'P 1'
_cell_length_a   9.83754251
_cell_length_b   9.78439988
_cell_length_c   9.78440100
_cell_angle_alpha   59.99999961
_cell_angle_beta   60.17853678
_cell_angle_gamma   60.17853565
_symmetry_Int_Tables_number   1
_chemical_formula_structural   Pr3Y13(CdPd)4
_chemical_formula_sum   'Pr3 Y13 Cd4 Pd4'
_cell_volume   667.73905776
_cell_formula_units_Z   1
loop_
 _symmetry_equiv_pos_site_id
 _symmetry_equiv_pos_as_xyz
  1  'x, y, z'
loop_
 _atom_site_type_symbol
 _atom_site_label
 _atom_site_symmetry_multiplicity
 _atom_site_fract_x
 _atom_site_fract_y
 _atom_site_fract_z
 _atom_site_occupancy
  Pr  Pr0  1  0.355444  0.357091  0.357091  1
  Pr  Pr1  1  0.355444  0.357091  0.930374  1
  Pr  Pr2  1  0.355444  0.930374  0.357091  1
  Y  Y3  1  0.931531  0.356156  0.356156  1
  Y  Y4  1  0.813482  0.187218  0.187218  1
  Y  Y5  1  0.186557  0.813656  0.813656  1
  Y  Y6  1  0.186557  0.813656  0.186131  1
  Y  Y7  1  0.813482  0.187218  0.812083  1
  Y  Y8  1  0.186557  0.186131  0.813656  1
  Y  Y9  1  0.813482  0.812083  0.187218  1
  Y  Y10  1  0.932725  0.566403  0.566403  1
  Y  Y11  1  0.566464  0.932918  0.932918  1
  Y  Y12  1  0.566464  0.932918  0.567699  1
  Y  Y13  1  0.932725  0.566403  0.934469  1
  Y  Y14  1  0.566464  0.567699  0.932918  1
  Y  Y15  1  0.932725  0.934469  0.566403  1
  Cd  Cd16  1  0.589911  0.581394  0.581394  1
  Cd  Cd17  1  0.589911  0.581394  0.247302  1
  Cd  Cd18  1  0.589911  0.247302  0.581394  1
  Cd  Cd19  1  0.246005  0.584665  0.584665  1
  Pd  Pd20  1  0.139225  0.146442  0.146442  1
  Pd  Pd21  1  0.139225  0.146442  0.567890  1
  Pd  Pd22  1  0.139225  0.567890  0.146442  1
  Pd  Pd23  1  0.571039  0.142987  0.142987  1
