# generated using pymatgen
data_Th3GaC3
_symmetry_space_group_name_H-M   'P 1'
_cell_length_a   3.64132700
_cell_length_b   7.58052700
_cell_length_c   10.02652800
_cell_angle_alpha   90.00000000
_cell_angle_beta   90.00000000
_cell_angle_gamma   90.00000000
_symmetry_Int_Tables_number   1
_chemical_formula_structural   Th3GaC3
_chemical_formula_sum   'Th6 Ga2 C6'
_cell_volume   276.76403349
_cell_formula_units_Z   2
loop_
 _symmetry_equiv_pos_site_id
 _symmetry_equiv_pos_as_xyz
  1  'x, y, z'
loop_
 _atom_site_type_symbol
 _atom_site_label
 _atom_site_symmetry_multiplicity
 _atom_site_fract_x
 _atom_site_fract_y
 _atom_site_fract_z
 _atom_site_occupancy
  Th  Th0  1  0.500000  0.512461  0.195048  1
  Th  Th1  1  0.500000  0.487539  0.804952  1
  Th  Th2  1  0.500000  0.987539  0.195048  1
  Th  Th3  1  0.500000  0.012461  0.804952  1
  Th  Th4  1  0.000000  0.750000  0.477898  1
  Th  Th5  1  0.000000  0.250000  0.522102  1
  Ga  Ga6  1  0.000000  0.750000  0.996271  1
  Ga  Ga7  1  0.000000  0.250000  0.003729  1
  C  C8  1  0.500000  0.507273  0.568784  1
  C  C9  1  0.500000  0.492727  0.431216  1
  C  C10  1  0.500000  0.992727  0.568784  1
  C  C11  1  0.500000  0.007273  0.431216  1
  C  C12  1  0.000000  0.750000  0.213043  1
  C  C13  1  0.000000  0.250000  0.786957  1
