# generated using pymatgen
data_DyTm(MgIr4)2
_symmetry_space_group_name_H-M   'P 1'
_cell_length_a   5.28624800
_cell_length_b   5.28624708
_cell_length_c   8.56326500
_cell_angle_alpha   90.00000000
_cell_angle_beta   90.00000000
_cell_angle_gamma   120.00000574
_symmetry_Int_Tables_number   1
_chemical_formula_structural   DyTm(MgIr4)2
_chemical_formula_sum   'Dy1 Tm1 Mg2 Ir8'
_cell_volume   207.23589589
_cell_formula_units_Z   1
loop_
 _symmetry_equiv_pos_site_id
 _symmetry_equiv_pos_as_xyz
  1  'x, y, z'
loop_
 _atom_site_type_symbol
 _atom_site_label
 _atom_site_symmetry_multiplicity
 _atom_site_fract_x
 _atom_site_fract_y
 _atom_site_fract_z
 _atom_site_occupancy
  Dy  Dy0  1  0.333333  0.666667  0.069304  1
  Tm  Tm1  1  0.666667  0.333333  0.569434  1
  Mg  Mg2  1  0.666667  0.333333  0.935285  1
  Mg  Mg3  1  0.333333  0.666667  0.436330  1
  Ir  Ir4  1  0.000000  0.000000  0.996200  1
  Ir  Ir5  1  0.000000  0.000000  0.496403  1
  Ir  Ir6  1  0.828880  0.657760  0.250270  1
  Ir  Ir7  1  0.171024  0.828976  0.748745  1
  Ir  Ir8  1  0.657953  0.828976  0.748745  1
  Ir  Ir9  1  0.342240  0.171120  0.250270  1
  Ir  Ir10  1  0.828880  0.171120  0.250270  1
  Ir  Ir11  1  0.171024  0.342047  0.748745  1
