# generated using pymatgen
data_Ce2Sm5OsI12
_symmetry_space_group_name_H-M   'P 1'
_cell_length_a   10.04062667
_cell_length_b   10.02005491
_cell_length_c   10.07700800
_cell_angle_alpha   106.91966905
_cell_angle_beta   106.82437905
_cell_angle_gamma   107.28860455
_symmetry_Int_Tables_number   1
_chemical_formula_structural   Ce2Sm5OsI12
_chemical_formula_sum   'Ce2 Sm5 Os1 I12'
_cell_volume   844.05946322
_cell_formula_units_Z   1
loop_
 _symmetry_equiv_pos_site_id
 _symmetry_equiv_pos_as_xyz
  1  'x, y, z'
loop_
 _atom_site_type_symbol
 _atom_site_label
 _atom_site_symmetry_multiplicity
 _atom_site_fract_x
 _atom_site_fract_y
 _atom_site_fract_z
 _atom_site_occupancy
  Ce  Ce0  1  0.593883  0.784597  0.524180  1
  Ce  Ce1  1  0.406117  0.215403  0.475820  1
  Sm  Sm2  1  0.806335  0.524914  0.599496  1
  Sm  Sm3  1  0.525278  0.599495  0.805116  1
  Sm  Sm4  1  0.193665  0.475086  0.400504  1
  Sm  Sm5  1  0.474722  0.400505  0.194884  1
  Sm  Sm6  1  0.000000  0.000000  0.000000  1
  Os  Os7  1  0.500000  0.500000  0.500000  1
  I  I8  1  0.727003  0.185162  0.574554  1
  I  I9  1  0.965620  0.883014  0.662065  1
  I  I10  1  0.572162  0.721973  0.179266  1
  I  I11  1  0.115389  0.340518  0.037921  1
  I  I12  1  0.659164  0.960120  0.885994  1
  I  I13  1  0.884611  0.659482  0.962079  1
  I  I14  1  0.034380  0.116986  0.337935  1
  I  I15  1  0.818860  0.427349  0.275604  1
  I  I16  1  0.340836  0.039880  0.114006  1
  I  I17  1  0.272997  0.814838  0.425446  1
  I  I18  1  0.181140  0.572651  0.724396  1
  I  I19  1  0.427838  0.278027  0.820734  1
