# generated using pymatgen
data_V11Si4Mo
_symmetry_space_group_name_H-M   'P 1'
_cell_length_a   4.71945100
_cell_length_b   4.74203700
_cell_length_c   9.40987000
_cell_angle_alpha   90.00000000
_cell_angle_beta   90.00000000
_cell_angle_gamma   90.00000000
_symmetry_Int_Tables_number   1
_chemical_formula_structural   V11Si4Mo
_chemical_formula_sum   'V11 Si4 Mo1'
_cell_volume   210.59111460
_cell_formula_units_Z   1
loop_
 _symmetry_equiv_pos_site_id
 _symmetry_equiv_pos_as_xyz
  1  'x, y, z'
loop_
 _atom_site_type_symbol
 _atom_site_label
 _atom_site_symmetry_multiplicity
 _atom_site_fract_x
 _atom_site_fract_y
 _atom_site_fract_z
 _atom_site_occupancy
  V  V0  1  0.999797  0.500000  0.127229  1
  V  V1  1  0.998813  0.500000  0.627193  1
  V  V2  1  0.500850  0.252654  0.747305  1
  V  V3  1  0.500850  0.252654  0.252695  1
  V  V4  1  0.744755  0.000000  0.500000  1
  V  V5  1  0.999797  0.500000  0.872771  1
  V  V6  1  0.998813  0.500000  0.372807  1
  V  V7  1  0.500850  0.747346  0.747305  1
  V  V8  1  0.500850  0.747346  0.252695  1
  V  V9  1  0.249958  0.000000  0.000000  1
  V  V10  1  0.255302  0.000000  0.500000  1
  Si  Si11  1  0.494583  0.500000  0.000000  1
  Si  Si12  1  0.498417  0.500000  0.500000  1
  Si  Si13  1  0.002982  0.000000  0.747052  1
  Si  Si14  1  0.002982  0.000000  0.252948  1
  Mo  Mo15  1  0.750399  0.000000  0.000000  1
