# generated using pymatgen
data_Nd8Si12Ir2RhAu
_symmetry_space_group_name_H-M   'P 1'
_cell_length_a   8.27152700
_cell_length_b   8.27152631
_cell_length_c   8.53454700
_cell_angle_alpha   90.00000000
_cell_angle_beta   90.00000000
_cell_angle_gamma   119.99999877
_symmetry_Int_Tables_number   1
_chemical_formula_structural   Nd8Si12Ir2RhAu
_chemical_formula_sum   'Nd8 Si12 Ir2 Rh1 Au1'
_cell_volume   505.68777956
_cell_formula_units_Z   1
loop_
 _symmetry_equiv_pos_site_id
 _symmetry_equiv_pos_as_xyz
  1  'x, y, z'
loop_
 _atom_site_type_symbol
 _atom_site_label
 _atom_site_symmetry_multiplicity
 _atom_site_fract_x
 _atom_site_fract_y
 _atom_site_fract_z
 _atom_site_occupancy
  Nd  Nd0  1  0.000000  0.000000  0.750383  1
  Nd  Nd1  1  0.000000  0.000000  0.250543  1
  Nd  Nd2  1  0.496009  0.503991  0.744888  1
  Nd  Nd3  1  0.496009  0.992018  0.744888  1
  Nd  Nd4  1  0.007982  0.503991  0.744888  1
  Nd  Nd5  1  0.499072  0.500928  0.254971  1
  Nd  Nd6  1  0.001856  0.500928  0.254971  1
  Nd  Nd7  1  0.499072  0.998144  0.254971  1
  Si  Si8  1  0.839243  0.160757  0.001219  1
  Si  Si9  1  0.839243  0.678485  0.001219  1
  Si  Si10  1  0.321515  0.160757  0.001219  1
  Si  Si11  1  0.832439  0.167561  0.499127  1
  Si  Si12  1  0.832439  0.664880  0.499127  1
  Si  Si13  1  0.335120  0.167561  0.499127  1
  Si  Si14  1  0.166657  0.833343  0.500871  1
  Si  Si15  1  0.666686  0.833343  0.500871  1
  Si  Si16  1  0.166657  0.333314  0.500871  1
  Si  Si17  1  0.168347  0.831653  0.999041  1
  Si  Si18  1  0.663306  0.831653  0.999041  1
  Si  Si19  1  0.168347  0.336694  0.999041  1
  Ir  Ir20  1  0.666667  0.333333  0.506046  1
  Ir  Ir21  1  0.333333  0.666667  0.493682  1
  Rh  Rh22  1  0.333333  0.666667  0.005558  1
  Au  Au23  1  0.666667  0.333333  0.993440  1
