# generated using pymatgen
data_Nd4MnOs6Ru
_symmetry_space_group_name_H-M   'P 1'
_cell_length_a   5.39658000
_cell_length_b   5.39658104
_cell_length_c   9.03460200
_cell_angle_alpha   90.00000000
_cell_angle_beta   90.00000000
_cell_angle_gamma   120.00000587
_symmetry_Int_Tables_number   1
_chemical_formula_structural   Nd4MnOs6Ru
_chemical_formula_sum   'Nd4 Mn1 Os6 Ru1'
_cell_volume   227.86464928
_cell_formula_units_Z   1
loop_
 _symmetry_equiv_pos_site_id
 _symmetry_equiv_pos_as_xyz
  1  'x, y, z'
loop_
 _atom_site_type_symbol
 _atom_site_label
 _atom_site_symmetry_multiplicity
 _atom_site_fract_x
 _atom_site_fract_y
 _atom_site_fract_z
 _atom_site_occupancy
  Nd  Nd0  1  0.333333  0.666667  0.429208  1
  Nd  Nd1  1  0.666667  0.333333  0.570792  1
  Nd  Nd2  1  0.666667  0.333333  0.934671  1
  Nd  Nd3  1  0.333333  0.666667  0.065329  1
  Mn  Mn4  1  0.000000  0.000000  0.500000  1
  Os  Os5  1  0.830417  0.169583  0.252384  1
  Os  Os6  1  0.830417  0.660834  0.252384  1
  Os  Os7  1  0.339166  0.169583  0.252384  1
  Os  Os8  1  0.169583  0.830417  0.747616  1
  Os  Os9  1  0.169583  0.339166  0.747616  1
  Os  Os10  1  0.660834  0.830417  0.747616  1
  Ru  Ru11  1  0.000000  0.000000  0.000000  1
