# generated using pymatgen
data_DyTm7(InPd)2
_symmetry_space_group_name_H-M   'P 1'
_cell_length_a   9.61187351
_cell_length_b   9.61187415
_cell_length_c   9.60383800
_cell_angle_alpha   60.02765295
_cell_angle_beta   60.02765076
_cell_angle_gamma   59.94469193
_symmetry_Int_Tables_number   1
_chemical_formula_structural   DyTm7(InPd)2
_chemical_formula_sum   'Dy2 Tm14 In4 Pd4'
_cell_volume   627.40117810
_cell_formula_units_Z   2
loop_
 _symmetry_equiv_pos_site_id
 _symmetry_equiv_pos_as_xyz
  1  'x, y, z'
loop_
 _atom_site_type_symbol
 _atom_site_label
 _atom_site_symmetry_multiplicity
 _atom_site_fract_x
 _atom_site_fract_y
 _atom_site_fract_z
 _atom_site_occupancy
  Dy  Dy0  1  0.564348  0.564348  0.935652  1
  Dy  Dy1  1  0.935652  0.935652  0.564347  1
  Tm  Tm2  1  0.351300  0.351300  0.350900  1
  Tm  Tm3  1  0.351300  0.351300  0.946498  1
  Tm  Tm4  1  0.350900  0.946498  0.351300  1
  Tm  Tm5  1  0.946498  0.350900  0.351300  1
  Tm  Tm6  1  0.810916  0.189084  0.189084  1
  Tm  Tm7  1  0.189084  0.810916  0.810916  1
  Tm  Tm8  1  0.189084  0.810916  0.189084  1
  Tm  Tm9  1  0.810916  0.189084  0.810916  1
  Tm  Tm10  1  0.189110  0.189110  0.810890  1
  Tm  Tm11  1  0.810890  0.810890  0.189110  1
  Tm  Tm12  1  0.937893  0.562107  0.562107  1
  Tm  Tm13  1  0.562107  0.937893  0.937893  1
  Tm  Tm14  1  0.562107  0.937893  0.562107  1
  Tm  Tm15  1  0.937893  0.562106  0.937893  1
  In  In16  1  0.583441  0.583441  0.582790  1
  In  In17  1  0.583441  0.583441  0.250326  1
  In  In18  1  0.582790  0.250326  0.583441  1
  In  In19  1  0.250326  0.582790  0.583441  1
  Pd  Pd20  1  0.143977  0.143977  0.142554  1
  Pd  Pd21  1  0.143977  0.143977  0.569494  1
  Pd  Pd22  1  0.142554  0.569494  0.143977  1
  Pd  Pd23  1  0.569494  0.142554  0.143977  1
