# generated using pymatgen
data_Tb4Al3ZnPt4
_symmetry_space_group_name_H-M   'P 1'
_cell_length_a   4.44192000
_cell_length_b   6.86942728
_cell_length_c   7.82225780
_cell_angle_alpha   89.72551247
_cell_angle_beta   90.00000000
_cell_angle_gamma   90.00000000
_symmetry_Int_Tables_number   1
_chemical_formula_structural   Tb4Al3ZnPt4
_chemical_formula_sum   'Tb4 Al3 Zn1 Pt4'
_cell_volume   238.68130524
_cell_formula_units_Z   1
loop_
 _symmetry_equiv_pos_site_id
 _symmetry_equiv_pos_as_xyz
  1  'x, y, z'
loop_
 _atom_site_type_symbol
 _atom_site_label
 _atom_site_symmetry_multiplicity
 _atom_site_fract_x
 _atom_site_fract_y
 _atom_site_fract_z
 _atom_site_occupancy
  Tb  Tb0  1  0.250000  0.028833  0.686734  1
  Tb  Tb1  1  0.250000  0.528115  0.817984  1
  Tb  Tb2  1  0.750000  0.971011  0.315155  1
  Tb  Tb3  1  0.750000  0.467381  0.180245  1
  Al  Al4  1  0.250000  0.648888  0.436679  1
  Al  Al5  1  0.750000  0.852753  0.935714  1
  Al  Al6  1  0.750000  0.355132  0.561800  1
  Zn  Zn7  1  0.250000  0.152249  0.066864  1
  Pt  Pt8  1  0.250000  0.275868  0.392829  1
  Pt  Pt9  1  0.250000  0.765677  0.115064  1
  Pt  Pt10  1  0.750000  0.726753  0.615210  1
  Pt  Pt11  1  0.750000  0.227342  0.875722  1
