# generated using pymatgen
data_LaMnF7
_symmetry_space_group_name_H-M   'P 1'
_cell_length_a   5.67254100
_cell_length_b   9.14148054
_cell_length_c   12.21198898
_cell_angle_alpha   61.94157527
_cell_angle_beta   90.00000000
_cell_angle_gamma   90.00000000
_symmetry_Int_Tables_number   1
_chemical_formula_structural   LaMnF7
_chemical_formula_sum   'La4 Mn4 F28'
_cell_volume   558.83005429
_cell_formula_units_Z   4
loop_
 _symmetry_equiv_pos_site_id
 _symmetry_equiv_pos_as_xyz
  1  'x, y, z'
loop_
 _atom_site_type_symbol
 _atom_site_label
 _atom_site_symmetry_multiplicity
 _atom_site_fract_x
 _atom_site_fract_y
 _atom_site_fract_z
 _atom_site_occupancy
  La  La0  1  0.759810  0.806676  0.265194  1
  La  La1  1  0.259810  0.193324  0.234806  1
  La  La2  1  0.240190  0.193324  0.734806  1
  La  La3  1  0.740190  0.806676  0.765194  1
  Mn  Mn4  1  0.243331  0.725574  0.543337  1
  Mn  Mn5  1  0.743331  0.274426  0.956663  1
  Mn  Mn6  1  0.756669  0.274426  0.456663  1
  Mn  Mn7  1  0.256669  0.725574  0.043337  1
  F  F8  1  0.974284  0.714377  0.462110  1
  F  F9  1  0.474284  0.285623  0.037890  1
  F  F10  1  0.025716  0.285623  0.537890  1
  F  F11  1  0.525716  0.714377  0.962110  1
  F  F12  1  0.068588  0.708609  0.927382  1
  F  F13  1  0.568588  0.291391  0.572618  1
  F  F14  1  0.931412  0.291391  0.072618  1
  F  F15  1  0.431412  0.708609  0.427382  1
  F  F16  1  0.736564  0.502874  0.864349  1
  F  F17  1  0.236564  0.497126  0.635651  1
  F  F18  1  0.263436  0.497126  0.135651  1
  F  F19  1  0.763436  0.502874  0.364349  1
  F  F20  1  0.740512  0.047208  0.045116  1
  F  F21  1  0.240512  0.952792  0.454884  1
  F  F22  1  0.259488  0.952792  0.954884  1
  F  F23  1  0.759488  0.047208  0.545116  1
  F  F24  1  0.056787  0.740109  0.662841  1
  F  F25  1  0.556787  0.259891  0.837159  1
  F  F26  1  0.943213  0.259891  0.337159  1
  F  F27  1  0.443213  0.740109  0.162841  1
  F  F28  1  0.007659  0.269638  0.870216  1
  F  F29  1  0.507659  0.730362  0.629784  1
  F  F30  1  0.992341  0.730362  0.129784  1
  F  F31  1  0.492341  0.269638  0.370216  1
  F  F32  1  0.095771  0.967674  0.228740  1
  F  F33  1  0.595771  0.032326  0.271260  1
  F  F34  1  0.904229  0.032326  0.771260  1
  F  F35  1  0.404229  0.967674  0.728740  1
