# generated using pymatgen
data_Lu3Sn3PtRhAu
_symmetry_space_group_name_H-M   'P 1'
_cell_length_a   7.59902300
_cell_length_b   7.59902315
_cell_length_c   3.83263200
_cell_angle_alpha   90.00000000
_cell_angle_beta   90.00000000
_cell_angle_gamma   119.99998629
_symmetry_Int_Tables_number   1
_chemical_formula_structural   Lu3Sn3PtRhAu
_chemical_formula_sum   'Lu3 Sn3 Pt1 Rh1 Au1'
_cell_volume   191.66523217
_cell_formula_units_Z   1
loop_
 _symmetry_equiv_pos_site_id
 _symmetry_equiv_pos_as_xyz
  1  'x, y, z'
loop_
 _atom_site_type_symbol
 _atom_site_label
 _atom_site_symmetry_multiplicity
 _atom_site_fract_x
 _atom_site_fract_y
 _atom_site_fract_z
 _atom_site_occupancy
  Lu  Lu0  1  0.392735  0.403485  0.500000  1
  Lu  Lu1  1  0.596515  0.989250  0.500000  1
  Lu  Lu2  1  0.010750  0.607265  0.500000  1
  Sn  Sn3  1  0.742472  0.741453  0.000000  1
  Sn  Sn4  1  0.258547  0.001019  0.000000  1
  Sn  Sn5  1  0.998981  0.257528  0.000000  1
  Pt  Pt6  1  0.333333  0.666667  0.000000  1
  Rh  Rh7  1  0.000000  0.000000  0.500000  1
  Au  Au8  1  0.666667  0.333333  0.000000  1
