# generated using pymatgen
data_Ce2Dy9TmRu4
_symmetry_space_group_name_H-M   'P 1'
_cell_length_a   6.31877232
_cell_length_b   7.21670565
_cell_length_c   9.37098993
_cell_angle_alpha   90.10596001
_cell_angle_beta   90.24698970
_cell_angle_gamma   87.32807542
_symmetry_Int_Tables_number   1
_chemical_formula_structural   Ce2Dy9TmRu4
_chemical_formula_sum   'Ce2 Dy9 Tm1 Ru4'
_cell_volume   426.85476927
_cell_formula_units_Z   1
loop_
 _symmetry_equiv_pos_site_id
 _symmetry_equiv_pos_as_xyz
  1  'x, y, z'
loop_
 _atom_site_type_symbol
 _atom_site_label
 _atom_site_symmetry_multiplicity
 _atom_site_fract_x
 _atom_site_fract_y
 _atom_site_fract_z
 _atom_site_occupancy
  Ce  Ce0  1  0.651265  0.056216  0.250465  1
  Ce  Ce1  1  0.349030  0.943675  0.749919  1
  Dy  Dy2  1  0.133082  0.463489  0.749663  1
  Dy  Dy3  1  0.866610  0.535898  0.250180  1
  Dy  Dy4  1  0.169292  0.175534  0.062673  1
  Dy  Dy5  1  0.831682  0.825219  0.937192  1
  Dy  Dy6  1  0.667478  0.322889  0.931393  1
  Dy  Dy7  1  0.830413  0.825568  0.562545  1
  Dy  Dy8  1  0.333058  0.676492  0.067622  1
  Dy  Dy9  1  0.169132  0.174518  0.438104  1
  Dy  Dy10  1  0.331991  0.675821  0.433607  1
  Tm  Tm11  1  0.668140  0.324469  0.567209  1
  Ru  Ru12  1  0.467825  0.361903  0.253279  1
  Ru  Ru13  1  0.533077  0.637066  0.748343  1
  Ru  Ru14  1  0.984239  0.111506  0.748330  1
  Ru  Ru15  1  0.013684  0.889735  0.249476  1
