# generated using pymatgen
data_SmErAl20(RuRh)2
_symmetry_space_group_name_H-M   'P 1'
_cell_length_a   6.86212309
_cell_length_b   6.85686588
_cell_length_c   9.17539000
_cell_angle_alpha   90.00000000
_cell_angle_beta   90.00000000
_cell_angle_gamma   97.19170224
_symmetry_Int_Tables_number   1
_chemical_formula_structural   SmErAl20(RuRh)2
_chemical_formula_sum   'Sm1 Er1 Al20 Ru2 Rh2'
_cell_volume   428.33002446
_cell_formula_units_Z   1
loop_
 _symmetry_equiv_pos_site_id
 _symmetry_equiv_pos_as_xyz
  1  'x, y, z'
loop_
 _atom_site_type_symbol
 _atom_site_label
 _atom_site_symmetry_multiplicity
 _atom_site_fract_x
 _atom_site_fract_y
 _atom_site_fract_z
 _atom_site_occupancy
  Sm  Sm0  1  0.870812  0.124640  0.750000  1
  Er  Er1  1  0.132323  0.874081  0.250000  1
  Al  Al2  1  0.620449  0.375903  0.548620  1
  Al  Al3  1  0.378496  0.624710  0.450009  1
  Al  Al4  1  0.378496  0.624710  0.049991  1
  Al  Al5  1  0.620449  0.375903  0.951380  1
  Al  Al6  1  0.225289  0.223184  0.497635  1
  Al  Al7  1  0.775021  0.776320  0.499688  1
  Al  Al8  1  0.775021  0.776320  0.000312  1
  Al  Al9  1  0.225289  0.223184  0.002365  1
  Al  Al10  1  0.844494  0.154374  0.102610  1
  Al  Al11  1  0.156749  0.844225  0.899015  1
  Al  Al12  1  0.156749  0.844225  0.600985  1
  Al  Al13  1  0.844494  0.154374  0.397390  1
  Al  Al14  1  0.857048  0.590475  0.750000  1
  Al  Al15  1  0.143930  0.412845  0.250000  1
  Al  Al16  1  0.409932  0.140989  0.750000  1
  Al  Al17  1  0.587091  0.858090  0.250000  1
  Al  Al18  1  0.224727  0.481723  0.750000  1
  Al  Al19  1  0.776667  0.519783  0.250000  1
  Al  Al20  1  0.517160  0.777473  0.750000  1
  Al  Al21  1  0.481287  0.221423  0.250000  1
  Ru  Ru22  1  0.499187  0.999820  0.001546  1
  Ru  Ru23  1  0.499187  0.999820  0.498454  1
  Rh  Rh24  1  0.999827  0.500704  0.498611  1
  Rh  Rh25  1  0.999827  0.500704  0.001389  1
