# generated using pymatgen
data_LiCrFeF6
_symmetry_space_group_name_H-M   'P 1'
_cell_length_a   4.73186000
_cell_length_b   4.73186000
_cell_length_c   9.39357500
_cell_angle_alpha   90.00000000
_cell_angle_beta   90.00000000
_cell_angle_gamma   90.00000000
_symmetry_Int_Tables_number   1
_chemical_formula_structural   LiCrFeF6
_chemical_formula_sum   'Li2 Cr2 Fe2 F12'
_cell_volume   210.32683220
_cell_formula_units_Z   2
loop_
 _symmetry_equiv_pos_site_id
 _symmetry_equiv_pos_as_xyz
  1  'x, y, z'
loop_
 _atom_site_type_symbol
 _atom_site_label
 _atom_site_symmetry_multiplicity
 _atom_site_fract_x
 _atom_site_fract_y
 _atom_site_fract_z
 _atom_site_occupancy
  Li  Li0  1  0.500000  0.500000  0.830282  1
  Li  Li1  1  0.000000  0.000000  0.330282  1
  Cr  Cr2  1  0.500000  0.500000  0.166733  1
  Cr  Cr3  1  0.000000  0.000000  0.666733  1
  Fe  Fe4  1  0.500000  0.500000  0.501184  1
  Fe  Fe5  1  0.000000  0.000000  0.001184  1
  F  F6  1  0.192971  0.807029  0.508366  1
  F  F7  1  0.807029  0.192971  0.508366  1
  F  F8  1  0.692971  0.692971  0.008366  1
  F  F9  1  0.307029  0.307029  0.008366  1
  F  F10  1  0.194339  0.805661  0.821691  1
  F  F11  1  0.805661  0.194339  0.821691  1
  F  F12  1  0.694339  0.694339  0.321691  1
  F  F13  1  0.305661  0.305661  0.321691  1
  F  F14  1  0.791273  0.208727  0.168894  1
  F  F15  1  0.208727  0.791273  0.168894  1
  F  F16  1  0.291273  0.291273  0.668894  1
  F  F17  1  0.708727  0.708727  0.668894  1
