# generated using pymatgen
data_Ba8NbIr3O20
_symmetry_space_group_name_H-M   'P 1'
_cell_length_a   5.79619700
_cell_length_b   7.54305185
_cell_length_c   11.70264452
_cell_angle_alpha   89.79168702
_cell_angle_beta   90.00000000
_cell_angle_gamma   90.00000000
_symmetry_Int_Tables_number   1
_chemical_formula_structural   Ba8NbIr3O20
_chemical_formula_sum   'Ba8 Nb1 Ir3 O20'
_cell_volume   511.64810899
_cell_formula_units_Z   1
loop_
 _symmetry_equiv_pos_site_id
 _symmetry_equiv_pos_as_xyz
  1  'x, y, z'
loop_
 _atom_site_type_symbol
 _atom_site_label
 _atom_site_symmetry_multiplicity
 _atom_site_fract_x
 _atom_site_fract_y
 _atom_site_fract_z
 _atom_site_occupancy
  Ba  Ba0  1  0.750000  0.165122  0.583035  1
  Ba  Ba1  1  0.250000  0.828655  0.418658  1
  Ba  Ba2  1  0.750000  0.682436  0.917781  1
  Ba  Ba3  1  0.250000  0.338826  0.079054  1
  Ba  Ba4  1  0.250000  0.020673  0.789592  1
  Ba  Ba5  1  0.750000  0.975911  0.208680  1
  Ba  Ba6  1  0.250000  0.519514  0.715501  1
  Ba  Ba7  1  0.750000  0.476039  0.286529  1
  Nb  Nb8  1  0.750000  0.191113  0.929812  1
  Ir  Ir9  1  0.250000  0.328649  0.439157  1
  Ir  Ir10  1  0.750000  0.670298  0.561211  1
  Ir  Ir11  1  0.250000  0.830774  0.062079  1
  O  O12  1  0.489760  0.677005  0.114920  1
  O  O13  1  0.000324  0.331862  0.880840  1
  O  O14  1  0.010048  0.178788  0.387280  1
  O  O15  1  0.509828  0.820308  0.612760  1
  O  O16  1  0.499676  0.331862  0.880840  1
  O  O17  1  0.010240  0.677005  0.114920  1
  O  O18  1  0.990172  0.820308  0.612760  1
  O  O19  1  0.489952  0.178788  0.387280  1
  O  O20  1  0.750000  0.274836  0.094706  1
  O  O21  1  0.250000  0.714334  0.910158  1
  O  O22  1  0.750000  0.784141  0.409018  1
  O  O23  1  0.250000  0.214385  0.591649  1
  O  O24  1  0.999505  0.499175  0.499912  1
  O  O25  1  0.500495  0.499175  0.499912  1
  O  O26  1  0.488419  0.993150  0.002723  1
  O  O27  1  0.011581  0.993150  0.002723  1
  O  O28  1  0.250000  0.467972  0.302722  1
  O  O29  1  0.750000  0.532957  0.697458  1
  O  O30  1  0.250000  0.961988  0.201826  1
  O  O31  1  0.750000  0.020800  0.804505  1
