# generated using pymatgen
data_Y10Ga3NiBi2
_symmetry_space_group_name_H-M   'P 1'
_cell_length_a   8.63981863
_cell_length_b   8.63936102
_cell_length_c   8.80216599
_cell_angle_alpha   124.68527791
_cell_angle_beta   124.69271814
_cell_angle_gamma   80.81317757
_symmetry_Int_Tables_number   1
_chemical_formula_structural   Y10Ga3NiBi2
_chemical_formula_sum   'Y10 Ga3 Ni1 Bi2'
_cell_volume   430.90190563
_cell_formula_units_Z   1
loop_
 _symmetry_equiv_pos_site_id
 _symmetry_equiv_pos_as_xyz
  1  'x, y, z'
loop_
 _atom_site_type_symbol
 _atom_site_label
 _atom_site_symmetry_multiplicity
 _atom_site_fract_x
 _atom_site_fract_y
 _atom_site_fract_z
 _atom_site_occupancy
  Y  Y0  1  0.998248  0.995514  0.993735  1
  Y  Y1  1  0.504487  0.501751  0.006254  1
  Y  Y2  1  0.015907  0.501760  0.797519  1
  Y  Y3  1  0.718366  0.204227  0.202478  1
  Y  Y4  1  0.516571  0.702912  0.499980  1
  Y  Y5  1  0.197408  0.038757  0.499933  1
  Y  Y6  1  0.998230  0.484099  0.202476  1
  Y  Y7  1  0.295799  0.781634  0.797549  1
  Y  Y8  1  0.461219  0.302596  0.500033  1
  Y  Y9  1  0.797084  0.983427  0.500021  1
  Ga  Ga10  1  0.355359  0.856110  0.211465  1
  Ga  Ga11  1  0.643886  0.144616  0.788519  1
  Ga  Ga12  1  0.865094  0.634910  0.500008  1
  Ni  Ni13  1  0.123398  0.376604  0.500002  1
  Bi  Bi14  1  0.754485  0.745530  0.000013  1
  Bi  Bi15  1  0.254459  0.245552  0.000016  1
