# generated using pymatgen
data_SrHg3(Pt2O7)2
_symmetry_space_group_name_H-M   'P 1'
_cell_length_a   7.33442493
_cell_length_b   7.40143180
_cell_length_c   7.33442400
_cell_angle_alpha   60.29902452
_cell_angle_beta   59.99999516
_cell_angle_gamma   60.29902611
_symmetry_Int_Tables_number   1
_chemical_formula_structural   SrHg3(Pt2O7)2
_chemical_formula_sum   'Sr1 Hg3 Pt4 O14'
_cell_volume   282.80103967
_cell_formula_units_Z   1
loop_
 _symmetry_equiv_pos_site_id
 _symmetry_equiv_pos_as_xyz
  1  'x, y, z'
loop_
 _atom_site_type_symbol
 _atom_site_label
 _atom_site_symmetry_multiplicity
 _atom_site_fract_x
 _atom_site_fract_y
 _atom_site_fract_z
 _atom_site_occupancy
  Sr  Sr0  1  0.125000  0.625000  0.125000  1
  Hg  Hg1  1  0.125000  0.125000  0.125000  1
  Hg  Hg2  1  0.625000  0.125000  0.125000  1
  Hg  Hg3  1  0.125000  0.125000  0.625000  1
  Pt  Pt4  1  0.625000  0.625000  0.125000  1
  Pt  Pt5  1  0.625000  0.625000  0.625000  1
  Pt  Pt6  1  0.625000  0.125000  0.625000  1
  Pt  Pt7  1  0.125000  0.625000  0.625000  1
  O  O8  1  0.701140  0.299503  0.298216  1
  O  O9  1  0.701140  0.299503  0.701140  1
  O  O10  1  0.986855  0.039434  0.986855  1
  O  O11  1  0.297936  0.702435  0.297936  1
  O  O12  1  0.701692  0.702435  0.297936  1
  O  O13  1  0.952064  0.547565  0.548308  1
  O  O14  1  0.297936  0.702435  0.701692  1
  O  O15  1  0.263145  0.210566  0.263145  1
  O  O16  1  0.952064  0.547565  0.952064  1
  O  O17  1  0.548860  0.950497  0.548860  1
  O  O18  1  0.548308  0.547565  0.952064  1
  O  O19  1  0.951784  0.950497  0.548860  1
  O  O20  1  0.548860  0.950497  0.951784  1
  O  O21  1  0.298216  0.299503  0.701140  1
