# generated using pymatgen
data_Ce4Dy3Ho3(CoBi2)2
_symmetry_space_group_name_H-M   'P 1'
_cell_length_a   7.93009506
_cell_length_b   9.05333500
_cell_length_c   12.19115208
_cell_angle_alpha   90.00000000
_cell_angle_beta   89.98650286
_cell_angle_gamma   90.00000000
_symmetry_Int_Tables_number   1
_chemical_formula_structural   Ce4Dy3Ho3(CoBi2)2
_chemical_formula_sum   'Ce8 Dy6 Ho6 Co4 Bi8'
_cell_volume   875.24919698
_cell_formula_units_Z   2
loop_
 _symmetry_equiv_pos_site_id
 _symmetry_equiv_pos_as_xyz
  1  'x, y, z'
loop_
 _atom_site_type_symbol
 _atom_site_label
 _atom_site_symmetry_multiplicity
 _atom_site_fract_x
 _atom_site_fract_y
 _atom_site_fract_z
 _atom_site_occupancy
  Ce  Ce0  1  0.655847  0.013123  0.551360  1
  Ce  Ce1  1  0.344153  0.986877  0.448640  1
  Ce  Ce2  1  0.155976  0.986651  0.948631  1
  Ce  Ce3  1  0.344153  0.513123  0.448640  1
  Ce  Ce4  1  0.844024  0.013349  0.051369  1
  Ce  Ce5  1  0.655847  0.486877  0.551360  1
  Ce  Ce6  1  0.844024  0.486651  0.051369  1
  Ce  Ce7  1  0.155976  0.513349  0.948631  1
  Dy  Dy8  1  0.867360  0.250000  0.798319  1
  Dy  Dy9  1  0.132640  0.750000  0.201681  1
  Dy  Dy10  1  0.979493  0.750000  0.499983  1
  Dy  Dy11  1  0.020507  0.250000  0.500017  1
  Dy  Dy12  1  0.479532  0.250000  0.000038  1
  Dy  Dy13  1  0.520468  0.750000  0.999962  1
  Ho  Ho14  1  0.837059  0.750000  0.791373  1
  Ho  Ho15  1  0.162941  0.250000  0.208627  1
  Ho  Ho16  1  0.336989  0.250000  0.708637  1
  Ho  Ho17  1  0.663011  0.750000  0.291363  1
  Ho  Ho18  1  0.367891  0.750000  0.701540  1
  Ho  Ho19  1  0.632109  0.250000  0.298460  1
  Co  Co20  1  0.629777  0.750000  0.538805  1
  Co  Co21  1  0.370223  0.250000  0.461195  1
  Co  Co22  1  0.129970  0.250000  0.961477  1
  Co  Co23  1  0.870030  0.750000  0.038523  1
  Bi  Bi24  1  0.567091  0.493943  0.825167  1
  Bi  Bi25  1  0.432909  0.506057  0.174833  1
  Bi  Bi26  1  0.067635  0.506433  0.674754  1
  Bi  Bi27  1  0.432909  0.993943  0.174833  1
  Bi  Bi28  1  0.932365  0.493567  0.325246  1
  Bi  Bi29  1  0.567091  0.006057  0.825167  1
  Bi  Bi30  1  0.932365  0.006433  0.325246  1
  Bi  Bi31  1  0.067635  0.993567  0.674754  1
