# generated using pymatgen
data_Y2Ho6CdIn7
_symmetry_space_group_name_H-M   'P 1'
_cell_length_a   6.52351000
_cell_length_b   6.52328057
_cell_length_c   10.74422100
_cell_angle_alpha   90.00000000
_cell_angle_beta   90.00000000
_cell_angle_gamma   109.84634190
_symmetry_Int_Tables_number   1
_chemical_formula_structural   Y2Ho6CdIn7
_chemical_formula_sum   'Y2 Ho6 Cd1 In7'
_cell_volume   430.06122892
_cell_formula_units_Z   1
loop_
 _symmetry_equiv_pos_site_id
 _symmetry_equiv_pos_as_xyz
  1  'x, y, z'
loop_
 _atom_site_type_symbol
 _atom_site_label
 _atom_site_symmetry_multiplicity
 _atom_site_fract_x
 _atom_site_fract_y
 _atom_site_fract_z
 _atom_site_occupancy
  Y  Y0  1  0.997546  0.997030  0.250000  1
  Y  Y1  1  0.002893  0.002902  0.750000  1
  Ho  Ho2  1  0.501347  0.501130  0.250000  1
  Ho  Ho3  1  0.498504  0.498600  0.750000  1
  Ho  Ho4  1  0.252211  0.749742  0.498704  1
  Ho  Ho5  1  0.252211  0.749742  0.001296  1
  Ho  Ho6  1  0.747680  0.250245  0.498719  1
  Ho  Ho7  1  0.747680  0.250245  0.001281  1
  Cd  Cd8  1  0.498215  0.000710  0.250000  1
  In  In9  1  0.250151  0.247799  0.003201  1
  In  In10  1  0.749945  0.752363  0.001031  1
  In  In11  1  0.250151  0.247799  0.496799  1
  In  In12  1  0.749945  0.752363  0.498969  1
  In  In13  1  0.999156  0.501623  0.750000  1
  In  In14  1  0.501549  0.999214  0.750000  1
  In  In15  1  0.000814  0.498493  0.250000  1
