# generated using pymatgen
data_Y3Sc2AlPd3
_symmetry_space_group_name_H-M   'P 1'
_cell_length_a   7.17693900
_cell_length_b   7.21902480
_cell_length_c   4.44354400
_cell_angle_alpha   90.00000000
_cell_angle_beta   90.00000000
_cell_angle_gamma   119.80735066
_symmetry_Int_Tables_number   1
_chemical_formula_structural   Y3Sc2AlPd3
_chemical_formula_sum   'Y3 Sc2 Al1 Pd3'
_cell_volume   199.76422543
_cell_formula_units_Z   1
loop_
 _symmetry_equiv_pos_site_id
 _symmetry_equiv_pos_as_xyz
  1  'x, y, z'
loop_
 _atom_site_type_symbol
 _atom_site_label
 _atom_site_symmetry_multiplicity
 _atom_site_fract_x
 _atom_site_fract_y
 _atom_site_fract_z
 _atom_site_occupancy
  Y  Y0  1  0.411335  0.393051  0.500000  1
  Y  Y1  1  0.571025  0.000000  0.500000  1
  Y  Y2  1  0.018284  0.606949  0.500000  1
  Sc  Sc3  1  0.007778  0.252164  0.000000  1
  Sc  Sc4  1  0.755614  0.747836  0.000000  1
  Al  Al5  1  0.242771  0.000000  0.000000  1
  Pd  Pd6  1  0.659058  0.322013  0.000000  1
  Pd  Pd7  1  0.997090  0.000000  0.500000  1
  Pd  Pd8  1  0.337044  0.677987  0.000000  1
