# generated using pymatgen
data_Pr7Er(Si3Ir)4
_symmetry_space_group_name_H-M   'P 1'
_cell_length_a   8.28603400
_cell_length_b   8.27350274
_cell_length_c   8.40788700
_cell_angle_alpha   90.00000000
_cell_angle_beta   90.00000000
_cell_angle_gamma   120.04962425
_symmetry_Int_Tables_number   1
_chemical_formula_structural   Pr7Er(Si3Ir)4
_chemical_formula_sum   'Pr7 Er1 Si12 Ir4'
_cell_volume   498.92611821
_cell_formula_units_Z   1
loop_
 _symmetry_equiv_pos_site_id
 _symmetry_equiv_pos_as_xyz
  1  'x, y, z'
loop_
 _atom_site_type_symbol
 _atom_site_label
 _atom_site_symmetry_multiplicity
 _atom_site_fract_x
 _atom_site_fract_y
 _atom_site_fract_z
 _atom_site_occupancy
  Pr  Pr0  1  0.000107  0.000212  0.250000  1
  Pr  Pr1  1  0.999809  0.999615  0.750000  1
  Pr  Pr2  1  0.495011  0.505133  0.250000  1
  Pr  Pr3  1  0.496288  0.992575  0.250000  1
  Pr  Pr4  1  0.010118  0.505132  0.250000  1
  Pr  Pr5  1  0.507073  0.492927  0.750000  1
  Pr  Pr6  1  0.985860  0.492929  0.750000  1
  Er  Er7  1  0.503920  0.007841  0.750000  1
  Si  Si8  1  0.831833  0.165626  0.506382  1
  Si  Si9  1  0.833359  0.666720  0.500657  1
  Si  Si10  1  0.333793  0.165627  0.506381  1
  Si  Si11  1  0.831833  0.165626  0.993618  1
  Si  Si12  1  0.833359  0.666720  0.999343  1
  Si  Si13  1  0.333793  0.165627  0.993619  1
  Si  Si14  1  0.168310  0.833368  0.000064  1
  Si  Si15  1  0.665057  0.833368  0.000063  1
  Si  Si16  1  0.167841  0.335681  0.000813  1
  Si  Si17  1  0.168310  0.833368  0.499936  1
  Si  Si18  1  0.665057  0.833368  0.499937  1
  Si  Si19  1  0.167841  0.335681  0.499187  1
  Ir  Ir20  1  0.665539  0.331077  0.485149  1
  Ir  Ir21  1  0.665539  0.331077  0.014851  1
  Ir  Ir22  1  0.335174  0.670350  0.968705  1
  Ir  Ir23  1  0.335174  0.670350  0.531295  1
