# generated using pymatgen
data_Ce4AsPt5Rh7
_symmetry_space_group_name_H-M   'P 1'
_cell_length_a   7.31221868
_cell_length_b   7.31221899
_cell_length_c   7.31221946
_cell_angle_alpha   108.63854808
_cell_angle_beta   109.88915762
_cell_angle_gamma   109.88915010
_symmetry_Int_Tables_number   1
_chemical_formula_structural   Ce4AsPt5Rh7
_chemical_formula_sum   'Ce4 As1 Pt5 Rh7'
_cell_volume   300.92413055
_cell_formula_units_Z   1
loop_
 _symmetry_equiv_pos_site_id
 _symmetry_equiv_pos_as_xyz
  1  'x, y, z'
loop_
 _atom_site_type_symbol
 _atom_site_label
 _atom_site_symmetry_multiplicity
 _atom_site_fract_x
 _atom_site_fract_y
 _atom_site_fract_z
 _atom_site_occupancy
  Ce  Ce0  1  0.993164  0.996581  0.496581  1
  Ce  Ce1  1  0.006836  0.503419  0.003419  1
  Ce  Ce2  1  0.500000  0.996581  0.003419  1
  Ce  Ce3  1  0.500000  0.503419  0.496581  1
  As  As4  1  0.000000  0.000000  0.000000  1
  Pt  Pt5  1  0.750488  0.251322  0.500835  1
  Pt  Pt6  1  0.750488  0.499165  0.249654  1
  Pt  Pt7  1  0.500000  0.250000  0.750000  1
  Pt  Pt8  1  0.249512  0.499165  0.748678  1
  Pt  Pt9  1  0.249512  0.750346  0.500835  1
  Rh  Rh10  1  0.500000  0.750000  0.250000  1
  Rh  Rh11  1  0.717410  0.716183  0.998774  1
  Rh  Rh12  1  0.282590  0.001226  0.283817  1
  Rh  Rh13  1  0.000000  0.280151  0.280151  1
  Rh  Rh14  1  0.282590  0.281363  0.998774  1
  Rh  Rh15  1  0.717410  0.001226  0.718637  1
  Rh  Rh16  1  0.000000  0.719849  0.719849  1
