# generated using pymatgen
data_Dy3Fe8Os
_symmetry_space_group_name_H-M   'P 1'
_cell_length_a   5.11771459
_cell_length_b   5.11771466
_cell_length_c   8.74362229
_cell_angle_alpha   72.98308576
_cell_angle_beta   72.98308542
_cell_angle_gamma   60.00000043
_symmetry_Int_Tables_number   1
_chemical_formula_structural   Dy3Fe8Os
_chemical_formula_sum   'Dy3 Fe8 Os1'
_cell_volume   186.65652548
_cell_formula_units_Z   1
loop_
 _symmetry_equiv_pos_site_id
 _symmetry_equiv_pos_as_xyz
  1  'x, y, z'
loop_
 _atom_site_type_symbol
 _atom_site_label
 _atom_site_symmetry_multiplicity
 _atom_site_fract_x
 _atom_site_fract_y
 _atom_site_fract_z
 _atom_site_occupancy
  Dy  Dy0  1  0.141835  0.141835  0.574495  1
  Dy  Dy1  1  0.858165  0.858165  0.425505  1
  Dy  Dy2  1  0.000000  0.000000  0.000000  1
  Fe  Fe3  1  0.077880  0.581771  0.758577  1
  Fe  Fe4  1  0.581771  0.581771  0.758577  1
  Fe  Fe5  1  0.581771  0.077880  0.758577  1
  Fe  Fe6  1  0.922120  0.418229  0.241423  1
  Fe  Fe7  1  0.418229  0.418229  0.241423  1
  Fe  Fe8  1  0.418229  0.922120  0.241423  1
  Fe  Fe9  1  0.332781  0.332781  0.001657  1
  Fe  Fe10  1  0.667218  0.667218  0.998343  1
  Os  Os11  1  0.500000  0.500000  0.500000  1
