# generated using pymatgen
data_Sm3Ho3CoP12Rh17
_symmetry_space_group_name_H-M   'P 1'
_cell_length_a   3.91463100
_cell_length_b   11.20301225
_cell_length_c   12.83950930
_cell_angle_alpha   90.02443386
_cell_angle_beta   90.00000000
_cell_angle_gamma   90.00000000
_symmetry_Int_Tables_number   1
_chemical_formula_structural   Sm3Ho3CoP12Rh17
_chemical_formula_sum   'Sm3 Ho3 Co1 P12 Rh17'
_cell_volume   563.08509088
_cell_formula_units_Z   1
loop_
 _symmetry_equiv_pos_site_id
 _symmetry_equiv_pos_as_xyz
  1  'x, y, z'
loop_
 _atom_site_type_symbol
 _atom_site_label
 _atom_site_symmetry_multiplicity
 _atom_site_fract_x
 _atom_site_fract_y
 _atom_site_fract_z
 _atom_site_occupancy
  Sm  Sm0  1  0.000000  0.499921  0.520669  1
  Sm  Sm1  1  0.500000  0.999804  0.478174  1
  Sm  Sm2  1  0.000000  0.687989  0.797243  1
  Ho  Ho3  1  0.500000  0.818014  0.202768  1
  Ho  Ho4  1  0.500000  0.182705  0.203230  1
  Ho  Ho5  1  0.000000  0.311926  0.797446  1
  Co  Co6  1  0.500000  0.000803  0.023154  1
  P  P7  1  0.500000  0.313785  0.619920  1
  P  P8  1  0.500000  0.685241  0.617702  1
  P  P9  1  0.000000  0.185491  0.380486  1
  P  P10  1  0.000000  0.814669  0.379413  1
  P  P11  1  0.500000  0.498719  0.880248  1
  P  P12  1  0.000000  0.000649  0.119771  1
  P  P13  1  0.500000  0.857728  0.896684  1
  P  P14  1  0.500000  0.144642  0.896246  1
  P  P15  1  0.000000  0.656698  0.106215  1
  P  P16  1  0.000000  0.343949  0.106864  1
  P  P17  1  0.500000  0.500117  0.347971  1
  P  P18  1  0.000000  0.999534  0.649862  1
  Rh  Rh19  1  0.000000  0.499184  0.981340  1
  Rh  Rh20  1  0.500000  0.292334  0.429708  1
  Rh  Rh21  1  0.500000  0.706824  0.428680  1
  Rh  Rh22  1  0.000000  0.206713  0.570192  1
  Rh  Rh23  1  0.000000  0.793037  0.568459  1
  Rh  Rh24  1  0.500000  0.875566  0.710218  1
  Rh  Rh25  1  0.500000  0.127380  0.712937  1
  Rh  Rh26  1  0.000000  0.627921  0.286201  1
  Rh  Rh27  1  0.000000  0.371890  0.287404  1
  Rh  Rh28  1  0.500000  0.330681  0.993933  1
  Rh  Rh29  1  0.500000  0.668567  0.996119  1
  Rh  Rh30  1  0.000000  0.160216  0.006014  1
  Rh  Rh31  1  0.000000  0.840719  0.006680  1
  Rh  Rh32  1  0.500000  0.497976  0.167503  1
  Rh  Rh33  1  0.000000  0.999668  0.830794  1
  Rh  Rh34  1  0.500000  0.498569  0.703340  1
  Rh  Rh35  1  0.000000  0.000371  0.296409  1
