# generated using pymatgen
data_Ac7Pr9(ErPb4)4
_symmetry_space_group_name_H-M   'P 1'
_cell_length_a   8.57064883
_cell_length_b   16.55447731
_cell_length_c   8.67925400
_cell_angle_alpha   90.09217111
_cell_angle_beta   89.61070934
_cell_angle_gamma   90.29793827
_symmetry_Int_Tables_number   1
_chemical_formula_structural   Ac7Pr9(ErPb4)4
_chemical_formula_sum   'Ac7 Pr9 Er4 Pb16'
_cell_volume   1231.38862681
_cell_formula_units_Z   1
loop_
 _symmetry_equiv_pos_site_id
 _symmetry_equiv_pos_as_xyz
  1  'x, y, z'
loop_
 _atom_site_type_symbol
 _atom_site_label
 _atom_site_symmetry_multiplicity
 _atom_site_fract_x
 _atom_site_fract_y
 _atom_site_fract_z
 _atom_site_occupancy
  Ac  Ac0  1  0.978103  0.901142  0.821656  1
  Ac  Ac1  1  0.521533  0.096957  0.322317  1
  Ac  Ac2  1  0.023620  0.403736  0.178745  1
  Ac  Ac3  1  0.523210  0.403336  0.324431  1
  Ac  Ac4  1  0.021325  0.096768  0.177745  1
  Ac  Ac5  1  0.478977  0.902618  0.677364  1
  Ac  Ac6  1  0.977024  0.597146  0.820280  1
  Pr  Pr7  1  0.634281  0.620805  0.155196  1
  Pr  Pr8  1  0.137031  0.878489  0.344530  1
  Pr  Pr9  1  0.363902  0.121872  0.843858  1
  Pr  Pr10  1  0.865368  0.381101  0.653992  1
  Pr  Pr11  1  0.367284  0.379579  0.844589  1
  Pr  Pr12  1  0.863307  0.120899  0.655467  1
  Pr  Pr13  1  0.635678  0.876662  0.155976  1
  Pr  Pr14  1  0.135371  0.619265  0.345425  1
  Pr  Pr15  1  0.473831  0.600476  0.676879  1
  Er  Er16  1  0.800088  0.748654  0.495912  1
  Er  Er17  1  0.300466  0.748651  0.002148  1
  Er  Er18  1  0.200082  0.251106  0.504603  1
  Er  Er19  1  0.700122  0.250195  0.996552  1
  Pb  Pb20  1  0.703328  0.452943  0.960671  1
  Pb  Pb21  1  0.202085  0.046997  0.542044  1
  Pb  Pb22  1  0.298795  0.951938  0.039754  1
  Pb  Pb23  1  0.787668  0.549949  0.465041  1
  Pb  Pb24  1  0.298654  0.548829  0.034038  1
  Pb  Pb25  1  0.798070  0.952565  0.457366  1
  Pb  Pb26  1  0.701430  0.046546  0.959683  1
  Pb  Pb27  1  0.209462  0.455800  0.544998  1
  Pb  Pb28  1  0.441450  0.748016  0.370668  1
  Pb  Pb29  1  0.943549  0.748981  0.131511  1
  Pb  Pb30  1  0.558266  0.250327  0.632111  1
  Pb  Pb31  1  0.056403  0.251323  0.867486  1
  Pb  Pb32  1  0.663492  0.747094  0.846361  1
  Pb  Pb33  1  0.172588  0.748784  0.648744  1
  Pb  Pb34  1  0.331930  0.250177  0.151060  1
  Pb  Pb35  1  0.832227  0.250268  0.350798  1
