# generated using pymatgen
data_DyEr3(Tm2Rh)4
_symmetry_space_group_name_H-M   'P 1'
_cell_length_a   6.25200600
_cell_length_b   7.12138535
_cell_length_c   9.25505700
_cell_angle_alpha   90.00000000
_cell_angle_beta   90.00000000
_cell_angle_gamma   89.98148432
_symmetry_Int_Tables_number   1
_chemical_formula_structural   DyEr3(Tm2Rh)4
_chemical_formula_sum   'Dy1 Er3 Tm8 Rh4'
_cell_volume   412.06236245
_cell_formula_units_Z   1
loop_
 _symmetry_equiv_pos_site_id
 _symmetry_equiv_pos_as_xyz
  1  'x, y, z'
loop_
 _atom_site_type_symbol
 _atom_site_label
 _atom_site_symmetry_multiplicity
 _atom_site_fract_x
 _atom_site_fract_y
 _atom_site_fract_z
 _atom_site_occupancy
  Dy  Dy0  1  0.868396  0.966178  0.750000  1
  Er  Er1  1  0.368153  0.534152  0.250000  1
  Er  Er2  1  0.631667  0.465847  0.750000  1
  Er  Er3  1  0.131854  0.034111  0.250000  1
  Tm  Tm4  1  0.672575  0.178565  0.062875  1
  Tm  Tm5  1  0.172556  0.321650  0.937272  1
  Tm  Tm6  1  0.827448  0.678362  0.437169  1
  Tm  Tm7  1  0.327522  0.821431  0.562572  1
  Tm  Tm8  1  0.327522  0.821431  0.937428  1
  Tm  Tm9  1  0.827448  0.678362  0.062831  1
  Tm  Tm10  1  0.172556  0.321650  0.562728  1
  Tm  Tm11  1  0.672575  0.178565  0.437125  1
  Rh  Rh12  1  0.052680  0.615510  0.750000  1
  Rh  Rh13  1  0.552351  0.884089  0.250000  1
  Rh  Rh14  1  0.447025  0.116256  0.750000  1
  Rh  Rh15  1  0.947671  0.383841  0.250000  1
