# generated using pymatgen
data_YSi3AsRh6
_symmetry_space_group_name_H-M   'P 1'
_cell_length_a   7.10569428
_cell_length_b   7.10569377
_cell_length_c   3.78928300
_cell_angle_alpha   90.00000000
_cell_angle_beta   90.00000000
_cell_angle_gamma   119.89806540
_symmetry_Int_Tables_number   1
_chemical_formula_structural   YSi3AsRh6
_chemical_formula_sum   'Y1 Si3 As1 Rh6'
_cell_volume   165.86160071
_cell_formula_units_Z   1
loop_
 _symmetry_equiv_pos_site_id
 _symmetry_equiv_pos_as_xyz
  1  'x, y, z'
loop_
 _atom_site_type_symbol
 _atom_site_label
 _atom_site_symmetry_multiplicity
 _atom_site_fract_x
 _atom_site_fract_y
 _atom_site_fract_z
 _atom_site_occupancy
  Y  Y0  1  0.005473  0.994527  0.000000  1
  Si  Si1  1  0.799537  0.604878  0.500000  1
  Si  Si2  1  0.333442  0.666558  0.000000  1
  Si  Si3  1  0.395122  0.200463  0.500000  1
  As  As4  1  0.806677  0.193323  0.500000  1
  Rh  Rh5  1  0.524089  0.064562  0.000000  1
  Rh  Rh6  1  0.599318  0.796250  0.500000  1
  Rh  Rh7  1  0.203750  0.400682  0.500000  1
  Rh  Rh8  1  0.533652  0.466348  0.000000  1
  Rh  Rh9  1  0.196837  0.803163  0.500000  1
  Rh  Rh10  1  0.935438  0.475911  0.000000  1
