# generated using pymatgen
data_B4Pd5Pt7
_symmetry_space_group_name_H-M   'P 1'
_cell_length_a   4.90127297
_cell_length_b   5.56276980
_cell_length_c   7.84741265
_cell_angle_alpha   90.13215589
_cell_angle_beta   89.89243045
_cell_angle_gamma   90.12194127
_symmetry_Int_Tables_number   1
_chemical_formula_structural   B4Pd5Pt7
_chemical_formula_sum   'B4 Pd5 Pt7'
_cell_volume   213.95555652
_cell_formula_units_Z   1
loop_
 _symmetry_equiv_pos_site_id
 _symmetry_equiv_pos_as_xyz
  1  'x, y, z'
loop_
 _atom_site_type_symbol
 _atom_site_label
 _atom_site_symmetry_multiplicity
 _atom_site_fract_x
 _atom_site_fract_y
 _atom_site_fract_z
 _atom_site_occupancy
  B  B0  1  0.582486  0.104963  0.753303  1
  B  B1  1  0.079138  0.396881  0.250941  1
  B  B2  1  0.917954  0.604461  0.751614  1
  B  B3  1  0.419081  0.891260  0.251557  1
  Pd  Pd4  1  0.831390  0.040040  0.247936  1
  Pd  Pd5  1  0.332269  0.461756  0.749097  1
  Pd  Pd6  1  0.666416  0.538720  0.250316  1
  Pd  Pd7  1  0.168742  0.961224  0.748125  1
  Pd  Pd8  1  0.317535  0.180180  0.067409  1
  Pt  Pt9  1  0.684650  0.819781  0.930151  1
  Pt  Pt10  1  0.184080  0.680496  0.073185  1
  Pt  Pt11  1  0.814185  0.318189  0.571417  1
  Pt  Pt12  1  0.315119  0.181247  0.423003  1
  Pt  Pt13  1  0.685276  0.819590  0.572078  1
  Pt  Pt14  1  0.183948  0.680986  0.430440  1
  Pt  Pt15  1  0.817732  0.320226  0.929429  1
