# generated using pymatgen
data_CeHoMnC2
_symmetry_space_group_name_H-M   'P 1'
_cell_length_a   5.12984700
_cell_length_b   6.25951300
_cell_length_c   9.64527400
_cell_angle_alpha   90.00000000
_cell_angle_beta   90.00000000
_cell_angle_gamma   90.00000000
_symmetry_Int_Tables_number   1
_chemical_formula_structural   CeHoMnC2
_chemical_formula_sum   'Ce4 Ho4 Mn4 C8'
_cell_volume   309.71306596
_cell_formula_units_Z   4
loop_
 _symmetry_equiv_pos_site_id
 _symmetry_equiv_pos_as_xyz
  1  'x, y, z'
loop_
 _atom_site_type_symbol
 _atom_site_label
 _atom_site_symmetry_multiplicity
 _atom_site_fract_x
 _atom_site_fract_y
 _atom_site_fract_z
 _atom_site_occupancy
  Ce  Ce0  1  0.250000  0.484572  0.783483  1
  Ce  Ce1  1  0.750000  0.015428  0.283483  1
  Ce  Ce2  1  0.250000  0.984572  0.716517  1
  Ce  Ce3  1  0.750000  0.515428  0.216517  1
  Ho  Ho4  1  0.250000  0.814891  0.052166  1
  Ho  Ho5  1  0.750000  0.685109  0.552166  1
  Ho  Ho6  1  0.250000  0.314891  0.447834  1
  Ho  Ho7  1  0.750000  0.185109  0.947834  1
  Mn  Mn8  1  0.250000  0.269054  0.142127  1
  Mn  Mn9  1  0.750000  0.230946  0.642127  1
  Mn  Mn10  1  0.250000  0.769054  0.357873  1
  Mn  Mn11  1  0.750000  0.730946  0.857873  1
  C  C12  1  0.250000  0.186797  0.959363  1
  C  C13  1  0.750000  0.813203  0.040637  1
  C  C14  1  0.250000  0.686797  0.540637  1
  C  C15  1  0.750000  0.313203  0.459363  1
  C  C16  1  0.250000  0.034563  0.259643  1
  C  C17  1  0.750000  0.465437  0.759643  1
  C  C18  1  0.250000  0.534563  0.240357  1
  C  C19  1  0.750000  0.965437  0.740357  1
