# generated using pymatgen
data_HoTm2In3Ga2Pt
_symmetry_space_group_name_H-M   'P 1'
_cell_length_a   7.21784074
_cell_length_b   7.21784042
_cell_length_c   4.40277100
_cell_angle_alpha   90.00000000
_cell_angle_beta   90.00000000
_cell_angle_gamma   120.07959762
_symmetry_Int_Tables_number   1
_chemical_formula_structural   HoTm2In3Ga2Pt
_chemical_formula_sum   'Ho1 Tm2 In3 Ga2 Pt1'
_cell_volume   198.48258295
_cell_formula_units_Z   1
loop_
 _symmetry_equiv_pos_site_id
 _symmetry_equiv_pos_as_xyz
  1  'x, y, z'
loop_
 _atom_site_type_symbol
 _atom_site_label
 _atom_site_symmetry_multiplicity
 _atom_site_fract_x
 _atom_site_fract_y
 _atom_site_fract_z
 _atom_site_occupancy
  Ho  Ho0  1  0.409438  0.409438  0.500000  1
  Tm  Tm1  1  0.591504  0.000150  0.500000  1
  Tm  Tm2  1  0.000150  0.591504  0.500000  1
  In  In3  1  0.999820  0.251662  0.000000  1
  In  In4  1  0.748561  0.748561  0.000000  1
  In  In5  1  0.251662  0.999820  0.000000  1
  Ga  Ga6  1  0.667190  0.333108  0.000000  1
  Ga  Ga7  1  0.333108  0.667190  0.000000  1
  Pt  Pt8  1  0.998567  0.998567  0.500000  1
