# generated using pymatgen
data_Y4Sc6Ga7Sb
_symmetry_space_group_name_H-M   'P 1'
_cell_length_a   7.26497600
_cell_length_b   7.49150832
_cell_length_c   14.49030200
_cell_angle_alpha   90.00000000
_cell_angle_beta   90.00000000
_cell_angle_gamma   90.25692337
_symmetry_Int_Tables_number   1
_chemical_formula_structural   Y4Sc6Ga7Sb
_chemical_formula_sum   'Y8 Sc12 Ga14 Sb2'
_cell_volume   788.63585935
_cell_formula_units_Z   2
loop_
 _symmetry_equiv_pos_site_id
 _symmetry_equiv_pos_as_xyz
  1  'x, y, z'
loop_
 _atom_site_type_symbol
 _atom_site_label
 _atom_site_symmetry_multiplicity
 _atom_site_fract_x
 _atom_site_fract_y
 _atom_site_fract_z
 _atom_site_occupancy
  Y  Y0  1  0.004790  0.171154  0.091381  1
  Y  Y1  1  0.995210  0.828846  0.908619  1
  Y  Y2  1  0.482918  0.677842  0.907185  1
  Y  Y3  1  0.995210  0.828846  0.591381  1
  Y  Y4  1  0.517082  0.322158  0.092815  1
  Y  Y5  1  0.004790  0.171154  0.408619  1
  Y  Y6  1  0.517082  0.322158  0.407185  1
  Y  Y7  1  0.482918  0.677842  0.592815  1
  Sc  Sc8  1  0.172066  0.499179  0.750000  1
  Sc  Sc9  1  0.827934  0.500821  0.250000  1
  Sc  Sc10  1  0.340308  0.991225  0.250000  1
  Sc  Sc11  1  0.659692  0.008775  0.750000  1
  Sc  Sc12  1  0.328096  0.171823  0.621254  1
  Sc  Sc13  1  0.671904  0.828177  0.378746  1
  Sc  Sc14  1  0.170074  0.679010  0.379325  1
  Sc  Sc15  1  0.671904  0.828177  0.121254  1
  Sc  Sc16  1  0.829926  0.320990  0.620675  1
  Sc  Sc17  1  0.328096  0.171823  0.878746  1
  Sc  Sc18  1  0.829926  0.320990  0.879325  1
  Sc  Sc19  1  0.170074  0.679010  0.120675  1
  Ga  Ga20  1  0.032706  0.118660  0.750000  1
  Ga  Ga21  1  0.967294  0.881340  0.250000  1
  Ga  Ga22  1  0.472268  0.626269  0.250000  1
  Ga  Ga23  1  0.527732  0.373731  0.750000  1
  Ga  Ga24  1  0.286395  0.871412  0.750000  1
  Ga  Ga25  1  0.713605  0.128588  0.250000  1
  Ga  Ga26  1  0.157894  0.463810  0.540740  1
  Ga  Ga27  1  0.842106  0.536190  0.459260  1
  Ga  Ga28  1  0.340473  0.966539  0.458072  1
  Ga  Ga29  1  0.842106  0.536190  0.040740  1
  Ga  Ga30  1  0.659527  0.033461  0.541928  1
  Ga  Ga31  1  0.157894  0.463810  0.959260  1
  Ga  Ga32  1  0.659527  0.033461  0.958072  1
  Ga  Ga33  1  0.340473  0.966539  0.041928  1
  Sb  Sb34  1  0.210082  0.364518  0.250000  1
  Sb  Sb35  1  0.789918  0.635482  0.750000  1
