# generated using pymatgen
data_TbHo9(In2Pd)4
_symmetry_space_group_name_H-M   'P 1'
_cell_length_a   3.61238400
_cell_length_b   8.14266303
_cell_length_c   18.25778906
_cell_angle_alpha   90.00951107
_cell_angle_beta   90.00000000
_cell_angle_gamma   90.00000000
_symmetry_Int_Tables_number   1
_chemical_formula_structural   TbHo9(In2Pd)4
_chemical_formula_sum   'Tb1 Ho9 In8 Pd4'
_cell_volume   537.04237134
_cell_formula_units_Z   1
loop_
 _symmetry_equiv_pos_site_id
 _symmetry_equiv_pos_as_xyz
  1  'x, y, z'
loop_
 _atom_site_type_symbol
 _atom_site_label
 _atom_site_symmetry_multiplicity
 _atom_site_fract_x
 _atom_site_fract_y
 _atom_site_fract_z
 _atom_site_occupancy
  Tb  Tb0  1  0.000000  0.500000  0.500000  1
  Ho  Ho1  1  0.000000  0.000000  0.000000  1
  Ho  Ho2  1  0.000000  0.739922  0.280103  1
  Ho  Ho3  1  0.000000  0.260078  0.719897  1
  Ho  Ho4  1  0.000000  0.760166  0.780190  1
  Ho  Ho5  1  0.000000  0.239834  0.219810  1
  Ho  Ho6  1  0.000000  0.615962  0.083074  1
  Ho  Ho7  1  0.000000  0.384038  0.916926  1
  Ho  Ho8  1  0.000000  0.883702  0.583113  1
  Ho  Ho9  1  0.000000  0.116298  0.416887  1
  In  In10  1  0.500000  0.710510  0.931781  1
  In  In11  1  0.500000  0.289490  0.068219  1
  In  In12  1  0.500000  0.790593  0.431584  1
  In  In13  1  0.500000  0.209407  0.568416  1
  In  In14  1  0.500000  0.581495  0.650129  1
  In  In15  1  0.500000  0.418505  0.349871  1
  In  In16  1  0.500000  0.919061  0.149644  1
  In  In17  1  0.500000  0.080939  0.850356  1
  Pd  Pd18  1  0.500000  0.523854  0.195847  1
  Pd  Pd19  1  0.500000  0.476146  0.804153  1
  Pd  Pd20  1  0.500000  0.976163  0.696020  1
  Pd  Pd21  1  0.500000  0.023837  0.303980  1
