# generated using pymatgen
data_K3B5PdPt8
_symmetry_space_group_name_H-M   'P 1'
_cell_length_a   6.53735049
_cell_length_b   6.53735009
_cell_length_c   15.42248300
_cell_angle_alpha   90.00000000
_cell_angle_beta   90.00000000
_cell_angle_gamma   127.83637782
_symmetry_Int_Tables_number   1
_chemical_formula_structural   K3B5PdPt8
_chemical_formula_sum   'K6 B10 Pd2 Pt16'
_cell_volume   520.54237166
_cell_formula_units_Z   2
loop_
 _symmetry_equiv_pos_site_id
 _symmetry_equiv_pos_as_xyz
  1  'x, y, z'
loop_
 _atom_site_type_symbol
 _atom_site_label
 _atom_site_symmetry_multiplicity
 _atom_site_fract_x
 _atom_site_fract_y
 _atom_site_fract_z
 _atom_site_occupancy
  K  K0  1  0.326840  0.673160  0.750000  1
  K  K1  1  0.673160  0.326840  0.250000  1
  K  K2  1  0.556914  0.443086  0.085139  1
  K  K3  1  0.443086  0.556914  0.914861  1
  K  K4  1  0.443086  0.556914  0.585139  1
  K  K5  1  0.556914  0.443086  0.414861  1
  B  B6  1  0.942420  0.057580  0.147698  1
  B  B7  1  0.057580  0.942420  0.852302  1
  B  B8  1  0.057580  0.942420  0.647698  1
  B  B9  1  0.942420  0.057580  0.352302  1
  B  B10  1  0.189898  0.810102  0.028984  1
  B  B11  1  0.810102  0.189898  0.971016  1
  B  B12  1  0.810102  0.189898  0.528984  1
  B  B13  1  0.189898  0.810102  0.471016  1
  B  B14  1  0.730803  0.269197  0.750000  1
  B  B15  1  0.269197  0.730803  0.250000  1
  Pd  Pd16  1  0.000000  0.000000  0.000000  1
  Pd  Pd17  1  0.000000  0.000000  0.500000  1
  Pt  Pt18  1  0.652364  0.842412  0.250000  1
  Pt  Pt19  1  0.842412  0.652364  0.750000  1
  Pt  Pt20  1  0.347636  0.157588  0.750000  1
  Pt  Pt21  1  0.157588  0.347636  0.250000  1
  Pt  Pt22  1  0.124440  0.875560  0.155777  1
  Pt  Pt23  1  0.875560  0.124440  0.844223  1
  Pt  Pt24  1  0.875560  0.124440  0.655777  1
  Pt  Pt25  1  0.124440  0.875560  0.344223  1
  Pt  Pt26  1  0.569944  0.944903  0.078435  1
  Pt  Pt27  1  0.944903  0.569944  0.921565  1
  Pt  Pt28  1  0.430056  0.055097  0.578435  1
  Pt  Pt29  1  0.055097  0.430056  0.421565  1
  Pt  Pt30  1  0.430056  0.055097  0.921565  1
  Pt  Pt31  1  0.055097  0.430056  0.078435  1
  Pt  Pt32  1  0.569944  0.944903  0.421565  1
  Pt  Pt33  1  0.944903  0.569944  0.578435  1
