# generated using pymatgen
data_Pr3Nd4SBr12
_symmetry_space_group_name_H-M   'P 1'
_cell_length_a   9.50454690
_cell_length_b   9.54415469
_cell_length_c   9.52993100
_cell_angle_alpha   107.79004915
_cell_angle_beta   107.95686233
_cell_angle_gamma   107.93507953
_symmetry_Int_Tables_number   1
_chemical_formula_structural   Pr3Nd4SBr12
_chemical_formula_sum   'Pr3 Nd4 S1 Br12'
_cell_volume   701.65424971
_cell_formula_units_Z   1
loop_
 _symmetry_equiv_pos_site_id
 _symmetry_equiv_pos_as_xyz
  1  'x, y, z'
loop_
 _atom_site_type_symbol
 _atom_site_label
 _atom_site_symmetry_multiplicity
 _atom_site_fract_x
 _atom_site_fract_y
 _atom_site_fract_z
 _atom_site_occupancy
  Pr  Pr0  1  0.316792  0.033735  0.110075  1
  Pr  Pr1  1  0.889594  0.685308  0.966178  1
  Pr  Pr2  1  0.683048  0.965247  0.890015  1
  Nd  Nd3  1  0.964512  0.891301  0.686230  1
  Nd  Nd4  1  0.035486  0.108888  0.314146  1
  Nd  Nd5  1  0.110021  0.313772  0.033484  1
  Nd  Nd6  1  0.500688  0.500843  0.500467  1
  S  S7  1  0.000446  0.001058  0.000320  1
  Br  Br8  1  0.526462  0.610814  0.839127  1
  Br  Br9  1  0.470278  0.388432  0.159356  1
  Br  Br10  1  0.309890  0.923306  0.776925  1
  Br  Br11  1  0.389684  0.160773  0.471472  1
  Br  Br12  1  0.926898  0.782258  0.316088  1
  Br  Br13  1  0.690329  0.077216  0.223442  1
  Br  Br14  1  0.073569  0.219100  0.686747  1
  Br  Br15  1  0.781202  0.313913  0.926850  1
  Br  Br16  1  0.220643  0.684472  0.073436  1
  Br  Br17  1  0.842336  0.532912  0.611907  1
  Br  Br18  1  0.157502  0.466484  0.384866  1
  Br  Br19  1  0.610619  0.840167  0.528867  1
