# generated using pymatgen
data_Ca11Y(GeIr)8
_symmetry_space_group_name_H-M   'P 1'
_cell_length_a   5.76763310
_cell_length_b   7.80996031
_cell_length_c   13.61105600
_cell_angle_alpha   90.00000000
_cell_angle_beta   90.00000000
_cell_angle_gamma   90.09505263
_symmetry_Int_Tables_number   1
_chemical_formula_structural   Ca11Y(GeIr)8
_chemical_formula_sum   'Ca11 Y1 Ge8 Ir8'
_cell_volume   613.10897788
_cell_formula_units_Z   1
loop_
 _symmetry_equiv_pos_site_id
 _symmetry_equiv_pos_as_xyz
  1  'x, y, z'
loop_
 _atom_site_type_symbol
 _atom_site_label
 _atom_site_symmetry_multiplicity
 _atom_site_fract_x
 _atom_site_fract_y
 _atom_site_fract_z
 _atom_site_occupancy
  Ca  Ca0  1  0.138255  0.607999  0.099343  1
  Ca  Ca1  1  0.137506  0.894559  0.901679  1
  Ca  Ca2  1  0.863102  0.108186  0.399678  1
  Ca  Ca3  1  0.864805  0.388661  0.599590  1
  Ca  Ca4  1  0.864805  0.388661  0.900410  1
  Ca  Ca5  1  0.863102  0.108186  0.100322  1
  Ca  Ca6  1  0.137506  0.894559  0.598321  1
  Ca  Ca7  1  0.138255  0.607999  0.400657  1
  Ca  Ca8  1  0.367410  0.264469  0.250000  1
  Ca  Ca9  1  0.366923  0.241813  0.750000  1
  Ca  Ca10  1  0.633040  0.763943  0.250000  1
  Y  Y11  1  0.622672  0.736903  0.750000  1
  Ge  Ge12  1  0.851062  0.416046  0.250000  1
  Ge  Ge13  1  0.849727  0.084134  0.750000  1
  Ge  Ge14  1  0.150075  0.914093  0.250000  1
  Ge  Ge15  1  0.136242  0.594415  0.750000  1
  Ge  Ge16  1  0.400582  0.249042  0.997801  1
  Ge  Ge17  1  0.600824  0.748720  0.499328  1
  Ge  Ge18  1  0.600824  0.748720  0.000672  1
  Ge  Ge19  1  0.400582  0.249042  0.502199  1
  Ir  Ir20  1  0.637654  0.471486  0.090457  1
  Ir  Ir21  1  0.636939  0.020777  0.906404  1
  Ir  Ir22  1  0.365125  0.973093  0.408026  1
  Ir  Ir23  1  0.366632  0.529571  0.594441  1
  Ir  Ir24  1  0.366632  0.529571  0.905559  1
  Ir  Ir25  1  0.365125  0.973093  0.091974  1
  Ir  Ir26  1  0.636939  0.020777  0.593596  1
  Ir  Ir27  1  0.637654  0.471486  0.409543  1
