# generated using pymatgen
data_Tb3Sm5Sc12Si15Hg
_symmetry_space_group_name_H-M   'P 1'
_cell_length_a   7.17827664
_cell_length_b   7.42981332
_cell_length_c   14.16654508
_cell_angle_alpha   89.91425491
_cell_angle_beta   89.72137426
_cell_angle_gamma   90.19411986
_symmetry_Int_Tables_number   1
_chemical_formula_structural   Tb3Sm5Sc12Si15Hg
_chemical_formula_sum   'Tb3 Sm5 Sc12 Si15 Hg1'
_cell_volume   755.53383230
_cell_formula_units_Z   1
loop_
 _symmetry_equiv_pos_site_id
 _symmetry_equiv_pos_as_xyz
  1  'x, y, z'
loop_
 _atom_site_type_symbol
 _atom_site_label
 _atom_site_symmetry_multiplicity
 _atom_site_fract_x
 _atom_site_fract_y
 _atom_site_fract_z
 _atom_site_occupancy
  Tb  Tb0  1  0.007926  0.171177  0.397457  1
  Tb  Tb1  1  0.511902  0.322799  0.398363  1
  Tb  Tb2  1  0.496088  0.681151  0.600209  1
  Sm  Sm3  1  0.011989  0.174234  0.097813  1
  Sm  Sm4  1  0.988162  0.827005  0.904068  1
  Sm  Sm5  1  0.488054  0.674423  0.904160  1
  Sm  Sm6  1  0.988970  0.832398  0.597414  1
  Sm  Sm7  1  0.511638  0.325642  0.096952  1
  Sc  Sc8  1  0.162552  0.500427  0.754157  1
  Sc  Sc9  1  0.837305  0.499556  0.250320  1
  Sc  Sc10  1  0.337717  0.999399  0.249140  1
  Sc  Sc11  1  0.664828  0.998490  0.751774  1
  Sc  Sc12  1  0.342404  0.168779  0.628719  1
  Sc  Sc13  1  0.664448  0.824094  0.373083  1
  Sc  Sc14  1  0.167147  0.677591  0.370909  1
  Sc  Sc15  1  0.669328  0.823941  0.124939  1
  Sc  Sc16  1  0.824400  0.325336  0.625621  1
  Sc  Sc17  1  0.328983  0.174689  0.875946  1
  Sc  Sc18  1  0.830034  0.323391  0.876045  1
  Sc  Sc19  1  0.168931  0.676251  0.125559  1
  Si  Si20  1  0.036194  0.124426  0.750991  1
  Si  Si21  1  0.963928  0.880370  0.248903  1
  Si  Si22  1  0.465597  0.618862  0.248714  1
  Si  Si23  1  0.534599  0.382968  0.751609  1
  Si  Si24  1  0.286334  0.875506  0.750935  1
  Si  Si25  1  0.711568  0.124369  0.249217  1
  Si  Si26  1  0.212434  0.374443  0.249737  1
  Si  Si27  1  0.788416  0.624024  0.751529  1
  Si  Si28  1  0.833414  0.537645  0.458129  1
  Si  Si29  1  0.341662  0.962566  0.459420  1
  Si  Si30  1  0.846064  0.536452  0.039325  1
  Si  Si31  1  0.655825  0.038626  0.536617  1
  Si  Si32  1  0.153436  0.463273  0.962141  1
  Si  Si33  1  0.654034  0.036310  0.960997  1
  Si  Si34  1  0.345051  0.963421  0.040045  1
  Hg  Hg35  1  0.168639  0.455969  0.539043  1
