# generated using pymatgen
data_Dy20Co4SiSb7
_symmetry_space_group_name_H-M   'P 1'
_cell_length_a   7.89194394
_cell_length_b   8.72251735
_cell_length_c   12.13977841
_cell_angle_alpha   89.92844591
_cell_angle_beta   89.93359945
_cell_angle_gamma   90.04478273
_symmetry_Int_Tables_number   1
_chemical_formula_structural   Dy20Co4SiSb7
_chemical_formula_sum   'Dy20 Co4 Si1 Sb7'
_cell_volume   835.67195930
_cell_formula_units_Z   1
loop_
 _symmetry_equiv_pos_site_id
 _symmetry_equiv_pos_as_xyz
  1  'x, y, z'
loop_
 _atom_site_type_symbol
 _atom_site_label
 _atom_site_symmetry_multiplicity
 _atom_site_fract_x
 _atom_site_fract_y
 _atom_site_fract_z
 _atom_site_occupancy
  Dy  Dy0  1  0.149675  0.741507  0.208429  1
  Dy  Dy1  1  0.344581  0.750019  0.700972  1
  Dy  Dy2  1  0.845624  0.249196  0.795942  1
  Dy  Dy3  1  0.663276  0.260321  0.295218  1
  Dy  Dy4  1  0.453145  0.751172  0.998815  1
  Dy  Dy5  1  0.037857  0.740168  0.491557  1
  Dy  Dy6  1  0.544226  0.248843  0.002475  1
  Dy  Dy7  1  0.954992  0.259803  0.496936  1
  Dy  Dy8  1  0.633729  0.741774  0.306285  1
  Dy  Dy9  1  0.878430  0.749671  0.807063  1
  Dy  Dy10  1  0.377713  0.249709  0.693851  1
  Dy  Dy11  1  0.115934  0.259059  0.198680  1
  Dy  Dy12  1  0.823769  0.534176  0.071951  1
  Dy  Dy13  1  0.680691  0.968158  0.563943  1
  Dy  Dy14  1  0.178475  0.035623  0.935653  1
  Dy  Dy15  1  0.316955  0.463392  0.433619  1
  Dy  Dy16  1  0.178218  0.465354  0.934690  1
  Dy  Dy17  1  0.321639  0.032759  0.434499  1
  Dy  Dy18  1  0.821034  0.965242  0.065886  1
  Dy  Dy19  1  0.678379  0.535887  0.562056  1
  Co  Co20  1  0.436836  0.748996  0.488469  1
  Co  Co21  1  0.065953  0.750003  0.991991  1
  Co  Co22  1  0.565336  0.250641  0.509197  1
  Co  Co23  1  0.932991  0.250941  0.010706  1
  Si  Si24  1  0.930957  0.505684  0.329413  1
  Sb  Sb25  1  0.572064  0.991217  0.826554  1
  Sb  Sb26  1  0.071353  0.007425  0.668622  1
  Sb  Sb27  1  0.427263  0.492306  0.172186  1
  Sb  Sb28  1  0.072202  0.491895  0.673261  1
  Sb  Sb29  1  0.427218  0.007380  0.175918  1
  Sb  Sb30  1  0.927088  0.993233  0.327741  1
  Sb  Sb31  1  0.572396  0.508446  0.827420  1
