# generated using pymatgen
data_NdHo3Al18(RePd2)2
_symmetry_space_group_name_H-M   'P 1'
_cell_length_a   7.61151303
_cell_length_b   7.62517399
_cell_length_c   9.54661200
_cell_angle_alpha   90.00000000
_cell_angle_beta   90.00000000
_cell_angle_gamma   118.54280317
_symmetry_Int_Tables_number   1
_chemical_formula_structural   NdHo3Al18(RePd2)2
_chemical_formula_sum   'Nd1 Ho3 Al18 Re2 Pd4'
_cell_volume   486.73459489
_cell_formula_units_Z   1
loop_
 _symmetry_equiv_pos_site_id
 _symmetry_equiv_pos_as_xyz
  1  'x, y, z'
loop_
 _atom_site_type_symbol
 _atom_site_label
 _atom_site_symmetry_multiplicity
 _atom_site_fract_x
 _atom_site_fract_y
 _atom_site_fract_z
 _atom_site_occupancy
  Nd  Nd0  1  0.994164  0.679079  0.250000  1
  Ho  Ho1  1  0.005938  0.317379  0.750000  1
  Ho  Ho2  1  0.681678  0.994651  0.250000  1
  Ho  Ho3  1  0.317582  0.006962  0.750000  1
  Al  Al4  1  0.133301  0.134581  0.250000  1
  Al  Al5  1  0.867026  0.868095  0.750000  1
  Al  Al6  1  0.001898  0.333051  0.074844  1
  Al  Al7  1  0.998150  0.664688  0.920091  1
  Al  Al8  1  0.998150  0.664688  0.579909  1
  Al  Al9  1  0.336830  0.003832  0.425187  1
  Al  Al10  1  0.001898  0.333051  0.425156  1
  Al  Al11  1  0.664740  0.998745  0.577243  1
  Al  Al12  1  0.664740  0.998745  0.922757  1
  Al  Al13  1  0.336830  0.003832  0.074813  1
  Al  Al14  1  0.329566  0.329812  0.549879  1
  Al  Al15  1  0.669317  0.671003  0.454653  1
  Al  Al16  1  0.669317  0.671003  0.045347  1
  Al  Al17  1  0.329566  0.329812  0.950121  1
  Al  Al18  1  0.347683  0.553125  0.250000  1
  Al  Al19  1  0.654291  0.445691  0.750000  1
  Al  Al20  1  0.551008  0.342119  0.250000  1
  Al  Al21  1  0.445857  0.655299  0.750000  1
  Re  Re22  1  0.000430  0.000713  0.998667  1
  Re  Re23  1  0.000430  0.000713  0.501333  1
  Pd  Pd24  1  0.671658  0.327895  0.999373  1
  Pd  Pd25  1  0.328147  0.671773  0.999417  1
  Pd  Pd26  1  0.328147  0.671773  0.500583  1
  Pd  Pd27  1  0.671658  0.327895  0.500627  1
