# generated using pymatgen
data_Dy4Y3Er13Pb16
_symmetry_space_group_name_H-M   'P 1'
_cell_length_a   8.18260028
_cell_length_b   8.25574053
_cell_length_c   15.58441002
_cell_angle_alpha   90.01044932
_cell_angle_beta   90.03448200
_cell_angle_gamma   89.97553827
_symmetry_Int_Tables_number   1
_chemical_formula_structural   Dy4Y3Er13Pb16
_chemical_formula_sum   'Dy4 Y3 Er13 Pb16'
_cell_volume   1052.77996673
_cell_formula_units_Z   1
loop_
 _symmetry_equiv_pos_site_id
 _symmetry_equiv_pos_as_xyz
  1  'x, y, z'
loop_
 _atom_site_type_symbol
 _atom_site_label
 _atom_site_symmetry_multiplicity
 _atom_site_fract_x
 _atom_site_fract_y
 _atom_site_fract_z
 _atom_site_occupancy
  Dy  Dy0  1  0.463481  0.676691  0.099987  1
  Dy  Dy1  1  0.963543  0.823267  0.399987  1
  Dy  Dy2  1  0.536440  0.323309  0.599955  1
  Dy  Dy3  1  0.036520  0.176755  0.899985  1
  Y  Y4  1  0.036485  0.176727  0.600059  1
  Y  Y5  1  0.463499  0.676682  0.399987  1
  Y  Y6  1  0.963416  0.823370  0.100022  1
  Er  Er7  1  0.376510  0.841355  0.879025  1
  Er  Er8  1  0.876443  0.658694  0.621020  1
  Er  Er9  1  0.623537  0.158731  0.379047  1
  Er  Er10  1  0.123411  0.341201  0.120939  1
  Er  Er11  1  0.623428  0.158806  0.120838  1
  Er  Er12  1  0.123538  0.341288  0.378975  1
  Er  Er13  1  0.376483  0.841351  0.621082  1
  Er  Er14  1  0.876398  0.658591  0.878979  1
  Er  Er15  1  0.536765  0.323555  0.899847  1
  Er  Er16  1  0.208394  0.504448  0.750141  1
  Er  Er17  1  0.708135  0.995509  0.750077  1
  Er  Er18  1  0.791767  0.495354  0.249998  1
  Er  Er19  1  0.291778  0.004610  0.249945  1
  Pb  Pb20  1  0.281658  0.033300  0.042896  1
  Pb  Pb21  1  0.781745  0.466635  0.457130  1
  Pb  Pb22  1  0.718254  0.966627  0.542888  1
  Pb  Pb23  1  0.218939  0.532865  0.957022  1
  Pb  Pb24  1  0.718061  0.967008  0.957044  1
  Pb  Pb25  1  0.218335  0.533368  0.542894  1
  Pb  Pb26  1  0.281669  0.033350  0.457133  1
  Pb  Pb27  1  0.781297  0.466317  0.042574  1
  Pb  Pb28  1  0.571101  0.626817  0.750013  1
  Pb  Pb29  1  0.071159  0.872944  0.750036  1
  Pb  Pb30  1  0.428857  0.372966  0.249963  1
  Pb  Pb31  1  0.928842  0.127102  0.250035  1
  Pb  Pb32  1  0.347812  0.153822  0.750362  1
  Pb  Pb33  1  0.847252  0.346615  0.750126  1
  Pb  Pb34  1  0.652523  0.846628  0.249974  1
  Pb  Pb35  1  0.152524  0.653338  0.250020  1
