# generated using pymatgen
data_Sr4CdInPt4
_symmetry_space_group_name_H-M   'P 1'
_cell_length_a   6.01598227
_cell_length_b   6.01598287
_cell_length_c   8.49835313
_cell_angle_alpha   77.94419309
_cell_angle_beta   77.94419190
_cell_angle_gamma   59.87507923
_symmetry_Int_Tables_number   1
_chemical_formula_structural   Sr4CdInPt4
_chemical_formula_sum   'Sr4 Cd1 In1 Pt4'
_cell_volume   258.18711951
_cell_formula_units_Z   1
loop_
 _symmetry_equiv_pos_site_id
 _symmetry_equiv_pos_as_xyz
  1  'x, y, z'
loop_
 _atom_site_type_symbol
 _atom_site_label
 _atom_site_symmetry_multiplicity
 _atom_site_fract_x
 _atom_site_fract_y
 _atom_site_fract_z
 _atom_site_occupancy
  Sr  Sr0  1  0.503173  0.792523  0.352925  1
  Sr  Sr1  1  0.207477  0.496827  0.147075  1
  Sr  Sr2  1  0.494449  0.210024  0.647183  1
  Sr  Sr3  1  0.789976  0.505551  0.852817  1
  Cd  Cd4  1  0.864733  0.135267  0.250000  1
  In  In5  1  0.131676  0.868324  0.750000  1
  Pt  Pt6  1  0.281457  0.996659  0.991747  1
  Pt  Pt7  1  0.003341  0.718543  0.508253  1
  Pt  Pt8  1  0.723835  0.000117  0.001870  1
  Pt  Pt9  1  0.999883  0.276165  0.498130  1
