# generated using pymatgen
data_SmHoNpO6
_symmetry_space_group_name_H-M   'P 1'
_cell_length_a   5.60110200
_cell_length_b   7.90089461
_cell_length_c   11.86466100
_cell_angle_alpha   74.28792037
_cell_angle_beta   90.00000000
_cell_angle_gamma   90.00000000
_symmetry_Int_Tables_number   1
_chemical_formula_structural   SmHoNpO6
_chemical_formula_sum   'Sm4 Ho4 Np4 O24'
_cell_volume   505.43648184
_cell_formula_units_Z   4
loop_
 _symmetry_equiv_pos_site_id
 _symmetry_equiv_pos_as_xyz
  1  'x, y, z'
loop_
 _atom_site_type_symbol
 _atom_site_label
 _atom_site_symmetry_multiplicity
 _atom_site_fract_x
 _atom_site_fract_y
 _atom_site_fract_z
 _atom_site_occupancy
  Sm  Sm0  1  0.746063  0.000000  0.750000  1
  Sm  Sm1  1  0.253937  0.000000  0.250000  1
  Sm  Sm2  1  0.695231  0.500000  0.750000  1
  Sm  Sm3  1  0.304769  0.500000  0.250000  1
  Ho  Ho4  1  0.185882  0.793122  0.580279  1
  Ho  Ho5  1  0.814118  0.793122  0.080279  1
  Ho  Ho6  1  0.185882  0.206878  0.919721  1
  Ho  Ho7  1  0.814118  0.206878  0.419721  1
  Np  Np8  1  0.255235  0.721723  0.887486  1
  Np  Np9  1  0.744765  0.721723  0.387486  1
  Np  Np10  1  0.255235  0.278277  0.612514  1
  Np  Np11  1  0.744765  0.278277  0.112514  1
  O  O12  1  0.050895  0.944130  0.898900  1
  O  O13  1  0.553481  0.844033  0.934762  1
  O  O14  1  0.949105  0.944130  0.398900  1
  O  O15  1  0.445042  0.798030  0.726869  1
  O  O16  1  0.446519  0.844033  0.434762  1
  O  O17  1  0.968818  0.715778  0.766881  1
  O  O18  1  0.554958  0.798030  0.226869  1
  O  O19  1  0.877068  0.629730  0.553841  1
  O  O20  1  0.380060  0.482243  0.885445  1
  O  O21  1  0.031182  0.715778  0.266881  1
  O  O22  1  0.380060  0.517757  0.614555  1
  O  O23  1  0.877068  0.370270  0.946159  1
  O  O24  1  0.122932  0.629730  0.053841  1
  O  O25  1  0.619940  0.482243  0.385445  1
  O  O26  1  0.968818  0.284222  0.733119  1
  O  O27  1  0.619940  0.517757  0.114555  1
  O  O28  1  0.122932  0.370270  0.446159  1
  O  O29  1  0.445042  0.201970  0.773131  1
  O  O30  1  0.031182  0.284222  0.233119  1
  O  O31  1  0.553481  0.155967  0.565238  1
  O  O32  1  0.554958  0.201970  0.273131  1
  O  O33  1  0.050895  0.055870  0.601100  1
  O  O34  1  0.446519  0.155967  0.065238  1
  O  O35  1  0.949105  0.055870  0.101100  1
