# generated using pymatgen
data_Dy2Y5(ErIn2)3
_symmetry_space_group_name_H-M   'P 1'
_cell_length_a   9.15495051
_cell_length_b   9.15495086
_cell_length_c   9.15716488
_cell_angle_alpha   96.36314895
_cell_angle_beta   96.44400872
_cell_angle_gamma   140.97616627
_symmetry_Int_Tables_number   1
_chemical_formula_structural   Dy2Y5(ErIn2)3
_chemical_formula_sum   'Dy2 Y5 Er3 In6'
_cell_volume   455.50741697
_cell_formula_units_Z   1
loop_
 _symmetry_equiv_pos_site_id
 _symmetry_equiv_pos_as_xyz
  1  'x, y, z'
loop_
 _atom_site_type_symbol
 _atom_site_label
 _atom_site_symmetry_multiplicity
 _atom_site_fract_x
 _atom_site_fract_y
 _atom_site_fract_z
 _atom_site_occupancy
  Dy  Dy0  1  0.417823  0.282805  0.700629  1
  Dy  Dy1  1  0.081845  0.782568  0.864413  1
  Y  Y2  1  0.717006  0.417980  0.134986  1
  Y  Y3  1  0.282647  0.581914  0.864562  1
  Y  Y4  1  0.582459  0.717291  0.299749  1
  Y  Y5  1  0.217213  0.082174  0.299385  1
  Y  Y6  1  0.917878  0.216937  0.134817  1
  Er  Er7  1  0.750154  0.250051  0.500223  1
  Er  Er8  1  0.250172  0.750069  0.500223  1
  Er  Er9  1  0.783066  0.918136  0.701202  1
  In  In10  1  0.838779  0.661377  0.500156  1
  In  In11  1  0.338951  0.839037  0.177988  1
  In  In12  1  0.749909  0.750024  0.999690  1
  In  In13  1  0.661239  0.160878  0.822117  1
  In  In14  1  0.161193  0.338979  0.500172  1
  In  In15  1  0.249666  0.249780  0.999690  1
