# generated using pymatgen
data_Y2HoTh(GaPd2)4
_symmetry_space_group_name_H-M   'P 1'
_cell_length_a   5.66617669
_cell_length_b   7.19197100
_cell_length_c   7.42322100
_cell_angle_alpha   90.00000000
_cell_angle_beta   89.60295935
_cell_angle_gamma   90.00000000
_symmetry_Int_Tables_number   1
_chemical_formula_structural   Y2HoTh(GaPd2)4
_chemical_formula_sum   'Y2 Ho1 Th1 Ga4 Pd8'
_cell_volume   302.49625619
_cell_formula_units_Z   1
loop_
 _symmetry_equiv_pos_site_id
 _symmetry_equiv_pos_as_xyz
  1  'x, y, z'
loop_
 _atom_site_type_symbol
 _atom_site_label
 _atom_site_symmetry_multiplicity
 _atom_site_fract_x
 _atom_site_fract_y
 _atom_site_fract_z
 _atom_site_occupancy
  Y  Y0  1  0.145854  0.750000  0.529349  1
  Y  Y1  1  0.854309  0.250000  0.467816  1
  Ho  Ho2  1  0.650519  0.250000  0.968552  1
  Th  Th3  1  0.352933  0.750000  0.033547  1
  Ga  Ga4  1  0.647194  0.750000  0.391262  1
  Ga  Ga5  1  0.855794  0.750000  0.878779  1
  Ga  Ga6  1  0.356708  0.250000  0.616787  1
  Ga  Ga7  1  0.143072  0.250000  0.115492  1
  Pd  Pd8  1  0.910428  0.552857  0.182794  1
  Pd  Pd9  1  0.586492  0.949280  0.684041  1
  Pd  Pd10  1  0.087910  0.051958  0.817122  1
  Pd  Pd11  1  0.411980  0.448320  0.315252  1
  Pd  Pd12  1  0.087910  0.448042  0.817122  1
  Pd  Pd13  1  0.411980  0.051680  0.315252  1
  Pd  Pd14  1  0.910428  0.947143  0.182794  1
  Pd  Pd15  1  0.586492  0.550720  0.684041  1
