# generated using pymatgen
data_Y12Ho4Cd4Ir3Ru
_symmetry_space_group_name_H-M   'P 1'
_cell_length_a   9.69117693
_cell_length_b   9.69114739
_cell_length_c   9.69114479
_cell_angle_alpha   59.67374545
_cell_angle_beta   59.67429897
_cell_angle_gamma   59.67426710
_symmetry_Int_Tables_number   1
_chemical_formula_structural   Y12Ho4Cd4Ir3Ru
_chemical_formula_sum   'Y12 Ho4 Cd4 Ir3 Ru1'
_cell_volume   638.82864302
_cell_formula_units_Z   1
loop_
 _symmetry_equiv_pos_site_id
 _symmetry_equiv_pos_as_xyz
  1  'x, y, z'
loop_
 _atom_site_type_symbol
 _atom_site_label
 _atom_site_symmetry_multiplicity
 _atom_site_fract_x
 _atom_site_fract_y
 _atom_site_fract_z
 _atom_site_occupancy
  Y  Y0  1  0.811495  0.189073  0.189071  1
  Y  Y1  1  0.188717  0.809444  0.809444  1
  Y  Y2  1  0.189065  0.811495  0.189074  1
  Y  Y3  1  0.809440  0.188730  0.809438  1
  Y  Y4  1  0.189064  0.189073  0.811498  1
  Y  Y5  1  0.809442  0.809439  0.188733  1
  Y  Y6  1  0.939222  0.561521  0.561519  1
  Y  Y7  1  0.559991  0.938674  0.938675  1
  Y  Y8  1  0.561520  0.939215  0.561532  1
  Y  Y9  1  0.938667  0.560001  0.938664  1
  Y  Y10  1  0.561521  0.561533  0.939215  1
  Y  Y11  1  0.938665  0.938666  0.559999  1
  Ho  Ho12  1  0.348136  0.348128  0.348128  1
  Ho  Ho13  1  0.348038  0.348033  0.957649  1
  Ho  Ho14  1  0.348034  0.957653  0.348033  1
  Ho  Ho15  1  0.957665  0.348026  0.348025  1
  Cd  Cd16  1  0.579828  0.579835  0.579840  1
  Cd  Cd17  1  0.580180  0.580185  0.257972  1
  Cd  Cd18  1  0.580180  0.257965  0.580183  1
  Cd  Cd19  1  0.257967  0.580183  0.580182  1
  Ir  Ir20  1  0.143418  0.143417  0.574078  1
  Ir  Ir21  1  0.143418  0.574076  0.143415  1
  Ir  Ir22  1  0.574082  0.143412  0.143411  1
  Ru  Ru23  1  0.142242  0.142220  0.142223  1
