# generated using pymatgen
data_ErTm9(Ga2Sb)2
_symmetry_space_group_name_H-M   'P 1'
_cell_length_a   8.57558901
_cell_length_b   8.59322347
_cell_length_c   6.45249200
_cell_angle_alpha   90.00018920
_cell_angle_beta   89.99989327
_cell_angle_gamma   120.08129439
_symmetry_Int_Tables_number   1
_chemical_formula_structural   ErTm9(Ga2Sb)2
_chemical_formula_sum   'Er1 Tm9 Ga4 Sb2'
_cell_volume   411.45450743
_cell_formula_units_Z   1
loop_
 _symmetry_equiv_pos_site_id
 _symmetry_equiv_pos_as_xyz
  1  'x, y, z'
loop_
 _atom_site_type_symbol
 _atom_site_label
 _atom_site_symmetry_multiplicity
 _atom_site_fract_x
 _atom_site_fract_y
 _atom_site_fract_z
 _atom_site_occupancy
  Er  Er0  1  0.236155  0.249039  0.749996  1
  Tm  Tm1  1  0.986691  0.750531  0.750000  1
  Tm  Tm2  1  0.986646  0.236150  0.249999  1
  Tm  Tm3  1  0.766104  0.766352  0.250001  1
  Tm  Tm4  1  0.765884  0.999669  0.750000  1
  Tm  Tm5  1  0.236123  0.986893  0.249999  1
  Tm  Tm6  1  0.331866  0.666017  0.499935  1
  Tm  Tm7  1  0.684834  0.342391  0.000008  1
  Tm  Tm8  1  0.684834  0.342391  0.499993  1
  Tm  Tm9  1  0.331870  0.666018  0.000067  1
  Ga  Ga10  1  0.001441  0.601558  0.250000  1
  Ga  Ga11  1  0.001258  0.399988  0.750000  1
  Ga  Ga12  1  0.598276  0.601666  0.750000  1
  Ga  Ga13  1  0.598093  0.996599  0.250001  1
  Sb  Sb14  1  0.395039  0.004112  0.750000  1
  Sb  Sb15  1  0.394887  0.390626  0.250001  1
