# generated using pymatgen
data_HfSc(SnRh)2
_symmetry_space_group_name_H-M   'P 1'
_cell_length_a   7.50226500
_cell_length_b   7.50226432
_cell_length_c   7.06340000
_cell_angle_alpha   90.00000000
_cell_angle_beta   90.00000000
_cell_angle_gamma   120.00000742
_symmetry_Int_Tables_number   1
_chemical_formula_structural   HfSc(SnRh)2
_chemical_formula_sum   'Hf3 Sc3 Sn6 Rh6'
_cell_volume   344.29376813
_cell_formula_units_Z   3
loop_
 _symmetry_equiv_pos_site_id
 _symmetry_equiv_pos_as_xyz
  1  'x, y, z'
loop_
 _atom_site_type_symbol
 _atom_site_label
 _atom_site_symmetry_multiplicity
 _atom_site_fract_x
 _atom_site_fract_y
 _atom_site_fract_z
 _atom_site_occupancy
  Hf  Hf0  1  0.003863  0.394665  0.750000  1
  Hf  Hf1  1  0.605335  0.609198  0.750000  1
  Hf  Hf2  1  0.390802  0.996137  0.750000  1
  Sc  Sc3  1  0.997737  0.396742  0.250000  1
  Sc  Sc4  1  0.603258  0.600994  0.250000  1
  Sc  Sc5  1  0.399006  0.002263  0.250000  1
  Sn  Sn6  1  0.273517  0.272312  0.497695  1
  Sn  Sn7  1  0.998795  0.726483  0.497695  1
  Sn  Sn8  1  0.998795  0.726483  0.002305  1
  Sn  Sn9  1  0.727688  0.001205  0.497695  1
  Sn  Sn10  1  0.727688  0.001205  0.002305  1
  Sn  Sn11  1  0.273517  0.272312  0.002305  1
  Rh  Rh12  1  0.333333  0.666667  0.515874  1
  Rh  Rh13  1  0.666667  0.333333  0.527674  1
  Rh  Rh14  1  0.333333  0.666667  0.984126  1
  Rh  Rh15  1  0.000000  0.000000  0.750000  1
  Rh  Rh16  1  0.000000  0.000000  0.250000  1
  Rh  Rh17  1  0.666667  0.333333  0.972326  1
