# generated using pymatgen
data_Tb5Ho3Ti12Si15As
_symmetry_space_group_name_H-M   'P 1'
_cell_length_a   7.06236546
_cell_length_b   7.05429489
_cell_length_c   12.97440732
_cell_angle_alpha   89.99228853
_cell_angle_beta   89.81412285
_cell_angle_gamma   89.96687766
_symmetry_Int_Tables_number   1
_chemical_formula_structural   Tb5Ho3Ti12Si15As
_chemical_formula_sum   'Tb5 Ho3 Ti12 Si15 As1'
_cell_volume   646.38156838
_cell_formula_units_Z   1
loop_
 _symmetry_equiv_pos_site_id
 _symmetry_equiv_pos_as_xyz
  1  'x, y, z'
loop_
 _atom_site_type_symbol
 _atom_site_label
 _atom_site_symmetry_multiplicity
 _atom_site_fract_x
 _atom_site_fract_y
 _atom_site_fract_z
 _atom_site_occupancy
  Tb  Tb0  1  0.341085  0.002347  0.466214  1
  Tb  Tb1  1  0.496689  0.842076  0.717489  1
  Tb  Tb2  1  0.502891  0.159244  0.216208  1
  Tb  Tb3  1  0.840153  0.496451  0.283022  1
  Tb  Tb4  1  0.159135  0.501847  0.783445  1
  Ho  Ho5  1  0.660734  0.995293  0.967660  1
  Ho  Ho6  1  0.999247  0.343517  0.532082  1
  Ho  Ho7  1  0.998406  0.659195  0.033299  1
  Ti  Ti8  1  0.326000  0.326539  0.999821  1
  Ti  Ti9  1  0.173067  0.826799  0.249819  1
  Ti  Ti10  1  0.823764  0.173833  0.750404  1
  Ti  Ti11  1  0.673275  0.672941  0.500050  1
  Ti  Ti12  1  0.153924  0.009676  0.875789  1
  Ti  Ti13  1  0.491958  0.652224  0.125581  1
  Ti  Ti14  1  0.509332  0.347005  0.627412  1
  Ti  Ti15  1  0.655128  0.494918  0.874934  1
  Ti  Ti16  1  0.346763  0.507859  0.373721  1
  Ti  Ti17  1  0.847175  0.991686  0.375879  1
  Ti  Ti18  1  0.008502  0.151382  0.123662  1
  Ti  Ti19  1  0.989279  0.843922  0.623083  1
  Si  Si20  1  0.369369  0.703432  0.934464  1
  Si  Si21  1  0.629632  0.298238  0.435358  1
  Si  Si22  1  0.703139  0.370193  0.065344  1
  Si  Si23  1  0.296889  0.629221  0.565480  1
  Si  Si24  1  0.797596  0.869386  0.184046  1
  Si  Si25  1  0.129898  0.202657  0.315704  1
  Si  Si26  1  0.870539  0.798398  0.815767  1
  Si  Si27  1  0.290884  0.952345  0.064275  1
  Si  Si28  1  0.547382  0.789697  0.314388  1
  Si  Si29  1  0.461984  0.211774  0.820012  1
  Si  Si30  1  0.790331  0.546982  0.685197  1
  Si  Si31  1  0.209379  0.453096  0.185064  1
  Si  Si32  1  0.709750  0.046889  0.564347  1
  Si  Si33  1  0.953092  0.290491  0.935683  1
  Si  Si34  1  0.046830  0.709379  0.435014  1
  As  As35  1  0.196801  0.129065  0.680281  1
