# generated using pymatgen
data_Y16Ho3TmPb16
_symmetry_space_group_name_H-M   'P 1'
_cell_length_a   8.22392413
_cell_length_b   15.69003112
_cell_length_c   8.29154024
_cell_angle_alpha   90.01031829
_cell_angle_beta   89.97863454
_cell_angle_gamma   89.98906832
_symmetry_Int_Tables_number   1
_chemical_formula_structural   Y16Ho3TmPb16
_chemical_formula_sum   'Y16 Ho3 Tm1 Pb16'
_cell_volume   1069.88738839
_cell_formula_units_Z   1
loop_
 _symmetry_equiv_pos_site_id
 _symmetry_equiv_pos_as_xyz
  1  'x, y, z'
loop_
 _atom_site_type_symbol
 _atom_site_label
 _atom_site_symmetry_multiplicity
 _atom_site_fract_x
 _atom_site_fract_y
 _atom_site_fract_z
 _atom_site_occupancy
  Y  Y0  1  0.623318  0.621167  0.158555  1
  Y  Y1  1  0.122791  0.878854  0.341774  1
  Y  Y2  1  0.376918  0.120955  0.841597  1
  Y  Y3  1  0.876872  0.379148  0.658581  1
  Y  Y4  1  0.376959  0.379085  0.841628  1
  Y  Y5  1  0.876939  0.120861  0.658544  1
  Y  Y6  1  0.623323  0.878806  0.158523  1
  Y  Y7  1  0.122803  0.621094  0.341803  1
  Y  Y8  1  0.464345  0.600210  0.675214  1
  Y  Y9  1  0.964077  0.899748  0.824348  1
  Y  Y10  1  0.535709  0.100014  0.324569  1
  Y  Y11  1  0.035779  0.399926  0.175555  1
  Y  Y12  1  0.535660  0.400029  0.324563  1
  Y  Y13  1  0.035799  0.100096  0.175545  1
  Y  Y14  1  0.464376  0.899742  0.675212  1
  Y  Y15  1  0.964116  0.600245  0.824315  1
  Ho  Ho16  1  0.291105  0.749990  0.003796  1
  Ho  Ho17  1  0.209095  0.250011  0.504022  1
  Ho  Ho18  1  0.709065  0.250034  0.996271  1
  Tm  Tm19  1  0.790781  0.749986  0.495883  1
  Pb  Pb20  1  0.718682  0.457194  0.967407  1
  Pb  Pb21  1  0.218436  0.042994  0.532550  1
  Pb  Pb22  1  0.281640  0.956856  0.032378  1
  Pb  Pb23  1  0.781525  0.543280  0.467494  1
  Pb  Pb24  1  0.281588  0.543160  0.032398  1
  Pb  Pb25  1  0.781507  0.956741  0.467408  1
  Pb  Pb26  1  0.718533  0.042923  0.967454  1
  Pb  Pb27  1  0.218192  0.456870  0.532667  1
  Pb  Pb28  1  0.428542  0.749993  0.373708  1
  Pb  Pb29  1  0.928146  0.750002  0.126746  1
  Pb  Pb30  1  0.572085  0.250001  0.626239  1
  Pb  Pb31  1  0.071708  0.249999  0.874270  1
  Pb  Pb32  1  0.652831  0.749980  0.845079  1
  Pb  Pb33  1  0.152164  0.749998  0.653511  1
  Pb  Pb34  1  0.347249  0.250005  0.153655  1
  Pb  Pb35  1  0.847342  0.250003  0.346741  1
