# generated using pymatgen
data_Tm4Zr3Sc3Ga8
_symmetry_space_group_name_H-M   'P 1'
_cell_length_a   7.15947011
_cell_length_b   7.53033014
_cell_length_c   14.37398607
_cell_angle_alpha   90.01088648
_cell_angle_beta   90.00268104
_cell_angle_gamma   89.98017843
_symmetry_Int_Tables_number   1
_chemical_formula_structural   Tm4Zr3Sc3Ga8
_chemical_formula_sum   'Tm8 Zr6 Sc6 Ga16'
_cell_volume   774.94714500
_cell_formula_units_Z   2
loop_
 _symmetry_equiv_pos_site_id
 _symmetry_equiv_pos_as_xyz
  1  'x, y, z'
loop_
 _atom_site_type_symbol
 _atom_site_label
 _atom_site_symmetry_multiplicity
 _atom_site_fract_x
 _atom_site_fract_y
 _atom_site_fract_z
 _atom_site_occupancy
  Tm  Tm0  1  0.010036  0.178788  0.092561  1
  Tm  Tm1  1  0.989964  0.821212  0.907439  1
  Tm  Tm2  1  0.490311  0.677902  0.906643  1
  Tm  Tm3  1  0.990392  0.822558  0.592697  1
  Tm  Tm4  1  0.509689  0.322098  0.093357  1
  Tm  Tm5  1  0.009608  0.177442  0.407303  1
  Tm  Tm6  1  0.509059  0.323222  0.406817  1
  Tm  Tm7  1  0.490941  0.676778  0.593183  1
  Zr  Zr8  1  0.328493  0.175015  0.623467  1
  Zr  Zr9  1  0.671507  0.824985  0.376533  1
  Zr  Zr10  1  0.171603  0.675108  0.376845  1
  Zr  Zr11  1  0.671674  0.826848  0.123417  1
  Zr  Zr12  1  0.828397  0.324892  0.623155  1
  Zr  Zr13  1  0.328326  0.173152  0.876583  1
  Sc  Sc14  1  0.161510  0.506848  0.750612  1
  Sc  Sc15  1  0.838490  0.493152  0.249388  1
  Sc  Sc16  1  0.337692  0.005600  0.249387  1
  Sc  Sc17  1  0.662308  0.994400  0.750613  1
  Sc  Sc18  1  0.828230  0.327397  0.877609  1
  Sc  Sc19  1  0.171770  0.672603  0.122391  1
  Ga  Ga20  1  0.030518  0.116929  0.749356  1
  Ga  Ga21  1  0.969482  0.883071  0.250644  1
  Ga  Ga22  1  0.469417  0.617610  0.250804  1
  Ga  Ga23  1  0.530583  0.382390  0.749196  1
  Ga  Ga24  1  0.284557  0.872227  0.749360  1
  Ga  Ga25  1  0.715443  0.127773  0.250640  1
  Ga  Ga26  1  0.215752  0.370238  0.250998  1
  Ga  Ga27  1  0.784248  0.629762  0.749002  1
  Ga  Ga28  1  0.163628  0.462889  0.540221  1
  Ga  Ga29  1  0.836372  0.537111  0.459779  1
  Ga  Ga30  1  0.337024  0.963010  0.459772  1
  Ga  Ga31  1  0.836792  0.536748  0.041427  1
  Ga  Ga32  1  0.662976  0.036990  0.540228  1
  Ga  Ga33  1  0.163208  0.463252  0.958573  1
  Ga  Ga34  1  0.662524  0.035595  0.959341  1
  Ga  Ga35  1  0.337476  0.964405  0.040659  1
