# generated using pymatgen
data_Nd12Si11Pd
_symmetry_space_group_name_H-M   'P 1'
_cell_length_a   3.97430400
_cell_length_b   5.87638512
_cell_length_c   24.50671200
_cell_angle_alpha   82.79136482
_cell_angle_beta   90.00000000
_cell_angle_gamma   90.00000000
_symmetry_Int_Tables_number   1
_chemical_formula_structural   Nd12Si11Pd
_chemical_formula_sum   'Nd12 Si11 Pd1'
_cell_volume   567.81909415
_cell_formula_units_Z   1
loop_
 _symmetry_equiv_pos_site_id
 _symmetry_equiv_pos_as_xyz
  1  'x, y, z'
loop_
 _atom_site_type_symbol
 _atom_site_label
 _atom_site_symmetry_multiplicity
 _atom_site_fract_x
 _atom_site_fract_y
 _atom_site_fract_z
 _atom_site_occupancy
  Nd  Nd0  1  0.500000  0.082230  0.059462  1
  Nd  Nd1  1  0.500000  0.087463  0.562050  1
  Nd  Nd2  1  0.000000  0.925298  0.440216  1
  Nd  Nd3  1  0.000000  0.915941  0.939892  1
  Nd  Nd4  1  0.500000  0.449938  0.393207  1
  Nd  Nd5  1  0.500000  0.440410  0.893170  1
  Nd  Nd6  1  0.000000  0.555967  0.106180  1
  Nd  Nd7  1  0.000000  0.558839  0.607034  1
  Nd  Nd8  1  0.500000  0.257847  0.225943  1
  Nd  Nd9  1  0.500000  0.254004  0.724687  1
  Nd  Nd10  1  0.000000  0.746547  0.273394  1
  Nd  Nd11  1  0.000000  0.733988  0.774806  1
  Si  Si12  1  0.500000  0.613948  0.011177  1
  Si  Si13  1  0.500000  0.619117  0.511521  1
  Si  Si14  1  0.000000  0.388974  0.488757  1
  Si  Si15  1  0.000000  0.384095  0.987587  1
  Si  Si16  1  0.500000  0.779470  0.177715  1
  Si  Si17  1  0.500000  0.769591  0.680039  1
  Si  Si18  1  0.000000  0.226510  0.321532  1
  Si  Si19  1  0.000000  0.212359  0.820897  1
  Si  Si20  1  0.500000  0.968917  0.345019  1
  Si  Si21  1  0.500000  0.962135  0.844883  1
  Si  Si22  1  0.000000  0.034998  0.154542  1
  Pd  Pd23  1  0.000000  0.031411  0.656284  1
