# generated using pymatgen
data_NdYLu2(ReB6)2
_symmetry_space_group_name_H-M   'P 1'
_cell_length_a   3.67254800
_cell_length_b   9.15374705
_cell_length_c   11.57795123
_cell_angle_alpha   90.01733107
_cell_angle_beta   90.00000000
_cell_angle_gamma   90.00000000
_symmetry_Int_Tables_number   1
_chemical_formula_structural   NdYLu2(ReB6)2
_chemical_formula_sum   'Nd2 Y2 Lu4 Re4 B24'
_cell_volume   389.22263086
_cell_formula_units_Z   2
loop_
 _symmetry_equiv_pos_site_id
 _symmetry_equiv_pos_as_xyz
  1  'x, y, z'
loop_
 _atom_site_type_symbol
 _atom_site_label
 _atom_site_symmetry_multiplicity
 _atom_site_fract_x
 _atom_site_fract_y
 _atom_site_fract_z
 _atom_site_occupancy
  Nd  Nd0  1  0.000000  0.822422  0.086151  1
  Nd  Nd1  1  0.000000  0.177578  0.913849  1
  Y  Y2  1  0.000000  0.323198  0.414738  1
  Y  Y3  1  0.000000  0.676802  0.585262  1
  Lu  Lu4  1  0.000000  0.943284  0.371029  1
  Lu  Lu5  1  0.000000  0.056716  0.628971  1
  Lu  Lu6  1  0.000000  0.443265  0.131334  1
  Lu  Lu7  1  0.000000  0.556735  0.868666  1
  Re  Re8  1  0.000000  0.638617  0.320900  1
  Re  Re9  1  0.000000  0.361383  0.679100  1
  Re  Re10  1  0.000000  0.140745  0.182653  1
  Re  Re11  1  0.000000  0.859255  0.817347  1
  B  B12  1  0.500000  0.553708  0.432924  1
  B  B13  1  0.500000  0.446292  0.567076  1
  B  B14  1  0.500000  0.055527  0.070436  1
  B  B15  1  0.500000  0.944473  0.929564  1
  B  B16  1  0.500000  0.750607  0.418672  1
  B  B17  1  0.500000  0.249393  0.581328  1
  B  B18  1  0.500000  0.251900  0.085069  1
  B  B19  1  0.500000  0.748100  0.914931  1
  B  B20  1  0.500000  0.792005  0.267599  1
  B  B21  1  0.500000  0.207995  0.732401  1
  B  B22  1  0.500000  0.293493  0.236526  1
  B  B23  1  0.500000  0.706507  0.763474  1
  B  B24  1  0.500000  0.628387  0.186921  1
  B  B25  1  0.500000  0.371613  0.813079  1
  B  B26  1  0.500000  0.130389  0.316830  1
  B  B27  1  0.500000  0.869611  0.683170  1
  B  B28  1  0.500000  0.983504  0.215235  1
  B  B29  1  0.500000  0.016496  0.784765  1
  B  B30  1  0.500000  0.481577  0.288531  1
  B  B31  1  0.500000  0.518423  0.711469  1
  B  B32  1  0.500000  0.594878  0.026249  1
  B  B33  1  0.500000  0.405122  0.973751  1
  B  B34  1  0.500000  0.097916  0.473151  1
  B  B35  1  0.500000  0.902084  0.526849  1
