# generated using pymatgen
data_Cs(SnSe2)12
_symmetry_space_group_name_H-M   'P 1'
_cell_length_a   12.54312571
_cell_length_b   12.66506870
_cell_length_c   11.58071343
_cell_angle_alpha   108.11542570
_cell_angle_beta   108.35227637
_cell_angle_gamma   64.79448477
_symmetry_Int_Tables_number   1
_chemical_formula_structural   Cs(SnSe2)12
_chemical_formula_sum   'Cs1 Sn12 Se24'
_cell_volume   1546.01877908
_cell_formula_units_Z   1
loop_
 _symmetry_equiv_pos_site_id
 _symmetry_equiv_pos_as_xyz
  1  'x, y, z'
loop_
 _atom_site_type_symbol
 _atom_site_label
 _atom_site_symmetry_multiplicity
 _atom_site_fract_x
 _atom_site_fract_y
 _atom_site_fract_z
 _atom_site_occupancy
  Cs  Cs0  1  0.000000  0.500000  0.000000  1
  Sn  Sn1  1  0.498763  0.500688  0.666428  1
  Sn  Sn2  1  0.999136  0.998730  0.664710  1
  Sn  Sn3  1  0.746583  0.246498  0.830937  1
  Sn  Sn4  1  0.251578  0.753439  0.833814  1
  Sn  Sn5  1  0.500000  0.500000  0.000000  1
  Sn  Sn6  1  0.000000  0.000000  0.000000  1
  Sn  Sn7  1  0.748422  0.246561  0.166186  1
  Sn  Sn8  1  0.253417  0.753502  0.169063  1
  Sn  Sn9  1  0.501237  0.499312  0.333572  1
  Sn  Sn10  1  0.000864  0.001270  0.335290  1
  Sn  Sn11  1  0.747663  0.246915  0.497380  1
  Sn  Sn12  1  0.252337  0.753085  0.502620  1
  Se  Se13  1  0.499350  0.337416  0.777951  1
  Se  Se14  1  0.003182  0.836649  0.779208  1
  Se  Se15  1  0.751435  0.083624  0.944414  1
  Se  Se16  1  0.251360  0.590094  0.946363  1
  Se  Se17  1  0.748011  0.410262  0.721156  1
  Se  Se18  1  0.247933  0.917120  0.722706  1
  Se  Se19  1  0.500147  0.337003  0.110894  1
  Se  Se20  1  0.004364  0.836091  0.113096  1
  Se  Se21  1  0.995636  0.163909  0.886904  1
  Se  Se22  1  0.499853  0.662997  0.889106  1
  Se  Se23  1  0.251989  0.589738  0.278844  1
  Se  Se24  1  0.752067  0.082880  0.277294  1
  Se  Se25  1  0.748640  0.409906  0.053637  1
  Se  Se26  1  0.248565  0.916376  0.055586  1
  Se  Se27  1  0.499997  0.337038  0.444966  1
  Se  Se28  1  0.003819  0.835755  0.444113  1
  Se  Se29  1  0.996818  0.163351  0.220792  1
  Se  Se30  1  0.500650  0.662584  0.222049  1
  Se  Se31  1  0.251402  0.589862  0.612492  1
  Se  Se32  1  0.750649  0.083750  0.610023  1
  Se  Se33  1  0.748598  0.410138  0.387508  1
  Se  Se34  1  0.249351  0.916250  0.389977  1
  Se  Se35  1  0.996181  0.164245  0.555887  1
  Se  Se36  1  0.500003  0.662962  0.555034  1
