# generated using pymatgen
data_EuN4
_symmetry_space_group_name_H-M   'P 1'
_cell_length_a   3.82866266
_cell_length_b   4.95273531
_cell_length_c   7.08742100
_cell_angle_alpha   70.11932483
_cell_angle_beta   85.91987313
_cell_angle_gamma   129.39452622
_symmetry_Int_Tables_number   1
_chemical_formula_structural   EuN4
_chemical_formula_sum   'Eu1 N4'
_cell_volume   89.73201384
_cell_formula_units_Z   1
loop_
 _symmetry_equiv_pos_site_id
 _symmetry_equiv_pos_as_xyz
  1  'x, y, z'
loop_
 _atom_site_type_symbol
 _atom_site_label
 _atom_site_symmetry_multiplicity
 _atom_site_fract_x
 _atom_site_fract_y
 _atom_site_fract_z
 _atom_site_occupancy
  Eu  Eu0  1  0.769368  0.448687  0.298839  1
  N  N1  1  0.562675  0.844710  0.300328  1
  N  N2  1  0.976164  0.052664  0.297266  1
  N  N3  1  0.174084  0.856088  0.891716  1
  N  N4  1  0.363828  0.042581  0.705993  1
