# generated using pymatgen
data_PaBe11Cu2
_symmetry_space_group_name_H-M   'P 1'
_cell_length_a   7.34910231
_cell_length_b   7.31195418
_cell_length_c   7.35001905
_cell_angle_alpha   60.16289216
_cell_angle_beta   59.66175359
_cell_angle_gamma   60.17536827
_symmetry_Int_Tables_number   1
_chemical_formula_structural   PaBe11Cu2
_chemical_formula_sum   'Pa2 Be22 Cu4'
_cell_volume   279.26636330
_cell_formula_units_Z   2
loop_
 _symmetry_equiv_pos_site_id
 _symmetry_equiv_pos_as_xyz
  1  'x, y, z'
loop_
 _atom_site_type_symbol
 _atom_site_label
 _atom_site_symmetry_multiplicity
 _atom_site_fract_x
 _atom_site_fract_y
 _atom_site_fract_z
 _atom_site_occupancy
  Pa  Pa0  1  0.250000  0.250000  0.250000  1
  Pa  Pa1  1  0.750000  0.750000  0.750000  1
  Be  Be2  1  0.704505  0.935727  0.064273  1
  Be  Be3  1  0.698594  0.056526  0.301406  1
  Be  Be4  1  0.064273  0.295495  0.704505  1
  Be  Be5  1  0.943474  0.301406  0.056526  1
  Be  Be6  1  0.935727  0.704505  0.295495  1
  Be  Be7  1  0.301406  0.943474  0.698594  1
  Be  Be8  1  0.295495  0.064273  0.935727  1
  Be  Be9  1  0.056526  0.698594  0.943474  1
  Be  Be10  1  0.787777  0.441979  0.558021  1
  Be  Be11  1  0.558021  0.212223  0.787777  1
  Be  Be12  1  0.212223  0.558021  0.441979  1
  Be  Be13  1  0.441979  0.787777  0.212223  1
  Be  Be14  1  0.779797  0.220203  0.433908  1
  Be  Be15  1  0.787049  0.562917  0.212951  1
  Be  Be16  1  0.433908  0.566092  0.779797  1
  Be  Be17  1  0.562917  0.787049  0.437083  1
  Be  Be18  1  0.566092  0.433908  0.220203  1
  Be  Be19  1  0.212951  0.437083  0.787049  1
  Be  Be20  1  0.220203  0.779797  0.566092  1
  Be  Be21  1  0.437083  0.212951  0.562917  1
  Be  Be22  1  0.000000  0.000000  0.000000  1
  Be  Be23  1  0.500000  0.500000  0.500000  1
  Cu  Cu24  1  0.694985  0.305015  0.944893  1
  Cu  Cu25  1  0.944893  0.055107  0.694985  1
  Cu  Cu26  1  0.305015  0.694985  0.055107  1
  Cu  Cu27  1  0.055107  0.944893  0.305015  1
