# generated using pymatgen
data_Tb2YSc3FeSb2
_symmetry_space_group_name_H-M   'P 1'
_cell_length_a   7.88407300
_cell_length_b   7.86646753
_cell_length_c   4.15627000
_cell_angle_alpha   90.00000000
_cell_angle_beta   90.00000000
_cell_angle_gamma   120.07407405
_symmetry_Int_Tables_number   1
_chemical_formula_structural   Tb2YSc3FeSb2
_chemical_formula_sum   'Tb2 Y1 Sc3 Fe1 Sb2'
_cell_volume   223.06946487
_cell_formula_units_Z   1
loop_
 _symmetry_equiv_pos_site_id
 _symmetry_equiv_pos_as_xyz
  1  'x, y, z'
loop_
 _atom_site_type_symbol
 _atom_site_label
 _atom_site_symmetry_multiplicity
 _atom_site_fract_x
 _atom_site_fract_y
 _atom_site_fract_z
 _atom_site_occupancy
  Tb  Tb0  1  0.393116  0.392865  0.500000  1
  Tb  Tb1  1  0.000251  0.607135  0.500000  1
  Y  Y2  1  0.606470  0.000000  0.500000  1
  Sc  Sc3  1  0.225190  0.000000  0.000000  1
  Sc  Sc4  1  0.774660  0.774630  0.000000  1
  Sc  Sc5  1  0.000030  0.225370  0.000000  1
  Fe  Fe6  1  0.999978  0.000000  0.500000  1
  Sb  Sb7  1  0.333740  0.667177  0.000000  1
  Sb  Sb8  1  0.666565  0.332823  0.000000  1
