# generated using pymatgen
data_La12Al2CoTc2Ni
_symmetry_space_group_name_H-M   'P 1'
_cell_length_a   8.77883231
_cell_length_b   8.78049355
_cell_length_c   8.77883130
_cell_angle_alpha   112.83475852
_cell_angle_beta   110.84132142
_cell_angle_gamma   104.83417537
_symmetry_Int_Tables_number   1
_chemical_formula_structural   La12Al2CoTc2Ni
_chemical_formula_sum   'La12 Al2 Co1 Tc2 Ni1'
_cell_volume   518.26661565
_cell_formula_units_Z   1
loop_
 _symmetry_equiv_pos_site_id
 _symmetry_equiv_pos_as_xyz
  1  'x, y, z'
loop_
 _atom_site_type_symbol
 _atom_site_label
 _atom_site_symmetry_multiplicity
 _atom_site_fract_x
 _atom_site_fract_y
 _atom_site_fract_z
 _atom_site_occupancy
  La  La0  1  0.428491  0.234702  0.193768  1
  La  La1  1  0.567735  0.763108  0.804568  1
  La  La2  1  0.040934  0.234702  0.806209  1
  La  La3  1  0.958540  0.763108  0.195375  1
  La  La4  1  0.178980  0.282209  0.466106  1
  La  La5  1  0.816186  0.712830  0.533866  1
  La  La6  1  0.178963  0.712830  0.896643  1
  La  La7  1  0.816102  0.282209  0.103229  1
  La  La8  1  0.333199  0.647619  0.314421  1
  La  La9  1  0.675327  0.358440  0.683113  1
  La  La10  1  0.333139  0.018641  0.685504  1
  La  La11  1  0.675292  0.992179  0.316887  1
  Al  Al12  1  0.499978  0.499938  0.999959  1
  Al  Al13  1  0.997792  0.997757  0.999965  1
  Co  Co14  1  0.887721  0.387695  0.499974  1
  Tc  Tc15  1  0.311717  0.998880  0.312822  1
  Tc  Tc16  1  0.686059  0.998880  0.687163  1
  Ni  Ni17  1  0.113842  0.614272  0.500430  1
