# generated using pymatgen
data_Li8Dy8BiPb7
_symmetry_space_group_name_H-M   'P 1'
_cell_length_a   9.52793400
_cell_length_b   9.52564582
_cell_length_c   7.33057153
_cell_angle_alpha   90.08369151
_cell_angle_beta   90.00000000
_cell_angle_gamma   120.00794649
_symmetry_Int_Tables_number   1
_chemical_formula_structural   Li8Dy8BiPb7
_chemical_formula_sum   'Li8 Dy8 Bi1 Pb7'
_cell_volume   576.13762504
_cell_formula_units_Z   1
loop_
 _symmetry_equiv_pos_site_id
 _symmetry_equiv_pos_as_xyz
  1  'x, y, z'
loop_
 _atom_site_type_symbol
 _atom_site_label
 _atom_site_symmetry_multiplicity
 _atom_site_fract_x
 _atom_site_fract_y
 _atom_site_fract_z
 _atom_site_occupancy
  Li  Li0  1  0.166689  0.333379  0.285747  1
  Li  Li1  1  0.167615  0.833484  0.287891  1
  Li  Li2  1  0.665870  0.833484  0.287891  1
  Li  Li3  1  0.833357  0.666714  0.786637  1
  Li  Li4  1  0.830688  0.165524  0.790251  1
  Li  Li5  1  0.334836  0.165524  0.790251  1
  Li  Li6  1  0.334518  0.669037  0.671417  1
  Li  Li7  1  0.666288  0.332575  0.173672  1
  Dy  Dy8  1  0.512492  0.024982  0.493912  1
  Dy  Dy9  1  0.515442  0.490139  0.491483  1
  Dy  Dy10  1  0.974698  0.490139  0.491483  1
  Dy  Dy11  1  0.487485  0.974970  0.994535  1
  Dy  Dy12  1  0.491989  0.513445  0.995710  1
  Dy  Dy13  1  0.021455  0.513445  0.995710  1
  Dy  Dy14  1  0.998270  0.996541  0.498765  1
  Dy  Dy15  1  0.998477  0.996952  0.002611  1
  Bi  Bi16  1  0.166755  0.333510  0.732600  1
  Pb  Pb17  1  0.166700  0.832998  0.730074  1
  Pb  Pb18  1  0.666298  0.832998  0.730074  1
  Pb  Pb19  1  0.833224  0.666448  0.230787  1
  Pb  Pb20  1  0.834014  0.167329  0.230374  1
  Pb  Pb21  1  0.333314  0.167329  0.230374  1
  Pb  Pb22  1  0.332595  0.665190  0.259470  1
  Pb  Pb23  1  0.666932  0.333861  0.760276  1
