# generated using pymatgen
data_TiZn6Ga5Rh12
_symmetry_space_group_name_H-M   'P 1'
_cell_length_a   4.26733000
_cell_length_b   6.09539200
_cell_length_c   12.87096900
_cell_angle_alpha   90.00005046
_cell_angle_beta   89.99815209
_cell_angle_gamma   90.00018799
_symmetry_Int_Tables_number   1
_chemical_formula_structural   TiZn6Ga5Rh12
_chemical_formula_sum   'Ti1 Zn6 Ga5 Rh12'
_cell_volume   334.78740709
_cell_formula_units_Z   1
loop_
 _symmetry_equiv_pos_site_id
 _symmetry_equiv_pos_as_xyz
  1  'x, y, z'
loop_
 _atom_site_type_symbol
 _atom_site_label
 _atom_site_symmetry_multiplicity
 _atom_site_fract_x
 _atom_site_fract_y
 _atom_site_fract_z
 _atom_site_occupancy
  Ti  Ti0  1  0.000000  0.000000  0.000000  1
  Zn  Zn1  1  0.000000  0.500000  0.000000  1
  Zn  Zn2  1  0.499807  0.000000  0.164410  1
  Zn  Zn3  1  0.999793  0.500000  0.335538  1
  Zn  Zn4  1  0.500000  0.000000  0.500000  1
  Zn  Zn5  1  0.000207  0.500000  0.664462  1
  Zn  Zn6  1  0.500193  0.000000  0.835590  1
  Ga  Ga7  1  0.499820  0.500000  0.169623  1
  Ga  Ga8  1  0.999818  0.000001  0.333726  1
  Ga  Ga9  1  0.500000  0.500000  0.500000  1
  Ga  Ga10  1  0.000182  0.999999  0.666275  1
  Ga  Ga11  1  0.500180  0.500000  0.830378  1
  Rh  Rh12  1  0.499999  0.254599  0.000000  1
  Rh  Rh13  1  0.500001  0.745400  0.000000  1
  Rh  Rh14  1  0.999838  0.251348  0.166245  1
  Rh  Rh15  1  0.999843  0.748646  0.166246  1
  Rh  Rh16  1  0.499808  0.248349  0.332790  1
  Rh  Rh17  1  0.499799  0.751649  0.332788  1
  Rh  Rh18  1  0.999994  0.248648  0.499998  1
  Rh  Rh19  1  0.000006  0.751353  0.500002  1
  Rh  Rh20  1  0.500201  0.248352  0.667212  1
  Rh  Rh21  1  0.500192  0.751652  0.667210  1
  Rh  Rh22  1  0.000156  0.251353  0.833754  1
  Rh  Rh23  1  0.000161  0.748651  0.833755  1
