# generated using pymatgen
data_Tm3NiSn3Pt2
_symmetry_space_group_name_H-M   'P 1'
_cell_length_a   7.54400500
_cell_length_b   7.54400527
_cell_length_c   3.79552900
_cell_angle_alpha   90.00000000
_cell_angle_beta   90.00000000
_cell_angle_gamma   120.00000320
_symmetry_Int_Tables_number   1
_chemical_formula_structural   Tm3NiSn3Pt2
_chemical_formula_sum   'Tm3 Ni1 Sn3 Pt2'
_cell_volume   187.07117861
_cell_formula_units_Z   1
loop_
 _symmetry_equiv_pos_site_id
 _symmetry_equiv_pos_as_xyz
  1  'x, y, z'
loop_
 _atom_site_type_symbol
 _atom_site_label
 _atom_site_symmetry_multiplicity
 _atom_site_fract_x
 _atom_site_fract_y
 _atom_site_fract_z
 _atom_site_occupancy
  Tm  Tm0  1  0.000000  0.402728  0.000000  1
  Tm  Tm1  1  0.597272  0.597272  0.000000  1
  Tm  Tm2  1  0.402728  0.000000  0.000000  1
  Ni  Ni3  1  0.000000  0.000000  0.000000  1
  Sn  Sn4  1  0.000000  0.747799  0.500000  1
  Sn  Sn5  1  0.252201  0.252201  0.500000  1
  Sn  Sn6  1  0.747799  0.000000  0.500000  1
  Pt  Pt7  1  0.333333  0.666667  0.500000  1
  Pt  Pt8  1  0.666667  0.333333  0.500000  1
