# generated using pymatgen
data_Tb7Er(LuPb3)2
_symmetry_space_group_name_H-M   'P 1'
_cell_length_a   9.06207800
_cell_length_b   9.06207734
_cell_length_c   6.62642700
_cell_angle_alpha   90.00000000
_cell_angle_beta   90.00000000
_cell_angle_gamma   120.00000240
_symmetry_Int_Tables_number   1
_chemical_formula_structural   Tb7Er(LuPb3)2
_chemical_formula_sum   'Tb7 Er1 Lu2 Pb6'
_cell_volume   471.26544799
_cell_formula_units_Z   1
loop_
 _symmetry_equiv_pos_site_id
 _symmetry_equiv_pos_as_xyz
  1  'x, y, z'
loop_
 _atom_site_type_symbol
 _atom_site_label
 _atom_site_symmetry_multiplicity
 _atom_site_fract_x
 _atom_site_fract_y
 _atom_site_fract_z
 _atom_site_occupancy
  Tb  Tb0  1  0.666667  0.333333  0.500000  1
  Tb  Tb1  1  0.761228  0.761386  0.750776  1
  Tb  Tb2  1  0.238614  0.999842  0.750776  1
  Tb  Tb3  1  0.000158  0.238772  0.750776  1
  Tb  Tb4  1  0.238614  0.238772  0.249224  1
  Tb  Tb5  1  0.761228  0.999842  0.249224  1
  Tb  Tb6  1  0.000158  0.761386  0.249224  1
  Er  Er7  1  0.333333  0.666667  0.500000  1
  Lu  Lu8  1  0.666667  0.333333  0.000000  1
  Lu  Lu9  1  0.333333  0.666667  0.000000  1
  Pb  Pb10  1  0.395356  0.396163  0.752672  1
  Pb  Pb11  1  0.603837  0.999194  0.752672  1
  Pb  Pb12  1  0.000806  0.604644  0.752672  1
  Pb  Pb13  1  0.603837  0.604644  0.247328  1
  Pb  Pb14  1  0.395356  0.999194  0.247328  1
  Pb  Pb15  1  0.000806  0.396163  0.247328  1
