# generated using pymatgen
data_Dy3HoLu2FeBi2
_symmetry_space_group_name_H-M   'P 1'
_cell_length_a   8.27289106
_cell_length_b   8.26190566
_cell_length_c   4.17927800
_cell_angle_alpha   90.00000000
_cell_angle_beta   90.00000000
_cell_angle_gamma   119.95608616
_symmetry_Int_Tables_number   1
_chemical_formula_structural   Dy3HoLu2FeBi2
_chemical_formula_sum   'Dy3 Ho1 Lu2 Fe1 Bi2'
_cell_volume   247.49215494
_cell_formula_units_Z   1
loop_
 _symmetry_equiv_pos_site_id
 _symmetry_equiv_pos_as_xyz
  1  'x, y, z'
loop_
 _atom_site_type_symbol
 _atom_site_label
 _atom_site_symmetry_multiplicity
 _atom_site_fract_x
 _atom_site_fract_y
 _atom_site_fract_z
 _atom_site_occupancy
  Dy  Dy0  1  0.000000  0.612157  0.500000  1
  Dy  Dy1  1  0.390043  0.389635  0.500000  1
  Dy  Dy2  1  0.609957  0.999591  0.500000  1
  Ho  Ho3  1  0.000000  0.229344  0.000000  1
  Lu  Lu4  1  0.228768  0.999615  0.000000  1
  Lu  Lu5  1  0.771232  0.770847  0.000000  1
  Fe  Fe6  1  0.000000  0.997343  0.500000  1
  Bi  Bi7  1  0.334753  0.668112  0.000000  1
  Bi  Bi8  1  0.665247  0.333356  0.000000  1
