# generated using pymatgen
data_Tb13Dy3(HgRh)4
_symmetry_space_group_name_H-M   'P 1'
_cell_length_a   9.62945562
_cell_length_b   9.63144186
_cell_length_c   9.62979516
_cell_angle_alpha   59.98528104
_cell_angle_beta   59.99700312
_cell_angle_gamma   60.02268253
_symmetry_Int_Tables_number   1
_chemical_formula_structural   Tb13Dy3(HgRh)4
_chemical_formula_sum   'Tb13 Dy3 Hg4 Rh4'
_cell_volume   631.55517623
_cell_formula_units_Z   1
loop_
 _symmetry_equiv_pos_site_id
 _symmetry_equiv_pos_as_xyz
  1  'x, y, z'
loop_
 _atom_site_type_symbol
 _atom_site_label
 _atom_site_symmetry_multiplicity
 _atom_site_fract_x
 _atom_site_fract_y
 _atom_site_fract_z
 _atom_site_occupancy
  Tb  Tb0  1  0.690500  0.309952  0.310329  1
  Tb  Tb1  1  0.689714  0.689806  0.311587  1
  Tb  Tb2  1  0.310010  0.690622  0.310320  1
  Tb  Tb3  1  0.937006  0.937063  0.562563  1
  Tb  Tb4  1  0.148003  0.147996  0.554025  1
  Tb  Tb5  1  0.562699  0.937411  0.562894  1
  Tb  Tb6  1  0.149635  0.149598  0.149340  1
  Tb  Tb7  1  0.310335  0.310271  0.690576  1
  Tb  Tb8  1  0.937320  0.562805  0.563029  1
  Tb  Tb9  1  0.562852  0.562832  0.937099  1
  Tb  Tb10  1  0.562367  0.937292  0.936908  1
  Tb  Tb11  1  0.937167  0.562498  0.936833  1
  Tb  Tb12  1  0.148131  0.554109  0.147877  1
  Dy  Dy13  1  0.311452  0.689599  0.689911  1
  Dy  Dy14  1  0.689637  0.311274  0.690051  1
  Dy  Dy15  1  0.553943  0.148233  0.147967  1
  Hg  Hg16  1  0.914443  0.914695  0.255941  1
  Hg  Hg17  1  0.256023  0.914545  0.914586  1
  Hg  Hg18  1  0.914340  0.256033  0.914654  1
  Hg  Hg19  1  0.914925  0.915197  0.915109  1
  Rh  Rh20  1  0.358023  0.357354  0.357307  1
  Rh  Rh21  1  0.927365  0.356630  0.356943  1
  Rh  Rh22  1  0.357194  0.356588  0.927529  1
  Rh  Rh23  1  0.356917  0.927596  0.356624  1
