# generated using pymatgen
data_Sm3Dy2LuCoBr10
_symmetry_space_group_name_H-M   'P 1'
_cell_length_a   7.41502716
_cell_length_b   9.20488801
_cell_length_c   9.35371100
_cell_angle_alpha   108.00315577
_cell_angle_beta   96.37402945
_cell_angle_gamma   104.61727935
_symmetry_Int_Tables_number   1
_chemical_formula_structural   Sm3Dy2LuCoBr10
_chemical_formula_sum   'Sm3 Dy2 Lu1 Co1 Br10'
_cell_volume   574.99607531
_cell_formula_units_Z   1
loop_
 _symmetry_equiv_pos_site_id
 _symmetry_equiv_pos_as_xyz
  1  'x, y, z'
loop_
 _atom_site_type_symbol
 _atom_site_label
 _atom_site_symmetry_multiplicity
 _atom_site_fract_x
 _atom_site_fract_y
 _atom_site_fract_z
 _atom_site_occupancy
  Sm  Sm0  1  0.033333  0.715184  0.408958  1
  Sm  Sm1  1  0.964317  0.283362  0.586141  1
  Sm  Sm2  1  0.871750  0.950462  0.745535  1
  Dy  Dy3  1  0.123629  0.047030  0.258503  1
  Dy  Dy4  1  0.351265  0.128317  0.673869  1
  Lu  Lu5  1  0.655958  0.874344  0.330154  1
  Co  Co6  1  0.999478  0.999200  0.499881  1
  Br  Br7  1  0.452687  0.820857  0.578928  1
  Br  Br8  1  0.543094  0.173074  0.413728  1
  Br  Br9  1  0.912501  0.626997  0.670522  1
  Br  Br10  1  0.089459  0.366495  0.323713  1
  Br  Br11  1  0.248971  0.083004  0.954103  1
  Br  Br12  1  0.753328  0.917930  0.055593  1
  Br  Br13  1  0.345680  0.444471  0.769144  1
  Br  Br14  1  0.648237  0.560845  0.229708  1
  Br  Br15  1  0.768236  0.250764  0.842082  1
  Br  Br16  1  0.238076  0.757664  0.159434  1
