# generated using pymatgen
data_TbHo3(Ni7P4)2
_symmetry_space_group_name_H-M   'P 1'
_cell_length_a   3.69049500
_cell_length_b   9.14887934
_cell_length_c   10.25284913
_cell_angle_alpha   89.86495324
_cell_angle_beta   90.00000000
_cell_angle_gamma   90.00000000
_symmetry_Int_Tables_number   1
_chemical_formula_structural   TbHo3(Ni7P4)2
_chemical_formula_sum   'Tb1 Ho3 Ni14 P8'
_cell_volume   346.17514426
_cell_formula_units_Z   1
loop_
 _symmetry_equiv_pos_site_id
 _symmetry_equiv_pos_as_xyz
  1  'x, y, z'
loop_
 _atom_site_type_symbol
 _atom_site_label
 _atom_site_symmetry_multiplicity
 _atom_site_fract_x
 _atom_site_fract_y
 _atom_site_fract_z
 _atom_site_occupancy
  Tb  Tb0  1  0.500000  0.564021  0.678121  1
  Ho  Ho1  1  0.000000  0.057320  0.395319  1
  Ho  Ho2  1  0.500000  0.942646  0.895801  1
  Ho  Ho3  1  0.000000  0.435535  0.178581  1
  Ni  Ni4  1  0.000000  0.056294  0.699488  1
  Ni  Ni5  1  0.500000  0.943858  0.199376  1
  Ni  Ni6  1  0.000000  0.725655  0.509640  1
  Ni  Ni7  1  0.500000  0.275169  0.010707  1
  Ni  Ni8  1  0.000000  0.097568  0.093828  1
  Ni  Ni9  1  0.500000  0.903297  0.593325  1
  Ni  Ni10  1  0.000000  0.744665  0.273139  1
  Ni  Ni11  1  0.500000  0.253883  0.773992  1
  Ni  Ni12  1  0.000000  0.305624  0.602455  1
  Ni  Ni13  1  0.500000  0.693810  0.103138  1
  Ni  Ni14  1  0.000000  0.687318  0.912068  1
  Ni  Ni15  1  0.500000  0.313166  0.411633  1
  Ni  Ni16  1  0.000000  0.417817  0.870901  1
  Ni  Ni17  1  0.500000  0.581519  0.368435  1
  P  P18  1  0.000000  0.180371  0.889464  1
  P  P19  1  0.500000  0.819202  0.389113  1
  P  P20  1  0.000000  0.846458  0.083846  1
  P  P21  1  0.500000  0.154060  0.583755  1
  P  P22  1  0.000000  0.810208  0.714539  1
  P  P23  1  0.500000  0.190606  0.214961  1
  P  P24  1  0.000000  0.479553  0.460482  1
  P  P25  1  0.500000  0.520376  0.962090  1
