# generated using pymatgen
data_WS27
_symmetry_space_group_name_H-M   'P 1'
_cell_length_a   15.12991784
_cell_length_b   15.11902834
_cell_length_c   15.11582104
_cell_angle_alpha   118.67037284
_cell_angle_beta   118.77048486
_cell_angle_gamma   118.87513296
_symmetry_Int_Tables_number   1
_chemical_formula_structural   WS27
_chemical_formula_sum   'W1 S27'
_cell_volume   989.88155302
_cell_formula_units_Z   1
loop_
 _symmetry_equiv_pos_site_id
 _symmetry_equiv_pos_as_xyz
  1  'x, y, z'
loop_
 _atom_site_type_symbol
 _atom_site_label
 _atom_site_symmetry_multiplicity
 _atom_site_fract_x
 _atom_site_fract_y
 _atom_site_fract_z
 _atom_site_occupancy
  W  W0  1  0.821579  0.821597  0.822104  1
  S  S1  1  0.804584  0.522232  0.522231  1
  S  S2  1  0.524315  0.524508  0.806108  1
  S  S3  1  0.523026  0.805228  0.523241  1
  S  S4  1  0.244315  0.373666  0.633137  1
  S  S5  1  0.354321  0.952769  0.353917  1
  S  S6  1  0.353774  0.353595  0.952247  1
  S  S7  1  0.952992  0.354484  0.354268  1
  S  S8  1  0.125076  0.736908  0.253913  1
  S  S9  1  0.253271  0.124512  0.736314  1
  S  S10  1  0.736732  0.253804  0.124858  1
  S  S11  1  0.736936  0.125074  0.254071  1
  S  S12  1  0.253517  0.736478  0.124664  1
  S  S13  1  0.124747  0.253446  0.736557  1
  S  S14  1  0.348926  0.880280  0.531053  1
  S  S15  1  0.531373  0.349294  0.880474  1
  S  S16  1  0.880413  0.531120  0.348624  1
  S  S17  1  0.880323  0.348771  0.531045  1
  S  S18  1  0.531295  0.880578  0.348973  1
  S  S19  1  0.349276  0.531366  0.880422  1
  S  S20  1  0.243055  0.632170  0.372625  1
  S  S21  1  0.373748  0.244744  0.633378  1
  S  S22  1  0.632180  0.372226  0.242962  1
  S  S23  1  0.631906  0.242617  0.372140  1
  S  S24  1  0.373012  0.632877  0.244034  1
  S  S25  1  0.890897  0.023207  0.023543  1
  S  S26  1  0.024989  0.025129  0.893065  1
  S  S27  1  0.024718  0.892614  0.025329  1
