# generated using pymatgen
data_PrTmSe3
_symmetry_space_group_name_H-M   'P 1'
_cell_length_a   6.90194635
_cell_length_b   6.90194702
_cell_length_c   10.03280100
_cell_angle_alpha   90.00000000
_cell_angle_beta   90.00000000
_cell_angle_gamma   145.75456515
_symmetry_Int_Tables_number   1
_chemical_formula_structural   PrTmSe3
_chemical_formula_sum   'Pr2 Tm2 Se6'
_cell_volume   268.95056661
_cell_formula_units_Z   2
loop_
 _symmetry_equiv_pos_site_id
 _symmetry_equiv_pos_as_xyz
  1  'x, y, z'
loop_
 _atom_site_type_symbol
 _atom_site_label
 _atom_site_symmetry_multiplicity
 _atom_site_fract_x
 _atom_site_fract_y
 _atom_site_fract_z
 _atom_site_occupancy
  Pr  Pr0  1  0.252157  0.747843  0.750000  1
  Pr  Pr1  1  0.747843  0.252157  0.250000  1
  Tm  Tm2  1  0.000000  0.000000  0.000000  1
  Tm  Tm3  1  0.000000  0.000000  0.500000  1
  Se  Se4  1  0.085792  0.914208  0.250000  1
  Se  Se5  1  0.914208  0.085792  0.750000  1
  Se  Se6  1  0.643212  0.356788  0.561734  1
  Se  Se7  1  0.356788  0.643212  0.438266  1
  Se  Se8  1  0.643212  0.356788  0.938266  1
  Se  Se9  1  0.356788  0.643212  0.061734  1
