# generated using pymatgen
data_Er5As9P3IrRh18
_symmetry_space_group_name_H-M   'P 1'
_cell_length_a   13.04773100
_cell_length_b   13.04772944
_cell_length_c   3.95452100
_cell_angle_alpha   90.00000000
_cell_angle_beta   90.00000000
_cell_angle_gamma   120.00000141
_symmetry_Int_Tables_number   1
_chemical_formula_structural   Er5As9P3IrRh18
_chemical_formula_sum   'Er5 As9 P3 Ir1 Rh18'
_cell_volume   583.03476136
_cell_formula_units_Z   1
loop_
 _symmetry_equiv_pos_site_id
 _symmetry_equiv_pos_as_xyz
  1  'x, y, z'
loop_
 _atom_site_type_symbol
 _atom_site_label
 _atom_site_symmetry_multiplicity
 _atom_site_fract_x
 _atom_site_fract_y
 _atom_site_fract_z
 _atom_site_occupancy
  Er  Er0  1  0.666667  0.333333  0.000000  1
  Er  Er1  1  0.333333  0.666667  0.000000  1
  Er  Er2  1  0.818013  0.818013  0.500000  1
  Er  Er3  1  0.181987  0.000000  0.500000  1
  Er  Er4  1  0.000000  0.181987  0.500000  1
  As  As5  1  0.679879  0.161432  0.500000  1
  As  As6  1  0.838568  0.518447  0.500000  1
  As  As7  1  0.481553  0.320121  0.500000  1
  As  As8  1  0.161432  0.679879  0.500000  1
  As  As9  1  0.518447  0.838568  0.500000  1
  As  As10  1  0.320121  0.481553  0.500000  1
  As  As11  1  0.638691  0.638691  0.000000  1
  As  As12  1  0.361309  0.000000  0.000000  1
  As  As13  1  0.000000  0.361309  0.000000  1
  P  P14  1  0.175538  0.175538  0.000000  1
  P  P15  1  0.824462  0.000000  0.000000  1
  P  P16  1  0.000000  0.824462  0.000000  1
  Ir  Ir17  1  0.000000  0.000000  0.000000  1
  Rh  Rh18  1  0.807307  0.172372  0.000000  1
  Rh  Rh19  1  0.827628  0.634935  0.000000  1
  Rh  Rh20  1  0.365065  0.192693  0.000000  1
  Rh  Rh21  1  0.172372  0.807307  0.000000  1
  Rh  Rh22  1  0.634935  0.827628  0.000000  1
  Rh  Rh23  1  0.192693  0.365065  0.000000  1
  Rh  Rh24  1  0.449214  0.449214  0.000000  1
  Rh  Rh25  1  0.550786  0.000000  0.000000  1
  Rh  Rh26  1  0.000000  0.550786  0.000000  1
  Rh  Rh27  1  0.268485  0.268485  0.500000  1
  Rh  Rh28  1  0.731515  0.000000  0.500000  1
  Rh  Rh29  1  0.000000  0.731515  0.500000  1
  Rh  Rh30  1  0.868044  0.352026  0.500000  1
  Rh  Rh31  1  0.647974  0.516019  0.500000  1
  Rh  Rh32  1  0.483981  0.131956  0.500000  1
  Rh  Rh33  1  0.352026  0.868044  0.500000  1
  Rh  Rh34  1  0.516019  0.647974  0.500000  1
  Rh  Rh35  1  0.131956  0.483981  0.500000  1
