# generated using pymatgen
data_La3Ga2Ir7
_symmetry_space_group_name_H-M   'P 1'
_cell_length_a   5.57887873
_cell_length_b   5.57888437
_cell_length_c   8.92042566
_cell_angle_alpha   71.76889846
_cell_angle_beta   108.23274061
_cell_angle_gamma   119.99546810
_symmetry_Int_Tables_number   1
_chemical_formula_structural   La3Ga2Ir7
_chemical_formula_sum   'La3 Ga2 Ir7'
_cell_volume   224.21292418
_cell_formula_units_Z   1
loop_
 _symmetry_equiv_pos_site_id
 _symmetry_equiv_pos_as_xyz
  1  'x, y, z'
loop_
 _atom_site_type_symbol
 _atom_site_label
 _atom_site_symmetry_multiplicity
 _atom_site_fract_x
 _atom_site_fract_y
 _atom_site_fract_z
 _atom_site_occupancy
  La  La0  1  0.000047  0.000009  0.000023  1
  La  La1  1  0.140563  0.859423  0.422037  1
  La  La2  1  0.859407  0.140588  0.577945  1
  Ga  Ga3  1  0.335327  0.664684  0.005382  1
  Ga  Ga4  1  0.664679  0.335312  0.994615  1
  Ir  Ir5  1  0.076711  0.416868  0.243043  1
  Ir  Ir6  1  0.583505  0.416494  0.243484  1
  Ir  Ir7  1  0.583130  0.923293  0.243054  1
  Ir  Ir8  1  0.500002  0.499991  0.499998  1
  Ir  Ir9  1  0.416847  0.076698  0.756950  1
  Ir  Ir10  1  0.416497  0.583511  0.756515  1
  Ir  Ir11  1  0.923287  0.583129  0.756956  1
