# generated using pymatgen
data_La2MgSi5PPd20
_symmetry_space_group_name_H-M   'P 1'
_cell_length_a   8.73645324
_cell_length_b   8.73645433
_cell_length_c   8.73820000
_cell_angle_alpha   59.99338999
_cell_angle_beta   59.99338585
_cell_angle_gamma   60.01322282
_symmetry_Int_Tables_number   1
_chemical_formula_structural   La2MgSi5PPd20
_chemical_formula_sum   'La2 Mg1 Si5 P1 Pd20'
_cell_volume   471.60381734
_cell_formula_units_Z   1
loop_
 _symmetry_equiv_pos_site_id
 _symmetry_equiv_pos_as_xyz
  1  'x, y, z'
loop_
 _atom_site_type_symbol
 _atom_site_label
 _atom_site_symmetry_multiplicity
 _atom_site_fract_x
 _atom_site_fract_y
 _atom_site_fract_z
 _atom_site_occupancy
  La  La0  1  0.249596  0.249596  0.250404  1
  La  La1  1  0.749596  0.749596  0.750404  1
  Mg  Mg2  1  0.001398  0.001398  0.998602  1
  Si  Si3  1  0.734707  0.263794  0.265293  1
  Si  Si4  1  0.263794  0.734707  0.736206  1
  Si  Si5  1  0.263794  0.734707  0.265293  1
  Si  Si6  1  0.734707  0.263794  0.736206  1
  Si  Si7  1  0.265300  0.265300  0.734700  1
  P  P8  1  0.735302  0.735302  0.264698  1
  Pd  Pd9  1  0.385637  0.385637  0.385350  1
  Pd  Pd10  1  0.614692  0.614692  0.612819  1
  Pd  Pd11  1  0.385637  0.385637  0.843375  1
  Pd  Pd12  1  0.387181  0.842200  0.385308  1
  Pd  Pd13  1  0.614692  0.614692  0.157800  1
  Pd  Pd14  1  0.614650  0.156625  0.614363  1
  Pd  Pd15  1  0.842200  0.387181  0.385308  1
  Pd  Pd16  1  0.156625  0.614650  0.614363  1
  Pd  Pd17  1  0.344343  0.000161  0.999839  1
  Pd  Pd18  1  0.656646  0.997840  0.002160  1
  Pd  Pd19  1  0.000161  0.344343  0.655657  1
  Pd  Pd20  1  0.997840  0.656646  0.343354  1
  Pd  Pd21  1  0.000161  0.344343  0.999839  1
  Pd  Pd22  1  0.656646  0.997840  0.343354  1
  Pd  Pd23  1  0.997840  0.656646  0.002160  1
  Pd  Pd24  1  0.344343  0.000161  0.655657  1
  Pd  Pd25  1  0.000627  0.000627  0.343904  1
  Pd  Pd26  1  0.000627  0.000627  0.654841  1
  Pd  Pd27  1  0.656096  0.345159  0.999373  1
  Pd  Pd28  1  0.345159  0.656096  0.999373  1
