# generated using pymatgen
data_Er3Pa(TcB4)4
_symmetry_space_group_name_H-M   'P 1'
_cell_length_a   3.60421400
_cell_length_b   5.95576250
_cell_length_c   11.52310814
_cell_angle_alpha   89.93852848
_cell_angle_beta   90.00000000
_cell_angle_gamma   90.00000000
_symmetry_Int_Tables_number   1
_chemical_formula_structural   Er3Pa(TcB4)4
_chemical_formula_sum   'Er3 Pa1 Tc4 B16'
_cell_volume   247.35308317
_cell_formula_units_Z   1
loop_
 _symmetry_equiv_pos_site_id
 _symmetry_equiv_pos_as_xyz
  1  'x, y, z'
loop_
 _atom_site_type_symbol
 _atom_site_label
 _atom_site_symmetry_multiplicity
 _atom_site_fract_x
 _atom_site_fract_y
 _atom_site_fract_z
 _atom_site_occupancy
  Er  Er0  1  0.500000  0.629154  0.849249  1
  Er  Er1  1  0.500000  0.125592  0.650286  1
  Er  Er2  1  0.500000  0.873073  0.351716  1
  Pa  Pa3  1  0.500000  0.372950  0.149414  1
  Tc  Tc4  1  0.500000  0.367503  0.410506  1
  Tc  Tc5  1  0.500000  0.634917  0.588386  1
  Tc  Tc6  1  0.500000  0.138099  0.910009  1
  Tc  Tc7  1  0.500000  0.861582  0.092840  1
  B  B8  1  0.000000  0.111112  0.045922  1
  B  B9  1  0.000000  0.885788  0.951871  1
  B  B10  1  0.000000  0.386786  0.547397  1
  B  B11  1  0.000000  0.614933  0.453940  1
  B  B12  1  0.000000  0.136118  0.468849  1
  B  B13  1  0.000000  0.865015  0.531662  1
  B  B14  1  0.000000  0.363276  0.968360  1
  B  B15  1  0.000000  0.634787  0.031057  1
  B  B16  1  0.000000  0.025668  0.191776  1
  B  B17  1  0.000000  0.975826  0.807046  1
  B  B18  1  0.000000  0.476937  0.692566  1
  B  B19  1  0.000000  0.522224  0.308400  1
  B  B20  1  0.000000  0.212513  0.314753  1
  B  B21  1  0.000000  0.788472  0.685070  1
  B  B22  1  0.000000  0.286891  0.813171  1
  B  B23  1  0.000000  0.710783  0.185754  1
