# generated using pymatgen
data_Tb8CdGaPd23
_symmetry_space_group_name_H-M   'P 1'
_cell_length_a   8.43293200
_cell_length_b   8.42202800
_cell_length_c   8.34385500
_cell_angle_alpha   90.00000000
_cell_angle_beta   90.00000000
_cell_angle_gamma   90.00000000
_symmetry_Int_Tables_number   1
_chemical_formula_structural   Tb8CdGaPd23
_chemical_formula_sum   'Tb8 Cd1 Ga1 Pd23'
_cell_volume   592.60051912
_cell_formula_units_Z   1
loop_
 _symmetry_equiv_pos_site_id
 _symmetry_equiv_pos_as_xyz
  1  'x, y, z'
loop_
 _atom_site_type_symbol
 _atom_site_label
 _atom_site_symmetry_multiplicity
 _atom_site_fract_x
 _atom_site_fract_y
 _atom_site_fract_z
 _atom_site_occupancy
  Tb  Tb0  1  0.262470  0.243559  0.748488  1
  Tb  Tb1  1  0.252378  0.746865  0.252381  1
  Tb  Tb2  1  0.747622  0.253135  0.252381  1
  Tb  Tb3  1  0.737530  0.756441  0.748488  1
  Tb  Tb4  1  0.747622  0.746865  0.252381  1
  Tb  Tb5  1  0.737530  0.243559  0.748488  1
  Tb  Tb6  1  0.262470  0.756441  0.748488  1
  Tb  Tb7  1  0.252378  0.253135  0.252381  1
  Cd  Cd8  1  0.000000  0.500000  0.735517  1
  Ga  Ga9  1  0.000000  0.000000  0.000718  1
  Pd  Pd10  1  0.500000  0.500000  0.747155  1
  Pd  Pd11  1  0.500000  0.253459  0.498498  1
  Pd  Pd12  1  0.255475  0.500000  0.502442  1
  Pd  Pd13  1  0.500000  0.500000  0.252570  1
  Pd  Pd14  1  0.500000  0.746541  0.498498  1
  Pd  Pd15  1  0.744525  0.500000  0.502442  1
  Pd  Pd16  1  0.000000  0.000000  0.707923  1
  Pd  Pd17  1  0.000000  0.290064  0.996648  1
  Pd  Pd18  1  0.290352  0.000000  0.002274  1
  Pd  Pd19  1  0.000000  0.000000  0.292281  1
  Pd  Pd20  1  0.000000  0.709936  0.996648  1
  Pd  Pd21  1  0.709648  0.000000  0.002274  1
  Pd  Pd22  1  0.500000  0.259760  0.001528  1
  Pd  Pd23  1  0.260681  0.000000  0.498602  1
  Pd  Pd24  1  0.000000  0.259367  0.502545  1
  Pd  Pd25  1  0.500000  0.000000  0.740215  1
  Pd  Pd26  1  0.260507  0.500000  0.997558  1
  Pd  Pd27  1  0.000000  0.500000  0.259759  1
  Pd  Pd28  1  0.500000  0.740240  0.001528  1
  Pd  Pd29  1  0.000000  0.740633  0.502545  1
  Pd  Pd30  1  0.500000  0.000000  0.260195  1
  Pd  Pd31  1  0.739319  0.000000  0.498602  1
  Pd  Pd32  1  0.739493  0.500000  0.997558  1
