# generated using pymatgen
data_Zr8Co13(P4Os)3
_symmetry_space_group_name_H-M   'P 1'
_cell_length_a   12.25055800
_cell_length_b   12.25055935
_cell_length_c   3.69931000
_cell_angle_alpha   90.00000000
_cell_angle_beta   90.00000000
_cell_angle_gamma   119.99999635
_symmetry_Int_Tables_number   1
_chemical_formula_structural   Zr8Co13(P4Os)3
_chemical_formula_sum   'Zr8 Co13 P12 Os3'
_cell_volume   480.79856599
_cell_formula_units_Z   1
loop_
 _symmetry_equiv_pos_site_id
 _symmetry_equiv_pos_as_xyz
  1  'x, y, z'
loop_
 _atom_site_type_symbol
 _atom_site_label
 _atom_site_symmetry_multiplicity
 _atom_site_fract_x
 _atom_site_fract_y
 _atom_site_fract_z
 _atom_site_occupancy
  Zr  Zr0  1  0.446340  0.439465  0.000000  1
  Zr  Zr1  1  0.560535  0.006875  0.000000  1
  Zr  Zr2  1  0.993125  0.553660  0.000000  1
  Zr  Zr3  1  0.666667  0.333333  0.000000  1
  Zr  Zr4  1  0.333333  0.666667  0.000000  1
  Zr  Zr5  1  0.823398  0.825840  0.500000  1
  Zr  Zr6  1  0.174160  0.997558  0.500000  1
  Zr  Zr7  1  0.002442  0.176602  0.500000  1
  Co  Co8  1  0.196093  0.364203  0.000000  1
  Co  Co9  1  0.168110  0.803907  0.000000  1
  Co  Co10  1  0.818676  0.629875  0.000000  1
  Co  Co11  1  0.811199  0.181324  0.000000  1
  Co  Co12  1  0.370125  0.188801  0.000000  1
  Co  Co13  1  0.643247  0.509080  0.500000  1
  Co  Co14  1  0.865832  0.356753  0.500000  1
  Co  Co15  1  0.490920  0.134168  0.500000  1
  Co  Co16  1  0.000000  0.000000  0.000000  1
  Co  Co17  1  0.727007  0.005747  0.500000  1
  Co  Co18  1  0.994253  0.721260  0.500000  1
  Co  Co19  1  0.635797  0.831890  0.000000  1
  Co  Co20  1  0.278740  0.272993  0.500000  1
  P  P21  1  0.655712  0.657350  0.000000  1
  P  P22  1  0.342650  0.998362  0.000000  1
  P  P23  1  0.001638  0.344288  0.000000  1
  P  P24  1  0.480940  0.304825  0.500000  1
  P  P25  1  0.695175  0.176115  0.500000  1
  P  P26  1  0.823885  0.519060  0.500000  1
  P  P27  1  0.522810  0.835625  0.500000  1
  P  P28  1  0.164375  0.687185  0.500000  1
  P  P29  1  0.827701  0.003157  0.000000  1
  P  P30  1  0.996843  0.824544  0.000000  1
  P  P31  1  0.312815  0.477190  0.500000  1
  P  P32  1  0.175456  0.172299  0.000000  1
  Os  Os33  1  0.122473  0.473837  0.500000  1
  Os  Os34  1  0.351364  0.877527  0.500000  1
  Os  Os35  1  0.526163  0.648636  0.500000  1
