# generated using pymatgen
data_Tb2Al2CoNi
_symmetry_space_group_name_H-M   'P 1'
_cell_length_a   4.17607100
_cell_length_b   6.69050905
_cell_length_c   7.76048917
_cell_angle_alpha   90.21825000
_cell_angle_beta   90.00000000
_cell_angle_gamma   90.00000000
_symmetry_Int_Tables_number   1
_chemical_formula_structural   Tb2Al2CoNi
_chemical_formula_sum   'Tb4 Al4 Co2 Ni2'
_cell_volume   216.82681128
_cell_formula_units_Z   2
loop_
 _symmetry_equiv_pos_site_id
 _symmetry_equiv_pos_as_xyz
  1  'x, y, z'
loop_
 _atom_site_type_symbol
 _atom_site_label
 _atom_site_symmetry_multiplicity
 _atom_site_fract_x
 _atom_site_fract_y
 _atom_site_fract_z
 _atom_site_occupancy
  Tb  Tb0  1  0.250000  0.537389  0.678662  1
  Tb  Tb1  1  0.250000  0.033127  0.825276  1
  Tb  Tb2  1  0.750000  0.966873  0.174724  1
  Tb  Tb3  1  0.750000  0.462611  0.321338  1
  Al  Al4  1  0.750000  0.365814  0.942060  1
  Al  Al5  1  0.250000  0.137106  0.440713  1
  Al  Al6  1  0.250000  0.634186  0.057940  1
  Al  Al7  1  0.750000  0.862894  0.559287  1
  Co  Co8  1  0.750000  0.731888  0.874455  1
  Co  Co9  1  0.250000  0.268112  0.125545  1
  Ni  Ni10  1  0.750000  0.227928  0.623785  1
  Ni  Ni11  1  0.250000  0.772072  0.376215  1
