# generated using pymatgen
data_Tb9Ho2Lu9Pt16
_symmetry_space_group_name_H-M   'P 1'
_cell_length_a   7.41827821
_cell_length_b   7.51825674
_cell_length_c   14.67734373
_cell_angle_alpha   89.96427367
_cell_angle_beta   90.16498942
_cell_angle_gamma   90.02810398
_symmetry_Int_Tables_number   1
_chemical_formula_structural   Tb9Ho2Lu9Pt16
_chemical_formula_sum   'Tb9 Ho2 Lu9 Pt16'
_cell_volume   818.58879792
_cell_formula_units_Z   1
loop_
 _symmetry_equiv_pos_site_id
 _symmetry_equiv_pos_as_xyz
  1  'x, y, z'
loop_
 _atom_site_type_symbol
 _atom_site_label
 _atom_site_symmetry_multiplicity
 _atom_site_fract_x
 _atom_site_fract_y
 _atom_site_fract_z
 _atom_site_occupancy
  Tb  Tb0  1  0.139043  0.331360  0.620035  1
  Tb  Tb1  1  0.483062  0.676000  0.595265  1
  Tb  Tb2  1  0.983324  0.826309  0.905547  1
  Tb  Tb3  1  0.516816  0.326551  0.095529  1
  Tb  Tb4  1  0.018675  0.170798  0.401600  1
  Tb  Tb5  1  0.517218  0.325971  0.404185  1
  Tb  Tb6  1  0.016134  0.173812  0.095802  1
  Tb  Tb7  1  0.483366  0.673071  0.905468  1
  Tb  Tb8  1  0.981887  0.826564  0.595878  1
  Ho  Ho9  1  0.639382  0.167809  0.622356  1
  Ho  Ho10  1  0.140440  0.331619  0.878706  1
  Lu  Lu11  1  0.359806  0.831778  0.121811  1
  Lu  Lu12  1  0.860079  0.668983  0.377777  1
  Lu  Lu13  1  0.362435  0.831913  0.376900  1
  Lu  Lu14  1  0.859330  0.668667  0.121834  1
  Lu  Lu15  1  0.640489  0.167913  0.878982  1
  Lu  Lu16  1  0.800599  0.509913  0.751135  1
  Lu  Lu17  1  0.302075  0.990012  0.751389  1
  Lu  Lu18  1  0.198258  0.491675  0.249729  1
  Lu  Lu19  1  0.698376  0.008804  0.249292  1
  Pt  Pt20  1  0.694500  0.969729  0.457004  1
  Pt  Pt21  1  0.191837  0.531854  0.043018  1
  Pt  Pt22  1  0.309000  0.029734  0.958110  1
  Pt  Pt23  1  0.802514  0.473450  0.541952  1
  Pt  Pt24  1  0.309287  0.024931  0.541476  1
  Pt  Pt25  1  0.807819  0.469410  0.958220  1
  Pt  Pt26  1  0.691820  0.969657  0.042926  1
  Pt  Pt27  1  0.193239  0.532620  0.454184  1
  Pt  Pt28  1  0.436214  0.379475  0.751628  1
  Pt  Pt29  1  0.933775  0.118756  0.751737  1
  Pt  Pt30  1  0.565520  0.621955  0.249430  1
  Pt  Pt31  1  0.065344  0.877784  0.249383  1
  Pt  Pt32  1  0.662559  0.858377  0.751331  1
  Pt  Pt33  1  0.163981  0.642030  0.751385  1
  Pt  Pt34  1  0.336412  0.140352  0.249494  1
  Pt  Pt35  1  0.835388  0.360367  0.249501  1
