# generated using pymatgen
data_TmZr5(SnRu2)6
_symmetry_space_group_name_H-M   'P 1'
_cell_length_a   4.60277600
_cell_length_b   6.49764900
_cell_length_c   13.78362400
_cell_angle_alpha   90.00000000
_cell_angle_beta   90.00015373
_cell_angle_gamma   90.00000000
_symmetry_Int_Tables_number   1
_chemical_formula_structural   TmZr5(SnRu2)6
_chemical_formula_sum   'Tm1 Zr5 Sn6 Ru12'
_cell_volume   412.22991497
_cell_formula_units_Z   1
loop_
 _symmetry_equiv_pos_site_id
 _symmetry_equiv_pos_as_xyz
  1  'x, y, z'
loop_
 _atom_site_type_symbol
 _atom_site_label
 _atom_site_symmetry_multiplicity
 _atom_site_fract_x
 _atom_site_fract_y
 _atom_site_fract_z
 _atom_site_occupancy
  Tm  Tm0  1  0.000000  0.500000  0.000000  1
  Zr  Zr1  1  0.499985  0.000000  0.166093  1
  Zr  Zr2  1  0.999989  0.500000  0.332939  1
  Zr  Zr3  1  0.500001  0.000000  0.500000  1
  Zr  Zr4  1  0.000011  0.500000  0.667061  1
  Zr  Zr5  1  0.500015  0.000000  0.833907  1
  Sn  Sn6  1  0.000000  0.000000  0.000000  1
  Sn  Sn7  1  0.499995  0.500000  0.166225  1
  Sn  Sn8  1  0.999997  0.000000  0.333428  1
  Sn  Sn9  1  0.500001  0.500000  0.500000  1
  Sn  Sn10  1  0.000003  0.000000  0.666572  1
  Sn  Sn11  1  0.500005  0.500000  0.833776  1
  Ru  Ru12  1  0.500000  0.243901  0.000000  1
  Ru  Ru13  1  0.500000  0.756098  0.000000  1
  Ru  Ru14  1  0.999994  0.247132  0.169294  1
  Ru  Ru15  1  0.999994  0.752869  0.169294  1
  Ru  Ru16  1  0.499997  0.250500  0.333868  1
  Ru  Ru17  1  0.499997  0.749501  0.333868  1
  Ru  Ru18  1  0.000000  0.249608  0.500000  1
  Ru  Ru19  1  0.000000  0.750393  0.500000  1
  Ru  Ru20  1  0.500003  0.250500  0.666132  1
  Ru  Ru21  1  0.500003  0.749501  0.666132  1
  Ru  Ru22  1  0.000006  0.247132  0.830706  1
  Ru  Ru23  1  0.000006  0.752869  0.830706  1
