# generated using pymatgen
data_LaTb3Dy4(CdNi)2
_symmetry_space_group_name_H-M   'P 1'
_cell_length_a   9.61032642
_cell_length_b   9.61032617
_cell_length_c   9.59420100
_cell_angle_alpha   60.05548554
_cell_angle_beta   60.05548643
_cell_angle_gamma   60.41581613
_symmetry_Int_Tables_number   1
_chemical_formula_structural   LaTb3Dy4(CdNi)2
_chemical_formula_sum   'La2 Tb6 Dy8 Cd4 Ni4'
_cell_volume   629.04588798
_cell_formula_units_Z   2
loop_
 _symmetry_equiv_pos_site_id
 _symmetry_equiv_pos_as_xyz
  1  'x, y, z'
loop_
 _atom_site_type_symbol
 _atom_site_label
 _atom_site_symmetry_multiplicity
 _atom_site_fract_x
 _atom_site_fract_y
 _atom_site_fract_z
 _atom_site_occupancy
  La  La0  1  0.344972  0.344972  0.351219  1
  La  La1  1  0.344972  0.344972  0.958837  1
  Tb  Tb2  1  0.937321  0.565764  0.564002  1
  Tb  Tb3  1  0.565764  0.937321  0.932914  1
  Tb  Tb4  1  0.565764  0.937321  0.564002  1
  Tb  Tb5  1  0.937321  0.565764  0.932914  1
  Tb  Tb6  1  0.565359  0.565359  0.934641  1
  Tb  Tb7  1  0.938762  0.938762  0.561238  1
  Dy  Dy8  1  0.351306  0.945609  0.351542  1
  Dy  Dy9  1  0.945609  0.351306  0.351542  1
  Dy  Dy10  1  0.815089  0.188990  0.185022  1
  Dy  Dy11  1  0.188990  0.815089  0.810898  1
  Dy  Dy12  1  0.188990  0.815089  0.185022  1
  Dy  Dy13  1  0.815089  0.188990  0.810898  1
  Dy  Dy14  1  0.187331  0.187331  0.812669  1
  Dy  Dy15  1  0.813304  0.813304  0.186696  1
  Cd  Cd16  1  0.582672  0.582672  0.578194  1
  Cd  Cd17  1  0.582672  0.582672  0.256462  1
  Cd  Cd18  1  0.584446  0.255616  0.579968  1
  Cd  Cd19  1  0.255616  0.584446  0.579968  1
  Ni  Ni20  1  0.138209  0.138209  0.151189  1
  Ni  Ni21  1  0.138209  0.138209  0.572391  1
  Ni  Ni22  1  0.135222  0.577010  0.143885  1
  Ni  Ni23  1  0.577010  0.135222  0.143885  1
