# generated using pymatgen
data_Dy5Cr3P12(IrRh3)4
_symmetry_space_group_name_H-M   'P 1'
_cell_length_a   12.68915100
_cell_length_b   12.68915151
_cell_length_c   3.90678200
_cell_angle_alpha   90.00000000
_cell_angle_beta   90.00000000
_cell_angle_gamma   119.99999605
_symmetry_Int_Tables_number   1
_chemical_formula_structural   Dy5Cr3P12(IrRh3)4
_chemical_formula_sum   'Dy5 Cr3 P12 Ir4 Rh12'
_cell_volume   544.77224817
_cell_formula_units_Z   1
loop_
 _symmetry_equiv_pos_site_id
 _symmetry_equiv_pos_as_xyz
  1  'x, y, z'
loop_
 _atom_site_type_symbol
 _atom_site_label
 _atom_site_symmetry_multiplicity
 _atom_site_fract_x
 _atom_site_fract_y
 _atom_site_fract_z
 _atom_site_occupancy
  Dy  Dy0  1  0.333333  0.666667  0.500000  1
  Dy  Dy1  1  0.666667  0.333333  0.500000  1
  Dy  Dy2  1  0.000000  0.810341  0.000000  1
  Dy  Dy3  1  0.189659  0.189659  0.000000  1
  Dy  Dy4  1  0.810341  0.000000  0.000000  1
  Cr  Cr5  1  0.000000  0.452096  0.500000  1
  Cr  Cr6  1  0.547904  0.547904  0.500000  1
  Cr  Cr7  1  0.452096  0.000000  0.500000  1
  P  P8  1  0.000000  0.633732  0.500000  1
  P  P9  1  0.366268  0.366268  0.500000  1
  P  P10  1  0.633732  0.000000  0.500000  1
  P  P11  1  0.516983  0.682721  0.000000  1
  P  P12  1  0.317279  0.834262  0.000000  1
  P  P13  1  0.165738  0.483017  0.000000  1
  P  P14  1  0.483017  0.165738  0.000000  1
  P  P15  1  0.682721  0.516983  0.000000  1
  P  P16  1  0.834262  0.317279  0.000000  1
  P  P17  1  0.000000  0.178209  0.500000  1
  P  P18  1  0.821791  0.821791  0.500000  1
  P  P19  1  0.178209  0.000000  0.500000  1
  Ir  Ir20  1  0.000000  0.283357  0.000000  1
  Ir  Ir21  1  0.716643  0.716643  0.000000  1
  Ir  Ir22  1  0.283357  0.000000  0.000000  1
  Ir  Ir23  1  0.000000  0.000000  0.500000  1
  Rh  Rh24  1  0.511711  0.869960  0.000000  1
  Rh  Rh25  1  0.130040  0.641752  0.000000  1
  Rh  Rh26  1  0.358248  0.488289  0.000000  1
  Rh  Rh27  1  0.488289  0.358248  0.000000  1
  Rh  Rh28  1  0.869960  0.511711  0.000000  1
  Rh  Rh29  1  0.641752  0.130040  0.000000  1
  Rh  Rh30  1  0.622401  0.801463  0.500000  1
  Rh  Rh31  1  0.198537  0.820938  0.500000  1
  Rh  Rh32  1  0.179062  0.377599  0.500000  1
  Rh  Rh33  1  0.377599  0.179062  0.500000  1
  Rh  Rh34  1  0.801463  0.622401  0.500000  1
  Rh  Rh35  1  0.820938  0.198537  0.500000  1
