# generated using pymatgen
data_Tb4Dy6AlSb5
_symmetry_space_group_name_H-M   'P 1'
_cell_length_a   6.38581800
_cell_length_b   8.96577954
_cell_length_c   8.95168701
_cell_angle_alpha   120.05210237
_cell_angle_beta   89.99998873
_cell_angle_gamma   90.00001924
_symmetry_Int_Tables_number   1
_chemical_formula_structural   Tb4Dy6AlSb5
_chemical_formula_sum   'Tb4 Dy6 Al1 Sb5'
_cell_volume   443.62075951
_cell_formula_units_Z   1
loop_
 _symmetry_equiv_pos_site_id
 _symmetry_equiv_pos_as_xyz
  1  'x, y, z'
loop_
 _atom_site_type_symbol
 _atom_site_label
 _atom_site_symmetry_multiplicity
 _atom_site_fract_x
 _atom_site_fract_y
 _atom_site_fract_z
 _atom_site_occupancy
  Tb  Tb0  1  0.750000  0.248323  0.000000  1
  Tb  Tb1  1  0.249998  0.757056  0.000000  1
  Tb  Tb2  1  0.250000  0.245483  0.244987  1
  Tb  Tb3  1  0.250000  0.000496  0.755013  1
  Dy  Dy4  1  0.500868  0.338158  0.672960  1
  Dy  Dy5  1  0.500868  0.665199  0.327040  1
  Dy  Dy6  1  0.999131  0.665202  0.327041  1
  Dy  Dy7  1  0.999131  0.338161  0.672959  1
  Dy  Dy8  1  0.750001  0.753892  0.762639  1
  Dy  Dy9  1  0.750001  0.991253  0.237361  1
  Al  Al10  1  0.749998  0.604646  0.000000  1
  Sb  Sb11  1  0.750002  0.388663  0.390705  1
  Sb  Sb12  1  0.750002  0.997959  0.609295  1
  Sb  Sb13  1  0.249999  0.392394  0.000000  1
  Sb  Sb14  1  0.250001  0.610604  0.608092  1
  Sb  Sb15  1  0.250001  0.002512  0.391908  1
