# generated using pymatgen
data_Y6Mg2Cd21S
_symmetry_space_group_name_H-M   'P 1'
_cell_length_a   9.91923050
_cell_length_b   9.91923087
_cell_length_c   9.90023200
_cell_angle_alpha   60.06333931
_cell_angle_beta   60.06333809
_cell_angle_gamma   60.21383552
_symmetry_Int_Tables_number   1
_chemical_formula_structural   Y6Mg2Cd21S
_chemical_formula_sum   'Y6 Mg2 Cd21 S1'
_cell_volume   690.55734896
_cell_formula_units_Z   1
loop_
 _symmetry_equiv_pos_site_id
 _symmetry_equiv_pos_as_xyz
  1  'x, y, z'
loop_
 _atom_site_type_symbol
 _atom_site_label
 _atom_site_symmetry_multiplicity
 _atom_site_fract_x
 _atom_site_fract_y
 _atom_site_fract_z
 _atom_site_occupancy
  Y  Y0  1  0.799886  0.799886  0.200114  1
  Y  Y1  1  0.198542  0.801458  0.199961  1
  Y  Y2  1  0.801458  0.198542  0.199961  1
  Y  Y3  1  0.200114  0.200114  0.799886  1
  Y  Y4  1  0.801458  0.198542  0.800039  1
  Y  Y5  1  0.198542  0.801458  0.800039  1
  Mg  Mg6  1  0.500000  0.500000  0.000000  1
  Mg  Mg7  1  0.500000  0.500000  0.500000  1
  Cd  Cd8  1  0.834615  0.834615  0.494857  1
  Cd  Cd9  1  0.831526  0.495692  0.836391  1
  Cd  Cd10  1  0.495692  0.831526  0.836391  1
  Cd  Cd11  1  0.834615  0.834615  0.835914  1
  Cd  Cd12  1  0.165385  0.165385  0.505143  1
  Cd  Cd13  1  0.168474  0.504308  0.163609  1
  Cd  Cd14  1  0.504308  0.168474  0.163609  1
  Cd  Cd15  1  0.165385  0.165385  0.164086  1
  Cd  Cd16  1  0.618422  0.618422  0.138645  1
  Cd  Cd17  1  0.618394  0.139069  0.621268  1
  Cd  Cd18  1  0.139069  0.618394  0.621268  1
  Cd  Cd19  1  0.618422  0.618422  0.624511  1
  Cd  Cd20  1  0.381578  0.381578  0.861355  1
  Cd  Cd21  1  0.381606  0.860931  0.378732  1
  Cd  Cd22  1  0.860931  0.381606  0.378732  1
  Cd  Cd23  1  0.381578  0.381578  0.375489  1
  Cd  Cd24  1  0.000000  0.000000  0.500000  1
  Cd  Cd25  1  0.500000  0.000000  0.500000  1
  Cd  Cd26  1  0.000000  0.500000  0.500000  1
  Cd  Cd27  1  0.000000  0.500000  0.000000  1
  Cd  Cd28  1  0.500000  0.000000  0.000000  1
  S  S29  1  0.000000  0.000000  0.000000  1
