# generated using pymatgen
data_Ba(NdCo)2
_symmetry_space_group_name_H-M   'P 1'
_cell_length_a   4.01121900
_cell_length_b   4.01121914
_cell_length_c   20.92581300
_cell_angle_alpha   90.00000000
_cell_angle_beta   90.00000000
_cell_angle_gamma   119.99999063
_symmetry_Int_Tables_number   1
_chemical_formula_structural   Ba(NdCo)2
_chemical_formula_sum   'Ba2 Nd4 Co4'
_cell_volume   291.58540023
_cell_formula_units_Z   2
loop_
 _symmetry_equiv_pos_site_id
 _symmetry_equiv_pos_as_xyz
  1  'x, y, z'
loop_
 _atom_site_type_symbol
 _atom_site_label
 _atom_site_symmetry_multiplicity
 _atom_site_fract_x
 _atom_site_fract_y
 _atom_site_fract_z
 _atom_site_occupancy
  Ba  Ba0  1  0.333333  0.666667  0.750000  1
  Ba  Ba1  1  0.666667  0.333333  0.250000  1
  Nd  Nd2  1  0.000000  0.000000  0.086484  1
  Nd  Nd3  1  0.000000  0.000000  0.413516  1
  Nd  Nd4  1  0.000000  0.000000  0.913516  1
  Nd  Nd5  1  0.000000  0.000000  0.586484  1
  Co  Co6  1  0.333333  0.666667  0.999034  1
  Co  Co7  1  0.666667  0.333333  0.000966  1
  Co  Co8  1  0.333333  0.666667  0.500966  1
  Co  Co9  1  0.666667  0.333333  0.499034  1
