# generated using pymatgen
data_Li12Sm12FeW7O48
_symmetry_space_group_name_H-M   'P 1'
_cell_length_a   10.83558698
_cell_length_b   10.83558750
_cell_length_c   10.81335100
_cell_angle_alpha   109.42965299
_cell_angle_beta   109.42965396
_cell_angle_gamma   109.51275697
_symmetry_Int_Tables_number   1
_chemical_formula_structural   Li12Sm12FeW7O48
_chemical_formula_sum   'Li12 Sm12 Fe1 W7 O48'
_cell_volume   977.83559595
_cell_formula_units_Z   1
loop_
 _symmetry_equiv_pos_site_id
 _symmetry_equiv_pos_as_xyz
  1  'x, y, z'
loop_
 _atom_site_type_symbol
 _atom_site_label
 _atom_site_symmetry_multiplicity
 _atom_site_fract_x
 _atom_site_fract_y
 _atom_site_fract_z
 _atom_site_occupancy
  Li  Li0  1  0.749650  0.375319  0.124945  1
  Li  Li1  1  0.874330  0.749650  0.124704  1
  Li  Li2  1  0.129336  0.376542  0.254575  1
  Li  Li3  1  0.624680  0.874330  0.249626  1
  Li  Li4  1  0.252794  0.129336  0.374761  1
  Li  Li5  1  0.623459  0.252794  0.378033  1
  Li  Li6  1  0.376542  0.747206  0.621967  1
  Li  Li7  1  0.747206  0.870664  0.625240  1
  Li  Li8  1  0.375319  0.125670  0.750374  1
  Li  Li9  1  0.870664  0.623459  0.745425  1
  Li  Li10  1  0.125670  0.250349  0.875296  1
  Li  Li11  1  0.250350  0.624680  0.875055  1
  Sm  Sm12  1  0.374798  0.251266  0.128986  1
  Sm  Sm13  1  0.249646  0.873887  0.125068  1
  Sm  Sm14  1  0.873887  0.124240  0.248818  1
  Sm  Sm15  1  0.376469  0.625203  0.254189  1
  Sm  Sm16  1  0.124240  0.750353  0.375420  1
  Sm  Sm17  1  0.748734  0.623531  0.377720  1
  Sm  Sm18  1  0.875760  0.249647  0.624579  1
  Sm  Sm19  1  0.251266  0.376469  0.622281  1
  Sm  Sm20  1  0.623531  0.374798  0.745811  1
  Sm  Sm21  1  0.126113  0.875760  0.751181  1
  Sm  Sm22  1  0.750353  0.126113  0.874932  1
  Sm  Sm23  1  0.625203  0.748734  0.871014  1
  Fe  Fe24  1  0.500000  0.500000  0.500000  1
  W  W25  1  0.000000  0.000000  0.000000  1
  W  W26  1  0.000000  0.500000  0.000000  1
  W  W27  1  0.500000  0.500000  0.000000  1
  W  W28  1  0.500000  0.000000  0.000000  1
  W  W29  1  0.500000  0.000000  0.500000  1
  W  W30  1  0.000000  0.500000  0.500000  1
  W  W31  1  0.000000  0.000000  0.500000  1
  O  O32  1  0.327577  0.407660  0.025520  1
  O  O33  1  0.196327  0.616812  0.023756  1
  O  O34  1  0.697584  0.172292  0.079341  1
  O  O35  1  0.882354  0.907652  0.080054  1
  O  O36  1  0.616812  0.920484  0.093056  1
  O  O37  1  0.977791  0.173840  0.093880  1
  O  O38  1  0.592340  0.419918  0.117859  1
  O  O39  1  0.025291  0.697584  0.118242  1
  O  O40  1  0.197003  0.078730  0.171994  1
  O  O41  1  0.476107  0.094123  0.173627  1
  O  O42  1  0.118017  0.523893  0.197520  1
  O  O43  1  0.580083  0.672423  0.197942  1
  O  O44  1  0.333820  0.421408  0.306612  1
  O  O45  1  0.474703  0.882354  0.302300  1
  O  O46  1  0.907651  0.525297  0.327597  1
  O  O47  1  0.920485  0.803673  0.327428  1
  O  O48  1  0.578592  0.412413  0.385204  1
  O  O49  1  0.303951  0.977791  0.383911  1
  O  O50  1  0.827708  0.025292  0.407049  1
  O  O51  1  0.078730  0.381726  0.406735  1
  O  O52  1  0.826160  0.303951  0.420040  1
  O  O53  1  0.094123  0.118017  0.420497  1
  O  O54  1  0.587586  0.666180  0.472791  1
  O  O55  1  0.381726  0.802997  0.474992  1
  O  O56  1  0.618273  0.197003  0.525008  1
  O  O57  1  0.412413  0.333820  0.527209  1
  O  O58  1  0.173839  0.696049  0.579959  1
  O  O59  1  0.905877  0.881984  0.579503  1
  O  O60  1  0.921270  0.618273  0.593265  1
  O  O61  1  0.172293  0.974709  0.592952  1
  O  O62  1  0.696049  0.022210  0.616090  1
  O  O63  1  0.421408  0.587586  0.614796  1
  O  O64  1  0.079516  0.196327  0.672572  1
  O  O65  1  0.092348  0.474703  0.672403  1
  O  O66  1  0.525297  0.117646  0.697700  1
  O  O67  1  0.666180  0.578592  0.693388  1
  O  O68  1  0.419918  0.327577  0.802058  1
  O  O69  1  0.881984  0.476107  0.802480  1
  O  O70  1  0.802997  0.921270  0.828005  1
  O  O71  1  0.523893  0.905877  0.826374  1
  O  O72  1  0.974708  0.302416  0.881757  1
  O  O73  1  0.407660  0.580083  0.882141  1
  O  O74  1  0.383188  0.079515  0.906944  1
  O  O75  1  0.022210  0.826161  0.906121  1
  O  O76  1  0.117646  0.092349  0.919946  1
  O  O77  1  0.302416  0.827707  0.920658  1
  O  O78  1  0.803673  0.383188  0.976245  1
  O  O79  1  0.672423  0.592340  0.974481  1
