# generated using pymatgen
data_La9Pr4Th3(CdIr)4
_symmetry_space_group_name_H-M   'P 1'
_cell_length_a   10.08720753
_cell_length_b   10.09463620
_cell_length_c   10.09463785
_cell_angle_alpha   60.09771602
_cell_angle_beta   60.14600019
_cell_angle_gamma   60.14599473
_symmetry_Int_Tables_number   1
_chemical_formula_structural   La9Pr4Th3(CdIr)4
_chemical_formula_sum   'La9 Pr4 Th3 Cd4 Ir4'
_cell_volume   728.97618676
_cell_formula_units_Z   1
loop_
 _symmetry_equiv_pos_site_id
 _symmetry_equiv_pos_as_xyz
  1  'x, y, z'
loop_
 _atom_site_type_symbol
 _atom_site_label
 _atom_site_symmetry_multiplicity
 _atom_site_fract_x
 _atom_site_fract_y
 _atom_site_fract_z
 _atom_site_occupancy
  La  La0  1  0.956147  0.348012  0.348012  1
  La  La1  1  0.807662  0.192186  0.192186  1
  La  La2  1  0.191291  0.807734  0.807734  1
  La  La3  1  0.191769  0.808777  0.191904  1
  La  La4  1  0.806474  0.193105  0.806806  1
  La  La5  1  0.191769  0.191904  0.808777  1
  La  La6  1  0.806474  0.806806  0.193105  1
  La  La7  1  0.941658  0.562729  0.562729  1
  La  La8  1  0.560208  0.938048  0.938048  1
  Pr  Pr9  1  0.560297  0.940871  0.561578  1
  Pr  Pr10  1  0.940540  0.559756  0.936201  1
  Pr  Pr11  1  0.560297  0.561578  0.940871  1
  Pr  Pr12  1  0.940540  0.936201  0.559756  1
  Th  Th13  1  0.344556  0.345133  0.345133  1
  Th  Th14  1  0.345764  0.345900  0.962955  1
  Th  Th15  1  0.345764  0.962955  0.345900  1
  Cd  Cd16  1  0.576309  0.581364  0.581364  1
  Cd  Cd17  1  0.577741  0.580598  0.260235  1
  Cd  Cd18  1  0.577741  0.260235  0.580598  1
  Cd  Cd19  1  0.259911  0.581017  0.581017  1
  Ir  Ir20  1  0.150905  0.141365  0.141365  1
  Ir  Ir21  1  0.151377  0.140891  0.567208  1
  Ir  Ir22  1  0.151377  0.567208  0.140891  1
  Ir  Ir23  1  0.563424  0.145624  0.145624  1
