# generated using pymatgen
data_Dy4CrRe3B16
_symmetry_space_group_name_H-M   'P 1'
_cell_length_a   3.58054500
_cell_length_b   5.96462998
_cell_length_c   11.53231885
_cell_angle_alpha   90.09350122
_cell_angle_beta   90.00000000
_cell_angle_gamma   90.00000000
_symmetry_Int_Tables_number   1
_chemical_formula_structural   Dy4CrRe3B16
_chemical_formula_sum   'Dy4 Cr1 Re3 B16'
_cell_volume   246.29109323
_cell_formula_units_Z   1
loop_
 _symmetry_equiv_pos_site_id
 _symmetry_equiv_pos_as_xyz
  1  'x, y, z'
loop_
 _atom_site_type_symbol
 _atom_site_label
 _atom_site_symmetry_multiplicity
 _atom_site_fract_x
 _atom_site_fract_y
 _atom_site_fract_z
 _atom_site_occupancy
  Dy  Dy0  1  0.000000  0.627081  0.347230  1
  Dy  Dy1  1  0.000000  0.373460  0.650934  1
  Dy  Dy2  1  0.000000  0.124086  0.148979  1
  Dy  Dy3  1  0.000000  0.874107  0.851484  1
  Cr  Cr4  1  0.000000  0.627769  0.083068  1
  Re  Re5  1  0.000000  0.372948  0.916706  1
  Re  Re6  1  0.000000  0.132867  0.412772  1
  Re  Re7  1  0.000000  0.867233  0.587228  1
  B  B8  1  0.500000  0.784091  0.183231  1
  B  B9  1  0.500000  0.214104  0.816050  1
  B  B10  1  0.500000  0.286588  0.313860  1
  B  B11  1  0.500000  0.713747  0.685757  1
  B  B12  1  0.500000  0.862709  0.032989  1
  B  B13  1  0.500000  0.136236  0.968831  1
  B  B14  1  0.500000  0.364131  0.468141  1
  B  B15  1  0.500000  0.635805  0.531333  1
  B  B16  1  0.500000  0.885695  0.452234  1
  B  B17  1  0.500000  0.113809  0.547237  1
  B  B18  1  0.500000  0.387545  0.048212  1
  B  B19  1  0.500000  0.615055  0.954152  1
  B  B20  1  0.500000  0.975244  0.306687  1
  B  B21  1  0.500000  0.023849  0.692870  1
  B  B22  1  0.500000  0.478601  0.191456  1
  B  B23  1  0.500000  0.523241  0.808557  1
