# generated using pymatgen
data_Li3Dy5P12Ir13Ru3
_symmetry_space_group_name_H-M   'P 1'
_cell_length_a   12.72305800
_cell_length_b   12.72305798
_cell_length_c   3.95147300
_cell_angle_alpha   90.00000000
_cell_angle_beta   90.00000000
_cell_angle_gamma   119.99999484
_symmetry_Int_Tables_number   1
_chemical_formula_structural   Li3Dy5P12Ir13Ru3
_chemical_formula_sum   'Li3 Dy5 P12 Ir13 Ru3'
_cell_volume   553.95270378
_cell_formula_units_Z   1
loop_
 _symmetry_equiv_pos_site_id
 _symmetry_equiv_pos_as_xyz
  1  'x, y, z'
loop_
 _atom_site_type_symbol
 _atom_site_label
 _atom_site_symmetry_multiplicity
 _atom_site_fract_x
 _atom_site_fract_y
 _atom_site_fract_z
 _atom_site_occupancy
  Li  Li0  1  0.999728  0.442171  0.500000  1
  Li  Li1  1  0.557829  0.557557  0.500000  1
  Li  Li2  1  0.442443  0.000272  0.500000  1
  Dy  Dy3  1  0.333333  0.666667  0.500000  1
  Dy  Dy4  1  0.666667  0.333333  0.500000  1
  Dy  Dy5  1  0.000140  0.809486  0.000000  1
  Dy  Dy6  1  0.190514  0.190655  0.000000  1
  Dy  Dy7  1  0.809345  0.999860  0.000000  1
  P  P8  1  0.003930  0.633519  0.500000  1
  P  P9  1  0.366481  0.370411  0.500000  1
  P  P10  1  0.629589  0.996070  0.500000  1
  P  P11  1  0.519297  0.691729  0.000000  1
  P  P12  1  0.308271  0.827568  0.000000  1
  P  P13  1  0.172432  0.480703  0.000000  1
  P  P14  1  0.483097  0.172445  0.000000  1
  P  P15  1  0.689347  0.516903  0.000000  1
  P  P16  1  0.827555  0.310653  0.000000  1
  P  P17  1  0.002841  0.182580  0.500000  1
  P  P18  1  0.817420  0.820261  0.500000  1
  P  P19  1  0.179739  0.997159  0.500000  1
  Ir  Ir20  1  0.509829  0.871913  0.000000  1
  Ir  Ir21  1  0.128087  0.637918  0.000000  1
  Ir  Ir22  1  0.362082  0.490171  0.000000  1
  Ir  Ir23  1  0.491437  0.361097  0.000000  1
  Ir  Ir24  1  0.869662  0.508563  0.000000  1
  Ir  Ir25  1  0.638903  0.130338  0.000000  1
  Ir  Ir26  1  0.998748  0.277863  0.000000  1
  Ir  Ir27  1  0.722137  0.720885  0.000000  1
  Ir  Ir28  1  0.279115  0.001252  0.000000  1
  Ir  Ir29  1  0.375345  0.181163  0.500000  1
  Ir  Ir30  1  0.805818  0.624655  0.500000  1
  Ir  Ir31  1  0.818837  0.194182  0.500000  1
  Ir  Ir32  1  0.000000  0.000000  0.500000  1
  Ru  Ru33  1  0.622900  0.802886  0.500000  1
  Ru  Ru34  1  0.197114  0.820014  0.500000  1
  Ru  Ru35  1  0.179986  0.377100  0.500000  1
