# generated using pymatgen
data_TbCe(Ni2As)4
_symmetry_space_group_name_H-M   'P 1'
_cell_length_a   7.36929146
_cell_length_b   7.37045445
_cell_length_c   3.82751600
_cell_angle_alpha   90.00000000
_cell_angle_beta   90.00000000
_cell_angle_gamma   89.73668341
_symmetry_Int_Tables_number   1
_chemical_formula_structural   TbCe(Ni2As)4
_chemical_formula_sum   'Tb1 Ce1 Ni8 As4'
_cell_volume   207.88943972
_cell_formula_units_Z   1
loop_
 _symmetry_equiv_pos_site_id
 _symmetry_equiv_pos_as_xyz
  1  'x, y, z'
loop_
 _atom_site_type_symbol
 _atom_site_label
 _atom_site_symmetry_multiplicity
 _atom_site_fract_x
 _atom_site_fract_y
 _atom_site_fract_z
 _atom_site_occupancy
  Tb  Tb0  1  0.000000  0.000000  0.500000  1
  Ce  Ce1  1  0.500000  0.500000  0.000000  1
  Ni  Ni2  1  0.588983  0.152346  0.500000  1
  Ni  Ni3  1  0.411017  0.847654  0.500000  1
  Ni  Ni4  1  0.088109  0.346784  0.000000  1
  Ni  Ni5  1  0.911891  0.653216  0.000000  1
  Ni  Ni6  1  0.152359  0.588979  0.500000  1
  Ni  Ni7  1  0.847641  0.411021  0.500000  1
  Ni  Ni8  1  0.346783  0.088087  0.000000  1
  Ni  Ni9  1  0.653217  0.911913  0.000000  1
  As  As10  1  0.720194  0.720193  0.500000  1
  As  As11  1  0.279806  0.279807  0.500000  1
  As  As12  1  0.215781  0.784219  0.000000  1
  As  As13  1  0.784219  0.215781  0.000000  1
