# generated using pymatgen
data_Pr2Y4Co17P12Ru
_symmetry_space_group_name_H-M   'P 1'
_cell_length_a   3.72302900
_cell_length_b   10.56779300
_cell_length_c   12.26765500
_cell_angle_alpha   90.00000000
_cell_angle_beta   90.00000000
_cell_angle_gamma   90.00000000
_symmetry_Int_Tables_number   1
_chemical_formula_structural   Pr2Y4Co17P12Ru
_chemical_formula_sum   'Pr2 Y4 Co17 P12 Ru1'
_cell_volume   482.66106946
_cell_formula_units_Z   1
loop_
 _symmetry_equiv_pos_site_id
 _symmetry_equiv_pos_as_xyz
  1  'x, y, z'
loop_
 _atom_site_type_symbol
 _atom_site_label
 _atom_site_symmetry_multiplicity
 _atom_site_fract_x
 _atom_site_fract_y
 _atom_site_fract_z
 _atom_site_occupancy
  Pr  Pr0  1  0.000000  0.500000  0.525401  1
  Pr  Pr1  1  0.500000  0.000000  0.477884  1
  Y  Y2  1  0.500000  0.817235  0.205432  1
  Y  Y3  1  0.500000  0.182765  0.205432  1
  Y  Y4  1  0.000000  0.683380  0.795130  1
  Y  Y5  1  0.000000  0.316620  0.795130  1
  Co  Co6  1  0.000000  0.000000  0.842984  1
  Co  Co7  1  0.500000  0.500000  0.707094  1
  Co  Co8  1  0.000000  0.000000  0.292353  1
  Co  Co9  1  0.000000  0.500000  0.987383  1
  Co  Co10  1  0.500000  0.000000  0.013557  1
  Co  Co11  1  0.500000  0.332047  0.991646  1
  Co  Co12  1  0.500000  0.667953  0.991646  1
  Co  Co13  1  0.000000  0.166654  0.005198  1
  Co  Co14  1  0.000000  0.833346  0.005198  1
  Co  Co15  1  0.500000  0.297115  0.428194  1
  Co  Co16  1  0.500000  0.702885  0.428194  1
  Co  Co17  1  0.000000  0.203588  0.570385  1
  Co  Co18  1  0.000000  0.796412  0.570385  1
  Co  Co19  1  0.500000  0.879953  0.712543  1
  Co  Co20  1  0.500000  0.120047  0.712543  1
  Co  Co21  1  0.000000  0.620049  0.288547  1
  Co  Co22  1  0.000000  0.379951  0.288547  1
  P  P23  1  0.500000  0.500000  0.883433  1
  P  P24  1  0.000000  0.000000  0.115411  1
  P  P25  1  0.500000  0.500000  0.345448  1
  P  P26  1  0.000000  0.000000  0.660959  1
  P  P27  1  0.500000  0.306575  0.618120  1
  P  P28  1  0.500000  0.693425  0.618120  1
  P  P29  1  0.000000  0.192154  0.382423  1
  P  P30  1  0.000000  0.807846  0.382423  1
  P  P31  1  0.500000  0.848538  0.893548  1
  P  P32  1  0.500000  0.151462  0.893548  1
  P  P33  1  0.000000  0.655354  0.104456  1
  P  P34  1  0.000000  0.344646  0.104456  1
  Ru  Ru35  1  0.500000  0.500000  0.156847  1
