# generated using pymatgen
data_BaLiMnF6
_symmetry_space_group_name_H-M   'P 1'
_cell_length_a   10.58477800
_cell_length_b   5.61378894
_cell_length_c   8.51247451
_cell_angle_alpha   89.30514247
_cell_angle_beta   90.00000000
_cell_angle_gamma   90.00000000
_symmetry_Int_Tables_number   1
_chemical_formula_structural   BaLiMnF6
_chemical_formula_sum   'Ba4 Li4 Mn4 F24'
_cell_volume   505.78007922
_cell_formula_units_Z   4
loop_
 _symmetry_equiv_pos_site_id
 _symmetry_equiv_pos_as_xyz
  1  'x, y, z'
loop_
 _atom_site_type_symbol
 _atom_site_label
 _atom_site_symmetry_multiplicity
 _atom_site_fract_x
 _atom_site_fract_y
 _atom_site_fract_z
 _atom_site_occupancy
  Ba  Ba0  1  0.796395  0.309524  0.000570  1
  Ba  Ba1  1  0.703605  0.309524  0.500570  1
  Ba  Ba2  1  0.203605  0.690476  0.999430  1
  Ba  Ba3  1  0.296395  0.690476  0.499430  1
  Li  Li4  1  0.417075  0.236943  0.807842  1
  Li  Li5  1  0.917075  0.763057  0.692158  1
  Li  Li6  1  0.582925  0.763057  0.192158  1
  Li  Li7  1  0.082925  0.236943  0.307842  1
  Mn  Mn8  1  0.582140  0.777903  0.766490  1
  Mn  Mn9  1  0.917860  0.777903  0.266490  1
  Mn  Mn10  1  0.417860  0.222097  0.233510  1
  Mn  Mn11  1  0.082140  0.222097  0.733510  1
  F  F12  1  0.009365  0.515958  0.811140  1
  F  F13  1  0.872926  0.095043  0.320580  1
  F  F14  1  0.372926  0.904957  0.179420  1
  F  F15  1  0.127074  0.904957  0.679420  1
  F  F16  1  0.627074  0.095043  0.820580  1
  F  F17  1  0.609247  0.099532  0.218427  1
  F  F18  1  0.109247  0.900468  0.281573  1
  F  F19  1  0.390753  0.900468  0.781573  1
  F  F20  1  0.509365  0.484042  0.688860  1
  F  F21  1  0.240323  0.397472  0.253739  1
  F  F22  1  0.490635  0.515958  0.311140  1
  F  F23  1  0.990635  0.484042  0.188860  1
  F  F24  1  0.759677  0.602528  0.746261  1
  F  F25  1  0.259677  0.397472  0.753739  1
  F  F26  1  0.601668  0.863993  0.554671  1
  F  F27  1  0.740323  0.602528  0.246261  1
  F  F28  1  0.909825  0.676170  0.476257  1
  F  F29  1  0.101668  0.136007  0.945329  1
  F  F30  1  0.398332  0.136007  0.445329  1
  F  F31  1  0.898332  0.863993  0.054671  1
  F  F32  1  0.590175  0.676170  0.976257  1
  F  F33  1  0.090175  0.323830  0.523743  1
  F  F34  1  0.409825  0.323830  0.023743  1
  F  F35  1  0.890753  0.099532  0.718427  1
