# generated using pymatgen
data_Zr4PaV6Mo
_symmetry_space_group_name_H-M   'P 1'
_cell_length_a   5.37614900
_cell_length_b   5.37614959
_cell_length_c   8.47372100
_cell_angle_alpha   90.00000000
_cell_angle_beta   90.00000000
_cell_angle_gamma   120.00000253
_symmetry_Int_Tables_number   1
_chemical_formula_structural   Zr4PaV6Mo
_chemical_formula_sum   'Zr4 Pa1 V6 Mo1'
_cell_volume   212.10329838
_cell_formula_units_Z   1
loop_
 _symmetry_equiv_pos_site_id
 _symmetry_equiv_pos_as_xyz
  1  'x, y, z'
loop_
 _atom_site_type_symbol
 _atom_site_label
 _atom_site_symmetry_multiplicity
 _atom_site_fract_x
 _atom_site_fract_y
 _atom_site_fract_z
 _atom_site_occupancy
  Zr  Zr0  1  0.333333  0.666667  0.431993  1
  Zr  Zr1  1  0.666667  0.333333  0.568007  1
  Zr  Zr2  1  0.666667  0.333333  0.939651  1
  Zr  Zr3  1  0.333333  0.666667  0.060349  1
  Pa  Pa4  1  0.000000  0.000000  0.500000  1
  V  V5  1  0.826997  0.173003  0.240044  1
  V  V6  1  0.826997  0.653995  0.240044  1
  V  V7  1  0.346005  0.173003  0.240044  1
  V  V8  1  0.173003  0.826997  0.759956  1
  V  V9  1  0.173003  0.346005  0.759956  1
  V  V10  1  0.653995  0.826997  0.759956  1
  Mo  Mo11  1  0.000000  0.000000  0.000000  1
