# generated using pymatgen
data_TmZn3NiAg
_symmetry_space_group_name_H-M   'P 1'
_cell_length_a   5.09753278
_cell_length_b   5.16362569
_cell_length_c   5.16362600
_cell_angle_alpha   60.00001080
_cell_angle_beta   59.57017529
_cell_angle_gamma   59.57016982
_symmetry_Int_Tables_number   1
_chemical_formula_structural   TmZn3NiAg
_chemical_formula_sum   'Tm1 Zn3 Ni1 Ag1'
_cell_volume   95.47777461
_cell_formula_units_Z   1
loop_
 _symmetry_equiv_pos_site_id
 _symmetry_equiv_pos_as_xyz
  1  'x, y, z'
loop_
 _atom_site_type_symbol
 _atom_site_label
 _atom_site_symmetry_multiplicity
 _atom_site_fract_x
 _atom_site_fract_y
 _atom_site_fract_z
 _atom_site_occupancy
  Tm  Tm0  1  0.494425  0.501857  0.501857  1
  Zn  Zn1  1  0.875132  0.877080  0.370707  1
  Zn  Zn2  1  0.875132  0.370707  0.877080  1
  Zn  Zn3  1  0.875132  0.877080  0.877080  1
  Ni  Ni4  1  0.378615  0.873795  0.873795  1
  Ag  Ag5  1  0.251564  0.249479  0.249479  1
