# generated using pymatgen
data_Gd2PuO6
_symmetry_space_group_name_H-M   'P 1'
_cell_length_a   5.51554500
_cell_length_b   5.71565224
_cell_length_c   8.34336900
_cell_angle_alpha   84.22603213
_cell_angle_beta   90.00000000
_cell_angle_gamma   90.00000000
_symmetry_Int_Tables_number   1
_chemical_formula_structural   Gd2PuO6
_chemical_formula_sum   'Gd4 Pu2 O12'
_cell_volume   261.68973562
_cell_formula_units_Z   2
loop_
 _symmetry_equiv_pos_site_id
 _symmetry_equiv_pos_as_xyz
  1  'x, y, z'
loop_
 _atom_site_type_symbol
 _atom_site_label
 _atom_site_symmetry_multiplicity
 _atom_site_fract_x
 _atom_site_fract_y
 _atom_site_fract_z
 _atom_site_occupancy
  Gd  Gd0  1  0.490192  0.016204  0.364733  1
  Gd  Gd1  1  0.990192  0.983796  0.635267  1
  Gd  Gd2  1  0.016780  0.516262  0.364680  1
  Gd  Gd3  1  0.516780  0.483738  0.635320  1
  Pu  Pu4  1  0.003970  0.249997  0.999866  1
  Pu  Pu5  1  0.503970  0.750003  0.000134  1
  O  O6  1  0.169943  0.200115  0.199750  1
  O  O7  1  0.193464  0.987061  0.896094  1
  O  O8  1  0.751526  0.247654  0.480542  1
  O  O9  1  0.251526  0.752346  0.519458  1
  O  O10  1  0.693464  0.012939  0.103906  1
  O  O11  1  0.669943  0.799885  0.800250  1
  O  O12  1  0.338045  0.699896  0.200191  1
  O  O13  1  0.314593  0.486907  0.896252  1
  O  O14  1  0.755192  0.747593  0.480685  1
  O  O15  1  0.814593  0.513093  0.103748  1
  O  O16  1  0.255192  0.252407  0.519315  1
  O  O17  1  0.838045  0.300104  0.799809  1
