# generated using pymatgen
data_Ba13Al2Si12O
_symmetry_space_group_name_H-M   'P 1'
_cell_length_a   11.88657834
_cell_length_b   11.88657765
_cell_length_c   17.78229500
_cell_angle_alpha   55.59689883
_cell_angle_beta   55.59690108
_cell_angle_gamma   24.50899434
_symmetry_Int_Tables_number   1
_chemical_formula_structural   Ba13Al2Si12O
_chemical_formula_sum   'Ba13 Al2 Si12 O1'
_cell_volume   850.38901136
_cell_formula_units_Z   1
loop_
 _symmetry_equiv_pos_site_id
 _symmetry_equiv_pos_as_xyz
  1  'x, y, z'
loop_
 _atom_site_type_symbol
 _atom_site_label
 _atom_site_symmetry_multiplicity
 _atom_site_fract_x
 _atom_site_fract_y
 _atom_site_fract_z
 _atom_site_occupancy
  Ba  Ba0  1  0.192319  0.192320  0.855719  1
  Ba  Ba1  1  0.999483  0.999485  0.346780  1
  Ba  Ba2  1  0.995620  0.995622  0.124510  1
  Ba  Ba3  1  0.192628  0.192626  0.612260  1
  Ba  Ba4  1  0.184506  0.184506  0.101937  1
  Ba  Ba5  1  0.153208  0.153208  0.383069  1
  Ba  Ba6  1  0.491593  0.491590  0.506350  1
  Ba  Ba7  1  0.831831  0.831832  0.627892  1
  Ba  Ba8  1  0.808934  0.808935  0.385169  1
  Ba  Ba9  1  0.812999  0.812997  0.898352  1
  Ba  Ba10  1  0.808470  0.808468  0.144781  1
  Ba  Ba11  1  0.002663  0.002662  0.880378  1
  Ba  Ba12  1  0.005943  0.005938  0.646924  1
  Al  Al13  1  0.437751  0.437745  0.811786  1
  Al  Al14  1  0.564504  0.564505  0.951417  1
  Si  Si15  1  0.433097  0.433098  0.285993  1
  Si  Si16  1  0.562866  0.562867  0.188422  1
  Si  Si17  1  0.570786  0.570787  0.710995  1
  Si  Si18  1  0.433583  0.433585  0.051840  1
  Si  Si19  1  0.629776  0.629777  0.023207  1
  Si  Si20  1  0.638680  0.638683  0.776221  1
  Si  Si21  1  0.365258  0.365258  0.219830  1
  Si  Si22  1  0.368963  0.368964  0.742533  1
  Si  Si23  1  0.370477  0.370477  0.450063  1
  Si  Si24  1  0.631469  0.631468  0.546543  1
  Si  Si25  1  0.627960  0.627960  0.255353  1
  Si  Si26  1  0.367385  0.367386  0.986157  1
  O  O27  1  0.017251  0.017254  0.485522  1
