# generated using pymatgen
data_HoErCdAg(Pt2O7)2
_symmetry_space_group_name_H-M   'P 1'
_cell_length_a   7.37286147
_cell_length_b   7.22090723
_cell_length_c   7.22090700
_cell_angle_alpha   59.30802845
_cell_angle_beta   59.30431280
_cell_angle_gamma   59.30431937
_symmetry_Int_Tables_number   1
_chemical_formula_structural   HoErCdAg(Pt2O7)2
_chemical_formula_sum   'Ho1 Er1 Cd1 Ag1 Pt4 O14'
_cell_volume   267.53624160
_cell_formula_units_Z   1
loop_
 _symmetry_equiv_pos_site_id
 _symmetry_equiv_pos_as_xyz
  1  'x, y, z'
loop_
 _atom_site_type_symbol
 _atom_site_label
 _atom_site_symmetry_multiplicity
 _atom_site_fract_x
 _atom_site_fract_y
 _atom_site_fract_z
 _atom_site_occupancy
  Ho  Ho0  1  0.125000  0.625000  0.625000  1
  Er  Er1  1  0.625000  0.625000  0.625000  1
  Cd  Cd2  1  0.625000  0.125000  0.625000  1
  Ag  Ag3  1  0.625000  0.625000  0.125000  1
  Pt  Pt4  1  0.625000  0.125000  0.125000  1
  Pt  Pt5  1  0.125000  0.125000  0.125000  1
  Pt  Pt6  1  0.125000  0.625000  0.125000  1
  Pt  Pt7  1  0.125000  0.125000  0.625000  1
  O  O8  1  0.030555  0.468671  0.468718  1
  O  O9  1  0.794402  0.789684  0.221618  1
  O  O10  1  0.792356  0.207325  0.207899  1
  O  O11  1  0.746053  0.737163  0.768773  1
  O  O12  1  0.054803  0.460273  0.029360  1
  O  O13  1  0.459019  0.029237  0.463849  1
  O  O14  1  0.046968  0.030327  0.463756  1
  O  O15  1  0.503947  0.512837  0.481227  1
  O  O16  1  0.203032  0.219673  0.786244  1
  O  O17  1  0.195197  0.789727  0.220640  1
  O  O18  1  0.790981  0.220763  0.786151  1
  O  O19  1  0.457644  0.042675  0.042101  1
  O  O20  1  0.455598  0.460316  0.028382  1
  O  O21  1  0.219445  0.781329  0.781282  1
