# generated using pymatgen
data_La10Al4(OsRh)3
_symmetry_space_group_name_H-M   'P 1'
_cell_length_a   8.68980074
_cell_length_b   8.68472043
_cell_length_c   8.68980036
_cell_angle_alpha   109.39874551
_cell_angle_beta   109.73699678
_cell_angle_gamma   109.30178566
_symmetry_Int_Tables_number   1
_chemical_formula_structural   La10Al4(OsRh)3
_chemical_formula_sum   'La10 Al4 Os3 Rh3'
_cell_volume   504.68500654
_cell_formula_units_Z   1
loop_
 _symmetry_equiv_pos_site_id
 _symmetry_equiv_pos_as_xyz
  1  'x, y, z'
loop_
 _atom_site_type_symbol
 _atom_site_label
 _atom_site_symmetry_multiplicity
 _atom_site_fract_x
 _atom_site_fract_y
 _atom_site_fract_z
 _atom_site_occupancy
  La  La0  1  0.246550  0.685850  0.437570  1
  La  La1  1  0.751720  0.814150  0.060700  1
  La  La2  1  0.441346  0.250000  0.691345  1
  La  La3  1  0.688408  0.435089  0.249020  1
  La  La4  1  0.060222  0.750000  0.810222  1
  La  La5  1  0.813932  0.064912  0.753319  1
  La  La6  1  0.210468  0.212412  0.209390  1
  La  La7  1  0.502460  0.004249  0.291644  1
  La  La8  1  0.287396  0.495752  0.998210  1
  La  La9  1  0.996978  0.287588  0.498057  1
  Al  Al10  1  0.500606  0.002616  0.910929  1
  Al  Al11  1  0.591480  0.588980  0.591701  1
  Al  Al12  1  0.908311  0.497385  0.997989  1
  Al  Al13  1  0.002719  0.911020  0.502501  1
  Os  Os14  1  0.248997  0.117909  0.866567  1
  Os  Os15  1  0.748657  0.382090  0.631086  1
  Os  Os16  1  0.868897  0.250001  0.118897  1
  Rh  Rh17  1  0.113873  0.864652  0.249146  1
  Rh  Rh18  1  0.632487  0.750000  0.382487  1
  Rh  Rh19  1  0.384492  0.635347  0.749221  1
