# generated using pymatgen
data_Tb17Dy(HoSn8)2
_symmetry_space_group_name_H-M   'P 1'
_cell_length_a   8.06248905
_cell_length_b   8.21386435
_cell_length_c   15.53329300
_cell_angle_alpha   90.00000000
_cell_angle_beta   90.00000000
_cell_angle_gamma   89.97691287
_symmetry_Int_Tables_number   1
_chemical_formula_structural   Tb17Dy(HoSn8)2
_chemical_formula_sum   'Tb17 Dy1 Ho2 Sn16'
_cell_volume   1028.67968491
_cell_formula_units_Z   1
loop_
 _symmetry_equiv_pos_site_id
 _symmetry_equiv_pos_as_xyz
  1  'x, y, z'
loop_
 _atom_site_type_symbol
 _atom_site_label
 _atom_site_symmetry_multiplicity
 _atom_site_fract_x
 _atom_site_fract_y
 _atom_site_fract_z
 _atom_site_occupancy
  Tb  Tb0  1  0.367604  0.835802  0.878348  1
  Tb  Tb1  1  0.867715  0.664126  0.621582  1
  Tb  Tb2  1  0.632489  0.164271  0.378415  1
  Tb  Tb3  1  0.132230  0.335920  0.121567  1
  Tb  Tb4  1  0.632489  0.164271  0.121585  1
  Tb  Tb5  1  0.132230  0.335920  0.378433  1
  Tb  Tb6  1  0.367604  0.835802  0.621652  1
  Tb  Tb7  1  0.867715  0.664126  0.878418  1
  Tb  Tb8  1  0.520103  0.319842  0.902123  1
  Tb  Tb9  1  0.020199  0.180200  0.597909  1
  Tb  Tb10  1  0.479943  0.680102  0.402130  1
  Tb  Tb11  1  0.979772  0.819747  0.097871  1
  Tb  Tb12  1  0.479943  0.680102  0.097870  1
  Tb  Tb13  1  0.979772  0.819747  0.402129  1
  Tb  Tb14  1  0.520103  0.319842  0.597877  1
  Tb  Tb15  1  0.020199  0.180200  0.902091  1
  Tb  Tb16  1  0.301546  0.002180  0.250000  1
  Dy  Dy17  1  0.698551  0.997802  0.750000  1
  Ho  Ho18  1  0.198642  0.502211  0.750000  1
  Ho  Ho19  1  0.801285  0.497772  0.250000  1
  Sn  Sn20  1  0.292142  0.034424  0.042000  1
  Sn  Sn21  1  0.792140  0.465586  0.457735  1
  Sn  Sn22  1  0.707860  0.965624  0.542206  1
  Sn  Sn23  1  0.207875  0.534421  0.957712  1
  Sn  Sn24  1  0.707860  0.965624  0.957794  1
  Sn  Sn25  1  0.207875  0.534421  0.542288  1
  Sn  Sn26  1  0.292142  0.034424  0.458000  1
  Sn  Sn27  1  0.792140  0.465586  0.042265  1
  Sn  Sn28  1  0.565196  0.618572  0.750000  1
  Sn  Sn29  1  0.065326  0.881243  0.750000  1
  Sn  Sn30  1  0.434885  0.381612  0.250000  1
  Sn  Sn31  1  0.934213  0.118967  0.250000  1
  Sn  Sn32  1  0.328124  0.146411  0.750000  1
  Sn  Sn33  1  0.828093  0.353955  0.750000  1
  Sn  Sn34  1  0.672189  0.853509  0.250000  1
  Sn  Sn35  1  0.171813  0.645638  0.250000  1
