# generated using pymatgen
data_La2Ce2(Al8Pt3)3
_symmetry_space_group_name_H-M   'P 1'
_cell_length_a   7.63086881
_cell_length_b   7.63829907
_cell_length_c   13.34714100
_cell_angle_alpha   84.50913727
_cell_angle_beta   79.00798090
_cell_angle_gamma   59.89042458
_symmetry_Int_Tables_number   1
_chemical_formula_structural   La2Ce2(Al8Pt3)3
_chemical_formula_sum   'La2 Ce2 Al24 Pt9'
_cell_volume   660.64365575
_cell_formula_units_Z   1
loop_
 _symmetry_equiv_pos_site_id
 _symmetry_equiv_pos_as_xyz
  1  'x, y, z'
loop_
 _atom_site_type_symbol
 _atom_site_label
 _atom_site_symmetry_multiplicity
 _atom_site_fract_x
 _atom_site_fract_y
 _atom_site_fract_z
 _atom_site_occupancy
  La  La0  1  0.733322  0.498545  0.808760  1
  La  La1  1  0.266678  0.501455  0.191240  1
  Ce  Ce2  1  0.395547  0.167708  0.806028  1
  Ce  Ce3  1  0.604453  0.832292  0.193972  1
  Al  Al4  1  0.684777  0.835267  0.947244  1
  Al  Al5  1  0.315223  0.164733  0.052756  1
  Al  Al6  1  0.146334  0.833079  0.559695  1
  Al  Al7  1  0.853666  0.166921  0.440305  1
  Al  Al8  1  0.480620  0.167119  0.558041  1
  Al  Al9  1  0.519380  0.832881  0.441959  1
  Al  Al10  1  0.214938  0.165037  0.333916  1
  Al  Al11  1  0.785062  0.834963  0.666084  1
  Al  Al12  1  0.436961  0.507574  0.666490  1
  Al  Al13  1  0.563039  0.492426  0.333510  1
  Al  Al14  1  0.111265  0.158394  0.665209  1
  Al  Al15  1  0.888735  0.841606  0.334791  1
  Al  Al16  1  0.349559  0.500309  0.945089  1
  Al  Al17  1  0.650441  0.499691  0.054911  1
  Al  Al18  1  0.016358  0.165367  0.955749  1
  Al  Al19  1  0.983642  0.834633  0.044251  1
  Al  Al20  1  0.185502  0.500170  0.442518  1
  Al  Al21  1  0.814498  0.499830  0.557482  1
  Al  Al22  1  0.738819  0.160282  0.183490  1
  Al  Al23  1  0.261181  0.839718  0.816510  1
  Al  Al24  1  0.064133  0.632127  0.815371  1
  Al  Al25  1  0.935867  0.367873  0.184629  1
  Al  Al26  1  0.856880  0.036989  0.816307  1
  Al  Al27  1  0.143120  0.963011  0.183694  1
  Pt  Pt28  1  0.121269  0.494049  0.637191  1
  Pt  Pt29  1  0.878731  0.505951  0.362809  1
  Pt  Pt30  1  0.658074  0.170930  0.000070  1
  Pt  Pt31  1  0.341926  0.829070  0.999930  1
  Pt  Pt32  1  0.539599  0.166429  0.363107  1
  Pt  Pt33  1  0.460401  0.833571  0.636893  1
  Pt  Pt34  1  0.781177  0.172568  0.636429  1
  Pt  Pt35  1  0.218823  0.827432  0.363571  1
  Pt  Pt36  1  0.000000  0.500000  0.000000  1
