# generated using pymatgen
data_Pr5In6BiO18
_symmetry_space_group_name_H-M   'P 1'
_cell_length_a   6.57258900
_cell_length_b   6.57259095
_cell_length_c   12.60367700
_cell_angle_alpha   90.00000000
_cell_angle_beta   90.00000000
_cell_angle_gamma   119.99999524
_symmetry_Int_Tables_number   1
_chemical_formula_structural   Pr5In6BiO18
_chemical_formula_sum   'Pr5 In6 Bi1 O18'
_cell_volume   471.52095391
_cell_formula_units_Z   1
loop_
 _symmetry_equiv_pos_site_id
 _symmetry_equiv_pos_as_xyz
  1  'x, y, z'
loop_
 _atom_site_type_symbol
 _atom_site_label
 _atom_site_symmetry_multiplicity
 _atom_site_fract_x
 _atom_site_fract_y
 _atom_site_fract_z
 _atom_site_occupancy
  Pr  Pr0  1  0.666667  0.333333  0.960156  1
  Pr  Pr1  1  0.333333  0.666667  0.462167  1
  Pr  Pr2  1  0.666667  0.333333  0.462167  1
  Pr  Pr3  1  0.333333  0.666667  0.960156  1
  Pr  Pr4  1  0.000000  0.000000  0.998414  1
  In  In5  1  0.667475  0.667475  0.726298  1
  In  In6  1  0.000000  0.332525  0.726298  1
  In  In7  1  0.333453  0.333453  0.226783  1
  In  In8  1  0.000000  0.666547  0.226783  1
  In  In9  1  0.332525  0.000000  0.726298  1
  In  In10  1  0.666547  0.000000  0.226783  1
  Bi  Bi11  1  0.000000  0.000000  0.495067  1
  O  O12  1  0.691667  0.691667  0.894357  1
  O  O13  1  0.000000  0.308333  0.894357  1
  O  O14  1  0.304575  0.304575  0.394703  1
  O  O15  1  0.000000  0.695425  0.394703  1
  O  O16  1  0.308333  0.000000  0.894357  1
  O  O17  1  0.695425  0.000000  0.394703  1
  O  O18  1  0.641263  0.641263  0.560076  1
  O  O19  1  0.000000  0.358737  0.560076  1
  O  O20  1  0.359323  0.359323  0.060510  1
  O  O21  1  0.000000  0.640677  0.060510  1
  O  O22  1  0.358737  0.000000  0.560076  1
  O  O23  1  0.640677  0.000000  0.060510  1
  O  O24  1  0.000000  0.000000  0.702164  1
  O  O25  1  0.000000  0.000000  0.199862  1
  O  O26  1  0.666667  0.333333  0.749358  1
  O  O27  1  0.333333  0.666667  0.252368  1
  O  O28  1  0.666667  0.333333  0.252368  1
  O  O29  1  0.333333  0.666667  0.749358  1
