# generated using pymatgen
data_LiY8GePt23
_symmetry_space_group_name_H-M   'P 1'
_cell_length_a   8.30611600
_cell_length_b   8.38398700
_cell_length_c   8.41888900
_cell_angle_alpha   90.00000000
_cell_angle_beta   90.00000000
_cell_angle_gamma   90.00000000
_symmetry_Int_Tables_number   1
_chemical_formula_structural   LiY8GePt23
_chemical_formula_sum   'Li1 Y8 Ge1 Pt23'
_cell_volume   586.27769509
_cell_formula_units_Z   1
loop_
 _symmetry_equiv_pos_site_id
 _symmetry_equiv_pos_as_xyz
  1  'x, y, z'
loop_
 _atom_site_type_symbol
 _atom_site_label
 _atom_site_symmetry_multiplicity
 _atom_site_fract_x
 _atom_site_fract_y
 _atom_site_fract_z
 _atom_site_occupancy
  Li  Li0  1  0.268249  0.500000  0.000000  1
  Y  Y1  1  0.251884  0.249975  0.256949  1
  Y  Y2  1  0.747975  0.746776  0.749846  1
  Y  Y3  1  0.747975  0.746776  0.250154  1
  Y  Y4  1  0.747975  0.253224  0.749846  1
  Y  Y5  1  0.251884  0.249975  0.743051  1
  Y  Y6  1  0.251884  0.750025  0.256949  1
  Y  Y7  1  0.251884  0.750025  0.743051  1
  Y  Y8  1  0.747975  0.253224  0.250154  1
  Ge  Ge9  1  0.994409  0.000000  0.000000  1
  Pt  Pt10  1  0.741943  0.500000  0.000000  1
  Pt  Pt11  1  0.997522  0.260095  0.500000  1
  Pt  Pt12  1  0.493721  0.265939  0.000000  1
  Pt  Pt13  1  0.997522  0.739905  0.500000  1
  Pt  Pt14  1  0.493721  0.734061  0.000000  1
  Pt  Pt15  1  0.500561  0.000000  0.261946  1
  Pt  Pt16  1  0.258332  0.000000  0.500000  1
  Pt  Pt17  1  0.500561  0.000000  0.738054  1
  Pt  Pt18  1  0.739735  0.000000  0.500000  1
  Pt  Pt19  1  0.002623  0.500000  0.260367  1
  Pt  Pt20  1  0.002623  0.500000  0.739633  1
  Pt  Pt21  1  0.253392  0.500000  0.500000  1
  Pt  Pt22  1  0.747179  0.500000  0.500000  1
  Pt  Pt23  1  0.501939  0.254365  0.500000  1
  Pt  Pt24  1  0.501939  0.745635  0.500000  1
  Pt  Pt25  1  0.496571  0.500000  0.251301  1
  Pt  Pt26  1  0.496571  0.500000  0.748699  1
  Pt  Pt27  1  0.291469  0.000000  0.000000  1
  Pt  Pt28  1  0.700921  0.000000  0.000000  1
  Pt  Pt29  1  0.011301  0.295173  0.000000  1
  Pt  Pt30  1  0.011301  0.704827  0.000000  1
  Pt  Pt31  1  0.998231  0.000000  0.288590  1
  Pt  Pt32  1  0.998231  0.000000  0.711410  1
