# generated using pymatgen
data_NaTb4Y2PtI12
_symmetry_space_group_name_H-M   'P 1'
_cell_length_a   9.86647639
_cell_length_b   9.78371218
_cell_length_c   9.85059305
_cell_angle_alpha   107.14309895
_cell_angle_beta   106.71511032
_cell_angle_gamma   107.01254047
_symmetry_Int_Tables_number   1
_chemical_formula_structural   NaTb4Y2PtI12
_chemical_formula_sum   'Na1 Tb4 Y2 Pt1 I12'
_cell_volume   792.82623654
_cell_formula_units_Z   1
loop_
 _symmetry_equiv_pos_site_id
 _symmetry_equiv_pos_as_xyz
  1  'x, y, z'
loop_
 _atom_site_type_symbol
 _atom_site_label
 _atom_site_symmetry_multiplicity
 _atom_site_fract_x
 _atom_site_fract_y
 _atom_site_fract_z
 _atom_site_occupancy
  Na  Na0  1  0.500031  0.499980  0.500029  1
  Tb  Tb1  1  0.027031  0.300480  0.098184  1
  Tb  Tb2  1  0.898301  0.972427  0.690925  1
  Tb  Tb3  1  0.690948  0.899030  0.971327  1
  Tb  Tb4  1  0.973384  0.699834  0.902156  1
  Y  Y5  1  0.102036  0.027810  0.309211  1
  Y  Y6  1  0.309315  0.100852  0.029246  1
  Pt  Pt7  1  0.999766  0.000074  0.999829  1
  I  I8  1  0.075440  0.679307  0.222891  1
  I  I9  1  0.223841  0.075812  0.679077  1
  I  I10  1  0.679612  0.225206  0.076306  1
  I  I11  1  0.924713  0.321177  0.777382  1
  I  I12  1  0.776812  0.924277  0.320385  1
  I  I13  1  0.319521  0.775367  0.923839  1
  I  I14  1  0.450441  0.142077  0.372017  1
  I  I15  1  0.371366  0.450383  0.142069  1
  I  I16  1  0.142072  0.372279  0.450049  1
  I  I17  1  0.548942  0.857647  0.627681  1
  I  I18  1  0.628503  0.548713  0.857564  1
  I  I19  1  0.857926  0.627267  0.549832  1
