# generated using pymatgen
data_CaEr4(In2Ir)2
_symmetry_space_group_name_H-M   'P 1'
_cell_length_a   3.65834000
_cell_length_b   7.99672100
_cell_length_c   18.20825800
_cell_angle_alpha   90.00000000
_cell_angle_beta   90.00000000
_cell_angle_gamma   90.00000000
_symmetry_Int_Tables_number   1
_chemical_formula_structural   CaEr4(In2Ir)2
_chemical_formula_sum   'Ca2 Er8 In8 Ir4'
_cell_volume   532.67756783
_cell_formula_units_Z   2
loop_
 _symmetry_equiv_pos_site_id
 _symmetry_equiv_pos_as_xyz
  1  'x, y, z'
loop_
 _atom_site_type_symbol
 _atom_site_label
 _atom_site_symmetry_multiplicity
 _atom_site_fract_x
 _atom_site_fract_y
 _atom_site_fract_z
 _atom_site_occupancy
  Ca  Ca0  1  0.000000  0.000000  0.000000  1
  Ca  Ca1  1  0.000000  0.500000  0.500000  1
  Er  Er2  1  0.000000  0.116549  0.411157  1
  Er  Er3  1  0.000000  0.883451  0.588843  1
  Er  Er4  1  0.000000  0.383451  0.911157  1
  Er  Er5  1  0.000000  0.616549  0.088843  1
  Er  Er6  1  0.000000  0.244471  0.221221  1
  Er  Er7  1  0.000000  0.755529  0.778779  1
  Er  Er8  1  0.000000  0.255529  0.721221  1
  Er  Er9  1  0.000000  0.744471  0.278779  1
  In  In10  1  0.500000  0.426092  0.349061  1
  In  In11  1  0.500000  0.573908  0.650939  1
  In  In12  1  0.500000  0.073908  0.849061  1
  In  In13  1  0.500000  0.926092  0.150939  1
  In  In14  1  0.500000  0.296810  0.067410  1
  In  In15  1  0.500000  0.703190  0.932590  1
  In  In16  1  0.500000  0.203190  0.567410  1
  In  In17  1  0.500000  0.796810  0.432590  1
  Ir  Ir18  1  0.500000  0.022037  0.304659  1
  Ir  Ir19  1  0.500000  0.977963  0.695341  1
  Ir  Ir20  1  0.500000  0.477963  0.804659  1
  Ir  Ir21  1  0.500000  0.522037  0.195341  1
