# generated using pymatgen
data_Nd3NiSn(PdPb)2
_symmetry_space_group_name_H-M   'P 1'
_cell_length_a   7.75440800
_cell_length_b   7.78117074
_cell_length_c   4.04439800
_cell_angle_alpha   90.00000000
_cell_angle_beta   90.00000000
_cell_angle_gamma   119.88629836
_symmetry_Int_Tables_number   1
_chemical_formula_structural   Nd3NiSn(PdPb)2
_chemical_formula_sum   'Nd3 Ni1 Sn1 Pd2 Pb2'
_cell_volume   211.57997315
_cell_formula_units_Z   1
loop_
 _symmetry_equiv_pos_site_id
 _symmetry_equiv_pos_as_xyz
  1  'x, y, z'
loop_
 _atom_site_type_symbol
 _atom_site_label
 _atom_site_symmetry_multiplicity
 _atom_site_fract_x
 _atom_site_fract_y
 _atom_site_fract_z
 _atom_site_occupancy
  Nd  Nd0  1  0.002597  0.597179  0.000000  1
  Nd  Nd1  1  0.405418  0.402821  0.000000  1
  Nd  Nd2  1  0.590312  0.000000  0.000000  1
  Ni  Ni3  1  0.014127  0.000000  0.000000  1
  Sn  Sn4  1  0.247175  0.000000  0.500000  1
  Pd  Pd5  1  0.657711  0.326904  0.500000  1
  Pd  Pd6  1  0.330806  0.673096  0.500000  1
  Pb  Pb7  1  0.751643  0.751432  0.500000  1
  Pb  Pb8  1  0.000211  0.248568  0.500000  1
