# generated using pymatgen
data_Tb2SmRh9
_symmetry_space_group_name_H-M   'P 1'
_cell_length_a   5.30386512
_cell_length_b   5.29818665
_cell_length_c   17.55446700
_cell_angle_alpha   90.00000000
_cell_angle_beta   90.00000000
_cell_angle_gamma   120.06522419
_symmetry_Int_Tables_number   1
_chemical_formula_structural   Tb2SmRh9
_chemical_formula_sum   'Tb4 Sm2 Rh18'
_cell_volume   426.92559540
_cell_formula_units_Z   2
loop_
 _symmetry_equiv_pos_site_id
 _symmetry_equiv_pos_as_xyz
  1  'x, y, z'
loop_
 _atom_site_type_symbol
 _atom_site_label
 _atom_site_symmetry_multiplicity
 _atom_site_fract_x
 _atom_site_fract_y
 _atom_site_fract_z
 _atom_site_occupancy
  Tb  Tb0  1  0.333336  0.666653  0.958402  1
  Tb  Tb1  1  0.666664  0.333347  0.041598  1
  Tb  Tb2  1  0.666664  0.333347  0.458402  1
  Tb  Tb3  1  0.333336  0.666653  0.541598  1
  Sm  Sm4  1  0.333329  0.666654  0.750000  1
  Sm  Sm5  1  0.666671  0.333346  0.250000  1
  Rh  Rh6  1  0.167320  0.832707  0.374279  1
  Rh  Rh7  1  0.167321  0.334665  0.374306  1
  Rh  Rh8  1  0.665363  0.832702  0.374291  1
  Rh  Rh9  1  0.832680  0.167293  0.625721  1
  Rh  Rh10  1  0.832679  0.665335  0.625694  1
  Rh  Rh11  1  0.334637  0.167298  0.625709  1
  Rh  Rh12  1  0.832680  0.167293  0.874279  1
  Rh  Rh13  1  0.832679  0.665335  0.874306  1
  Rh  Rh14  1  0.334637  0.167298  0.874291  1
  Rh  Rh15  1  0.167320  0.832707  0.125721  1
  Rh  Rh16  1  0.167321  0.334665  0.125694  1
  Rh  Rh17  1  0.665363  0.832702  0.125709  1
  Rh  Rh18  1  0.333364  0.666729  0.250000  1
  Rh  Rh19  1  0.666636  0.333271  0.750000  1
  Rh  Rh20  1  0.999968  0.999900  0.250000  1
  Rh  Rh21  1  0.000032  0.000100  0.750000  1
  Rh  Rh22  1  0.000000  0.000000  0.500000  1
  Rh  Rh23  1  0.000000  0.000000  0.000000  1
