# generated using pymatgen
data_Hg2Bi2Ru3RhO14
_symmetry_space_group_name_H-M   'P 1'
_cell_length_a   7.29565181
_cell_length_b   7.18921665
_cell_length_c   7.29565248
_cell_angle_alpha   60.81141654
_cell_angle_beta   61.24793738
_cell_angle_gamma   60.81141603
_symmetry_Int_Tables_number   1
_chemical_formula_structural   Hg2Bi2Ru3RhO14
_chemical_formula_sum   'Hg2 Bi2 Ru3 Rh1 O14'
_cell_volume   276.40295051
_cell_formula_units_Z   1
loop_
 _symmetry_equiv_pos_site_id
 _symmetry_equiv_pos_as_xyz
  1  'x, y, z'
loop_
 _atom_site_type_symbol
 _atom_site_label
 _atom_site_symmetry_multiplicity
 _atom_site_fract_x
 _atom_site_fract_y
 _atom_site_fract_z
 _atom_site_occupancy
  Hg  Hg0  1  0.125000  0.125000  0.125000  1
  Hg  Hg1  1  0.125000  0.625000  0.125000  1
  Bi  Bi2  1  0.625000  0.125000  0.125000  1
  Bi  Bi3  1  0.125000  0.125000  0.625000  1
  Ru  Ru4  1  0.625000  0.625000  0.125000  1
  Ru  Ru5  1  0.125000  0.625000  0.625000  1
  Ru  Ru6  1  0.625000  0.125000  0.625000  1
  Rh  Rh7  1  0.625000  0.625000  0.625000  1
  O  O8  1  0.241019  0.256688  0.241019  1
  O  O9  1  0.317105  0.689704  0.317105  1
  O  O10  1  0.944117  0.949604  0.562300  1
  O  O11  1  0.542317  0.959247  0.542317  1
  O  O12  1  0.695295  0.712862  0.295385  1
  O  O13  1  0.954615  0.537138  0.554705  1
  O  O14  1  0.707683  0.290753  0.707683  1
  O  O15  1  0.305883  0.300396  0.687700  1
  O  O16  1  0.687700  0.300396  0.305883  1
  O  O17  1  0.295385  0.712862  0.695295  1
  O  O18  1  0.932895  0.560296  0.932895  1
  O  O19  1  0.554705  0.537138  0.954615  1
  O  O20  1  0.008981  0.993312  0.008981  1
  O  O21  1  0.562300  0.949604  0.944117  1
