# generated using pymatgen
data_CsPr3Te4
_symmetry_space_group_name_H-M   'P 1'
_cell_length_a   4.57131900
_cell_length_b   4.57131928
_cell_length_c   16.56872900
_cell_angle_alpha   90.00000000
_cell_angle_beta   90.00000000
_cell_angle_gamma   119.99999070
_symmetry_Int_Tables_number   1
_chemical_formula_structural   CsPr3Te4
_chemical_formula_sum   'Cs1 Pr3 Te4'
_cell_volume   299.84923931
_cell_formula_units_Z   1
loop_
 _symmetry_equiv_pos_site_id
 _symmetry_equiv_pos_as_xyz
  1  'x, y, z'
loop_
 _atom_site_type_symbol
 _atom_site_label
 _atom_site_symmetry_multiplicity
 _atom_site_fract_x
 _atom_site_fract_y
 _atom_site_fract_z
 _atom_site_occupancy
  Cs  Cs0  1  0.666667  0.333333  0.750000  1
  Pr  Pr1  1  0.333333  0.666667  0.250000  1
  Pr  Pr2  1  0.000000  0.000000  0.024352  1
  Pr  Pr3  1  0.000000  0.000000  0.475648  1
  Te  Te4  1  0.333333  0.666667  0.584455  1
  Te  Te5  1  0.666667  0.333333  0.135452  1
  Te  Te6  1  0.666667  0.333333  0.364548  1
  Te  Te7  1  0.333333  0.666667  0.915545  1
