# generated using pymatgen
data_TmIrF7
_symmetry_space_group_name_H-M   'P 1'
_cell_length_a   5.58688600
_cell_length_b   5.87900438
_cell_length_c   8.12533928
_cell_angle_alpha   102.16606622
_cell_angle_beta   90.00000000
_cell_angle_gamma   90.00000000
_symmetry_Int_Tables_number   1
_chemical_formula_structural   TmIrF7
_chemical_formula_sum   'Tm2 Ir2 F14'
_cell_volume   260.88555125
_cell_formula_units_Z   2
loop_
 _symmetry_equiv_pos_site_id
 _symmetry_equiv_pos_as_xyz
  1  'x, y, z'
loop_
 _atom_site_type_symbol
 _atom_site_label
 _atom_site_symmetry_multiplicity
 _atom_site_fract_x
 _atom_site_fract_y
 _atom_site_fract_z
 _atom_site_occupancy
  Tm  Tm0  1  0.699754  0.653343  0.685048  1
  Tm  Tm1  1  0.199754  0.346657  0.314952  1
  Ir  Ir2  1  0.709132  0.813526  0.224095  1
  Ir  Ir3  1  0.209132  0.186474  0.775905  1
  F  F4  1  0.898629  0.457631  0.481160  1
  F  F5  1  0.398629  0.542369  0.518840  1
  F  F6  1  0.423325  0.922496  0.769338  1
  F  F7  1  0.923325  0.077504  0.230662  1
  F  F8  1  0.935563  0.964789  0.761229  1
  F  F9  1  0.435563  0.035211  0.238771  1
  F  F10  1  0.997127  0.456169  0.791174  1
  F  F11  1  0.497127  0.543831  0.208826  1
  F  F12  1  0.704914  0.761889  0.980698  1
  F  F13  1  0.204914  0.238111  0.019302  1
  F  F14  1  0.711072  0.872872  0.468886  1
  F  F15  1  0.211072  0.127128  0.531114  1
  F  F16  1  0.496843  0.390640  0.790946  1
  F  F17  1  0.996843  0.609360  0.209054  1
