# generated using pymatgen
data_Yb12Al5Ga3(SiO4)12
_symmetry_space_group_name_H-M   'P 1'
_cell_length_a   10.32019897
_cell_length_b   10.32019922
_cell_length_c   10.32019887
_cell_angle_alpha   109.43667755
_cell_angle_beta   109.43666300
_cell_angle_gamma   109.43666293
_symmetry_Int_Tables_number   1
_chemical_formula_structural   Yb12Al5Ga3(SiO4)12
_chemical_formula_sum   'Yb12 Al5 Ga3 Si12 O48'
_cell_volume   847.22092146
_cell_formula_units_Z   1
loop_
 _symmetry_equiv_pos_site_id
 _symmetry_equiv_pos_as_xyz
  1  'x, y, z'
loop_
 _atom_site_type_symbol
 _atom_site_label
 _atom_site_symmetry_multiplicity
 _atom_site_fract_x
 _atom_site_fract_y
 _atom_site_fract_z
 _atom_site_occupancy
  Yb  Yb0  1  0.374566  0.750184  0.124588  1
  Yb  Yb1  1  0.251060  0.376079  0.126722  1
  Yb  Yb2  1  0.376079  0.126721  0.251060  1
  Yb  Yb3  1  0.875413  0.625435  0.249815  1
  Yb  Yb4  1  0.750184  0.124589  0.374566  1
  Yb  Yb5  1  0.126721  0.251060  0.376079  1
  Yb  Yb6  1  0.873279  0.748941  0.623920  1
  Yb  Yb7  1  0.249816  0.875411  0.625435  1
  Yb  Yb8  1  0.124588  0.374566  0.750185  1
  Yb  Yb9  1  0.623922  0.873279  0.748940  1
  Yb  Yb10  1  0.748940  0.623922  0.873279  1
  Yb  Yb11  1  0.625433  0.249815  0.875412  1
  Al  Al12  1  0.000000  0.000000  0.000000  1
  Al  Al13  1  0.499999  0.500000  0.000000  1
  Al  Al14  1  0.499999  0.500000  0.500000  1
  Al  Al15  1  0.000000  0.500000  0.500000  1
  Al  Al16  1  0.499999  0.000000  0.500000  1
  Ga  Ga17  1  0.500000  0.000000  0.000000  1
  Ga  Ga18  1  0.000000  0.499999  0.000000  1
  Ga  Ga19  1  0.000000  0.000000  0.500000  1
  Si  Si20  1  0.877017  0.250065  0.127320  1
  Si  Si21  1  0.749937  0.872680  0.122982  1
  Si  Si22  1  0.626521  0.378521  0.252253  1
  Si  Si23  1  0.127320  0.877018  0.250064  1
  Si  Si24  1  0.252253  0.626520  0.378522  1
  Si  Si25  1  0.621478  0.747747  0.373479  1
  Si  Si26  1  0.747748  0.373479  0.621477  1
  Si  Si27  1  0.378521  0.252252  0.626520  1
  Si  Si28  1  0.872681  0.122983  0.749936  1
  Si  Si29  1  0.373479  0.621478  0.747747  1
  Si  Si30  1  0.250064  0.127319  0.877018  1
  Si  Si31  1  0.122983  0.749936  0.872680  1
  O  O32  1  0.198720  0.115792  0.010868  1
  O  O33  1  0.306127  0.895487  0.011084  1
  O  O34  1  0.698443  0.687635  0.082937  1
  O  O35  1  0.883389  0.395411  0.088936  1
  O  O36  1  0.614350  0.417606  0.106419  1
  O  O37  1  0.988917  0.693873  0.104513  1
  O  O38  1  0.010868  0.198720  0.115792  1
  O  O39  1  0.604589  0.911064  0.116611  1
  O  O40  1  0.205375  0.588135  0.194544  1
  O  O41  1  0.488876  0.604414  0.187475  1
  O  O42  1  0.115792  0.010868  0.198721  1
  O  O43  1  0.588136  0.194544  0.205374  1
  O  O44  1  0.312365  0.917062  0.301558  1
  O  O45  1  0.491049  0.387632  0.302470  1
  O  O46  1  0.917063  0.301558  0.312365  1
  O  O47  1  0.895487  0.011083  0.306127  1
  O  O48  1  0.582393  0.893580  0.385649  1
  O  O49  1  0.302471  0.491049  0.387632  1
  O  O50  1  0.812525  0.511124  0.395585  1
  O  O51  1  0.088936  0.883389  0.395412  1
  O  O52  1  0.805456  0.794626  0.411863  1
  O  O53  1  0.106419  0.614349  0.417606  1
  O  O54  1  0.387632  0.302470  0.491049  1
  O  O55  1  0.604414  0.187475  0.488876  1
  O  O56  1  0.395586  0.812526  0.511124  1
  O  O57  1  0.612369  0.697531  0.508953  1
  O  O58  1  0.893580  0.385650  0.582394  1
  O  O59  1  0.194544  0.205374  0.588137  1
  O  O60  1  0.911064  0.116611  0.604589  1
  O  O61  1  0.187475  0.488876  0.604414  1
  O  O62  1  0.417605  0.106419  0.614349  1
  O  O63  1  0.697531  0.508952  0.612370  1
  O  O64  1  0.104513  0.988916  0.693873  1
  O  O65  1  0.082936  0.698442  0.687635  1
  O  O66  1  0.687634  0.082937  0.698442  1
  O  O67  1  0.508952  0.612369  0.697531  1
  O  O68  1  0.411863  0.805455  0.794625  1
  O  O69  1  0.884208  0.989132  0.801280  1
  O  O70  1  0.511124  0.395587  0.812525  1
  O  O71  1  0.794625  0.411864  0.805455  1
  O  O72  1  0.395411  0.088935  0.883389  1
  O  O73  1  0.989132  0.801280  0.884209  1
  O  O74  1  0.385650  0.582393  0.893580  1
  O  O75  1  0.011083  0.306128  0.895487  1
  O  O76  1  0.301558  0.312365  0.917063  1
  O  O77  1  0.116611  0.604589  0.911064  1
  O  O78  1  0.693873  0.104512  0.988915  1
  O  O79  1  0.801280  0.884208  0.989133  1
