# generated using pymatgen
data_Tb5Y7TcRu3
_symmetry_space_group_name_H-M   'P 1'
_cell_length_a   6.34628620
_cell_length_b   7.34268633
_cell_length_c   9.26731312
_cell_angle_alpha   89.98155943
_cell_angle_beta   90.00085657
_cell_angle_gamma   90.04968941
_symmetry_Int_Tables_number   1
_chemical_formula_structural   Tb5Y7TcRu3
_chemical_formula_sum   'Tb5 Y7 Tc1 Ru3'
_cell_volume   431.84538332
_cell_formula_units_Z   1
loop_
 _symmetry_equiv_pos_site_id
 _symmetry_equiv_pos_as_xyz
  1  'x, y, z'
loop_
 _atom_site_type_symbol
 _atom_site_label
 _atom_site_symmetry_multiplicity
 _atom_site_fract_x
 _atom_site_fract_y
 _atom_site_fract_z
 _atom_site_occupancy
  Tb  Tb0  1  0.633201  0.041190  0.250076  1
  Tb  Tb1  1  0.364797  0.955649  0.750044  1
  Tb  Tb2  1  0.134883  0.456368  0.750122  1
  Tb  Tb3  1  0.870835  0.543419  0.250146  1
  Tb  Tb4  1  0.167545  0.175996  0.065703  1
  Y  Y5  1  0.831553  0.823352  0.934720  1
  Y  Y6  1  0.665738  0.324305  0.936436  1
  Y  Y7  1  0.831591  0.823851  0.564995  1
  Y  Y8  1  0.332720  0.676451  0.065037  1
  Y  Y9  1  0.167457  0.176109  0.435234  1
  Y  Y10  1  0.332405  0.676223  0.435163  1
  Y  Y11  1  0.665958  0.324565  0.563567  1
  Tc  Tc12  1  0.465116  0.385005  0.249500  1
  Ru  Ru13  1  0.535955  0.616805  0.750087  1
  Ru  Ru14  1  0.964611  0.115061  0.750092  1
  Ru  Ru15  1  0.035637  0.885653  0.249077  1
