# generated using pymatgen
data_NdMnSb3
_symmetry_space_group_name_H-M   'P 1'
_cell_length_a   6.08012300
_cell_length_b   6.23422800
_cell_length_c   13.16792000
_cell_angle_alpha   90.00000000
_cell_angle_beta   90.00000000
_cell_angle_gamma   90.00000000
_symmetry_Int_Tables_number   1
_chemical_formula_structural   NdMnSb3
_chemical_formula_sum   'Nd4 Mn4 Sb12'
_cell_volume   499.12833593
_cell_formula_units_Z   4
loop_
 _symmetry_equiv_pos_site_id
 _symmetry_equiv_pos_as_xyz
  1  'x, y, z'
loop_
 _atom_site_type_symbol
 _atom_site_label
 _atom_site_symmetry_multiplicity
 _atom_site_fract_x
 _atom_site_fract_y
 _atom_site_fract_z
 _atom_site_occupancy
  Nd  Nd0  1  0.250000  0.503906  0.307794  1
  Nd  Nd1  1  0.750000  0.496094  0.692206  1
  Nd  Nd2  1  0.250000  0.003906  0.692206  1
  Nd  Nd3  1  0.750000  0.996094  0.307794  1
  Mn  Mn4  1  0.000000  0.750000  0.908052  1
  Mn  Mn5  1  0.000000  0.250000  0.091948  1
  Mn  Mn6  1  0.500000  0.250000  0.091948  1
  Mn  Mn7  1  0.500000  0.750000  0.908052  1
  Sb  Sb8  1  0.000000  0.750000  0.501621  1
  Sb  Sb9  1  0.000000  0.250000  0.498379  1
  Sb  Sb10  1  0.500000  0.250000  0.498379  1
  Sb  Sb11  1  0.500000  0.750000  0.501621  1
  Sb  Sb12  1  0.250000  0.602121  0.062292  1
  Sb  Sb13  1  0.750000  0.397879  0.937708  1
  Sb  Sb14  1  0.250000  0.102121  0.937708  1
  Sb  Sb15  1  0.750000  0.897879  0.062292  1
  Sb  Sb16  1  0.250000  0.002104  0.220945  1
  Sb  Sb17  1  0.750000  0.997896  0.779055  1
  Sb  Sb18  1  0.250000  0.502104  0.779055  1
  Sb  Sb19  1  0.750000  0.497896  0.220945  1
