# generated using pymatgen
data_Y3Th2(In2Pd)2
_symmetry_space_group_name_H-M   'P 1'
_cell_length_a   3.80471000
_cell_length_b   8.14538900
_cell_length_c   18.24134400
_cell_angle_alpha   90.00000000
_cell_angle_beta   90.00000000
_cell_angle_gamma   90.00000000
_symmetry_Int_Tables_number   1
_chemical_formula_structural   Y3Th2(In2Pd)2
_chemical_formula_sum   'Y6 Th4 In8 Pd4'
_cell_volume   565.31462769
_cell_formula_units_Z   2
loop_
 _symmetry_equiv_pos_site_id
 _symmetry_equiv_pos_as_xyz
  1  'x, y, z'
loop_
 _atom_site_type_symbol
 _atom_site_label
 _atom_site_symmetry_multiplicity
 _atom_site_fract_x
 _atom_site_fract_y
 _atom_site_fract_z
 _atom_site_occupancy
  Y  Y0  1  0.500000  0.116086  0.582447  1
  Y  Y1  1  0.500000  0.883914  0.417553  1
  Y  Y2  1  0.500000  0.383914  0.082447  1
  Y  Y3  1  0.500000  0.616086  0.917553  1
  Y  Y4  1  0.500000  0.000000  0.000000  1
  Y  Y5  1  0.500000  0.500000  0.500000  1
  Th  Th6  1  0.500000  0.237222  0.782609  1
  Th  Th7  1  0.500000  0.762778  0.217391  1
  Th  Th8  1  0.500000  0.262778  0.282609  1
  Th  Th9  1  0.500000  0.737222  0.717391  1
  In  In10  1  0.000000  0.083973  0.145666  1
  In  In11  1  0.000000  0.916027  0.854334  1
  In  In12  1  0.000000  0.416027  0.645666  1
  In  In13  1  0.000000  0.583973  0.354334  1
  In  In14  1  0.000000  0.205293  0.436766  1
  In  In15  1  0.000000  0.794707  0.563234  1
  In  In16  1  0.000000  0.294707  0.936766  1
  In  In17  1  0.000000  0.705293  0.063234  1
  Pd  Pd18  1  0.000000  0.025193  0.698207  1
  Pd  Pd19  1  0.000000  0.974807  0.301793  1
  Pd  Pd20  1  0.000000  0.474807  0.198207  1
  Pd  Pd21  1  0.000000  0.525193  0.801793  1
