# generated using pymatgen
data_Tb5RhSeO12
_symmetry_space_group_name_H-M   'P 1'
_cell_length_a   6.89298551
_cell_length_b   6.89298525
_cell_length_c   7.25798236
_cell_angle_alpha   74.47057303
_cell_angle_beta   74.47057538
_cell_angle_gamma   50.61987587
_symmetry_Int_Tables_number   1
_chemical_formula_structural   Tb5RhSeO12
_chemical_formula_sum   'Tb5 Rh1 Se1 O12'
_cell_volume   254.59511282
_cell_formula_units_Z   1
loop_
 _symmetry_equiv_pos_site_id
 _symmetry_equiv_pos_as_xyz
  1  'x, y, z'
loop_
 _atom_site_type_symbol
 _atom_site_label
 _atom_site_symmetry_multiplicity
 _atom_site_fract_x
 _atom_site_fract_y
 _atom_site_fract_z
 _atom_site_occupancy
  Tb  Tb0  1  0.312774  0.288355  0.358789  1
  Tb  Tb1  1  0.711645  0.687226  0.641211  1
  Tb  Tb2  1  0.307853  0.304024  0.833974  1
  Tb  Tb3  1  0.695976  0.692147  0.166026  1
  Tb  Tb4  1  0.014554  0.985446  0.500000  1
  Rh  Rh5  1  0.742987  0.257013  0.000000  1
  Se  Se6  1  0.234780  0.765220  0.000000  1
  O  O7  1  0.906400  0.439188  0.917094  1
  O  O8  1  0.407770  0.898433  0.920354  1
  O  O9  1  0.101567  0.592230  0.079646  1
  O  O10  1  0.560812  0.093600  0.082906  1
  O  O11  1  0.107222  0.593401  0.568623  1
  O  O12  1  0.604669  0.087828  0.577701  1
  O  O13  1  0.912172  0.395331  0.422299  1
  O  O14  1  0.406599  0.892778  0.431377  1
  O  O15  1  0.013424  0.985590  0.825003  1
  O  O16  1  0.014410  0.986576  0.174997  1
  O  O17  1  0.472112  0.527724  0.822610  1
  O  O18  1  0.472276  0.527888  0.177390  1
