# generated using pymatgen
data_TbHo3Ni2(B8Ir)2
_symmetry_space_group_name_H-M   'P 1'
_cell_length_a   6.91308038
_cell_length_b   6.91308009
_cell_length_c   6.91307920
_cell_angle_alpha   111.22180721
_cell_angle_beta   113.25510877
_cell_angle_gamma   104.07517805
_symmetry_Int_Tables_number   1
_chemical_formula_structural   TbHo3Ni2(B8Ir)2
_chemical_formula_sum   'Tb1 Ho3 Ni2 B16 Ir2'
_cell_volume   252.56858853
_cell_formula_units_Z   1
loop_
 _symmetry_equiv_pos_site_id
 _symmetry_equiv_pos_as_xyz
  1  'x, y, z'
loop_
 _atom_site_type_symbol
 _atom_site_label
 _atom_site_symmetry_multiplicity
 _atom_site_fract_x
 _atom_site_fract_y
 _atom_site_fract_z
 _atom_site_occupancy
  Tb  Tb0  1  0.790740  0.790740  0.000000  1
  Ho  Ho1  1  0.210353  0.210353  0.000000  1
  Ho  Ho2  1  0.751220  0.251220  0.500000  1
  Ho  Ho3  1  0.248619  0.748620  0.500000  1
  Ni  Ni4  1  0.499918  0.745448  0.245529  1
  Ni  Ni5  1  0.499918  0.254389  0.754470  1
  B  B6  1  0.272946  0.108397  0.381206  1
  B  B7  1  0.727192  0.891740  0.618795  1
  B  B8  1  0.272945  0.891740  0.164549  1
  B  B9  1  0.727191  0.108397  0.835451  1
  B  B10  1  0.110662  0.731101  0.841581  1
  B  B11  1  0.889520  0.269082  0.158419  1
  B  B12  1  0.110662  0.269082  0.379561  1
  B  B13  1  0.889521  0.731101  0.620439  1
  B  B14  1  0.115279  0.109699  0.529286  1
  B  B15  1  0.580412  0.585994  0.470715  1
  B  B16  1  0.115279  0.585994  0.005581  1
  B  B17  1  0.580412  0.109699  0.994418  1
  B  B18  1  0.884848  0.890358  0.471081  1
  B  B19  1  0.419278  0.413766  0.528919  1
  B  B20  1  0.884847  0.413766  0.994488  1
  B  B21  1  0.419278  0.890358  0.005511  1
  Ir  Ir22  1  0.275189  0.499478  0.775710  1
  Ir  Ir23  1  0.723769  0.499478  0.224289  1
