# generated using pymatgen
data_Tb2PaFe(Co4P3)2
_symmetry_space_group_name_H-M   'P 1'
_cell_length_a   3.73360500
_cell_length_b   10.56560900
_cell_length_c   12.16538000
_cell_angle_alpha   90.00000000
_cell_angle_beta   90.00000000
_cell_angle_gamma   90.00000000
_symmetry_Int_Tables_number   1
_chemical_formula_structural   Tb2PaFe(Co4P3)2
_chemical_formula_sum   'Tb4 Pa2 Fe2 Co16 P12'
_cell_volume   479.89760600
_cell_formula_units_Z   2
loop_
 _symmetry_equiv_pos_site_id
 _symmetry_equiv_pos_as_xyz
  1  'x, y, z'
loop_
 _atom_site_type_symbol
 _atom_site_label
 _atom_site_symmetry_multiplicity
 _atom_site_fract_x
 _atom_site_fract_y
 _atom_site_fract_z
 _atom_site_occupancy
  Tb  Tb0  1  0.500000  0.815130  0.204725  1
  Tb  Tb1  1  0.500000  0.184870  0.204725  1
  Tb  Tb2  1  0.000000  0.684870  0.795275  1
  Tb  Tb3  1  0.000000  0.315130  0.795275  1
  Pa  Pa4  1  0.000000  0.500000  0.528057  1
  Pa  Pa5  1  0.500000  0.000000  0.471943  1
  Fe  Fe6  1  0.500000  0.500000  0.155956  1
  Fe  Fe7  1  0.000000  0.000000  0.844044  1
  Co  Co8  1  0.500000  0.500000  0.695044  1
  Co  Co9  1  0.000000  0.000000  0.304956  1
  Co  Co10  1  0.000000  0.500000  0.984823  1
  Co  Co11  1  0.500000  0.000000  0.015177  1
  Co  Co12  1  0.500000  0.333766  0.993994  1
  Co  Co13  1  0.500000  0.666234  0.993994  1
  Co  Co14  1  0.000000  0.166234  0.006006  1
  Co  Co15  1  0.000000  0.833766  0.006006  1
  Co  Co16  1  0.500000  0.301199  0.432088  1
  Co  Co17  1  0.500000  0.698801  0.432088  1
  Co  Co18  1  0.000000  0.198801  0.567912  1
  Co  Co19  1  0.000000  0.801199  0.567912  1
  Co  Co20  1  0.500000  0.880062  0.709387  1
  Co  Co21  1  0.500000  0.119938  0.709387  1
  Co  Co22  1  0.000000  0.619938  0.290613  1
  Co  Co23  1  0.000000  0.380062  0.290613  1
  P  P24  1  0.500000  0.500000  0.879208  1
  P  P25  1  0.000000  0.000000  0.120792  1
  P  P26  1  0.500000  0.500000  0.342128  1
  P  P27  1  0.000000  0.000000  0.657872  1
  P  P28  1  0.500000  0.306622  0.616518  1
  P  P29  1  0.500000  0.693378  0.616518  1
  P  P30  1  0.000000  0.193378  0.383482  1
  P  P31  1  0.000000  0.806622  0.383482  1
  P  P32  1  0.500000  0.847802  0.894355  1
  P  P33  1  0.500000  0.152198  0.894355  1
  P  P34  1  0.000000  0.652198  0.105645  1
  P  P35  1  0.000000  0.347802  0.105645  1
