# generated using pymatgen
data_Tm(Zn2Ag)4
_symmetry_space_group_name_H-M   'P 1'
_cell_length_a   6.96292695
_cell_length_b   6.96292701
_cell_length_c   6.96292636
_cell_angle_alpha   97.91988609
_cell_angle_beta   97.91989493
_cell_angle_gamma   136.42088604
_symmetry_Int_Tables_number   1
_chemical_formula_structural   Tm(Zn2Ag)4
_chemical_formula_sum   'Tm1 Zn8 Ag4'
_cell_volume   216.08552235
_cell_formula_units_Z   1
loop_
 _symmetry_equiv_pos_site_id
 _symmetry_equiv_pos_as_xyz
  1  'x, y, z'
loop_
 _atom_site_type_symbol
 _atom_site_label
 _atom_site_symmetry_multiplicity
 _atom_site_fract_x
 _atom_site_fract_y
 _atom_site_fract_z
 _atom_site_occupancy
  Tm  Tm0  1  0.000000  0.000000  0.000000  1
  Zn  Zn1  1  0.000000  0.000000  0.500000  1
  Zn  Zn2  1  0.500000  0.500000  0.500000  1
  Zn  Zn3  1  0.500000  0.000000  0.000000  1
  Zn  Zn4  1  0.000000  0.500000  0.000000  1
  Zn  Zn5  1  0.500000  0.288994  0.788994  1
  Zn  Zn6  1  0.500000  0.711006  0.211006  1
  Zn  Zn7  1  0.711006  0.500000  0.211006  1
  Zn  Zn8  1  0.288994  0.500000  0.788994  1
  Ag  Ag9  1  0.000000  0.344050  0.344050  1
  Ag  Ag10  1  0.000000  0.655950  0.655950  1
  Ag  Ag11  1  0.655950  0.000000  0.655950  1
  Ag  Ag12  1  0.344050  0.000000  0.344050  1
