# generated using pymatgen
data_Dy12CdInFe4
_symmetry_space_group_name_H-M   'P 1'
_cell_length_a   8.41989782
_cell_length_b   8.42021251
_cell_length_c   8.41989653
_cell_angle_alpha   111.36404546
_cell_angle_beta   110.32257421
_cell_angle_gamma   106.76087802
_symmetry_Int_Tables_number   1
_chemical_formula_structural   Dy12CdInFe4
_chemical_formula_sum   'Dy12 Cd1 In1 Fe4'
_cell_volume   458.73308838
_cell_formula_units_Z   1
loop_
 _symmetry_equiv_pos_site_id
 _symmetry_equiv_pos_as_xyz
  1  'x, y, z'
loop_
 _atom_site_type_symbol
 _atom_site_label
 _atom_site_symmetry_multiplicity
 _atom_site_fract_x
 _atom_site_fract_y
 _atom_site_fract_z
 _atom_site_occupancy
  Dy  Dy0  1  0.438016  0.228321  0.209683  1
  Dy  Dy1  1  0.561984  0.771679  0.790317  1
  Dy  Dy2  1  0.018638  0.228321  0.790305  1
  Dy  Dy3  1  0.981362  0.771679  0.209695  1
  Dy  Dy4  1  0.188117  0.289553  0.477692  1
  Dy  Dy5  1  0.811883  0.710447  0.522308  1
  Dy  Dy6  1  0.188139  0.710447  0.898563  1
  Dy  Dy7  1  0.811861  0.289553  0.101437  1
  Dy  Dy8  1  0.311847  0.611895  0.300048  1
  Dy  Dy9  1  0.688153  0.388105  0.699952  1
  Dy  Dy10  1  0.311886  0.011828  0.699942  1
  Dy  Dy11  1  0.688114  0.988172  0.300058  1
  Cd  Cd12  1  0.000000  0.000000  0.000000  1
  In  In13  1  0.500000  0.500000  0.000000  1
  Fe  Fe14  1  0.384864  0.000000  0.384864  1
  Fe  Fe15  1  0.615136  0.000000  0.615136  1
  Fe  Fe16  1  0.107743  0.607707  0.499964  1
  Fe  Fe17  1  0.892257  0.392293  0.500036  1
