# generated using pymatgen
data_Eu6Ga7Hg3
_symmetry_space_group_name_H-M   'P 1'
_cell_length_a   6.18112559
_cell_length_b   6.18112555
_cell_length_c   15.84271851
_cell_angle_alpha   89.92923685
_cell_angle_beta   90.07076300
_cell_angle_gamma   134.46791295
_symmetry_Int_Tables_number   1
_chemical_formula_structural   Eu6Ga7Hg3
_chemical_formula_sum   'Eu6 Ga7 Hg3'
_cell_volume   431.96183437
_cell_formula_units_Z   1
loop_
 _symmetry_equiv_pos_site_id
 _symmetry_equiv_pos_as_xyz
  1  'x, y, z'
loop_
 _atom_site_type_symbol
 _atom_site_label
 _atom_site_symmetry_multiplicity
 _atom_site_fract_x
 _atom_site_fract_y
 _atom_site_fract_z
 _atom_site_occupancy
  Eu  Eu0  1  0.875323  0.124677  0.750122  1
  Eu  Eu1  1  0.124642  0.875358  0.250212  1
  Eu  Eu2  1  0.591297  0.408703  0.892375  1
  Eu  Eu3  1  0.591562  0.408438  0.606804  1
  Eu  Eu4  1  0.408491  0.591509  0.393177  1
  Eu  Eu5  1  0.408234  0.591766  0.106935  1
  Ga  Ga6  1  0.115522  0.884478  0.466066  1
  Ga  Ga7  1  0.706548  0.293452  0.097337  1
  Ga  Ga8  1  0.705419  0.294581  0.403225  1
  Ga  Ga9  1  0.296022  0.703978  0.902604  1
  Ga  Ga10  1  0.294641  0.705359  0.596704  1
  Ga  Ga11  1  0.883159  0.116841  0.965431  1
  Ga  Ga12  1  0.884440  0.115560  0.533971  1
  Hg  Hg13  1  0.166266  0.833734  0.749993  1
  Hg  Hg14  1  0.833587  0.166413  0.250157  1
  Hg  Hg15  1  0.114846  0.885154  0.034886  1
