# generated using pymatgen
data_Tm4CrCo4(P4Ir5)3
_symmetry_space_group_name_H-M   'P 1'
_cell_length_a   3.89657100
_cell_length_b   10.70024251
_cell_length_c   12.36727518
_cell_angle_alpha   90.24492915
_cell_angle_beta   90.00000000
_cell_angle_gamma   90.00000000
_symmetry_Int_Tables_number   1
_chemical_formula_structural   Tm4CrCo4(P4Ir5)3
_chemical_formula_sum   'Tm4 Cr1 Co4 P12 Ir15'
_cell_volume   515.63960897
_cell_formula_units_Z   1
loop_
 _symmetry_equiv_pos_site_id
 _symmetry_equiv_pos_as_xyz
  1  'x, y, z'
loop_
 _atom_site_type_symbol
 _atom_site_label
 _atom_site_symmetry_multiplicity
 _atom_site_fract_x
 _atom_site_fract_y
 _atom_site_fract_z
 _atom_site_occupancy
  Tm  Tm0  1  0.250000  0.585878  0.711374  1
  Tm  Tm1  1  0.250000  0.913641  0.208550  1
  Tm  Tm2  1  0.750000  0.417146  0.289779  1
  Tm  Tm3  1  0.750000  0.083129  0.792175  1
  Cr  Cr4  1  0.250000  0.714922  0.982441  1
  Co  Co5  1  0.250000  0.463439  0.933980  1
  Co  Co6  1  0.250000  0.039640  0.433001  1
  Co  Co7  1  0.750000  0.537749  0.065146  1
  Co  Co8  1  0.750000  0.959905  0.564908  1
  P  P9  1  0.250000  0.427122  0.105758  1
  P  P10  1  0.250000  0.073775  0.605527  1
  P  P11  1  0.750000  0.576803  0.895066  1
  P  P12  1  0.750000  0.927298  0.392659  1
  P  P13  1  0.250000  0.269524  0.871685  1
  P  P14  1  0.250000  0.230923  0.371686  1
  P  P15  1  0.750000  0.729470  0.126307  1
  P  P16  1  0.750000  0.770611  0.630539  1
  P  P17  1  0.250000  0.594141  0.384191  1
  P  P18  1  0.250000  0.897924  0.888655  1
  P  P19  1  0.750000  0.406193  0.615730  1
  P  P20  1  0.750000  0.092986  0.113036  1
  Ir  Ir21  1  0.250000  0.779513  0.481134  1
  Ir  Ir22  1  0.750000  0.279718  0.019179  1
  Ir  Ir23  1  0.750000  0.221403  0.517749  1
  Ir  Ir24  1  0.250000  0.408656  0.478922  1
  Ir  Ir25  1  0.250000  0.091969  0.978865  1
  Ir  Ir26  1  0.750000  0.593242  0.523021  1
  Ir  Ir27  1  0.750000  0.904390  0.020011  1
  Ir  Ir28  1  0.250000  0.235090  0.181152  1
  Ir  Ir29  1  0.250000  0.266728  0.680598  1
  Ir  Ir30  1  0.750000  0.768728  0.821259  1
  Ir  Ir31  1  0.750000  0.733627  0.318868  1
  Ir  Ir32  1  0.250000  0.888031  0.698927  1
  Ir  Ir33  1  0.250000  0.615207  0.198188  1
  Ir  Ir34  1  0.750000  0.112841  0.298884  1
  Ir  Ir35  1  0.750000  0.388641  0.801052  1
