# generated using pymatgen
data_Rb2Ca(Zr2S5)2
_symmetry_space_group_name_H-M   'P 1'
_cell_length_a   6.41560136
_cell_length_b   10.87315012
_cell_length_c   8.69669300
_cell_angle_alpha   59.41487370
_cell_angle_beta   68.47211122
_cell_angle_gamma   90.11275309
_symmetry_Int_Tables_number   1
_chemical_formula_structural   Rb2Ca(Zr2S5)2
_chemical_formula_sum   'Rb2 Ca1 Zr4 S10'
_cell_volume   472.14931117
_cell_formula_units_Z   1
loop_
 _symmetry_equiv_pos_site_id
 _symmetry_equiv_pos_as_xyz
  1  'x, y, z'
loop_
 _atom_site_type_symbol
 _atom_site_label
 _atom_site_symmetry_multiplicity
 _atom_site_fract_x
 _atom_site_fract_y
 _atom_site_fract_z
 _atom_site_occupancy
  Rb  Rb0  1  0.785035  0.075176  0.426788  1
  Rb  Rb1  1  0.006940  0.525306  0.982289  1
  Ca  Ca2  1  0.798983  0.600709  0.404060  1
  Zr  Zr3  1  0.399562  0.797422  0.200472  1
  Zr  Zr4  1  0.203586  0.401753  0.591218  1
  Zr  Zr5  1  0.600225  0.204418  0.803190  1
  Zr  Zr6  1  0.998982  0.995464  0.000793  1
  S  S7  1  0.011733  0.852849  0.333542  1
  S  S8  1  0.594599  0.034661  0.149441  1
  S  S9  1  0.194649  0.239270  0.945924  1
  S  S10  1  0.792507  0.420298  0.770614  1
  S  S11  1  0.366449  0.637875  0.548365  1
  S  S12  1  0.401513  0.962821  0.855373  1
  S  S13  1  0.004085  0.164774  0.651244  1
  S  S14  1  0.594467  0.344522  0.464868  1
  S  S15  1  0.238215  0.561569  0.244025  1
  S  S16  1  0.808472  0.781112  0.027795  1
