# generated using pymatgen
data_Pr2Os2Cl
_symmetry_space_group_name_H-M   'P 1'
_cell_length_a   4.25971500
_cell_length_b   4.25971490
_cell_length_c   16.88228400
_cell_angle_alpha   90.00000000
_cell_angle_beta   90.00000000
_cell_angle_gamma   120.00000853
_symmetry_Int_Tables_number   1
_chemical_formula_structural   Pr2Os2Cl
_chemical_formula_sum   'Pr4 Os4 Cl2'
_cell_volume   265.29121733
_cell_formula_units_Z   2
loop_
 _symmetry_equiv_pos_site_id
 _symmetry_equiv_pos_as_xyz
  1  'x, y, z'
loop_
 _atom_site_type_symbol
 _atom_site_label
 _atom_site_symmetry_multiplicity
 _atom_site_fract_x
 _atom_site_fract_y
 _atom_site_fract_z
 _atom_site_occupancy
  Pr  Pr0  1  0.000000  0.000000  0.117003  1
  Pr  Pr1  1  0.000000  0.000000  0.882997  1
  Pr  Pr2  1  0.000000  0.000000  0.617003  1
  Pr  Pr3  1  0.000000  0.000000  0.382997  1
  Os  Os4  1  0.333333  0.666667  0.511193  1
  Os  Os5  1  0.666667  0.333333  0.488807  1
  Os  Os6  1  0.666667  0.333333  0.011193  1
  Os  Os7  1  0.333333  0.666667  0.988807  1
  Cl  Cl8  1  0.333333  0.666667  0.250000  1
  Cl  Cl9  1  0.666667  0.333333  0.750000  1
