# generated using pymatgen
data_Zr5AlBiSb
_symmetry_space_group_name_H-M   'P 1'
_cell_length_a   5.57880685
_cell_length_b   8.44798460
_cell_length_c   8.45625827
_cell_angle_alpha   83.74717686
_cell_angle_beta   70.73955086
_cell_angle_gamma   70.71995734
_symmetry_Int_Tables_number   1
_chemical_formula_structural   Zr5AlBiSb
_chemical_formula_sum   'Zr10 Al2 Bi2 Sb2'
_cell_volume   355.13323258
_cell_formula_units_Z   2
loop_
 _symmetry_equiv_pos_site_id
 _symmetry_equiv_pos_as_xyz
  1  'x, y, z'
loop_
 _atom_site_type_symbol
 _atom_site_label
 _atom_site_symmetry_multiplicity
 _atom_site_fract_x
 _atom_site_fract_y
 _atom_site_fract_z
 _atom_site_occupancy
  Zr  Zr0  1  0.252037  0.500000  0.500000  1
  Zr  Zr1  1  0.747963  0.500000  0.500000  1
  Zr  Zr2  1  0.079236  0.132977  0.708552  1
  Zr  Zr3  1  0.920764  0.867023  0.291448  1
  Zr  Zr4  1  0.785756  0.286120  0.142369  1
  Zr  Zr5  1  0.428125  0.286120  0.857631  1
  Zr  Zr6  1  0.214244  0.713880  0.857631  1
  Zr  Zr7  1  0.571875  0.713880  0.142369  1
  Zr  Zr8  1  0.712213  0.867023  0.708552  1
  Zr  Zr9  1  0.287787  0.132977  0.291448  1
  Al  Al10  1  0.250000  0.000000  0.000000  1
  Al  Al11  1  0.750000  0.000000  0.000000  1
  Bi  Bi12  1  0.165329  0.500000  0.169343  1
  Bi  Bi13  1  0.834671  0.500000  0.830657  1
  Sb  Sb14  1  0.337371  0.825258  0.500000  1
  Sb  Sb15  1  0.662629  0.174742  0.500000  1
