# generated using pymatgen
data_Ca6YbUSb6
_symmetry_space_group_name_H-M   'P 1'
_cell_length_a   8.22643506
_cell_length_b   8.22653394
_cell_length_c   8.14080814
_cell_angle_alpha   109.23942556
_cell_angle_beta   109.26671836
_cell_angle_gamma   109.68241623
_symmetry_Int_Tables_number   1
_chemical_formula_structural   Ca6YbUSb6
_chemical_formula_sum   'Ca6 Yb1 U1 Sb6'
_cell_volume   425.27389413
_cell_formula_units_Z   1
loop_
 _symmetry_equiv_pos_site_id
 _symmetry_equiv_pos_as_xyz
  1  'x, y, z'
loop_
 _atom_site_type_symbol
 _atom_site_label
 _atom_site_symmetry_multiplicity
 _atom_site_fract_x
 _atom_site_fract_y
 _atom_site_fract_z
 _atom_site_occupancy
  Ca  Ca0  1  0.649229  0.649549  0.650522  1
  Ca  Ca1  1  0.007998  0.363086  0.504711  1
  Ca  Ca2  1  0.355166  0.491921  0.996980  1
  Ca  Ca3  1  0.000346  0.850784  0.501283  1
  Ca  Ca4  1  0.850475  0.499657  0.001018  1
  Ca  Ca5  1  0.500001  0.000044  0.852549  1
  Yb  Yb6  1  0.137076  0.144665  0.141825  1
  U  U7  1  0.499650  0.000153  0.348541  1
  Sb  Sb8  1  0.867760  0.123119  0.740036  1
  Sb  Sb9  1  0.376818  0.244573  0.616584  1
  Sb  Sb10  1  0.133282  0.756424  0.887873  1
  Sb  Sb11  1  0.744065  0.877246  0.131577  1
  Sb  Sb12  1  0.255457  0.632200  0.372072  1
  Sb  Sb13  1  0.622676  0.366577  0.254428  1
