# generated using pymatgen
data_Pr8Si12RhAu3
_symmetry_space_group_name_H-M   'P 1'
_cell_length_a   8.30724600
_cell_length_b   8.30724644
_cell_length_c   8.68161400
_cell_angle_alpha   90.00000000
_cell_angle_beta   90.00000000
_cell_angle_gamma   120.00000622
_symmetry_Int_Tables_number   1
_chemical_formula_structural   Pr8Si12RhAu3
_chemical_formula_sum   'Pr8 Si12 Rh1 Au3'
_cell_volume   518.85408745
_cell_formula_units_Z   1
loop_
 _symmetry_equiv_pos_site_id
 _symmetry_equiv_pos_as_xyz
  1  'x, y, z'
loop_
 _atom_site_type_symbol
 _atom_site_label
 _atom_site_symmetry_multiplicity
 _atom_site_fract_x
 _atom_site_fract_y
 _atom_site_fract_z
 _atom_site_occupancy
  Pr  Pr0  1  0.501711  0.498289  0.746063  1
  Pr  Pr1  1  0.502084  0.497916  0.253878  1
  Pr  Pr2  1  0.996579  0.498289  0.746063  1
  Pr  Pr3  1  0.995831  0.497916  0.253878  1
  Pr  Pr4  1  0.501711  0.003421  0.746063  1
  Pr  Pr5  1  0.502084  0.004169  0.253878  1
  Pr  Pr6  1  0.000000  0.000000  0.748451  1
  Pr  Pr7  1  0.000000  0.000000  0.251712  1
  Si  Si8  1  0.836574  0.163426  0.000893  1
  Si  Si9  1  0.163716  0.836284  0.999128  1
  Si  Si10  1  0.326852  0.163426  0.000893  1
  Si  Si11  1  0.161627  0.838373  0.499715  1
  Si  Si12  1  0.672567  0.836284  0.999128  1
  Si  Si13  1  0.830513  0.169487  0.500417  1
  Si  Si14  1  0.836574  0.673148  0.000893  1
  Si  Si15  1  0.676746  0.838373  0.499715  1
  Si  Si16  1  0.163716  0.327433  0.999128  1
  Si  Si17  1  0.338974  0.169487  0.500417  1
  Si  Si18  1  0.161627  0.323254  0.499715  1
  Si  Si19  1  0.830513  0.661026  0.500417  1
  Rh  Rh20  1  0.666667  0.333333  0.500394  1
  Au  Au21  1  0.666667  0.333333  0.998797  1
  Au  Au22  1  0.333333  0.666667  0.000930  1
  Au  Au23  1  0.333333  0.666667  0.499433  1
