# generated using pymatgen
data_Pr8Cd2TcPd
_symmetry_space_group_name_H-M   'P 1'
_cell_length_a   10.06606720
_cell_length_b   10.06606795
_cell_length_c   10.18510400
_cell_angle_alpha   59.60803267
_cell_angle_beta   59.60803019
_cell_angle_gamma   59.31009157
_symmetry_Int_Tables_number   1
_chemical_formula_structural   Pr8Cd2TcPd
_chemical_formula_sum   'Pr16 Cd4 Tc2 Pd2'
_cell_volume   721.57714471
_cell_formula_units_Z   2
loop_
 _symmetry_equiv_pos_site_id
 _symmetry_equiv_pos_as_xyz
  1  'x, y, z'
loop_
 _atom_site_type_symbol
 _atom_site_label
 _atom_site_symmetry_multiplicity
 _atom_site_fract_x
 _atom_site_fract_y
 _atom_site_fract_z
 _atom_site_occupancy
  Pr  Pr0  1  0.347347  0.347347  0.355813  1
  Pr  Pr1  1  0.347347  0.347347  0.949494  1
  Pr  Pr2  1  0.342874  0.957402  0.349863  1
  Pr  Pr3  1  0.957402  0.342874  0.349863  1
  Pr  Pr4  1  0.814554  0.191211  0.190833  1
  Pr  Pr5  1  0.191211  0.814554  0.803402  1
  Pr  Pr6  1  0.191211  0.814554  0.190833  1
  Pr  Pr7  1  0.814554  0.191211  0.803402  1
  Pr  Pr8  1  0.191006  0.191006  0.808994  1
  Pr  Pr9  1  0.805722  0.805722  0.194278  1
  Pr  Pr10  1  0.937353  0.557114  0.565403  1
  Pr  Pr11  1  0.557114  0.937353  0.940129  1
  Pr  Pr12  1  0.557114  0.937353  0.565403  1
  Pr  Pr13  1  0.937353  0.557114  0.940129  1
  Pr  Pr14  1  0.563245  0.563245  0.936755  1
  Pr  Pr15  1  0.941010  0.941010  0.558990  1
  Cd  Cd16  1  0.579773  0.579773  0.580156  1
  Cd  Cd17  1  0.579773  0.579773  0.260298  1
  Cd  Cd18  1  0.579506  0.259332  0.580581  1
  Cd  Cd19  1  0.259332  0.579506  0.580581  1
  Tc  Tc20  1  0.141857  0.141857  0.133445  1
  Tc  Tc21  1  0.141857  0.141857  0.582841  1
  Pd  Pd22  1  0.146775  0.574711  0.139257  1
  Pd  Pd23  1  0.574711  0.146775  0.139257  1
