# generated using pymatgen
data_Tb4Ho12Cd4FeNi3
_symmetry_space_group_name_H-M   'P 1'
_cell_length_a   9.52674897
_cell_length_b   9.52674855
_cell_length_c   9.52674828
_cell_angle_alpha   59.61391951
_cell_angle_beta   59.61392043
_cell_angle_gamma   59.61392599
_symmetry_Int_Tables_number   1
_chemical_formula_structural   Tb4Ho12Cd4FeNi3
_chemical_formula_sum   'Tb4 Ho12 Cd4 Fe1 Ni3'
_cell_volume   606.02654191
_cell_formula_units_Z   1
loop_
 _symmetry_equiv_pos_site_id
 _symmetry_equiv_pos_as_xyz
  1  'x, y, z'
loop_
 _atom_site_type_symbol
 _atom_site_label
 _atom_site_symmetry_multiplicity
 _atom_site_fract_x
 _atom_site_fract_y
 _atom_site_fract_z
 _atom_site_occupancy
  Tb  Tb0  1  0.348623  0.348623  0.348623  1
  Tb  Tb1  1  0.347862  0.347862  0.954579  1
  Tb  Tb2  1  0.347862  0.954579  0.347862  1
  Tb  Tb3  1  0.954579  0.347862  0.347862  1
  Ho  Ho4  1  0.815407  0.187793  0.187793  1
  Ho  Ho5  1  0.186668  0.811965  0.811965  1
  Ho  Ho6  1  0.187793  0.815407  0.187793  1
  Ho  Ho7  1  0.811965  0.186668  0.811965  1
  Ho  Ho8  1  0.187793  0.187793  0.815407  1
  Ho  Ho9  1  0.811965  0.811965  0.186668  1
  Ho  Ho10  1  0.936324  0.564501  0.564501  1
  Ho  Ho11  1  0.559985  0.937396  0.937396  1
  Ho  Ho12  1  0.564501  0.936324  0.564501  1
  Ho  Ho13  1  0.937396  0.559985  0.937396  1
  Ho  Ho14  1  0.564501  0.564501  0.936324  1
  Ho  Ho15  1  0.937396  0.937396  0.559985  1
  Cd  Cd16  1  0.579956  0.579956  0.579956  1
  Cd  Cd17  1  0.580767  0.580767  0.255669  1
  Cd  Cd18  1  0.580767  0.255669  0.580767  1
  Cd  Cd19  1  0.255669  0.580767  0.580767  1
  Fe  Fe20  1  0.142349  0.142349  0.142349  1
  Ni  Ni21  1  0.141725  0.141725  0.576424  1
  Ni  Ni22  1  0.141725  0.576424  0.141725  1
  Ni  Ni23  1  0.576424  0.141725  0.141725  1
