# generated using pymatgen
data_Ta5NbCl30
_symmetry_space_group_name_H-M   'P 1'
_cell_length_a   6.47563430
_cell_length_b   13.79507636
_cell_length_c   13.79911481
_cell_angle_alpha   85.45393051
_cell_angle_beta   90.78551117
_cell_angle_gamma   90.75487003
_symmetry_Int_Tables_number   1
_chemical_formula_structural   Ta5NbCl30
_chemical_formula_sum   'Ta5 Nb1 Cl30'
_cell_volume   1228.61671845
_cell_formula_units_Z   1
loop_
 _symmetry_equiv_pos_site_id
 _symmetry_equiv_pos_as_xyz
  1  'x, y, z'
loop_
 _atom_site_type_symbol
 _atom_site_label
 _atom_site_symmetry_multiplicity
 _atom_site_fract_x
 _atom_site_fract_y
 _atom_site_fract_z
 _atom_site_occupancy
  Ta  Ta0  1  0.000139  0.893175  0.106924  1
  Ta  Ta1  1  0.525309  0.439886  0.226442  1
  Ta  Ta2  1  0.525191  0.226260  0.439924  1
  Ta  Ta3  1  0.474862  0.773440  0.560218  1
  Ta  Ta4  1  0.999981  0.106721  0.893181  1
  Nb  Nb5  1  0.474495  0.559148  0.774700  1
  Cl  Cl6  1  0.796694  0.188026  0.997197  1
  Cl  Cl7  1  0.204863  0.046494  0.046560  1
  Cl  Cl8  1  0.745167  0.465471  0.099129  1
  Cl  Cl9  1  0.312140  0.335786  0.144729  1
  Cl  Cl10  1  0.775602  0.765477  0.132211  1
  Cl  Cl11  1  0.796699  0.997363  0.187799  1
  Cl  Cl12  1  0.305807  0.567338  0.200864  1
  Cl  Cl13  1  0.224544  0.867668  0.234560  1
  Cl  Cl14  1  0.724748  0.286722  0.286809  1
  Cl  Cl15  1  0.312131  0.144869  0.335668  1
  Cl  Cl16  1  0.739156  0.520848  0.330664  1
  Cl  Cl17  1  0.325180  0.379345  0.379201  1
  Cl  Cl18  1  0.694119  0.799251  0.432596  1
  Cl  Cl19  1  0.745157  0.099096  0.465552  1
  Cl  Cl20  1  0.260688  0.669316  0.478794  1
  Cl  Cl21  1  0.738853  0.330712  0.520926  1
  Cl  Cl22  1  0.254854  0.900901  0.534443  1
  Cl  Cl23  1  0.305741  0.200749  0.567305  1
  Cl  Cl24  1  0.675206  0.621488  0.619720  1
  Cl  Cl25  1  0.260519  0.478678  0.669004  1
  Cl  Cl26  1  0.688105  0.855428  0.664267  1
  Cl  Cl27  1  0.274667  0.714208  0.712398  1
  Cl  Cl28  1  0.775488  0.132284  0.765496  1
  Cl  Cl29  1  0.696788  0.431784  0.798999  1
  Cl  Cl30  1  0.203537  0.002695  0.812217  1
  Cl  Cl31  1  0.224491  0.234526  0.867834  1
  Cl  Cl32  1  0.688336  0.664597  0.855590  1
  Cl  Cl33  1  0.252127  0.534594  0.901881  1
  Cl  Cl34  1  0.795192  0.953573  0.953458  1
  Cl  Cl35  1  0.203423  0.812083  0.002740  1
