# generated using pymatgen
data_La5Pr6Ho5(CdPt)4
_symmetry_space_group_name_H-M   'P 1'
_cell_length_a   9.99825540
_cell_length_b   9.98139006
_cell_length_c   9.98138897
_cell_angle_alpha   59.77410918
_cell_angle_beta   59.94408663
_cell_angle_gamma   59.94408414
_symmetry_Int_Tables_number   1
_chemical_formula_structural   La5Pr6Ho5(CdPt)4
_chemical_formula_sum   'La5 Pr6 Ho5 Cd4 Pt4'
_cell_volume   702.55126944
_cell_formula_units_Z   1
loop_
 _symmetry_equiv_pos_site_id
 _symmetry_equiv_pos_as_xyz
  1  'x, y, z'
loop_
 _atom_site_type_symbol
 _atom_site_label
 _atom_site_symmetry_multiplicity
 _atom_site_fract_x
 _atom_site_fract_y
 _atom_site_fract_z
 _atom_site_occupancy
  La  La0  1  0.346836  0.353326  0.353326  1
  La  La1  1  0.351950  0.353543  0.942558  1
  La  La2  1  0.351950  0.942558  0.353543  1
  La  La3  1  0.946514  0.353326  0.353326  1
  La  La4  1  0.814461  0.185539  0.185539  1
  Pr  Pr5  1  0.933880  0.566120  0.566120  1
  Pr  Pr6  1  0.563298  0.936702  0.936702  1
  Pr  Pr7  1  0.562755  0.934794  0.566238  1
  Pr  Pr8  1  0.936212  0.566238  0.934794  1
  Pr  Pr9  1  0.562755  0.566238  0.934794  1
  Pr  Pr10  1  0.936212  0.934794  0.566238  1
  Ho  Ho11  1  0.184820  0.815180  0.815180  1
  Ho  Ho12  1  0.188794  0.812889  0.183612  1
  Ho  Ho13  1  0.814705  0.183612  0.812889  1
  Ho  Ho14  1  0.188794  0.183612  0.812889  1
  Ho  Ho15  1  0.814705  0.812889  0.183612  1
  Cd  Cd16  1  0.581703  0.579838  0.579838  1
  Cd  Cd17  1  0.580032  0.581336  0.258601  1
  Cd  Cd18  1  0.580032  0.258601  0.581336  1
  Cd  Cd19  1  0.258622  0.579838  0.579838  1
  Pt  Pt20  1  0.145700  0.138692  0.138692  1
  Pt  Pt21  1  0.139178  0.140120  0.581525  1
  Pt  Pt22  1  0.139178  0.581525  0.140120  1
  Pt  Pt23  1  0.576918  0.138692  0.138692  1
