# generated using pymatgen
data_PbBr37
_symmetry_space_group_name_H-M   'P 1'
_cell_length_a   14.20848141
_cell_length_b   15.29732181
_cell_length_c   14.42416200
_cell_angle_alpha   103.00376457
_cell_angle_beta   48.80056783
_cell_angle_gamma   81.50743146
_symmetry_Int_Tables_number   1
_chemical_formula_structural   PbBr37
_chemical_formula_sum   'Pb1 Br37'
_cell_volume   2102.91272627
_cell_formula_units_Z   1
loop_
 _symmetry_equiv_pos_site_id
 _symmetry_equiv_pos_as_xyz
  1  'x, y, z'
loop_
 _atom_site_type_symbol
 _atom_site_label
 _atom_site_symmetry_multiplicity
 _atom_site_fract_x
 _atom_site_fract_y
 _atom_site_fract_z
 _atom_site_occupancy
  Pb  Pb0  1  0.500000  0.000000  0.000000  1
  Br  Br1  1  0.790657  0.300756  0.135522  1
  Br  Br2  1  0.209343  0.699244  0.864478  1
  Br  Br3  1  0.746204  0.083817  0.363887  1
  Br  Br4  1  0.253796  0.916183  0.636113  1
  Br  Br5  1  0.115707  0.348699  0.166769  1
  Br  Br6  1  0.884293  0.651301  0.833231  1
  Br  Br7  1  0.865738  0.533392  0.247655  1
  Br  Br8  1  0.134262  0.466608  0.752345  1
  Br  Br9  1  0.687697  0.275685  0.522153  1
  Br  Br10  1  0.312303  0.724315  0.477847  1
  Br  Br11  1  0.036572  0.145683  0.496503  1
  Br  Br12  1  0.963428  0.854317  0.503497  1
  Br  Br13  1  0.981184  0.007758  0.285053  1
  Br  Br14  1  0.018816  0.992242  0.714947  1
  Br  Br15  1  0.947555  0.339107  0.608844  1
  Br  Br16  1  0.052445  0.660893  0.391156  1
  Br  Br17  1  0.580849  0.428823  0.234515  1
  Br  Br18  1  0.419151  0.571177  0.765485  1
  Br  Br19  1  0.166384  0.477651  0.280650  1
  Br  Br20  1  0.833616  0.522349  0.719350  1
  Br  Br21  1  0.000000  0.500000  0.000000  1
  Br  Br22  1  0.559806  0.959180  0.154425  1
  Br  Br23  1  0.440194  0.040820  0.845575  1
  Br  Br24  1  0.300106  0.054340  0.323232  1
  Br  Br25  1  0.699894  0.945660  0.676768  1
  Br  Br26  1  0.534380  0.132803  0.413693  1
  Br  Br27  1  0.465620  0.867197  0.586307  1
  Br  Br28  1  0.097261  0.213368  0.062148  1
  Br  Br29  1  0.902739  0.786632  0.937852  1
  Br  Br30  1  0.662265  0.692434  0.402173  1
  Br  Br31  1  0.337735  0.307566  0.597827  1
  Br  Br32  1  0.900410  0.147396  0.922311  1
  Br  Br33  1  0.099590  0.852604  0.077689  1
  Br  Br34  1  0.483829  0.186405  0.076012  1
  Br  Br35  1  0.516171  0.813595  0.923988  1
  Br  Br36  1  0.649898  0.431572  0.650959  1
  Br  Br37  1  0.350102  0.568428  0.349041  1
