# generated using pymatgen
data_Zr10Ti3Al9(CoIr3)2
_symmetry_space_group_name_H-M   'P 1'
_cell_length_a   9.01521124
_cell_length_b   9.01520986
_cell_length_c   9.01521031
_cell_angle_alpha   60.01276044
_cell_angle_beta   60.01275803
_cell_angle_gamma   60.01276294
_symmetry_Int_Tables_number   1
_chemical_formula_structural   Zr10Ti3Al9(CoIr3)2
_chemical_formula_sum   'Zr10 Ti3 Al9 Co2 Ir6'
_cell_volume   518.24871158
_cell_formula_units_Z   1
loop_
 _symmetry_equiv_pos_site_id
 _symmetry_equiv_pos_as_xyz
  1  'x, y, z'
loop_
 _atom_site_type_symbol
 _atom_site_label
 _atom_site_symmetry_multiplicity
 _atom_site_fract_x
 _atom_site_fract_y
 _atom_site_fract_z
 _atom_site_occupancy
  Zr  Zr0  1  0.197064  0.197064  0.801660  1
  Zr  Zr1  1  0.801660  0.197064  0.197064  1
  Zr  Zr2  1  0.197064  0.801660  0.197064  1
  Zr  Zr3  1  0.804229  0.804229  0.187015  1
  Zr  Zr4  1  0.187015  0.804229  0.804229  1
  Zr  Zr5  1  0.804229  0.187015  0.804229  1
  Zr  Zr6  1  0.382502  0.382502  0.382502  1
  Zr  Zr7  1  0.382841  0.853213  0.382841  1
  Zr  Zr8  1  0.853213  0.382841  0.382841  1
  Zr  Zr9  1  0.382841  0.382841  0.853213  1
  Ti  Ti10  1  0.833478  0.503777  0.833478  1
  Ti  Ti11  1  0.503777  0.833478  0.833478  1
  Ti  Ti12  1  0.833478  0.833478  0.503777  1
  Al  Al13  1  0.162379  0.162379  0.162379  1
  Al  Al14  1  0.164760  0.507593  0.164760  1
  Al  Al15  1  0.507593  0.164760  0.164760  1
  Al  Al16  1  0.164760  0.164760  0.507593  1
  Al  Al17  1  0.620254  0.620254  0.620254  1
  Al  Al18  1  0.619362  0.142971  0.619362  1
  Al  Al19  1  0.142971  0.619362  0.619362  1
  Al  Al20  1  0.619362  0.619362  0.142971  1
  Al  Al21  1  0.828820  0.828820  0.828820  1
  Co  Co22  1  0.501084  0.501084  0.501084  1
  Co  Co23  1  0.000585  0.000585  0.000585  1
  Ir  Ir24  1  0.000695  0.000695  0.499421  1
  Ir  Ir25  1  0.499421  0.000695  0.000695  1
  Ir  Ir26  1  0.000695  0.499421  0.000695  1
  Ir  Ir27  1  0.502176  0.502176  0.999514  1
  Ir  Ir28  1  0.999514  0.502176  0.502176  1
  Ir  Ir29  1  0.502176  0.999514  0.502176  1
