# generated using pymatgen
data_Dy3Er2Fe3(P3Ir4)4
_symmetry_space_group_name_H-M   'P 1'
_cell_length_a   12.57933221
_cell_length_b   12.57933284
_cell_length_c   3.92710700
_cell_angle_alpha   90.00000000
_cell_angle_beta   90.00000000
_cell_angle_gamma   119.97882143
_symmetry_Int_Tables_number   1
_chemical_formula_structural   Dy3Er2Fe3(P3Ir4)4
_chemical_formula_sum   'Dy3 Er2 Fe3 P12 Ir16'
_cell_volume   538.28366932
_cell_formula_units_Z   1
loop_
 _symmetry_equiv_pos_site_id
 _symmetry_equiv_pos_as_xyz
  1  'x, y, z'
loop_
 _atom_site_type_symbol
 _atom_site_label
 _atom_site_symmetry_multiplicity
 _atom_site_fract_x
 _atom_site_fract_y
 _atom_site_fract_z
 _atom_site_occupancy
  Dy  Dy0  1  0.666758  0.333380  0.000000  1
  Dy  Dy1  1  0.333380  0.666758  0.000000  1
  Dy  Dy2  1  0.818243  0.818243  0.500000  1
  Er  Er3  1  0.181457  0.999934  0.500000  1
  Er  Er4  1  0.999934  0.181457  0.500000  1
  Fe  Fe5  1  0.284837  0.284837  0.500000  1
  Fe  Fe6  1  0.715597  0.000271  0.500000  1
  Fe  Fe7  1  0.000271  0.715597  0.500000  1
  P  P8  1  0.685839  0.161549  0.500000  1
  P  P9  1  0.838548  0.524297  0.500000  1
  P  P10  1  0.475752  0.314037  0.500000  1
  P  P11  1  0.161549  0.685839  0.500000  1
  P  P12  1  0.524297  0.838548  0.500000  1
  P  P13  1  0.314037  0.475752  0.500000  1
  P  P14  1  0.643541  0.643541  0.000000  1
  P  P15  1  0.355716  0.999921  0.000000  1
  P  P16  1  0.999921  0.355716  0.000000  1
  P  P17  1  0.182645  0.182645  0.000000  1
  P  P18  1  0.817669  0.000260  0.000000  1
  P  P19  1  0.000260  0.817669  0.000000  1
  Ir  Ir20  1  0.803186  0.177492  0.000000  1
  Ir  Ir21  1  0.822579  0.625180  0.000000  1
  Ir  Ir22  1  0.374167  0.196597  0.000000  1
  Ir  Ir23  1  0.177492  0.803186  0.000000  1
  Ir  Ir24  1  0.625180  0.822579  0.000000  1
  Ir  Ir25  1  0.196597  0.374167  0.000000  1
  Ir  Ir26  1  0.459415  0.459415  0.000000  1
  Ir  Ir27  1  0.540044  0.000218  0.000000  1
  Ir  Ir28  1  0.000218  0.540044  0.000000  1
  Ir  Ir29  1  0.867755  0.359150  0.500000  1
  Ir  Ir30  1  0.640821  0.508592  0.500000  1
  Ir  Ir31  1  0.491445  0.132476  0.500000  1
  Ir  Ir32  1  0.359150  0.867755  0.500000  1
  Ir  Ir33  1  0.508592  0.640821  0.500000  1
  Ir  Ir34  1  0.132476  0.491445  0.500000  1
  Ir  Ir35  1  0.000633  0.000633  0.000000  1
