# generated using pymatgen
data_Ba2GaPtBr
_symmetry_space_group_name_H-M   'P 1'
_cell_length_a   4.42575400
_cell_length_b   4.42575502
_cell_length_c   18.20889000
_cell_angle_alpha   90.00000000
_cell_angle_beta   90.00000000
_cell_angle_gamma   120.00000729
_symmetry_Int_Tables_number   1
_chemical_formula_structural   Ba2GaPtBr
_chemical_formula_sum   'Ba4 Ga2 Pt2 Br2'
_cell_volume   308.87923549
_cell_formula_units_Z   2
loop_
 _symmetry_equiv_pos_site_id
 _symmetry_equiv_pos_as_xyz
  1  'x, y, z'
loop_
 _atom_site_type_symbol
 _atom_site_label
 _atom_site_symmetry_multiplicity
 _atom_site_fract_x
 _atom_site_fract_y
 _atom_site_fract_z
 _atom_site_occupancy
  Ba  Ba0  1  0.000000  0.000000  0.121181  1
  Ba  Ba1  1  0.000000  0.000000  0.378819  1
  Ba  Ba2  1  0.000000  0.000000  0.621922  1
  Ba  Ba3  1  0.000000  0.000000  0.878078  1
  Ga  Ga4  1  0.666666  0.333334  0.500903  1
  Ga  Ga5  1  0.666666  0.333334  0.999097  1
  Pt  Pt6  1  0.333334  0.666667  0.000759  1
  Pt  Pt7  1  0.333334  0.666667  0.499241  1
  Br  Br8  1  0.666666  0.333334  0.250000  1
  Br  Br9  1  0.333334  0.666667  0.750000  1
