# generated using pymatgen
data_ScNb(ReSi)2
_symmetry_space_group_name_H-M   'P 1'
_cell_length_a   7.66231377
_cell_length_b   7.69289386
_cell_length_c   7.66231424
_cell_angle_alpha   126.12587683
_cell_angle_beta   128.22587393
_cell_angle_gamma   77.88703047
_symmetry_Int_Tables_number   1
_chemical_formula_structural   ScNb(ReSi)2
_chemical_formula_sum   'Sc3 Nb3 Re6 Si6'
_cell_volume   277.91299771
_cell_formula_units_Z   3
loop_
 _symmetry_equiv_pos_site_id
 _symmetry_equiv_pos_as_xyz
  1  'x, y, z'
loop_
 _atom_site_type_symbol
 _atom_site_label
 _atom_site_symmetry_multiplicity
 _atom_site_fract_x
 _atom_site_fract_y
 _atom_site_fract_z
 _atom_site_occupancy
  Sc  Sc0  1  0.549390  0.092569  0.043179  1
  Sc  Sc1  1  0.451434  0.495791  0.544358  1
  Sc  Sc2  1  0.949747  0.494682  0.044934  1
  Nb  Nb3  1  0.048820  0.091940  0.543120  1
  Nb  Nb4  1  0.750629  0.903999  0.653370  1
  Nb  Nb5  1  0.250567  0.897321  0.146754  1
  Re  Re6  1  0.495803  0.234516  0.733852  1
  Re  Re7  1  0.000665  0.234516  0.238714  1
  Re  Re8  1  0.122613  0.758491  0.626057  1
  Re  Re9  1  0.877840  0.500206  0.631160  1
  Re  Re10  1  0.632434  0.758491  0.135878  1
  Re  Re11  1  0.369045  0.500206  0.122366  1
  Si  Si12  1  0.748702  0.495628  0.246925  1
  Si  Si13  1  0.252127  0.498515  0.746388  1
  Si  Si14  1  0.331239  0.828521  0.493538  1
  Si  Si15  1  0.667883  0.164143  0.498062  1
  Si  Si16  1  0.834982  0.828521  0.997281  1
  Si  Si17  1  0.166080  0.164143  0.996260  1
