# generated using pymatgen
data_Er4SiB4Ir5Rh4
_symmetry_space_group_name_H-M   'P 1'
_cell_length_a   10.69758381
_cell_length_b   10.69795200
_cell_length_c   10.69758500
_cell_angle_alpha   30.04794436
_cell_angle_beta   30.08211561
_cell_angle_gamma   30.04794874
_symmetry_Int_Tables_number   1
_chemical_formula_structural   Er4SiB4Ir5Rh4
_chemical_formula_sum   'Er4 Si1 B4 Ir5 Rh4'
_cell_volume   272.10275613
_cell_formula_units_Z   1
loop_
 _symmetry_equiv_pos_site_id
 _symmetry_equiv_pos_as_xyz
  1  'x, y, z'
loop_
 _atom_site_type_symbol
 _atom_site_label
 _atom_site_symmetry_multiplicity
 _atom_site_fract_x
 _atom_site_fract_y
 _atom_site_fract_z
 _atom_site_occupancy
  Er  Er0  1  0.149748  0.151894  0.149748  1
  Er  Er1  1  0.949386  0.949941  0.949386  1
  Er  Er2  1  0.849145  0.849119  0.849145  1
  Er  Er3  1  0.050260  0.050879  0.050260  1
  Si  Si4  1  0.502374  0.495484  0.502374  1
  B  B5  1  0.616102  0.613878  0.616102  1
  B  B6  1  0.718991  0.718736  0.718991  1
  B  B7  1  0.385134  0.384234  0.385134  1
  B  B8  1  0.280563  0.282466  0.280563  1
  Ir  Ir9  1  0.898939  0.403254  0.401766  1
  Ir  Ir10  1  0.597673  0.101143  0.597673  1
  Ir  Ir11  1  0.597381  0.598423  0.100619  1
  Ir  Ir12  1  0.100619  0.598423  0.597381  1
  Ir  Ir13  1  0.401766  0.403254  0.898939  1
  Rh  Rh14  1  0.402084  0.899440  0.402084  1
  Rh  Rh15  1  0.499933  0.499902  0.000075  1
  Rh  Rh16  1  0.499829  0.999625  0.499829  1
  Rh  Rh17  1  0.000075  0.499902  0.499933  1
