# generated using pymatgen
data_Dy13Y6Sc(Cd3Ru)2
_symmetry_space_group_name_H-M   'P 1'
_cell_length_a   9.56070800
_cell_length_b   9.56070849
_cell_length_c   9.80858500
_cell_angle_alpha   90.00000000
_cell_angle_beta   90.00000000
_cell_angle_gamma   120.00000521
_symmetry_Int_Tables_number   1
_chemical_formula_structural   Dy13Y6Sc(Cd3Ru)2
_chemical_formula_sum   'Dy13 Y6 Sc1 Cd6 Ru2'
_cell_volume   776.45644644
_cell_formula_units_Z   1
loop_
 _symmetry_equiv_pos_site_id
 _symmetry_equiv_pos_as_xyz
  1  'x, y, z'
loop_
 _atom_site_type_symbol
 _atom_site_label
 _atom_site_symmetry_multiplicity
 _atom_site_fract_x
 _atom_site_fract_y
 _atom_site_fract_z
 _atom_site_occupancy
  Dy  Dy0  1  0.000000  0.000000  0.000000  1
  Dy  Dy1  1  0.208476  0.791524  0.440154  1
  Dy  Dy2  1  0.208476  0.416953  0.440154  1
  Dy  Dy3  1  0.583047  0.791524  0.440154  1
  Dy  Dy4  1  0.791524  0.208476  0.559846  1
  Dy  Dy5  1  0.791524  0.583047  0.559846  1
  Dy  Dy6  1  0.416953  0.208476  0.559846  1
  Dy  Dy7  1  0.789973  0.210027  0.940655  1
  Dy  Dy8  1  0.789973  0.579946  0.940655  1
  Dy  Dy9  1  0.420054  0.210027  0.940655  1
  Dy  Dy10  1  0.210027  0.789973  0.059345  1
  Dy  Dy11  1  0.210027  0.420054  0.059345  1
  Dy  Dy12  1  0.579946  0.789973  0.059345  1
  Y  Y13  1  0.540998  0.459002  0.250254  1
  Y  Y14  1  0.540998  0.081997  0.250254  1
  Y  Y15  1  0.918003  0.459002  0.250254  1
  Y  Y16  1  0.459002  0.540998  0.749746  1
  Y  Y17  1  0.459002  0.918003  0.749746  1
  Y  Y18  1  0.081997  0.540998  0.749746  1
  Sc  Sc19  1  0.000000  0.000000  0.500000  1
  Cd  Cd20  1  0.887245  0.112755  0.254576  1
  Cd  Cd21  1  0.887245  0.774491  0.254576  1
  Cd  Cd22  1  0.225509  0.112755  0.254576  1
  Cd  Cd23  1  0.112755  0.887245  0.745424  1
  Cd  Cd24  1  0.112755  0.225509  0.745424  1
  Cd  Cd25  1  0.774491  0.887245  0.745424  1
  Ru  Ru26  1  0.333333  0.666667  0.250147  1
  Ru  Ru27  1  0.666667  0.333333  0.749853  1
