# generated using pymatgen
data_Tm6Al24ZnRu6Rh
_symmetry_space_group_name_H-M   'P 1'
_cell_length_a   8.77863371
_cell_length_b   8.77863363
_cell_length_c   9.53368586
_cell_angle_alpha   90.06199346
_cell_angle_beta   89.93800579
_cell_angle_gamma   119.84704052
_symmetry_Int_Tables_number   1
_chemical_formula_structural   Tm6Al24ZnRu6Rh
_chemical_formula_sum   'Tm6 Al24 Zn1 Ru6 Rh1'
_cell_volume   637.25361647
_cell_formula_units_Z   1
loop_
 _symmetry_equiv_pos_site_id
 _symmetry_equiv_pos_as_xyz
  1  'x, y, z'
loop_
 _atom_site_type_symbol
 _atom_site_label
 _atom_site_symmetry_multiplicity
 _atom_site_fract_x
 _atom_site_fract_y
 _atom_site_fract_z
 _atom_site_occupancy
  Tm  Tm0  1  0.804179  0.195821  0.747386  1
  Tm  Tm1  1  0.195821  0.804179  0.252614  1
  Tm  Tm2  1  0.386554  0.189940  0.752683  1
  Tm  Tm3  1  0.613446  0.810060  0.247317  1
  Tm  Tm4  1  0.810060  0.613446  0.752683  1
  Tm  Tm5  1  0.189940  0.386554  0.247317  1
  Al  Al6  1  0.670632  0.329368  0.975443  1
  Al  Al7  1  0.329368  0.670632  0.024557  1
  Al  Al8  1  0.332871  0.667129  0.476941  1
  Al  Al9  1  0.667129  0.332871  0.523059  1
  Al  Al10  1  0.836642  0.163358  0.421312  1
  Al  Al11  1  0.163358  0.836642  0.578688  1
  Al  Al12  1  0.324541  0.160702  0.423701  1
  Al  Al13  1  0.163473  0.836527  0.920405  1
  Al  Al14  1  0.675459  0.839298  0.576299  1
  Al  Al15  1  0.836527  0.163473  0.079595  1
  Al  Al16  1  0.839298  0.675459  0.423701  1
  Al  Al17  1  0.677089  0.848313  0.919263  1
  Al  Al18  1  0.160702  0.324541  0.576299  1
  Al  Al19  1  0.322911  0.151687  0.080737  1
  Al  Al20  1  0.151687  0.322911  0.919263  1
  Al  Al21  1  0.848313  0.677089  0.080737  1
  Al  Al22  1  0.437466  0.562534  0.745919  1
  Al  Al23  1  0.562534  0.437466  0.254081  1
  Al  Al24  1  0.122557  0.561560  0.750681  1
  Al  Al25  1  0.877443  0.438440  0.249319  1
  Al  Al26  1  0.438440  0.877443  0.750681  1
  Al  Al27  1  0.561560  0.122557  0.249319  1
  Al  Al28  1  0.001337  0.998663  0.749571  1
  Al  Al29  1  0.998663  0.001337  0.250429  1
  Zn  Zn30  1  0.500000  0.500000  0.000000  1
  Ru  Ru31  1  0.000000  0.500000  0.000000  1
  Ru  Ru32  1  0.500000  0.000000  0.000000  1
  Ru  Ru33  1  0.000000  0.500000  0.500000  1
  Ru  Ru34  1  0.500000  0.000000  0.500000  1
  Ru  Ru35  1  0.000000  0.000000  0.000000  1
  Ru  Ru36  1  0.000000  0.000000  0.500000  1
  Rh  Rh37  1  0.500000  0.500000  0.500000  1
