# generated using pymatgen
data_YHo4(RhO6)2
_symmetry_space_group_name_H-M   'P 1'
_cell_length_a   6.83331219
_cell_length_b   6.83331147
_cell_length_c   7.26090100
_cell_angle_alpha   74.49936972
_cell_angle_beta   74.49937430
_cell_angle_gamma   51.24599262
_symmetry_Int_Tables_number   1
_chemical_formula_structural   YHo4(RhO6)2
_chemical_formula_sum   'Y1 Ho4 Rh2 O12'
_cell_volume   252.51766120
_cell_formula_units_Z   1
loop_
 _symmetry_equiv_pos_site_id
 _symmetry_equiv_pos_as_xyz
  1  'x, y, z'
loop_
 _atom_site_type_symbol
 _atom_site_label
 _atom_site_symmetry_multiplicity
 _atom_site_fract_x
 _atom_site_fract_y
 _atom_site_fract_z
 _atom_site_occupancy
  Y  Y0  1  0.000000  0.000000  0.500000  1
  Ho  Ho1  1  0.301886  0.301886  0.360366  1
  Ho  Ho2  1  0.698114  0.698114  0.639634  1
  Ho  Ho3  1  0.309248  0.309248  0.829071  1
  Ho  Ho4  1  0.690752  0.690752  0.170929  1
  Rh  Rh5  1  0.752875  0.247125  0.000000  1
  Rh  Rh6  1  0.247125  0.752875  0.000000  1
  O  O7  1  0.901683  0.432104  0.914839  1
  O  O8  1  0.432104  0.901683  0.914839  1
  O  O9  1  0.098317  0.567896  0.085161  1
  O  O10  1  0.567896  0.098317  0.085161  1
  O  O11  1  0.097190  0.596763  0.573849  1
  O  O12  1  0.596763  0.097190  0.573849  1
  O  O13  1  0.902810  0.403237  0.426151  1
  O  O14  1  0.403237  0.902810  0.426151  1
  O  O15  1  0.999813  0.999813  0.817252  1
  O  O16  1  0.000187  0.000187  0.182748  1
  O  O17  1  0.500206  0.500206  0.808384  1
  O  O18  1  0.499794  0.499794  0.191616  1
