# generated using pymatgen
data_Ho2MnIn2Co3
_symmetry_space_group_name_H-M   'P 1'
_cell_length_a   4.02850700
_cell_length_b   5.05221933
_cell_length_c   7.19268986
_cell_angle_alpha   90.64204907
_cell_angle_beta   90.00000000
_cell_angle_gamma   90.00000000
_symmetry_Int_Tables_number   1
_chemical_formula_structural   Ho2MnIn2Co3
_chemical_formula_sum   'Ho2 Mn1 In2 Co3'
_cell_volume   146.38291292
_cell_formula_units_Z   1
loop_
 _symmetry_equiv_pos_site_id
 _symmetry_equiv_pos_as_xyz
  1  'x, y, z'
loop_
 _atom_site_type_symbol
 _atom_site_label
 _atom_site_symmetry_multiplicity
 _atom_site_fract_x
 _atom_site_fract_y
 _atom_site_fract_z
 _atom_site_occupancy
  Ho  Ho0  1  0.500000  0.757608  0.716707  1
  Ho  Ho1  1  0.500000  0.242392  0.283293  1
  Mn  Mn2  1  0.000000  0.000000  0.000000  1
  In  In3  1  0.000000  0.745254  0.348318  1
  In  In4  1  0.000000  0.254746  0.651682  1
  Co  Co5  1  0.000000  0.500000  0.000000  1
  Co  Co6  1  0.500000  0.736172  0.088459  1
  Co  Co7  1  0.500000  0.263828  0.911541  1
