# generated using pymatgen
data_Al5In6GaSe18
_symmetry_space_group_name_H-M   'P 1'
_cell_length_a   7.16451068
_cell_length_b   7.16225372
_cell_length_c   19.05758414
_cell_angle_alpha   90.03377665
_cell_angle_beta   90.11621651
_cell_angle_gamma   120.00004188
_symmetry_Int_Tables_number   1
_chemical_formula_structural   Al5In6GaSe18
_chemical_formula_sum   'Al5 In6 Ga1 Se18'
_cell_volume   846.90148168
_cell_formula_units_Z   1
loop_
 _symmetry_equiv_pos_site_id
 _symmetry_equiv_pos_as_xyz
  1  'x, y, z'
loop_
 _atom_site_type_symbol
 _atom_site_label
 _atom_site_symmetry_multiplicity
 _atom_site_fract_x
 _atom_site_fract_y
 _atom_site_fract_z
 _atom_site_occupancy
  Al  Al0  1  0.663813  0.680887  0.141068  1
  Al  Al1  1  0.982797  0.663785  0.307702  1
  Al  Al2  1  0.680833  0.016892  0.974429  1
  Al  Al3  1  0.319507  0.983086  0.474255  1
  Al  Al4  1  0.016436  0.336174  0.807983  1
  In  In5  1  0.327225  0.328743  0.004224  1
  In  In6  1  0.998523  0.327313  0.170860  1
  In  In7  1  0.328806  0.001545  0.837623  1
  In  In8  1  0.671207  0.998484  0.337562  1
  In  In9  1  0.001414  0.672404  0.670954  1
  In  In10  1  0.672958  0.671339  0.504098  1
  Ga  Ga11  1  0.336153  0.318129  0.641478  1
  Se  Se12  1  0.362835  0.319801  0.152850  1
  Se  Se13  1  0.043100  0.362884  0.319554  1
  Se  Se14  1  0.319782  0.956927  0.986167  1
  Se  Se15  1  0.680704  0.043543  0.486123  1
  Se  Se16  1  0.956445  0.637124  0.819840  1
  Se  Se17  1  0.638980  0.683866  0.652455  1
  Se  Se18  1  0.967641  0.346461  0.021840  1
  Se  Se19  1  0.621181  0.967619  0.188438  1
  Se  Se20  1  0.346283  0.378989  0.855111  1
  Se  Se21  1  0.653676  0.621245  0.354996  1
  Se  Se22  1  0.380712  0.029948  0.689043  1
  Se  Se23  1  0.033083  0.654246  0.521824  1
  Se  Se24  1  0.002315  0.708493  0.180084  1
  Se  Se25  1  0.293864  0.002335  0.346627  1
  Se  Se26  1  0.708435  0.706103  0.013427  1
  Se  Se27  1  0.291805  0.294694  0.512281  1
  Se  Se28  1  0.706144  0.997464  0.846830  1
  Se  Se29  1  0.993343  0.289475  0.680276  1
