# generated using pymatgen
data_PrNd3GaI6
_symmetry_space_group_name_H-M   'P 1'
_cell_length_a   4.40196600
_cell_length_b   14.68072116
_cell_length_c   15.45259900
_cell_angle_alpha   88.96198827
_cell_angle_beta   90.00000000
_cell_angle_gamma   90.00000000
_symmetry_Int_Tables_number   1
_chemical_formula_structural   PrNd3GaI6
_chemical_formula_sum   'Pr2 Nd6 Ga2 I12'
_cell_volume   998.44542939
_cell_formula_units_Z   2
loop_
 _symmetry_equiv_pos_site_id
 _symmetry_equiv_pos_as_xyz
  1  'x, y, z'
loop_
 _atom_site_type_symbol
 _atom_site_label
 _atom_site_symmetry_multiplicity
 _atom_site_fract_x
 _atom_site_fract_y
 _atom_site_fract_z
 _atom_site_occupancy
  Pr  Pr0  1  0.000000  0.117346  0.578226  1
  Pr  Pr1  1  0.000000  0.882654  0.421774  1
  Nd  Nd2  1  0.500000  0.116224  0.343132  1
  Nd  Nd3  1  0.500000  0.883776  0.656868  1
  Nd  Nd4  1  0.500000  0.613910  0.154546  1
  Nd  Nd5  1  0.500000  0.386090  0.845454  1
  Nd  Nd6  1  0.000000  0.615240  0.922512  1
  Nd  Nd7  1  0.000000  0.384760  0.077488  1
  Ga  Ga8  1  0.500000  0.000000  0.500000  1
  Ga  Ga9  1  0.500000  0.500000  0.000000  1
  I  I10  1  0.500000  0.248539  0.165451  1
  I  I11  1  0.500000  0.751461  0.834549  1
  I  I12  1  0.500000  0.744431  0.333634  1
  I  I13  1  0.500000  0.255569  0.666366  1
  I  I14  1  0.000000  0.256510  0.411004  1
  I  I15  1  0.000000  0.743490  0.588996  1
  I  I16  1  0.000000  0.755026  0.083337  1
  I  I17  1  0.000000  0.244974  0.916663  1
  I  I18  1  0.000000  0.002128  0.240536  1
  I  I19  1  0.000000  0.997872  0.759464  1
  I  I20  1  0.000000  0.496339  0.257178  1
  I  I21  1  0.000000  0.503661  0.742822  1
