# generated using pymatgen
data_Ti3Be2ZnN
_symmetry_space_group_name_H-M   'P 1'
_cell_length_a   7.79908858
_cell_length_b   7.79908832
_cell_length_c   7.79908800
_cell_angle_alpha   60.00000136
_cell_angle_beta   60.00000245
_cell_angle_gamma   60.00000054
_symmetry_Int_Tables_number   1
_chemical_formula_structural   Ti3Be2ZnN
_chemical_formula_sum   'Ti12 Be8 Zn4 N4'
_cell_volume   335.44129682
_cell_formula_units_Z   4
loop_
 _symmetry_equiv_pos_site_id
 _symmetry_equiv_pos_as_xyz
  1  'x, y, z'
loop_
 _atom_site_type_symbol
 _atom_site_label
 _atom_site_symmetry_multiplicity
 _atom_site_fract_x
 _atom_site_fract_y
 _atom_site_fract_z
 _atom_site_occupancy
  Ti  Ti0  1  0.812170  0.812170  0.187830  1
  Ti  Ti1  1  0.187830  0.187830  0.812170  1
  Ti  Ti2  1  0.812170  0.187830  0.812170  1
  Ti  Ti3  1  0.187830  0.812170  0.187830  1
  Ti  Ti4  1  0.187830  0.812170  0.812170  1
  Ti  Ti5  1  0.812170  0.187830  0.187830  1
  Ti  Ti6  1  0.437830  0.437830  0.062170  1
  Ti  Ti7  1  0.062170  0.062170  0.437830  1
  Ti  Ti8  1  0.437830  0.062170  0.437830  1
  Ti  Ti9  1  0.062170  0.437830  0.062170  1
  Ti  Ti10  1  0.062170  0.437830  0.437830  1
  Ti  Ti11  1  0.437830  0.062170  0.062170  1
  Be  Be12  1  0.731651  0.422783  0.422783  1
  Be  Be13  1  0.422783  0.731651  0.422783  1
  Be  Be14  1  0.422783  0.422783  0.731651  1
  Be  Be15  1  0.422783  0.422783  0.422783  1
  Be  Be16  1  0.518349  0.827217  0.827217  1
  Be  Be17  1  0.827217  0.518349  0.827217  1
  Be  Be18  1  0.827217  0.827217  0.518349  1
  Be  Be19  1  0.827217  0.827217  0.827217  1
  Zn  Zn20  1  0.125000  0.625000  0.625000  1
  Zn  Zn21  1  0.625000  0.125000  0.625000  1
  Zn  Zn22  1  0.625000  0.625000  0.125000  1
  Zn  Zn23  1  0.625000  0.625000  0.625000  1
  N  N24  1  0.625000  0.125000  0.125000  1
  N  N25  1  0.125000  0.625000  0.125000  1
  N  N26  1  0.125000  0.125000  0.625000  1
  N  N27  1  0.125000  0.125000  0.125000  1
