# generated using pymatgen
data_Hf2Zr(AsPd)4
_symmetry_space_group_name_H-M   'P 1'
_cell_length_a   6.64675071
_cell_length_b   3.93107700
_cell_length_c   7.76536141
_cell_angle_alpha   90.00000000
_cell_angle_beta   90.39203923
_cell_angle_gamma   90.00000000
_symmetry_Int_Tables_number   1
_chemical_formula_structural   Hf2Zr(AsPd)4
_chemical_formula_sum   'Hf2 Zr1 As4 Pd4'
_cell_volume   202.89551521
_cell_formula_units_Z   1
loop_
 _symmetry_equiv_pos_site_id
 _symmetry_equiv_pos_as_xyz
  1  'x, y, z'
loop_
 _atom_site_type_symbol
 _atom_site_label
 _atom_site_symmetry_multiplicity
 _atom_site_fract_x
 _atom_site_fract_y
 _atom_site_fract_z
 _atom_site_occupancy
  Hf  Hf0  1  0.458481  0.749998  0.314233  1
  Hf  Hf1  1  0.538786  0.250000  0.691188  1
  Zr  Zr2  1  0.963930  0.749998  0.184116  1
  As  As3  1  0.238451  0.250000  0.118556  1
  As  As4  1  0.745366  0.250000  0.376314  1
  As  As5  1  0.255755  0.749998  0.628095  1
  As  As6  1  0.778174  0.749998  0.878051  1
  Pd  Pd7  1  0.638632  0.250000  0.061172  1
  Pd  Pd8  1  0.154627  0.250000  0.442274  1
  Pd  Pd9  1  0.854602  0.749998  0.565620  1
  Pd  Pd10  1  0.371165  0.749998  0.937639  1
