# generated using pymatgen
data_Be4VOs
_symmetry_space_group_name_H-M   'P 1'
_cell_length_a   4.31635741
_cell_length_b   4.31635749
_cell_length_c   4.31635700
_cell_angle_alpha   59.99999606
_cell_angle_beta   59.99999549
_cell_angle_gamma   59.99999757
_symmetry_Int_Tables_number   1
_chemical_formula_structural   Be4VOs
_chemical_formula_sum   'Be4 V1 Os1'
_cell_volume   56.86396371
_cell_formula_units_Z   1
loop_
 _symmetry_equiv_pos_site_id
 _symmetry_equiv_pos_as_xyz
  1  'x, y, z'
loop_
 _atom_site_type_symbol
 _atom_site_label
 _atom_site_symmetry_multiplicity
 _atom_site_fract_x
 _atom_site_fract_y
 _atom_site_fract_z
 _atom_site_occupancy
  Be  Be0  1  0.125338  0.125338  0.125338  1
  Be  Be1  1  0.623986  0.125338  0.125338  1
  Be  Be2  1  0.125338  0.623986  0.125338  1
  Be  Be3  1  0.125338  0.125338  0.623986  1
  V  V4  1  0.500000  0.500000  0.500000  1
  Os  Os5  1  0.749999  0.749999  0.749999  1
