# generated using pymatgen
data_Np2Ni7P4
_symmetry_space_group_name_H-M   'P 1'
_cell_length_a   3.67764200
_cell_length_b   9.13413800
_cell_length_c   10.28748500
_cell_angle_alpha   90.00000000
_cell_angle_beta   90.00000000
_cell_angle_gamma   90.00000000
_symmetry_Int_Tables_number   1
_chemical_formula_structural   Np2Ni7P4
_chemical_formula_sum   'Np4 Ni14 P8'
_cell_volume   345.57811729
_cell_formula_units_Z   2
loop_
 _symmetry_equiv_pos_site_id
 _symmetry_equiv_pos_as_xyz
  1  'x, y, z'
loop_
 _atom_site_type_symbol
 _atom_site_label
 _atom_site_symmetry_multiplicity
 _atom_site_fract_x
 _atom_site_fract_y
 _atom_site_fract_z
 _atom_site_occupancy
  Np  Np0  1  0.000000  0.058836  0.397734  1
  Np  Np1  1  0.500000  0.941164  0.897734  1
  Np  Np2  1  0.000000  0.441616  0.176116  1
  Np  Np3  1  0.500000  0.558384  0.676116  1
  Ni  Ni4  1  0.000000  0.056170  0.696483  1
  Ni  Ni5  1  0.500000  0.943830  0.196483  1
  Ni  Ni6  1  0.000000  0.727768  0.508219  1
  Ni  Ni7  1  0.500000  0.272232  0.008219  1
  Ni  Ni8  1  0.000000  0.104159  0.102876  1
  Ni  Ni9  1  0.500000  0.895841  0.602876  1
  Ni  Ni10  1  0.000000  0.752033  0.270994  1
  Ni  Ni11  1  0.500000  0.247967  0.770994  1
  Ni  Ni12  1  0.000000  0.308459  0.607058  1
  Ni  Ni13  1  0.500000  0.691541  0.107058  1
  Ni  Ni14  1  0.000000  0.676678  0.913300  1
  Ni  Ni15  1  0.500000  0.323322  0.413300  1
  Ni  Ni16  1  0.000000  0.411542  0.863126  1
  Ni  Ni17  1  0.500000  0.588458  0.363126  1
  P  P18  1  0.000000  0.173195  0.892570  1
  P  P19  1  0.500000  0.826805  0.392570  1
  P  P20  1  0.000000  0.849827  0.078652  1
  P  P21  1  0.500000  0.150173  0.578652  1
  P  P22  1  0.000000  0.805733  0.718699  1
  P  P23  1  0.500000  0.194267  0.218699  1
  P  P24  1  0.000000  0.479893  0.458271  1
  P  P25  1  0.500000  0.520107  0.958271  1
