# generated using pymatgen
data_LiNb12Ga8Cu3C4
_symmetry_space_group_name_H-M   'P 1'
_cell_length_a   8.30371285
_cell_length_b   8.32520736
_cell_length_c   8.32523000
_cell_angle_alpha   59.99848817
_cell_angle_beta   59.91420414
_cell_angle_gamma   59.91425026
_symmetry_Int_Tables_number   1
_chemical_formula_structural   LiNb12Ga8Cu3C4
_chemical_formula_sum   'Li1 Nb12 Ga8 Cu3 C4'
_cell_volume   406.42406322
_cell_formula_units_Z   1
loop_
 _symmetry_equiv_pos_site_id
 _symmetry_equiv_pos_as_xyz
  1  'x, y, z'
loop_
 _atom_site_type_symbol
 _atom_site_label
 _atom_site_symmetry_multiplicity
 _atom_site_fract_x
 _atom_site_fract_y
 _atom_site_fract_z
 _atom_site_occupancy
  Li  Li0  1  0.125000  0.625000  0.625000  1
  Nb  Nb1  1  0.815993  0.816041  0.183983  1
  Nb  Nb2  1  0.183890  0.185827  0.815139  1
  Nb  Nb3  1  0.815989  0.183986  0.816036  1
  Nb  Nb4  1  0.183886  0.815139  0.185828  1
  Nb  Nb5  1  0.183886  0.815140  0.815140  1
  Nb  Nb6  1  0.815985  0.183988  0.183990  1
  Nb  Nb7  1  0.434007  0.433959  0.066017  1
  Nb  Nb8  1  0.066110  0.064173  0.434861  1
  Nb  Nb9  1  0.434011  0.066014  0.433964  1
  Nb  Nb10  1  0.066114  0.434861  0.064172  1
  Nb  Nb11  1  0.066114  0.434860  0.434860  1
  Nb  Nb12  1  0.434015  0.066012  0.066010  1
  Ga  Ga13  1  0.755165  0.414950  0.414941  1
  Ga  Ga14  1  0.412845  0.754213  0.416470  1
  Ga  Ga15  1  0.412846  0.416474  0.754213  1
  Ga  Ga16  1  0.412842  0.416476  0.416470  1
  Ga  Ga17  1  0.494835  0.835050  0.835059  1
  Ga  Ga18  1  0.837155  0.495787  0.833530  1
  Ga  Ga19  1  0.837154  0.833526  0.495787  1
  Ga  Ga20  1  0.837158  0.833524  0.833530  1
  Cu  Cu21  1  0.625000  0.125000  0.625000  1
  Cu  Cu22  1  0.625000  0.625000  0.125000  1
  Cu  Cu23  1  0.625000  0.625000  0.625000  1
  C  C24  1  0.625000  0.125000  0.125000  1
  C  C25  1  0.125000  0.625000  0.125000  1
  C  C26  1  0.125000  0.125000  0.625000  1
  C  C27  1  0.125000  0.125000  0.125000  1
