# generated using pymatgen
data_Y3Er(Al3Ir)6
_symmetry_space_group_name_H-M   'P 1'
_cell_length_a   7.55449541
_cell_length_b   7.55230963
_cell_length_c   9.47984600
_cell_angle_alpha   90.00000000
_cell_angle_beta   90.00000000
_cell_angle_gamma   119.49486061
_symmetry_Int_Tables_number   1
_chemical_formula_structural   Y3Er(Al3Ir)6
_chemical_formula_sum   'Y3 Er1 Al18 Ir6'
_cell_volume   470.76627663
_cell_formula_units_Z   1
loop_
 _symmetry_equiv_pos_site_id
 _symmetry_equiv_pos_as_xyz
  1  'x, y, z'
loop_
 _atom_site_type_symbol
 _atom_site_label
 _atom_site_symmetry_multiplicity
 _atom_site_fract_x
 _atom_site_fract_y
 _atom_site_fract_z
 _atom_site_occupancy
  Y  Y0  1  0.005652  0.328528  0.750000  1
  Y  Y1  1  0.671572  0.994195  0.250000  1
  Y  Y2  1  0.328589  0.005659  0.750000  1
  Er  Er3  1  0.994387  0.671588  0.250000  1
  Al  Al4  1  0.129531  0.128791  0.250000  1
  Al  Al5  1  0.870395  0.870246  0.750000  1
  Al  Al6  1  0.000912  0.335760  0.074420  1
  Al  Al7  1  0.999071  0.664912  0.927342  1
  Al  Al8  1  0.999071  0.664912  0.572658  1
  Al  Al9  1  0.334508  0.000313  0.425646  1
  Al  Al10  1  0.000912  0.335760  0.425580  1
  Al  Al11  1  0.664899  0.999064  0.573460  1
  Al  Al12  1  0.664899  0.999064  0.926540  1
  Al  Al13  1  0.334508  0.000313  0.074354  1
  Al  Al14  1  0.333500  0.333488  0.550190  1
  Al  Al15  1  0.666994  0.666470  0.448603  1
  Al  Al16  1  0.666994  0.666470  0.051397  1
  Al  Al17  1  0.333500  0.333488  0.949810  1
  Al  Al18  1  0.338898  0.548343  0.250000  1
  Al  Al19  1  0.660422  0.451852  0.750000  1
  Al  Al20  1  0.549332  0.340862  0.250000  1
  Al  Al21  1  0.451608  0.660188  0.750000  1
  Ir  Ir22  1  0.672184  0.328350  0.000343  1
  Ir  Ir23  1  0.327912  0.671966  0.000337  1
  Ir  Ir24  1  0.327912  0.671966  0.499663  1
  Ir  Ir25  1  0.672184  0.328350  0.499657  1
  Ir  Ir26  1  0.999827  0.999551  0.000441  1
  Ir  Ir27  1  0.999827  0.999551  0.499559  1
