# generated using pymatgen
data_Hf18Re8PdSe
_symmetry_space_group_name_H-M   'P 1'
_cell_length_a   8.65674400
_cell_length_b   8.65674381
_cell_length_c   8.59912200
_cell_angle_alpha   90.00000000
_cell_angle_beta   90.00000000
_cell_angle_gamma   120.00000072
_symmetry_Int_Tables_number   1
_chemical_formula_structural   Hf18Re8PdSe
_chemical_formula_sum   'Hf18 Re8 Pd1 Se1'
_cell_volume   558.07668453
_cell_formula_units_Z   1
loop_
 _symmetry_equiv_pos_site_id
 _symmetry_equiv_pos_as_xyz
  1  'x, y, z'
loop_
 _atom_site_type_symbol
 _atom_site_label
 _atom_site_symmetry_multiplicity
 _atom_site_fract_x
 _atom_site_fract_y
 _atom_site_fract_z
 _atom_site_occupancy
  Hf  Hf0  1  0.193465  0.806535  0.447222  1
  Hf  Hf1  1  0.193465  0.386930  0.447222  1
  Hf  Hf2  1  0.613070  0.806535  0.447222  1
  Hf  Hf3  1  0.807949  0.192051  0.548666  1
  Hf  Hf4  1  0.807949  0.615898  0.548666  1
  Hf  Hf5  1  0.384102  0.192051  0.548666  1
  Hf  Hf6  1  0.807949  0.192051  0.951334  1
  Hf  Hf7  1  0.807949  0.615898  0.951334  1
  Hf  Hf8  1  0.384102  0.192051  0.951334  1
  Hf  Hf9  1  0.193465  0.806535  0.052778  1
  Hf  Hf10  1  0.193465  0.386930  0.052778  1
  Hf  Hf11  1  0.613070  0.806535  0.052778  1
  Hf  Hf12  1  0.542670  0.457330  0.250000  1
  Hf  Hf13  1  0.542670  0.085341  0.250000  1
  Hf  Hf14  1  0.914659  0.457330  0.250000  1
  Hf  Hf15  1  0.455576  0.544424  0.750000  1
  Hf  Hf16  1  0.455576  0.911152  0.750000  1
  Hf  Hf17  1  0.088848  0.544424  0.750000  1
  Re  Re18  1  0.889292  0.110708  0.250000  1
  Re  Re19  1  0.889292  0.778584  0.250000  1
  Re  Re20  1  0.221416  0.110708  0.250000  1
  Re  Re21  1  0.110016  0.889984  0.750000  1
  Re  Re22  1  0.110016  0.220032  0.750000  1
  Re  Re23  1  0.779968  0.889984  0.750000  1
  Re  Re24  1  0.000000  0.000000  0.499546  1
  Re  Re25  1  0.000000  0.000000  0.000454  1
  Pd  Pd26  1  0.333333  0.666667  0.250000  1
  Se  Se27  1  0.666667  0.333333  0.750000  1
