# generated using pymatgen
data_Lu5BiPbO12
_symmetry_space_group_name_H-M   'P 1'
_cell_length_a   6.45030756
_cell_length_b   6.47988854
_cell_length_c   6.41375564
_cell_angle_alpha   98.80785432
_cell_angle_beta   99.25177092
_cell_angle_gamma   99.56073702
_symmetry_Int_Tables_number   1
_chemical_formula_structural   Lu5BiPbO12
_chemical_formula_sum   'Lu5 Bi1 Pb1 O12'
_cell_volume   256.42300503
_cell_formula_units_Z   1
loop_
 _symmetry_equiv_pos_site_id
 _symmetry_equiv_pos_as_xyz
  1  'x, y, z'
loop_
 _atom_site_type_symbol
 _atom_site_label
 _atom_site_symmetry_multiplicity
 _atom_site_fract_x
 _atom_site_fract_y
 _atom_site_fract_z
 _atom_site_occupancy
  Lu  Lu0  1  0.855204  0.388701  0.679209  1
  Lu  Lu1  1  0.690780  0.859664  0.395256  1
  Lu  Lu2  1  0.610639  0.314179  0.146558  1
  Lu  Lu3  1  0.133752  0.606948  0.312849  1
  Lu  Lu4  1  0.315312  0.143059  0.606242  1
  Bi  Bi5  1  0.004880  0.003609  0.999489  1
  Pb  Pb6  1  0.395391  0.679042  0.857147  1
  O  O7  1  0.176710  0.424370  0.580066  1
  O  O8  1  0.582457  0.173950  0.427842  1
  O  O9  1  0.425045  0.588168  0.176719  1
  O  O10  1  0.817868  0.572296  0.414470  1
  O  O11  1  0.415224  0.819025  0.577574  1
  O  O12  1  0.577644  0.416740  0.821796  1
  O  O13  1  0.919911  0.054334  0.680601  1
  O  O14  1  0.944779  0.317354  0.081719  1
  O  O15  1  0.320515  0.089101  0.947037  1
  O  O16  1  0.079293  0.945755  0.319652  1
  O  O17  1  0.052977  0.681578  0.921075  1
  O  O18  1  0.681621  0.922129  0.054699  1
