# generated using pymatgen
data_Zr8Ti12(Ga3Se)3
_symmetry_space_group_name_H-M   'P 1'
_cell_length_a   6.95031314
_cell_length_b   8.08720600
_cell_length_c   10.33186092
_cell_angle_alpha   90.00000000
_cell_angle_beta   89.83264118
_cell_angle_gamma   90.00000000
_symmetry_Int_Tables_number   1
_chemical_formula_structural   Zr8Ti12(Ga3Se)3
_chemical_formula_sum   'Zr8 Ti12 Ga9 Se3'
_cell_volume   580.73710663
_cell_formula_units_Z   1
loop_
 _symmetry_equiv_pos_site_id
 _symmetry_equiv_pos_as_xyz
  1  'x, y, z'
loop_
 _atom_site_type_symbol
 _atom_site_label
 _atom_site_symmetry_multiplicity
 _atom_site_fract_x
 _atom_site_fract_y
 _atom_site_fract_z
 _atom_site_occupancy
  Zr  Zr0  1  0.830281  0.750000  0.214463  1
  Zr  Zr1  1  0.665992  0.750000  0.712442  1
  Zr  Zr2  1  0.165993  0.250000  0.785046  1
  Zr  Zr3  1  0.333085  0.250000  0.289163  1
  Zr  Zr4  1  0.330300  0.750000  0.276747  1
  Zr  Zr5  1  0.169542  0.750000  0.773184  1
  Zr  Zr6  1  0.670708  0.250000  0.723586  1
  Zr  Zr7  1  0.828124  0.250000  0.225095  1
  Ti  Ti8  1  0.679683  0.942443  0.439215  1
  Ti  Ti9  1  0.819625  0.560982  0.938380  1
  Ti  Ti10  1  0.321163  0.441750  0.561040  1
  Ti  Ti11  1  0.185363  0.060511  0.062558  1
  Ti  Ti12  1  0.321163  0.058250  0.561040  1
  Ti  Ti13  1  0.185363  0.439489  0.062558  1
  Ti  Ti14  1  0.679683  0.557557  0.439215  1
  Ti  Ti15  1  0.819625  0.939018  0.938380  1
  Ti  Ti16  1  0.007636  0.750000  0.495374  1
  Ti  Ti17  1  0.489191  0.750000  0.998005  1
  Ti  Ti18  1  0.992862  0.250000  0.502772  1
  Ti  Ti19  1  0.512338  0.250000  0.003047  1
  Ga  Ga20  1  0.556548  0.503874  0.166790  1
  Ga  Ga21  1  0.940697  0.996242  0.663790  1
  Ga  Ga22  1  0.439241  0.003425  0.835001  1
  Ga  Ga23  1  0.057687  0.497173  0.331778  1
  Ga  Ga24  1  0.439241  0.496575  0.835001  1
  Ga  Ga25  1  0.057687  0.002827  0.331778  1
  Ga  Ga26  1  0.556548  0.996126  0.166790  1
  Ga  Ga27  1  0.940697  0.503758  0.663790  1
  Ga  Ga28  1  0.110663  0.750000  0.034180  1
  Se  Se29  1  0.389470  0.750000  0.532264  1
  Se  Se30  1  0.892542  0.250000  0.969176  1
  Se  Se31  1  0.611256  0.250000  0.468347  1
