# generated using pymatgen
data_Tb2PrLu2(In2Pd)2
_symmetry_space_group_name_H-M   'P 1'
_cell_length_a   3.62737700
_cell_length_b   8.23283000
_cell_length_c   18.27934900
_cell_angle_alpha   90.00000000
_cell_angle_beta   90.00000000
_cell_angle_gamma   90.00000000
_symmetry_Int_Tables_number   1
_chemical_formula_structural   Tb2PrLu2(In2Pd)2
_chemical_formula_sum   'Tb4 Pr2 Lu4 In8 Pd4'
_cell_volume   545.88676807
_cell_formula_units_Z   2
loop_
 _symmetry_equiv_pos_site_id
 _symmetry_equiv_pos_as_xyz
  1  'x, y, z'
loop_
 _atom_site_type_symbol
 _atom_site_label
 _atom_site_symmetry_multiplicity
 _atom_site_fract_x
 _atom_site_fract_y
 _atom_site_fract_z
 _atom_site_occupancy
  Tb  Tb0  1  0.000000  0.738072  0.283987  1
  Tb  Tb1  1  0.000000  0.261928  0.716013  1
  Tb  Tb2  1  0.000000  0.761928  0.783987  1
  Tb  Tb3  1  0.000000  0.238072  0.216013  1
  Pr  Pr4  1  0.000000  0.500000  0.500000  1
  Pr  Pr5  1  0.000000  0.000000  0.000000  1
  Lu  Lu6  1  0.000000  0.621581  0.085399  1
  Lu  Lu7  1  0.000000  0.378419  0.914601  1
  Lu  Lu8  1  0.000000  0.878419  0.585399  1
  Lu  Lu9  1  0.000000  0.121581  0.414601  1
  In  In10  1  0.500000  0.692520  0.935179  1
  In  In11  1  0.500000  0.307480  0.064821  1
  In  In12  1  0.500000  0.807480  0.435179  1
  In  In13  1  0.500000  0.192520  0.564821  1
  In  In14  1  0.500000  0.586642  0.654035  1
  In  In15  1  0.500000  0.413358  0.345965  1
  In  In16  1  0.500000  0.913358  0.154035  1
  In  In17  1  0.500000  0.086642  0.845965  1
  Pd  Pd18  1  0.500000  0.526343  0.193844  1
  Pd  Pd19  1  0.500000  0.473657  0.806156  1
  Pd  Pd20  1  0.500000  0.973657  0.693844  1
  Pd  Pd21  1  0.500000  0.026343  0.306156  1
