# generated using pymatgen
data_Sm2Mn2Co10SiP6
_symmetry_space_group_name_H-M   'P 1'
_cell_length_a   9.12874423
_cell_length_b   9.12914459
_cell_length_c   3.62891900
_cell_angle_alpha   90.00000000
_cell_angle_beta   90.00000000
_cell_angle_gamma   120.14899088
_symmetry_Int_Tables_number   1
_chemical_formula_structural   Sm2Mn2Co10SiP6
_chemical_formula_sum   'Sm2 Mn2 Co10 Si1 P6'
_cell_volume   261.51406504
_cell_formula_units_Z   1
loop_
 _symmetry_equiv_pos_site_id
 _symmetry_equiv_pos_as_xyz
  1  'x, y, z'
loop_
 _atom_site_type_symbol
 _atom_site_label
 _atom_site_symmetry_multiplicity
 _atom_site_fract_x
 _atom_site_fract_y
 _atom_site_fract_z
 _atom_site_occupancy
  Sm  Sm0  1  0.665775  0.332945  0.000000  1
  Sm  Sm1  1  0.334328  0.669132  0.500000  1
  Mn  Mn2  1  0.898381  0.120352  0.000000  1
  Mn  Mn3  1  0.882011  0.776555  0.000000  1
  Co  Co4  1  0.427606  0.059581  0.500000  1
  Co  Co5  1  0.940101  0.369910  0.500000  1
  Co  Co6  1  0.629188  0.570138  0.500000  1
  Co  Co7  1  0.160770  0.282010  0.500000  1
  Co  Co8  1  0.722229  0.881255  0.500000  1
  Co  Co9  1  0.121662  0.840554  0.500000  1
  Co  Co10  1  0.385920  0.433398  0.000000  1
  Co  Co11  1  0.563765  0.951301  0.000000  1
  Co  Co12  1  0.049451  0.613721  0.000000  1
  Co  Co13  1  0.216683  0.094322  0.000000  1
  Si  Si14  1  0.004709  0.001887  0.500000  1
  P  P15  1  0.114460  0.405060  0.000000  1
  P  P16  1  0.597729  0.709943  0.000000  1
  P  P17  1  0.289216  0.891025  0.000000  1
  P  P18  1  0.406185  0.297437  0.500000  1
  P  P19  1  0.698570  0.108472  0.500000  1
  P  P20  1  0.891258  0.591004  0.500000  1
