# generated using pymatgen
data_PrGdHoTaO7
_symmetry_space_group_name_H-M   'P 1'
_cell_length_a   6.53432982
_cell_length_b   6.56604519
_cell_length_c   7.63985100
_cell_angle_alpha   90.00000000
_cell_angle_beta   90.00000000
_cell_angle_gamma   109.21633024
_symmetry_Int_Tables_number   1
_chemical_formula_structural   PrGdHoTaO7
_chemical_formula_sum   'Pr2 Gd2 Ho2 Ta2 O14'
_cell_volume   309.52219351
_cell_formula_units_Z   2
loop_
 _symmetry_equiv_pos_site_id
 _symmetry_equiv_pos_as_xyz
  1  'x, y, z'
loop_
 _atom_site_type_symbol
 _atom_site_label
 _atom_site_symmetry_multiplicity
 _atom_site_fract_x
 _atom_site_fract_y
 _atom_site_fract_z
 _atom_site_occupancy
  Pr  Pr0  1  0.514060  0.515485  0.499845  1
  Pr  Pr1  1  0.485940  0.484515  0.999845  1
  Gd  Gd2  1  0.999927  0.533648  0.245189  1
  Gd  Gd3  1  0.000073  0.466352  0.745189  1
  Ho  Ho4  1  0.532556  0.001048  0.754520  1
  Ho  Ho5  1  0.467444  0.998952  0.254520  1
  Ta  Ta6  1  0.001611  0.001468  0.499911  1
  Ta  Ta7  1  0.998389  0.998532  0.999911  1
  O  O8  1  0.934478  0.060013  0.749983  1
  O  O9  1  0.065522  0.939987  0.249983  1
  O  O10  1  0.359297  0.645988  0.249710  1
  O  O11  1  0.640703  0.354012  0.749710  1
  O  O12  1  0.368418  0.641275  0.750612  1
  O  O13  1  0.631582  0.358725  0.250612  1
  O  O14  1  0.322406  0.069997  0.971449  1
  O  O15  1  0.677594  0.930003  0.471449  1
  O  O16  1  0.313158  0.057360  0.538973  1
  O  O17  1  0.686842  0.942640  0.038973  1
  O  O18  1  0.064908  0.313670  0.463269  1
  O  O19  1  0.935092  0.686330  0.963269  1
  O  O20  1  0.923670  0.678100  0.526538  1
  O  O21  1  0.076330  0.321900  0.026538  1
