# generated using pymatgen
data_Ba4AlGa3Au4
_symmetry_space_group_name_H-M   'P 1'
_cell_length_a   7.11686222
_cell_length_b   7.11686242
_cell_length_c   7.11686200
_cell_angle_alpha   89.56807544
_cell_angle_beta   90.43192457
_cell_angle_gamma   90.43192395
_symmetry_Int_Tables_number   1
_chemical_formula_structural   Ba4AlGa3Au4
_chemical_formula_sum   'Ba4 Al1 Ga3 Au4'
_cell_volume   360.43656001
_cell_formula_units_Z   1
loop_
 _symmetry_equiv_pos_site_id
 _symmetry_equiv_pos_as_xyz
  1  'x, y, z'
loop_
 _atom_site_type_symbol
 _atom_site_label
 _atom_site_symmetry_multiplicity
 _atom_site_fract_x
 _atom_site_fract_y
 _atom_site_fract_z
 _atom_site_occupancy
  Ba  Ba0  1  0.134887  0.138639  0.136012  1
  Ba  Ba1  1  0.861362  0.636011  0.365114  1
  Ba  Ba2  1  0.363989  0.865114  0.638638  1
  Ba  Ba3  1  0.638779  0.361221  0.861221  1
  Al  Al4  1  0.340032  0.659968  0.159967  1
  Ga  Ga5  1  0.661908  0.163540  0.334584  1
  Ga  Ga6  1  0.165415  0.338092  0.663541  1
  Ga  Ga7  1  0.836459  0.834584  0.838092  1
  Au  Au8  1  0.581977  0.912608  0.086009  1
  Au  Au9  1  0.413990  0.418022  0.412608  1
  Au  Au10  1  0.913808  0.086191  0.586191  1
  Au  Au11  1  0.087391  0.586009  0.918022  1
