# generated using pymatgen
data_Ba10SiGeSb4
_symmetry_space_group_name_H-M   'P 1'
_cell_length_a   9.15778296
_cell_length_b   10.48208300
_cell_length_c   14.07741200
_cell_angle_alpha   90.00000000
_cell_angle_beta   89.97377896
_cell_angle_gamma   90.00000000
_symmetry_Int_Tables_number   1
_chemical_formula_structural   Ba10SiGeSb4
_chemical_formula_sum   'Ba20 Si2 Ge2 Sb8'
_cell_volume   1351.32781583
_cell_formula_units_Z   2
loop_
 _symmetry_equiv_pos_site_id
 _symmetry_equiv_pos_as_xyz
  1  'x, y, z'
loop_
 _atom_site_type_symbol
 _atom_site_label
 _atom_site_symmetry_multiplicity
 _atom_site_fract_x
 _atom_site_fract_y
 _atom_site_fract_z
 _atom_site_occupancy
  Ba  Ba0  1  0.056651  0.750000  0.501313  1
  Ba  Ba1  1  0.943349  0.250000  0.498687  1
  Ba  Ba2  1  0.554396  0.250000  0.998673  1
  Ba  Ba3  1  0.445604  0.750000  0.001327  1
  Ba  Ba4  1  0.849631  0.750000  0.800199  1
  Ba  Ba5  1  0.150369  0.250000  0.199801  1
  Ba  Ba6  1  0.350280  0.250000  0.698727  1
  Ba  Ba7  1  0.649720  0.750000  0.301273  1
  Ba  Ba8  1  0.679827  0.527086  0.576946  1
  Ba  Ba9  1  0.320173  0.472914  0.423054  1
  Ba  Ba10  1  0.180823  0.472241  0.921822  1
  Ba  Ba11  1  0.320173  0.027086  0.423054  1
  Ba  Ba12  1  0.819177  0.527759  0.078178  1
  Ba  Ba13  1  0.679827  0.972914  0.576946  1
  Ba  Ba14  1  0.819177  0.972241  0.078178  1
  Ba  Ba15  1  0.180823  0.027759  0.921822  1
  Ba  Ba16  1  0.328384  0.750000  0.714984  1
  Ba  Ba17  1  0.671616  0.250000  0.285016  1
  Ba  Ba18  1  0.827697  0.250000  0.784350  1
  Ba  Ba19  1  0.172303  0.750000  0.215650  1
  Si  Si20  1  0.560996  0.250000  0.511259  1
  Si  Si21  1  0.439004  0.750000  0.488741  1
  Ge  Ge22  1  0.061574  0.750000  0.988635  1
  Ge  Ge23  1  0.938426  0.250000  0.011365  1
  Sb  Sb24  1  0.558459  0.505828  0.829705  1
  Sb  Sb25  1  0.441541  0.494172  0.170295  1
  Sb  Sb26  1  0.058367  0.494309  0.669556  1
  Sb  Sb27  1  0.441541  0.005828  0.170295  1
  Sb  Sb28  1  0.941633  0.505691  0.330444  1
  Sb  Sb29  1  0.558459  0.994172  0.829705  1
  Sb  Sb30  1  0.941633  0.994309  0.330444  1
  Sb  Sb31  1  0.058367  0.005691  0.669556  1
