# generated using pymatgen
data_Tb3Ga6Ni7Pd2
_symmetry_space_group_name_H-M   'P 1'
_cell_length_a   4.15476000
_cell_length_b   8.77866756
_cell_length_c   9.09999207
_cell_angle_alpha   59.01479101
_cell_angle_beta   90.00000000
_cell_angle_gamma   90.00000000
_symmetry_Int_Tables_number   1
_chemical_formula_structural   Tb3Ga6Ni7Pd2
_chemical_formula_sum   'Tb3 Ga6 Ni7 Pd2'
_cell_volume   284.54338836
_cell_formula_units_Z   1
loop_
 _symmetry_equiv_pos_site_id
 _symmetry_equiv_pos_as_xyz
  1  'x, y, z'
loop_
 _atom_site_type_symbol
 _atom_site_label
 _atom_site_symmetry_multiplicity
 _atom_site_fract_x
 _atom_site_fract_y
 _atom_site_fract_z
 _atom_site_occupancy
  Tb  Tb0  1  0.500000  0.328563  0.333198  1
  Tb  Tb1  1  0.500000  0.670187  0.661626  1
  Tb  Tb2  1  0.000000  0.999636  0.989537  1
  Ga  Ga3  1  0.500000  0.727872  0.279409  1
  Ga  Ga4  1  0.500000  0.271709  0.007794  1
  Ga  Ga5  1  0.500000  0.999301  0.710579  1
  Ga  Ga6  1  0.000000  0.475683  0.536372  1
  Ga  Ga7  1  0.000000  0.525645  0.010781  1
  Ga  Ga8  1  0.000000  0.001572  0.467631  1
  Ni  Ni9  1  0.000000  0.198789  0.168728  1
  Ni  Ni10  1  0.000000  0.171008  0.609476  1
  Ni  Ni11  1  0.000000  0.610614  0.227276  1
  Ni  Ni12  1  0.000000  0.828733  0.778192  1
  Ni  Ni13  1  0.000000  0.388081  0.838233  1
  Ni  Ni14  1  0.000000  0.802296  0.366929  1
  Ni  Ni15  1  0.500000  0.000348  0.292751  1
  Pd  Pd16  1  0.500000  0.285264  0.718273  1
  Pd  Pd17  1  0.500000  0.714602  0.003312  1
