# generated using pymatgen
data_YbV2(OF4)2
_symmetry_space_group_name_H-M   'P 1'
_cell_length_a   4.98770982
_cell_length_b   5.18622162
_cell_length_c   7.56175818
_cell_angle_alpha   74.11104441
_cell_angle_beta   74.05050731
_cell_angle_gamma   89.21436283
_symmetry_Int_Tables_number   1
_chemical_formula_structural   YbV2(OF4)2
_chemical_formula_sum   'Yb1 V2 O2 F8'
_cell_volume   180.48673527
_cell_formula_units_Z   1
loop_
 _symmetry_equiv_pos_site_id
 _symmetry_equiv_pos_as_xyz
  1  'x, y, z'
loop_
 _atom_site_type_symbol
 _atom_site_label
 _atom_site_symmetry_multiplicity
 _atom_site_fract_x
 _atom_site_fract_y
 _atom_site_fract_z
 _atom_site_occupancy
  Yb  Yb0  1  0.000000  0.000000  0.000000  1
  V  V1  1  0.647725  0.647239  0.755728  1
  V  V2  1  0.352275  0.352761  0.244272  1
  O  O3  1  0.642256  0.701247  0.539456  1
  O  O4  1  0.357744  0.298753  0.460544  1
  F  F5  1  0.432044  0.913152  0.832995  1
  F  F6  1  0.567956  0.086848  0.167005  1
  F  F7  1  0.953999  0.850926  0.743685  1
  F  F8  1  0.046001  0.149074  0.256315  1
  F  F9  1  0.856332  0.349739  0.791559  1
  F  F10  1  0.143668  0.650261  0.208441  1
  F  F11  1  0.333071  0.410123  0.904894  1
  F  F12  1  0.666929  0.589877  0.095106  1
