# generated using pymatgen
data_Sc2Be2SiIr3Rh2
_symmetry_space_group_name_H-M   'P 1'
_cell_length_a   9.43644300
_cell_length_b   9.43644300
_cell_length_c   3.07574600
_cell_angle_alpha   90.00000000
_cell_angle_beta   90.00000000
_cell_angle_gamma   90.00000000
_symmetry_Int_Tables_number   1
_chemical_formula_structural   Sc2Be2SiIr3Rh2
_chemical_formula_sum   'Sc4 Be4 Si2 Ir6 Rh4'
_cell_volume   273.88428237
_cell_formula_units_Z   2
loop_
 _symmetry_equiv_pos_site_id
 _symmetry_equiv_pos_as_xyz
  1  'x, y, z'
loop_
 _atom_site_type_symbol
 _atom_site_label
 _atom_site_symmetry_multiplicity
 _atom_site_fract_x
 _atom_site_fract_y
 _atom_site_fract_z
 _atom_site_occupancy
  Sc  Sc0  1  0.173627  0.675374  0.000000  1
  Sc  Sc1  1  0.675374  0.826373  0.000000  1
  Sc  Sc2  1  0.324626  0.173627  0.000000  1
  Sc  Sc3  1  0.826373  0.324626  0.000000  1
  Be  Be4  1  0.375744  0.874161  0.000000  1
  Be  Be5  1  0.874161  0.624256  0.000000  1
  Be  Be6  1  0.125839  0.375744  0.000000  1
  Be  Be7  1  0.624256  0.125839  0.000000  1
  Si  Si8  1  0.000000  0.000000  0.000000  1
  Si  Si9  1  0.500000  0.500000  0.000000  1
  Ir  Ir10  1  0.000000  0.500000  0.500000  1
  Ir  Ir11  1  0.500000  0.000000  0.500000  1
  Ir  Ir12  1  0.932529  0.794263  0.500000  1
  Ir  Ir13  1  0.794263  0.067471  0.500000  1
  Ir  Ir14  1  0.205736  0.932529  0.500000  1
  Ir  Ir15  1  0.067471  0.205736  0.500000  1
  Rh  Rh16  1  0.296276  0.431814  0.500000  1
  Rh  Rh17  1  0.703725  0.568186  0.500000  1
  Rh  Rh18  1  0.568186  0.296276  0.500000  1
  Rh  Rh19  1  0.431814  0.703725  0.500000  1
