# generated using pymatgen
data_Sc8Ta12Si15B
_symmetry_space_group_name_H-M   'P 1'
_cell_length_a   6.65810055
_cell_length_b   6.85185184
_cell_length_c   13.09322500
_cell_angle_alpha   90.00000000
_cell_angle_beta   90.00000000
_cell_angle_gamma   89.50787298
_symmetry_Int_Tables_number   1
_chemical_formula_structural   Sc8Ta12Si15B
_chemical_formula_sum   'Sc8 Ta12 Si15 B1'
_cell_volume   597.29506165
_cell_formula_units_Z   1
loop_
 _symmetry_equiv_pos_site_id
 _symmetry_equiv_pos_as_xyz
  1  'x, y, z'
loop_
 _atom_site_type_symbol
 _atom_site_label
 _atom_site_symmetry_multiplicity
 _atom_site_fract_x
 _atom_site_fract_y
 _atom_site_fract_z
 _atom_site_occupancy
  Sc  Sc0  1  0.501207  0.668789  0.596890  1
  Sc  Sc1  1  0.003552  0.824360  0.902038  1
  Sc  Sc2  1  0.499535  0.327024  0.095079  1
  Sc  Sc3  1  0.999130  0.174062  0.405354  1
  Sc  Sc4  1  0.499535  0.327024  0.404921  1
  Sc  Sc5  1  0.999130  0.174062  0.094646  1
  Sc  Sc6  1  0.501207  0.668789  0.903110  1
  Sc  Sc7  1  0.003552  0.824360  0.597962  1
  Ta  Ta8  1  0.649406  0.187971  0.629290  1
  Ta  Ta9  1  0.172275  0.326888  0.872285  1
  Ta  Ta10  1  0.338733  0.824821  0.124148  1
  Ta  Ta11  1  0.837753  0.675994  0.375891  1
  Ta  Ta12  1  0.338733  0.824821  0.375852  1
  Ta  Ta13  1  0.837753  0.675994  0.124109  1
  Ta  Ta14  1  0.649406  0.187971  0.870710  1
  Ta  Ta15  1  0.172275  0.326888  0.627715  1
  Ta  Ta16  1  0.829158  0.492306  0.750000  1
  Ta  Ta17  1  0.336425  0.006793  0.750000  1
  Ta  Ta18  1  0.163038  0.507227  0.250000  1
  Ta  Ta19  1  0.662954  0.994766  0.250000  1
  Si  Si20  1  0.669383  0.970280  0.463895  1
  Si  Si21  1  0.170584  0.532452  0.037871  1
  Si  Si22  1  0.330105  0.030278  0.960514  1
  Si  Si23  1  0.832807  0.467567  0.540298  1
  Si  Si24  1  0.330105  0.030278  0.539486  1
  Si  Si25  1  0.832807  0.467567  0.959702  1
  Si  Si26  1  0.669383  0.970280  0.036105  1
  Si  Si27  1  0.170584  0.532452  0.462129  1
  Si  Si28  1  0.957235  0.115652  0.750000  1
  Si  Si29  1  0.542047  0.614375  0.250000  1
  Si  Si30  1  0.040753  0.887590  0.250000  1
  Si  Si31  1  0.704629  0.864199  0.750000  1
  Si  Si32  1  0.218426  0.625290  0.750000  1
  Si  Si33  1  0.293966  0.137910  0.250000  1
  Si  Si34  1  0.796242  0.362247  0.250000  1
  B  B35  1  0.446189  0.370671  0.750000  1
