# generated using pymatgen
data_DyNbFe4P3
_symmetry_space_group_name_H-M   'P 1'
_cell_length_a   3.68624300
_cell_length_b   10.47561300
_cell_length_c   12.33755500
_cell_angle_alpha   90.00000000
_cell_angle_beta   90.00000000
_cell_angle_gamma   90.00000000
_symmetry_Int_Tables_number   1
_chemical_formula_structural   DyNbFe4P3
_chemical_formula_sum   'Dy4 Nb4 Fe16 P12'
_cell_volume   476.42276856
_cell_formula_units_Z   4
loop_
 _symmetry_equiv_pos_site_id
 _symmetry_equiv_pos_as_xyz
  1  'x, y, z'
loop_
 _atom_site_type_symbol
 _atom_site_label
 _atom_site_symmetry_multiplicity
 _atom_site_fract_x
 _atom_site_fract_y
 _atom_site_fract_z
 _atom_site_occupancy
  Dy  Dy0  1  0.250000  0.584799  0.712972  1
  Dy  Dy1  1  0.250000  0.915201  0.212972  1
  Dy  Dy2  1  0.750000  0.415201  0.287028  1
  Dy  Dy3  1  0.750000  0.084799  0.787028  1
  Nb  Nb4  1  0.250000  0.704921  0.991912  1
  Nb  Nb5  1  0.250000  0.795079  0.491912  1
  Nb  Nb6  1  0.750000  0.295079  0.008088  1
  Nb  Nb7  1  0.750000  0.204921  0.508088  1
  Fe  Fe8  1  0.250000  0.417852  0.492787  1
  Fe  Fe9  1  0.250000  0.082148  0.992787  1
  Fe  Fe10  1  0.750000  0.582148  0.507213  1
  Fe  Fe11  1  0.750000  0.917852  0.007213  1
  Fe  Fe12  1  0.250000  0.215569  0.172000  1
  Fe  Fe13  1  0.250000  0.284431  0.672000  1
  Fe  Fe14  1  0.750000  0.784431  0.828000  1
  Fe  Fe15  1  0.750000  0.715569  0.328000  1
  Fe  Fe16  1  0.250000  0.880068  0.699143  1
  Fe  Fe17  1  0.250000  0.619932  0.199143  1
  Fe  Fe18  1  0.750000  0.119932  0.300857  1
  Fe  Fe19  1  0.750000  0.380068  0.800857  1
  Fe  Fe20  1  0.250000  0.464166  0.933595  1
  Fe  Fe21  1  0.250000  0.035834  0.433595  1
  Fe  Fe22  1  0.750000  0.535834  0.066405  1
  Fe  Fe23  1  0.750000  0.964166  0.566405  1
  P  P24  1  0.250000  0.426351  0.112576  1
  P  P25  1  0.250000  0.073649  0.612576  1
  P  P26  1  0.750000  0.573649  0.887424  1
  P  P27  1  0.750000  0.926351  0.387424  1
  P  P28  1  0.250000  0.273936  0.855608  1
  P  P29  1  0.250000  0.226064  0.355608  1
  P  P30  1  0.750000  0.726064  0.144392  1
  P  P31  1  0.750000  0.773936  0.644392  1
  P  P32  1  0.250000  0.594827  0.377615  1
  P  P33  1  0.250000  0.905173  0.877615  1
  P  P34  1  0.750000  0.405173  0.622385  1
  P  P35  1  0.750000  0.094827  0.122385  1
