# generated using pymatgen
data_YTmNb3Co9As7
_symmetry_space_group_name_H-M   'P 1'
_cell_length_a   3.81758700
_cell_length_b   9.55323731
_cell_length_c   9.55323700
_cell_angle_alpha   120.00000239
_cell_angle_beta   90.00000000
_cell_angle_gamma   90.00000000
_symmetry_Int_Tables_number   1
_chemical_formula_structural   YTmNb3Co9As7
_chemical_formula_sum   'Y1 Tm1 Nb3 Co9 As7'
_cell_volume   301.73152131
_cell_formula_units_Z   1
loop_
 _symmetry_equiv_pos_site_id
 _symmetry_equiv_pos_as_xyz
  1  'x, y, z'
loop_
 _atom_site_type_symbol
 _atom_site_label
 _atom_site_symmetry_multiplicity
 _atom_site_fract_x
 _atom_site_fract_y
 _atom_site_fract_z
 _atom_site_occupancy
  Y  Y0  1  0.500000  0.333333  0.666667  1
  Tm  Tm1  1  0.000000  0.666667  0.333333  1
  Nb  Nb2  1  0.500000  0.776065  0.897318  1
  Nb  Nb3  1  0.500000  0.121253  0.223935  1
  Nb  Nb4  1  0.500000  0.102682  0.878747  1
  Co  Co5  1  0.000000  0.570674  0.938313  1
  Co  Co6  1  0.000000  0.367639  0.429326  1
  Co  Co7  1  0.000000  0.061687  0.632361  1
  Co  Co8  1  0.000000  0.876536  0.160878  1
  Co  Co9  1  0.000000  0.284342  0.123464  1
  Co  Co10  1  0.000000  0.839122  0.715658  1
  Co  Co11  1  0.500000  0.947357  0.384835  1
  Co  Co12  1  0.500000  0.437477  0.052643  1
  Co  Co13  1  0.500000  0.615165  0.562523  1
  As  As14  1  0.000000  0.000000  0.000000  1
  As  As15  1  0.500000  0.708305  0.125672  1
  As  As16  1  0.500000  0.417367  0.291695  1
  As  As17  1  0.500000  0.874328  0.582633  1
  As  As18  1  0.000000  0.580580  0.692431  1
  As  As19  1  0.000000  0.111852  0.419420  1
  As  As20  1  0.000000  0.307569  0.888148  1
