# generated using pymatgen
data_DyHo3Re5Ru3
_symmetry_space_group_name_H-M   'P 1'
_cell_length_a   5.32681324
_cell_length_b   5.20769260
_cell_length_c   9.12095600
_cell_angle_alpha   89.99794684
_cell_angle_beta   90.00232991
_cell_angle_gamma   119.13205202
_symmetry_Int_Tables_number   1
_chemical_formula_structural   DyHo3Re5Ru3
_chemical_formula_sum   'Dy1 Ho3 Re5 Ru3'
_cell_volume   221.01212104
_cell_formula_units_Z   1
loop_
 _symmetry_equiv_pos_site_id
 _symmetry_equiv_pos_as_xyz
  1  'x, y, z'
loop_
 _atom_site_type_symbol
 _atom_site_label
 _atom_site_symmetry_multiplicity
 _atom_site_fract_x
 _atom_site_fract_y
 _atom_site_fract_z
 _atom_site_occupancy
  Dy  Dy0  1  0.669237  0.334772  0.562813  1
  Ho  Ho1  1  0.328964  0.664465  0.435652  1
  Ho  Ho2  1  0.328945  0.664455  0.064276  1
  Ho  Ho3  1  0.669402  0.334866  0.937083  1
  Re  Re4  1  0.171444  0.341559  0.750243  1
  Re  Re5  1  0.171329  0.831429  0.750210  1
  Re  Re6  1  0.656735  0.827758  0.750247  1
  Re  Re7  1  0.836394  0.663464  0.249820  1
  Re  Re8  1  0.836210  0.173066  0.249817  1
  Ru  Ru9  1  0.989637  0.994141  0.498206  1
  Ru  Ru10  1  0.989541  0.994131  0.001785  1
  Ru  Ru11  1  0.352163  0.175893  0.249847  1
