# generated using pymatgen
data_CrI29
_symmetry_space_group_name_H-M   'P 1'
_cell_length_a   12.11383006
_cell_length_b   14.54738519
_cell_length_c   17.49222400
_cell_angle_alpha   46.82660592
_cell_angle_beta   56.29537274
_cell_angle_gamma   62.84875093
_symmetry_Int_Tables_number   1
_chemical_formula_structural   CrI29
_chemical_formula_sum   'Cr1 I29'
_cell_volume   1855.19745426
_cell_formula_units_Z   1
loop_
 _symmetry_equiv_pos_site_id
 _symmetry_equiv_pos_as_xyz
  1  'x, y, z'
loop_
 _atom_site_type_symbol
 _atom_site_label
 _atom_site_symmetry_multiplicity
 _atom_site_fract_x
 _atom_site_fract_y
 _atom_site_fract_z
 _atom_site_occupancy
  Cr  Cr0  1  0.000000  0.000000  0.000000  1
  I  I1  1  0.500000  0.000000  0.000000  1
  I  I2  1  0.111940  0.183919  0.193400  1
  I  I3  1  0.698643  0.445866  0.392846  1
  I  I4  1  0.301357  0.554134  0.607154  1
  I  I5  1  0.609735  0.099763  0.235748  1
  I  I6  1  0.888060  0.816081  0.806600  1
  I  I7  1  0.296243  0.343184  0.405517  1
  I  I8  1  0.703757  0.656816  0.594483  1
  I  I9  1  0.390265  0.900237  0.764252  1
  I  I10  1  0.213522  0.122361  0.848096  1
  I  I11  1  0.573351  0.791535  0.982371  1
  I  I12  1  0.858962  0.201038  0.014689  1
  I  I13  1  0.109476  0.907484  0.147359  1
  I  I14  1  0.420312  0.567835  0.212830  1
  I  I15  1  0.890524  0.092516  0.852641  1
  I  I16  1  0.845632  0.144826  0.342458  1
  I  I17  1  0.141038  0.798962  0.985311  1
  I  I18  1  0.940370  0.739448  0.374424  1
  I  I19  1  0.426649  0.208465  0.017629  1
  I  I20  1  0.786478  0.877639  0.151904  1
  I  I21  1  0.496731  0.286692  0.601561  1
  I  I22  1  0.640058  0.994123  0.594685  1
  I  I23  1  0.907414  0.587878  0.179898  1
  I  I24  1  0.092586  0.412122  0.820102  1
  I  I25  1  0.359942  0.005877  0.405315  1
  I  I26  1  0.503269  0.713308  0.398439  1
  I  I27  1  0.059630  0.260552  0.625576  1
  I  I28  1  0.154368  0.855174  0.657542  1
  I  I29  1  0.579688  0.432165  0.787170  1
