# generated using pymatgen
data_Pu5NpSe8
_symmetry_space_group_name_H-M   'P 1'
_cell_length_a   7.59362951
_cell_length_b   7.59362887
_cell_length_c   7.59362971
_cell_angle_alpha   109.51967393
_cell_angle_beta   109.51967521
_cell_angle_gamma   109.37436007
_symmetry_Int_Tables_number   1
_chemical_formula_structural   Pu5NpSe8
_chemical_formula_sum   'Pu5 Np1 Se8'
_cell_volume   337.07407018
_cell_formula_units_Z   1
loop_
 _symmetry_equiv_pos_site_id
 _symmetry_equiv_pos_as_xyz
  1  'x, y, z'
loop_
 _atom_site_type_symbol
 _atom_site_label
 _atom_site_symmetry_multiplicity
 _atom_site_fract_x
 _atom_site_fract_y
 _atom_site_fract_z
 _atom_site_occupancy
  Pu  Pu0  1  0.375000  0.625000  0.750000  1
  Pu  Pu1  1  0.874003  0.249649  0.124591  1
  Pu  Pu2  1  0.625058  0.749412  0.375409  1
  Pu  Pu3  1  0.250588  0.125997  0.875645  1
  Pu  Pu4  1  0.750351  0.374942  0.624355  1
  Np  Np5  1  0.125000  0.875000  0.250000  1
  Se  Se6  1  0.351111  0.350863  0.351986  1
  Se  Se7  1  0.148199  0.500907  0.001100  1
  Se  Se8  1  0.999807  0.147099  0.498900  1
  Se  Se9  1  0.852901  0.851801  0.852708  1
  Se  Se10  1  0.498877  0.999125  0.148014  1
  Se  Se11  1  0.649137  0.501123  0.000249  1
  Se  Se12  1  0.499093  0.000193  0.647292  1
  Se  Se13  1  0.000875  0.648889  0.499751  1
