# generated using pymatgen
data_Nb4Re2MoRu
_symmetry_space_group_name_H-M   'P 1'
_cell_length_a   6.43328901
_cell_length_b   6.43260700
_cell_length_c   6.40347301
_cell_angle_alpha   89.99710763
_cell_angle_beta   89.99345666
_cell_angle_gamma   90.00307270
_symmetry_Int_Tables_number   1
_chemical_formula_structural   Nb4Re2MoRu
_chemical_formula_sum   'Nb8 Re4 Mo2 Ru2'
_cell_volume   264.99376838
_cell_formula_units_Z   2
loop_
 _symmetry_equiv_pos_site_id
 _symmetry_equiv_pos_as_xyz
  1  'x, y, z'
loop_
 _atom_site_type_symbol
 _atom_site_label
 _atom_site_symmetry_multiplicity
 _atom_site_fract_x
 _atom_site_fract_y
 _atom_site_fract_z
 _atom_site_occupancy
  Nb  Nb0  1  0.499872  0.999964  0.251640  1
  Nb  Nb1  1  0.499897  0.499924  0.251641  1
  Nb  Nb2  1  0.999813  0.000035  0.251644  1
  Nb  Nb3  1  0.999830  0.500062  0.251673  1
  Nb  Nb4  1  0.000186  0.999965  0.748356  1
  Nb  Nb5  1  0.000169  0.499936  0.748327  1
  Nb  Nb6  1  0.500127  0.000036  0.748360  1
  Nb  Nb7  1  0.500102  0.500074  0.748359  1
  Re  Re8  1  0.750012  0.250011  0.999993  1
  Re  Re9  1  0.250036  0.750007  0.499987  1
  Re  Re10  1  0.749965  0.249993  0.500015  1
  Re  Re11  1  0.249988  0.749989  0.000007  1
  Mo  Mo12  1  0.250025  0.249988  0.499976  1
  Mo  Mo13  1  0.749976  0.750012  0.500026  1
  Ru  Ru14  1  0.249963  0.250016  0.999996  1
  Ru  Ru15  1  0.750038  0.749984  0.000004  1
