# generated using pymatgen
data_TbErTmRh9
_symmetry_space_group_name_H-M   'P 1'
_cell_length_a   5.26939100
_cell_length_b   5.27193102
_cell_length_c   17.53958900
_cell_angle_alpha   89.99986958
_cell_angle_beta   89.99991301
_cell_angle_gamma   119.99706963
_symmetry_Int_Tables_number   1
_chemical_formula_structural   TbErTmRh9
_chemical_formula_sum   'Tb2 Er2 Tm2 Rh18'
_cell_volume   421.98111167
_cell_formula_units_Z   2
loop_
 _symmetry_equiv_pos_site_id
 _symmetry_equiv_pos_as_xyz
  1  'x, y, z'
loop_
 _atom_site_type_symbol
 _atom_site_label
 _atom_site_symmetry_multiplicity
 _atom_site_fract_x
 _atom_site_fract_y
 _atom_site_fract_z
 _atom_site_occupancy
  Tb  Tb0  1  0.333344  0.666677  0.750067  1
  Tb  Tb1  1  0.666656  0.333323  0.249933  1
  Er  Er2  1  0.666630  0.333310  0.458360  1
  Er  Er3  1  0.333370  0.666690  0.541640  1
  Tm  Tm4  1  0.333367  0.666702  0.958444  1
  Tm  Tm5  1  0.666633  0.333298  0.041556  1
  Rh  Rh6  1  0.167262  0.832683  0.374978  1
  Rh  Rh7  1  0.167263  0.334550  0.374974  1
  Rh  Rh8  1  0.665391  0.832683  0.374995  1
  Rh  Rh9  1  0.832738  0.167317  0.625022  1
  Rh  Rh10  1  0.832737  0.665450  0.625026  1
  Rh  Rh11  1  0.334609  0.167317  0.625005  1
  Rh  Rh12  1  0.832513  0.167533  0.875090  1
  Rh  Rh13  1  0.832521  0.665012  0.875083  1
  Rh  Rh14  1  0.335045  0.167535  0.875115  1
  Rh  Rh15  1  0.167487  0.832467  0.124910  1
  Rh  Rh16  1  0.167479  0.334988  0.124917  1
  Rh  Rh17  1  0.664955  0.832465  0.124885  1
  Rh  Rh18  1  0.333199  0.666548  0.249957  1
  Rh  Rh19  1  0.666801  0.333452  0.750043  1
  Rh  Rh20  1  0.000113  0.000089  0.249936  1
  Rh  Rh21  1  0.999887  0.999911  0.750064  1
  Rh  Rh22  1  0.000000  0.000000  0.500000  1
  Rh  Rh23  1  0.000000  0.000000  0.000000  1
