# generated using pymatgen
data_Hf4Zr4In4Co3Au5
_symmetry_space_group_name_H-M   'P 1'
_cell_length_a   7.51934296
_cell_length_b   7.51934407
_cell_length_c   6.84643041
_cell_angle_alpha   89.94504202
_cell_angle_beta   89.94503759
_cell_angle_gamma   90.26827608
_symmetry_Int_Tables_number   1
_chemical_formula_structural   Hf4Zr4In4Co3Au5
_chemical_formula_sum   'Hf4 Zr4 In4 Co3 Au5'
_cell_volume   387.09618158
_cell_formula_units_Z   1
loop_
 _symmetry_equiv_pos_site_id
 _symmetry_equiv_pos_as_xyz
  1  'x, y, z'
loop_
 _atom_site_type_symbol
 _atom_site_label
 _atom_site_symmetry_multiplicity
 _atom_site_fract_x
 _atom_site_fract_y
 _atom_site_fract_z
 _atom_site_occupancy
  Hf  Hf0  1  0.645417  0.362775  0.485782  1
  Hf  Hf1  1  0.362775  0.645417  0.485782  1
  Hf  Hf2  1  0.678624  0.349690  0.011409  1
  Hf  Hf3  1  0.349690  0.678624  0.011409  1
  Zr  Zr4  1  0.159030  0.159030  0.009057  1
  Zr  Zr5  1  0.818948  0.818948  0.999029  1
  Zr  Zr6  1  0.792137  0.792137  0.500537  1
  Zr  Zr7  1  0.201561  0.201561  0.484394  1
  In  In8  1  0.500752  0.007987  0.244732  1
  In  In9  1  0.499247  0.992054  0.750162  1
  In  In10  1  0.007987  0.500752  0.244732  1
  In  In11  1  0.992054  0.499247  0.750162  1
  Co  Co12  1  0.374293  0.374293  0.221115  1
  Co  Co13  1  0.626814  0.626814  0.775573  1
  Co  Co14  1  0.626233  0.626233  0.226498  1
  Au  Au15  1  0.864642  0.130824  0.720772  1
  Au  Au16  1  0.865821  0.128081  0.282995  1
  Au  Au17  1  0.375072  0.375072  0.792090  1
  Au  Au18  1  0.128081  0.865821  0.282995  1
  Au  Au19  1  0.130824  0.864642  0.720772  1
