# generated using pymatgen
data_Lu4B12IrW
_symmetry_space_group_name_H-M   'P 1'
_cell_length_a   3.58659900
_cell_length_b   9.10759565
_cell_length_c   11.49889670
_cell_angle_alpha   90.31408524
_cell_angle_beta   90.00000000
_cell_angle_gamma   90.00000000
_symmetry_Int_Tables_number   1
_chemical_formula_structural   Lu4B12IrW
_chemical_formula_sum   'Lu8 B24 Ir2 W2'
_cell_volume   375.60919130
_cell_formula_units_Z   2
loop_
 _symmetry_equiv_pos_site_id
 _symmetry_equiv_pos_as_xyz
  1  'x, y, z'
loop_
 _atom_site_type_symbol
 _atom_site_label
 _atom_site_symmetry_multiplicity
 _atom_site_fract_x
 _atom_site_fract_y
 _atom_site_fract_z
 _atom_site_occupancy
  Lu  Lu0  1  0.000000  0.316124  0.411344  1
  Lu  Lu1  1  0.000000  0.683876  0.588656  1
  Lu  Lu2  1  0.000000  0.824475  0.082982  1
  Lu  Lu3  1  0.000000  0.175525  0.917018  1
  Lu  Lu4  1  0.000000  0.945251  0.372895  1
  Lu  Lu5  1  0.000000  0.054749  0.627105  1
  Lu  Lu6  1  0.000000  0.443467  0.126020  1
  Lu  Lu7  1  0.000000  0.556533  0.873980  1
  B  B8  1  0.500000  0.554003  0.435267  1
  B  B9  1  0.500000  0.445997  0.564733  1
  B  B10  1  0.500000  0.051153  0.065140  1
  B  B11  1  0.500000  0.948847  0.934860  1
  B  B12  1  0.500000  0.750157  0.421492  1
  B  B13  1  0.500000  0.249843  0.578508  1
  B  B14  1  0.500000  0.251847  0.078409  1
  B  B15  1  0.500000  0.748153  0.921591  1
  B  B16  1  0.500000  0.791324  0.265684  1
  B  B17  1  0.500000  0.208676  0.734316  1
  B  B18  1  0.500000  0.296943  0.237423  1
  B  B19  1  0.500000  0.703057  0.762577  1
  B  B20  1  0.500000  0.631238  0.183871  1
  B  B21  1  0.500000  0.368762  0.816129  1
  B  B22  1  0.500000  0.132127  0.318614  1
  B  B23  1  0.500000  0.867873  0.681386  1
  B  B24  1  0.500000  0.977585  0.214089  1
  B  B25  1  0.500000  0.022415  0.785911  1
  B  B26  1  0.500000  0.482203  0.288346  1
  B  B27  1  0.500000  0.517797  0.711654  1
  B  B28  1  0.500000  0.603334  0.029679  1
  B  B29  1  0.500000  0.396666  0.970321  1
  B  B30  1  0.500000  0.105744  0.472226  1
  B  B31  1  0.500000  0.894256  0.527774  1
  Ir  Ir32  1  0.000000  0.637598  0.322196  1
  Ir  Ir33  1  0.000000  0.362402  0.677804  1
  W  W34  1  0.000000  0.139096  0.180502  1
  W  W35  1  0.000000  0.860904  0.819498  1
