# generated using pymatgen
data_TbEr11TlCo4Pd
_symmetry_space_group_name_H-M   'P 1'
_cell_length_a   8.25603963
_cell_length_b   8.25603874
_cell_length_c   8.25150552
_cell_angle_alpha   110.92206533
_cell_angle_beta   110.58185761
_cell_angle_gamma   106.96252412
_symmetry_Int_Tables_number   1
_chemical_formula_structural   TbEr11TlCo4Pd
_chemical_formula_sum   'Tb1 Er11 Tl1 Co4 Pd1'
_cell_volume   432.21359103
_cell_formula_units_Z   1
loop_
 _symmetry_equiv_pos_site_id
 _symmetry_equiv_pos_as_xyz
  1  'x, y, z'
loop_
 _atom_site_type_symbol
 _atom_site_label
 _atom_site_symmetry_multiplicity
 _atom_site_fract_x
 _atom_site_fract_y
 _atom_site_fract_z
 _atom_site_occupancy
  Tb  Tb0  1  0.188207  0.293954  0.482162  1
  Er  Er1  1  0.812422  0.706278  0.518698  1
  Er  Er2  1  0.187789  0.707069  0.894858  1
  Er  Er3  1  0.811077  0.294402  0.105478  1
  Er  Er4  1  0.314423  0.618499  0.303861  1
  Er  Er5  1  0.686749  0.381697  0.696288  1
  Er  Er6  1  0.314591  0.009539  0.696288  1
  Er  Er7  1  0.685362  0.989437  0.303861  1
  Er  Er8  1  0.416894  0.215729  0.200172  1
  Er  Er9  1  0.588467  0.788047  0.801535  1
  Er  Er10  1  0.013488  0.213068  0.801535  1
  Er  Er11  1  0.984443  0.783278  0.200172  1
  Tl  Tl12  1  0.499313  0.500252  0.999565  1
  Co  Co13  1  0.110587  0.613532  0.498763  1
  Co  Co14  1  0.885230  0.388175  0.498763  1
  Co  Co15  1  0.378522  0.998539  0.377059  1
  Co  Co16  1  0.619432  0.000010  0.619442  1
  Pd  Pd17  1  0.003007  0.998496  0.001504  1
