# generated using pymatgen
data_DyTm7(Ta3Ge4)4
_symmetry_space_group_name_H-M   'P 1'
_cell_length_a   6.96131980
_cell_length_b   7.12183776
_cell_length_c   13.48200832
_cell_angle_alpha   90.01494528
_cell_angle_beta   89.99257744
_cell_angle_gamma   90.00746036
_symmetry_Int_Tables_number   1
_chemical_formula_structural   DyTm7(Ta3Ge4)4
_chemical_formula_sum   'Dy1 Tm7 Ta12 Ge16'
_cell_volume   668.40275374
_cell_formula_units_Z   1
loop_
 _symmetry_equiv_pos_site_id
 _symmetry_equiv_pos_as_xyz
  1  'x, y, z'
loop_
 _atom_site_type_symbol
 _atom_site_label
 _atom_site_symmetry_multiplicity
 _atom_site_fract_x
 _atom_site_fract_y
 _atom_site_fract_z
 _atom_site_occupancy
  Dy  Dy0  1  0.995496  0.173877  0.093863  1
  Tm  Tm1  1  0.494757  0.325760  0.093981  1
  Tm  Tm2  1  0.994717  0.174377  0.405973  1
  Tm  Tm3  1  0.505211  0.674564  0.593937  1
  Tm  Tm4  1  0.005279  0.825460  0.905745  1
  Tm  Tm5  1  0.505311  0.674187  0.905738  1
  Tm  Tm6  1  0.005253  0.825663  0.593984  1
  Tm  Tm7  1  0.494813  0.325631  0.406432  1
  Ta  Ta8  1  0.664274  0.013545  0.749777  1
  Ta  Ta9  1  0.164305  0.486656  0.749824  1
  Ta  Ta10  1  0.335683  0.986267  0.250275  1
  Ta  Ta11  1  0.835456  0.513455  0.250185  1
  Ta  Ta12  1  0.840533  0.330281  0.625754  1
  Ta  Ta13  1  0.340601  0.169821  0.873985  1
  Ta  Ta14  1  0.159502  0.669552  0.125922  1
  Ta  Ta15  1  0.659292  0.829944  0.374395  1
  Ta  Ta16  1  0.159663  0.669817  0.374382  1
  Ta  Ta17  1  0.659226  0.829982  0.126032  1
  Ta  Ta18  1  0.839903  0.330708  0.873835  1
  Ta  Ta19  1  0.340399  0.169763  0.625806  1
  Ge  Ge20  1  0.804920  0.643330  0.749793  1
  Ge  Ge21  1  0.304971  0.856784  0.749876  1
  Ge  Ge22  1  0.195884  0.357678  0.250775  1
  Ge  Ge23  1  0.694239  0.143103  0.250566  1
  Ge  Ge24  1  0.540110  0.381112  0.749783  1
  Ge  Ge25  1  0.040136  0.119096  0.750007  1
  Ge  Ge26  1  0.459817  0.618966  0.250163  1
  Ge  Ge27  1  0.959646  0.880331  0.250350  1
  Ge  Ge28  1  0.678169  0.037324  0.541595  1
  Ge  Ge29  1  0.178312  0.463145  0.958021  1
  Ge  Ge30  1  0.323620  0.961435  0.041131  1
  Ge  Ge31  1  0.821841  0.537064  0.458641  1
  Ge  Ge32  1  0.321705  0.963066  0.458598  1
  Ge  Ge33  1  0.821302  0.538498  0.041201  1
  Ge  Ge34  1  0.677491  0.037172  0.958079  1
  Ge  Ge35  1  0.178170  0.462588  0.541599  1
