# generated using pymatgen
data_Ho8InHgPd2
_symmetry_space_group_name_H-M   'P 1'
_cell_length_a   9.64338645
_cell_length_b   9.64338493
_cell_length_c   9.63689300
_cell_angle_alpha   60.02227023
_cell_angle_beta   60.02227542
_cell_angle_gamma   59.99808921
_symmetry_Int_Tables_number   1
_chemical_formula_structural   Ho8InHgPd2
_chemical_formula_sum   'Ho16 In2 Hg2 Pd4'
_cell_volume   633.90030620
_cell_formula_units_Z   2
loop_
 _symmetry_equiv_pos_site_id
 _symmetry_equiv_pos_as_xyz
  1  'x, y, z'
loop_
 _atom_site_type_symbol
 _atom_site_label
 _atom_site_symmetry_multiplicity
 _atom_site_fract_x
 _atom_site_fract_y
 _atom_site_fract_z
 _atom_site_occupancy
  Ho  Ho0  1  0.354331  0.354331  0.351549  1
  Ho  Ho1  1  0.354331  0.354331  0.939789  1
  Ho  Ho2  1  0.359105  0.929892  0.355502  1
  Ho  Ho3  1  0.929892  0.359105  0.355502  1
  Ho  Ho4  1  0.811056  0.189058  0.189909  1
  Ho  Ho5  1  0.189058  0.811056  0.809977  1
  Ho  Ho6  1  0.189058  0.811056  0.189909  1
  Ho  Ho7  1  0.811056  0.189058  0.809977  1
  Ho  Ho8  1  0.189944  0.189944  0.810056  1
  Ho  Ho9  1  0.811104  0.811104  0.188896  1
  Ho  Ho10  1  0.933757  0.564191  0.565378  1
  Ho  Ho11  1  0.564191  0.933757  0.936674  1
  Ho  Ho12  1  0.564191  0.933757  0.565378  1
  Ho  Ho13  1  0.933757  0.564191  0.936674  1
  Ho  Ho14  1  0.565659  0.565659  0.934341  1
  Ho  Ho15  1  0.935853  0.935853  0.564147  1
  In  In16  1  0.580495  0.253094  0.583204  1
  In  In17  1  0.253094  0.580495  0.583204  1
  Hg  Hg18  1  0.585976  0.585976  0.589811  1
  Hg  Hg19  1  0.585976  0.585976  0.238236  1
  Pd  Pd20  1  0.144411  0.144411  0.148206  1
  Pd  Pd21  1  0.144411  0.144411  0.562972  1
  Pd  Pd22  1  0.142467  0.566824  0.145355  1
  Pd  Pd23  1  0.566824  0.142467  0.145355  1
