# generated using pymatgen
data_AsI13
_symmetry_space_group_name_H-M   'P 1'
_cell_length_a   12.80692361
_cell_length_b   11.42126167
_cell_length_c   15.62198978
_cell_angle_alpha   122.87771899
_cell_angle_beta   88.45134683
_cell_angle_gamma   108.20542421
_symmetry_Int_Tables_number   1
_chemical_formula_structural   AsI13
_chemical_formula_sum   'As2 I26'
_cell_volume   1793.64386122
_cell_formula_units_Z   2
loop_
 _symmetry_equiv_pos_site_id
 _symmetry_equiv_pos_as_xyz
  1  'x, y, z'
loop_
 _atom_site_type_symbol
 _atom_site_label
 _atom_site_symmetry_multiplicity
 _atom_site_fract_x
 _atom_site_fract_y
 _atom_site_fract_z
 _atom_site_occupancy
  As  As0  1  0.323955  0.871073  0.947235  1
  As  As1  1  0.676045  0.128927  0.052765  1
  I  I2  1  0.366350  0.661010  0.972263  1
  I  I3  1  0.633650  0.338990  0.027737  1
  I  I4  1  0.566014  0.784715  0.378331  1
  I  I5  1  0.433986  0.215285  0.621669  1
  I  I6  1  0.727200  0.701130  0.016651  1
  I  I7  1  0.272800  0.298870  0.983349  1
  I  I8  1  0.714567  0.981142  0.158607  1
  I  I9  1  0.285433  0.018858  0.841393  1
  I  I10  1  0.432672  0.118792  0.131548  1
  I  I11  1  0.567328  0.881208  0.868452  1
  I  I12  1  0.223019  0.645184  0.701245  1
  I  I13  1  0.776981  0.354816  0.298755  1
  I  I14  1  0.119365  0.828171  0.994925  1
  I  I15  1  0.880635  0.171829  0.005075  1
  I  I16  1  0.096795  0.094267  0.216821  1
  I  I17  1  0.903205  0.905733  0.783179  1
  I  I18  1  0.283864  0.921156  0.462860  1
  I  I19  1  0.716136  0.078844  0.537140  1
  I  I20  1  0.329968  0.433018  0.655913  1
  I  I21  1  0.670032  0.566982  0.344087  1
  I  I22  1  0.855647  0.388386  0.707462  1
  I  I23  1  0.144353  0.611614  0.292538  1
  I  I24  1  0.948154  0.695710  0.599350  1
  I  I25  1  0.051846  0.304290  0.400650  1
  I  I26  1  0.249613  0.632075  0.130159  1
  I  I27  1  0.750387  0.367925  0.869841  1
