# generated using pymatgen
data_TbY2Mn2Co7P6
_symmetry_space_group_name_H-M   'P 1'
_cell_length_a   3.72018600
_cell_length_b   10.59414800
_cell_length_c   12.14018400
_cell_angle_alpha   90.00000000
_cell_angle_beta   90.00000000
_cell_angle_gamma   90.00000000
_symmetry_Int_Tables_number   1
_chemical_formula_structural   TbY2Mn2Co7P6
_chemical_formula_sum   'Tb2 Y4 Mn4 Co14 P12'
_cell_volume   478.47137285
_cell_formula_units_Z   2
loop_
 _symmetry_equiv_pos_site_id
 _symmetry_equiv_pos_as_xyz
  1  'x, y, z'
loop_
 _atom_site_type_symbol
 _atom_site_label
 _atom_site_symmetry_multiplicity
 _atom_site_fract_x
 _atom_site_fract_y
 _atom_site_fract_z
 _atom_site_occupancy
  Tb  Tb0  1  0.000000  0.500000  0.523304  1
  Tb  Tb1  1  0.500000  0.000000  0.476696  1
  Y  Y2  1  0.500000  0.820291  0.204220  1
  Y  Y3  1  0.500000  0.179709  0.204220  1
  Y  Y4  1  0.000000  0.679709  0.795780  1
  Y  Y5  1  0.000000  0.320291  0.795780  1
  Mn  Mn6  1  0.500000  0.500000  0.153394  1
  Mn  Mn7  1  0.000000  0.000000  0.846606  1
  Mn  Mn8  1  0.000000  0.500000  0.989217  1
  Mn  Mn9  1  0.500000  0.000000  0.010783  1
  Co  Co10  1  0.500000  0.500000  0.699783  1
  Co  Co11  1  0.000000  0.000000  0.300217  1
  Co  Co12  1  0.500000  0.332149  0.995654  1
  Co  Co13  1  0.500000  0.667851  0.995654  1
  Co  Co14  1  0.000000  0.167851  0.004346  1
  Co  Co15  1  0.000000  0.832149  0.004346  1
  Co  Co16  1  0.500000  0.296185  0.430394  1
  Co  Co17  1  0.500000  0.703815  0.430394  1
  Co  Co18  1  0.000000  0.203815  0.569606  1
  Co  Co19  1  0.000000  0.796185  0.569606  1
  Co  Co20  1  0.500000  0.878779  0.708229  1
  Co  Co21  1  0.500000  0.121221  0.708229  1
  Co  Co22  1  0.000000  0.621221  0.291771  1
  Co  Co23  1  0.000000  0.378779  0.291771  1
  P  P24  1  0.500000  0.500000  0.883650  1
  P  P25  1  0.000000  0.000000  0.116350  1
  P  P26  1  0.500000  0.500000  0.345567  1
  P  P27  1  0.000000  0.000000  0.654433  1
  P  P28  1  0.500000  0.309541  0.616045  1
  P  P29  1  0.500000  0.690459  0.616045  1
  P  P30  1  0.000000  0.190459  0.383955  1
  P  P31  1  0.000000  0.809541  0.383955  1
  P  P32  1  0.500000  0.844712  0.893817  1
  P  P33  1  0.500000  0.155288  0.893817  1
  P  P34  1  0.000000  0.655288  0.106183  1
  P  P35  1  0.000000  0.344712  0.106183  1
