# generated using pymatgen
data_Pa2CuNi(GeH)2
_symmetry_space_group_name_H-M   'P 1'
_cell_length_a   4.08068200
_cell_length_b   4.08068113
_cell_length_c   8.09538500
_cell_angle_alpha   89.99972620
_cell_angle_beta   89.99972010
_cell_angle_gamma   59.99969054
_symmetry_Int_Tables_number   1
_chemical_formula_structural   Pa2CuNi(GeH)2
_chemical_formula_sum   'Pa2 Cu1 Ni1 Ge2 H2'
_cell_volume   116.74336221
_cell_formula_units_Z   1
loop_
 _symmetry_equiv_pos_site_id
 _symmetry_equiv_pos_as_xyz
  1  'x, y, z'
loop_
 _atom_site_type_symbol
 _atom_site_label
 _atom_site_symmetry_multiplicity
 _atom_site_fract_x
 _atom_site_fract_y
 _atom_site_fract_z
 _atom_site_occupancy
  Pa  Pa0  1  0.000001  0.000001  0.504827  1
  Pa  Pa1  1  0.999999  0.000000  0.990329  1
  Cu  Cu2  1  0.666668  0.666668  0.245604  1
  Ni  Ni3  1  0.333331  0.333332  0.763375  1
  Ge  Ge4  1  0.333334  0.333334  0.274363  1
  Ge  Ge5  1  0.666666  0.666666  0.724580  1
  H  H6  1  0.333334  0.333333  0.965562  1
  H  H7  1  0.666666  0.666666  0.031359  1
