# generated using pymatgen
data_Y3GaNi2Ir
_symmetry_space_group_name_H-M   'P 1'
_cell_length_a   5.53169700
_cell_length_b   5.53169705
_cell_length_c   12.99011900
_cell_angle_alpha   90.00000000
_cell_angle_beta   90.00000000
_cell_angle_gamma   135.84511948
_symmetry_Int_Tables_number   1
_chemical_formula_structural   Y3GaNi2Ir
_chemical_formula_sum   'Y6 Ga2 Ni4 Ir2'
_cell_volume   276.89402060
_cell_formula_units_Z   2
loop_
 _symmetry_equiv_pos_site_id
 _symmetry_equiv_pos_as_xyz
  1  'x, y, z'
loop_
 _atom_site_type_symbol
 _atom_site_label
 _atom_site_symmetry_multiplicity
 _atom_site_fract_x
 _atom_site_fract_y
 _atom_site_fract_z
 _atom_site_occupancy
  Y  Y0  1  0.788108  0.211892  0.394281  1
  Y  Y1  1  0.211892  0.788108  0.605719  1
  Y  Y2  1  0.788108  0.211892  0.105719  1
  Y  Y3  1  0.211892  0.788108  0.894281  1
  Y  Y4  1  0.505931  0.494069  0.250000  1
  Y  Y5  1  0.494069  0.505931  0.750000  1
  Ga  Ga6  1  0.500000  0.500000  0.500000  1
  Ga  Ga7  1  0.500000  0.500000  0.000000  1
  Ni  Ni8  1  0.074609  0.925391  0.414017  1
  Ni  Ni9  1  0.925391  0.074609  0.585983  1
  Ni  Ni10  1  0.074609  0.925391  0.085983  1
  Ni  Ni11  1  0.925391  0.074609  0.914017  1
  Ir  Ir12  1  0.218274  0.781726  0.250000  1
  Ir  Ir13  1  0.781726  0.218274  0.750000  1
