# generated using pymatgen
data_Sr4Os6O18F
_symmetry_space_group_name_H-M   'P 1'
_cell_length_a   8.00660117
_cell_length_b   8.00660158
_cell_length_c   8.00660100
_cell_angle_alpha   109.47121916
_cell_angle_beta   109.47122019
_cell_angle_gamma   109.47122005
_symmetry_Int_Tables_number   1
_chemical_formula_structural   Sr4Os6O18F
_chemical_formula_sum   'Sr4 Os6 O18 F1'
_cell_volume   395.11427731
_cell_formula_units_Z   1
loop_
 _symmetry_equiv_pos_site_id
 _symmetry_equiv_pos_as_xyz
  1  'x, y, z'
loop_
 _atom_site_type_symbol
 _atom_site_label
 _atom_site_symmetry_multiplicity
 _atom_site_fract_x
 _atom_site_fract_y
 _atom_site_fract_z
 _atom_site_occupancy
  Sr  Sr0  1  0.000000  0.324764  0.000000  1
  Sr  Sr1  1  0.000000  0.000000  0.324764  1
  Sr  Sr2  1  0.675236  0.675236  0.675236  1
  Sr  Sr3  1  0.324764  0.000000  0.000000  1
  Os  Os4  1  0.500000  0.363931  0.863931  1
  Os  Os5  1  0.500000  0.636069  0.136069  1
  Os  Os6  1  0.363931  0.863931  0.500000  1
  Os  Os7  1  0.636069  0.136069  0.500000  1
  Os  Os8  1  0.863931  0.500000  0.363931  1
  Os  Os9  1  0.136069  0.500000  0.636069  1
  O  O10  1  0.706141  0.346432  0.064777  1
  O  O11  1  0.653568  0.359709  0.718344  1
  O  O12  1  0.281656  0.641365  0.935223  1
  O  O13  1  0.640291  0.293859  0.358635  1
  O  O14  1  0.359709  0.718344  0.653568  1
  O  O15  1  0.935223  0.281656  0.641365  1
  O  O16  1  0.064777  0.706141  0.346432  1
  O  O17  1  0.000000  0.669267  0.669267  1
  O  O18  1  0.669267  0.669267  0.000000  1
  O  O19  1  0.718344  0.653568  0.359709  1
  O  O20  1  0.346432  0.064777  0.706141  1
  O  O21  1  0.669267  0.000000  0.669267  1
  O  O22  1  0.000000  0.330733  0.330733  1
  O  O23  1  0.641365  0.935223  0.281656  1
  O  O24  1  0.358635  0.640291  0.293859  1
  O  O25  1  0.293859  0.358635  0.640291  1
  O  O26  1  0.330733  0.000000  0.330733  1
  O  O27  1  0.330733  0.330733  0.000000  1
  F  F28  1  0.000000  0.000000  0.000000  1
