# generated using pymatgen
data_Rb4Na2DyErAs4
_symmetry_space_group_name_H-M   'P 1'
_cell_length_a   9.47202172
_cell_length_b   9.47202192
_cell_length_c   9.47202083
_cell_angle_alpha   135.31250220
_cell_angle_beta   135.49097753
_cell_angle_gamma   64.90672976
_symmetry_Int_Tables_number   1
_chemical_formula_structural   Rb4Na2DyErAs4
_chemical_formula_sum   'Rb4 Na2 Dy1 Er1 As4'
_cell_volume   412.98229198
_cell_formula_units_Z   1
loop_
 _symmetry_equiv_pos_site_id
 _symmetry_equiv_pos_as_xyz
  1  'x, y, z'
loop_
 _atom_site_type_symbol
 _atom_site_label
 _atom_site_symmetry_multiplicity
 _atom_site_fract_x
 _atom_site_fract_y
 _atom_site_fract_z
 _atom_site_occupancy
  Rb  Rb0  1  0.681737  0.394344  0.712113  1
  Rb  Rb1  1  0.818263  0.030376  0.212606  1
  Rb  Rb2  1  0.182231  0.969624  0.787887  1
  Rb  Rb3  1  0.317769  0.605656  0.287394  1
  Na  Na4  1  0.750000  0.000000  0.750000  1
  Na  Na5  1  0.250000  0.000000  0.250000  1
  Dy  Dy6  1  0.750000  0.500000  0.250000  1
  Er  Er7  1  0.250000  0.500000  0.750000  1
  As  As8  1  0.403858  0.184245  0.776782  1
  As  As9  1  0.592537  0.815755  0.219613  1
  As  As10  1  0.096142  0.372925  0.280387  1
  As  As11  1  0.907463  0.627075  0.723218  1
