# generated using pymatgen
data_Tb8CdSiPt23
_symmetry_space_group_name_H-M   'P 1'
_cell_length_a   8.37947100
_cell_length_b   8.37947100
_cell_length_c   8.39537600
_cell_angle_alpha   90.00000000
_cell_angle_beta   90.00000000
_cell_angle_gamma   90.00000000
_symmetry_Int_Tables_number   1
_chemical_formula_structural   Tb8CdSiPt23
_chemical_formula_sum   'Tb8 Cd1 Si1 Pt23'
_cell_volume   589.48581098
_cell_formula_units_Z   1
loop_
 _symmetry_equiv_pos_site_id
 _symmetry_equiv_pos_as_xyz
  1  'x, y, z'
loop_
 _atom_site_type_symbol
 _atom_site_label
 _atom_site_symmetry_multiplicity
 _atom_site_fract_x
 _atom_site_fract_y
 _atom_site_fract_z
 _atom_site_occupancy
  Tb  Tb0  1  0.251398  0.251398  0.250482  1
  Tb  Tb1  1  0.738559  0.738559  0.745209  1
  Tb  Tb2  1  0.748602  0.748602  0.250482  1
  Tb  Tb3  1  0.738559  0.261441  0.745209  1
  Tb  Tb4  1  0.261441  0.261441  0.745209  1
  Tb  Tb5  1  0.251398  0.748602  0.250482  1
  Tb  Tb6  1  0.261441  0.738559  0.745209  1
  Tb  Tb7  1  0.748602  0.251398  0.250482  1
  Cd  Cd8  1  0.000000  0.000000  0.707745  1
  Si  Si9  1  0.000000  0.000000  0.054205  1
  Pt  Pt10  1  0.253938  0.500000  0.001491  1
  Pt  Pt11  1  0.746062  0.500000  0.001491  1
  Pt  Pt12  1  0.000000  0.270546  0.502679  1
  Pt  Pt13  1  0.500000  0.253938  0.001491  1
  Pt  Pt14  1  0.000000  0.729454  0.502679  1
  Pt  Pt15  1  0.500000  0.746062  0.001491  1
  Pt  Pt16  1  0.500000  0.000000  0.248307  1
  Pt  Pt17  1  0.270546  0.000000  0.502679  1
  Pt  Pt18  1  0.500000  0.000000  0.742561  1
  Pt  Pt19  1  0.729454  0.000000  0.502679  1
  Pt  Pt20  1  0.000000  0.500000  0.248307  1
  Pt  Pt21  1  0.000000  0.500000  0.742561  1
  Pt  Pt22  1  0.253947  0.500000  0.494347  1
  Pt  Pt23  1  0.746053  0.500000  0.494347  1
  Pt  Pt24  1  0.500000  0.253947  0.494347  1
  Pt  Pt25  1  0.500000  0.746053  0.494347  1
  Pt  Pt26  1  0.500000  0.500000  0.247997  1
  Pt  Pt27  1  0.500000  0.500000  0.749334  1
  Pt  Pt28  1  0.273493  0.000000  0.989571  1
  Pt  Pt29  1  0.726507  0.000000  0.989571  1
  Pt  Pt30  1  0.000000  0.273493  0.989571  1
  Pt  Pt31  1  0.000000  0.726507  0.989571  1
  Pt  Pt32  1  0.000000  0.000000  0.323872  1
