# generated using pymatgen
data_Mn12Mo12CN3
_symmetry_space_group_name_H-M   'P 1'
_cell_length_a   7.84894508
_cell_length_b   7.84894535
_cell_length_c   7.84894387
_cell_angle_alpha   59.93537250
_cell_angle_beta   59.93537375
_cell_angle_gamma   59.93537840
_symmetry_Int_Tables_number   1
_chemical_formula_structural   Mn12Mo12CN3
_chemical_formula_sum   'Mn12 Mo12 C1 N3'
_cell_volume   341.41434278
_cell_formula_units_Z   1
loop_
 _symmetry_equiv_pos_site_id
 _symmetry_equiv_pos_as_xyz
  1  'x, y, z'
loop_
 _atom_site_type_symbol
 _atom_site_label
 _atom_site_symmetry_multiplicity
 _atom_site_fract_x
 _atom_site_fract_y
 _atom_site_fract_z
 _atom_site_occupancy
  Mn  Mn0  1  0.125000  0.125000  0.625000  1
  Mn  Mn1  1  0.235400  0.921246  0.921246  1
  Mn  Mn2  1  0.921246  0.235400  0.921246  1
  Mn  Mn3  1  0.328314  0.328314  0.328314  1
  Mn  Mn4  1  0.328754  0.014600  0.328754  1
  Mn  Mn5  1  0.328754  0.328754  0.014600  1
  Mn  Mn6  1  0.014600  0.328754  0.328754  1
  Mn  Mn7  1  0.921686  0.921686  0.921686  1
  Mn  Mn8  1  0.125000  0.625000  0.125000  1
  Mn  Mn9  1  0.625000  0.125000  0.125000  1
  Mn  Mn10  1  0.125000  0.125000  0.125000  1
  Mn  Mn11  1  0.921246  0.921246  0.235400  1
  Mo  Mo12  1  0.550382  0.550382  0.949836  1
  Mo  Mo13  1  0.949189  0.949189  0.550279  1
  Mo  Mo14  1  0.699618  0.699618  0.300164  1
  Mo  Mo15  1  0.300164  0.699618  0.699618  1
  Mo  Mo16  1  0.699721  0.300811  0.300811  1
  Mo  Mo17  1  0.300811  0.300811  0.699721  1
  Mo  Mo18  1  0.550382  0.949836  0.550382  1
  Mo  Mo19  1  0.300811  0.699721  0.300811  1
  Mo  Mo20  1  0.949189  0.550279  0.949189  1
  Mo  Mo21  1  0.949836  0.550382  0.550382  1
  Mo  Mo22  1  0.699618  0.300164  0.699618  1
  Mo  Mo23  1  0.550279  0.949189  0.949189  1
  C  C24  1  0.625000  0.625000  0.625000  1
  N  N25  1  0.625000  0.625000  0.125000  1
  N  N26  1  0.125000  0.625000  0.625000  1
  N  N27  1  0.625000  0.125000  0.625000  1
