# generated using pymatgen
data_LiHo3AlZnSi2Pd
_symmetry_space_group_name_H-M   'P 1'
_cell_length_a   6.93213500
_cell_length_b   6.84066328
_cell_length_c   4.28284300
_cell_angle_alpha   90.00000000
_cell_angle_beta   90.00000000
_cell_angle_gamma   120.44331439
_symmetry_Int_Tables_number   1
_chemical_formula_structural   LiHo3AlZnSi2Pd
_chemical_formula_sum   'Li1 Ho3 Al1 Zn1 Si2 Pd1'
_cell_volume   175.09372285
_cell_formula_units_Z   1
loop_
 _symmetry_equiv_pos_site_id
 _symmetry_equiv_pos_as_xyz
  1  'x, y, z'
loop_
 _atom_site_type_symbol
 _atom_site_label
 _atom_site_symmetry_multiplicity
 _atom_site_fract_x
 _atom_site_fract_y
 _atom_site_fract_z
 _atom_site_occupancy
  Li  Li0  1  0.763633  0.002281  0.499999  1
  Ho  Ho1  1  0.420174  0.002198  0.000000  1
  Ho  Ho2  1  0.996212  0.412313  0.000000  1
  Ho  Ho3  1  0.576763  0.582471  0.000000  1
  Al  Al4  1  0.999126  0.764432  0.499999  1
  Zn  Zn5  1  0.242695  0.245927  0.499999  1
  Si  Si6  1  0.667294  0.339887  0.499999  1
  Si  Si7  1  0.324703  0.664745  0.499999  1
  Pd  Pd8  1  0.009400  0.985744  0.000000  1
