# generated using pymatgen
data_SrPr(CuO2)4
_symmetry_space_group_name_H-M   'P 1'
_cell_length_a   6.41000156
_cell_length_b   6.41000077
_cell_length_c   6.41000014
_cell_angle_alpha   124.62668832
_cell_angle_beta   124.62669121
_cell_angle_gamma   82.15728822
_symmetry_Int_Tables_number   1
_chemical_formula_structural   SrPr(CuO2)4
_chemical_formula_sum   'Sr1 Pr1 Cu4 O8'
_cell_volume   171.44331814
_cell_formula_units_Z   1
loop_
 _symmetry_equiv_pos_site_id
 _symmetry_equiv_pos_as_xyz
  1  'x, y, z'
loop_
 _atom_site_type_symbol
 _atom_site_label
 _atom_site_symmetry_multiplicity
 _atom_site_fract_x
 _atom_site_fract_y
 _atom_site_fract_z
 _atom_site_occupancy
  Sr  Sr0  1  0.000000  0.000000  0.000000  1
  Pr  Pr1  1  0.750000  0.250000  0.500000  1
  Cu  Cu2  1  0.872835  0.631398  0.254624  1
  Cu  Cu3  1  0.381789  0.127165  0.758563  1
  Cu  Cu4  1  0.368602  0.623226  0.241437  1
  Cu  Cu5  1  0.376774  0.618211  0.745376  1
  O  O6  1  0.359594  0.968690  0.922334  1
  O  O7  1  0.683435  0.824118  0.407370  1
  O  O8  1  0.723935  0.316565  0.140683  1
  O  O9  1  0.562740  0.640406  0.609096  1
  O  O10  1  0.175882  0.583252  0.859317  1
  O  O11  1  0.031310  0.953644  0.390904  1
  O  O12  1  0.046356  0.437260  0.077666  1
  O  O13  1  0.416748  0.276065  0.592630  1
