# generated using pymatgen
data_Ti3Fe2Si3Rh
_symmetry_space_group_name_H-M   'P 1'
_cell_length_a   7.18186025
_cell_length_b   7.18186073
_cell_length_c   7.18186063
_cell_angle_alpha   127.48351952
_cell_angle_beta   120.77662758
_cell_angle_gamma   83.09487625
_symmetry_Int_Tables_number   1
_chemical_formula_structural   Ti3Fe2Si3Rh
_chemical_formula_sum   'Ti6 Fe4 Si6 Rh2'
_cell_volume   242.42245390
_cell_formula_units_Z   2
loop_
 _symmetry_equiv_pos_site_id
 _symmetry_equiv_pos_as_xyz
  1  'x, y, z'
loop_
 _atom_site_type_symbol
 _atom_site_label
 _atom_site_symmetry_multiplicity
 _atom_site_fract_x
 _atom_site_fract_y
 _atom_site_fract_z
 _atom_site_occupancy
  Ti  Ti0  1  0.747995  0.088334  0.840340  1
  Ti  Ti1  1  0.480155  0.970106  0.989950  1
  Ti  Ti2  1  0.519845  0.509796  0.489950  1
  Ti  Ti3  1  0.951133  0.904548  0.453415  1
  Ti  Ti4  1  0.252005  0.092345  0.340340  1
  Ti  Ti5  1  0.048867  0.502282  0.953415  1
  Fe  Fe6  1  0.912206  0.251159  0.409509  1
  Fe  Fe7  1  0.658351  0.497303  0.909509  1
  Fe  Fe8  1  0.341649  0.251159  0.838954  1
  Fe  Fe9  1  0.087794  0.497303  0.338954  1
  Si  Si10  1  0.282666  0.520360  0.737694  1
  Si  Si11  1  0.162820  0.176625  0.000231  1
  Si  Si12  1  0.676393  0.176625  0.513804  1
  Si  Si13  1  0.323607  0.837411  0.500231  1
  Si  Si14  1  0.717334  0.455029  0.237694  1
  Si  Si15  1  0.837180  0.837411  0.013804  1
  Rh  Rh16  1  0.500000  0.745001  0.245001  1
  Rh  Rh17  1  0.000000  0.745001  0.745001  1
