# generated using pymatgen
data_AcN8
_symmetry_space_group_name_H-M   'P 1'
_cell_length_a   4.30054876
_cell_length_b   6.84771677
_cell_length_c   7.61101454
_cell_angle_alpha   92.55780468
_cell_angle_beta   93.39244180
_cell_angle_gamma   65.13641913
_symmetry_Int_Tables_number   1
_chemical_formula_structural   AcN8
_chemical_formula_sum   'Ac1 N8'
_cell_volume   202.95682540
_cell_formula_units_Z   1
loop_
 _symmetry_equiv_pos_site_id
 _symmetry_equiv_pos_as_xyz
  1  'x, y, z'
loop_
 _atom_site_type_symbol
 _atom_site_label
 _atom_site_symmetry_multiplicity
 _atom_site_fract_x
 _atom_site_fract_y
 _atom_site_fract_z
 _atom_site_occupancy
  Ac  Ac0  1  0.382794  0.386637  0.582127  1
  N  N1  1  0.018188  0.793482  0.076527  1
  N  N2  1  0.691394  0.364026  0.269655  1
  N  N3  1  0.209149  0.733869  0.971880  1
  N  N4  1  0.182285  0.253249  0.872581  1
  N  N5  1  0.744113  0.971884  0.570656  1
  N  N6  1  0.921319  0.789724  0.576385  1
  N  N7  1  0.906490  0.374321  0.364925  1
  N  N8  1  0.922436  0.316702  0.790796  1
