# generated using pymatgen
data_Pr4Al18HgIr2Rh3
_symmetry_space_group_name_H-M   'P 1'
_cell_length_a   7.69036131
_cell_length_b   7.69035981
_cell_length_c   9.65919207
_cell_angle_alpha   89.80326345
_cell_angle_beta   89.80326473
_cell_angle_gamma   119.24103213
_symmetry_Int_Tables_number   1
_chemical_formula_structural   Pr4Al18HgIr2Rh3
_chemical_formula_sum   'Pr4 Al18 Hg1 Ir2 Rh3'
_cell_volume   498.45471080
_cell_formula_units_Z   1
loop_
 _symmetry_equiv_pos_site_id
 _symmetry_equiv_pos_as_xyz
  1  'x, y, z'
loop_
 _atom_site_type_symbol
 _atom_site_label
 _atom_site_symmetry_multiplicity
 _atom_site_fract_x
 _atom_site_fract_y
 _atom_site_fract_z
 _atom_site_occupancy
  Pr  Pr0  1  0.996794  0.677871  0.250258  1
  Pr  Pr1  1  0.003206  0.322129  0.749742  1
  Pr  Pr2  1  0.677871  0.996794  0.250258  1
  Pr  Pr3  1  0.322129  0.003206  0.749742  1
  Al  Al4  1  0.144439  0.144439  0.264714  1
  Al  Al5  1  0.855561  0.855561  0.735286  1
  Al  Al6  1  0.006822  0.353123  0.079016  1
  Al  Al7  1  0.993178  0.646877  0.920984  1
  Al  Al8  1  0.999095  0.662184  0.569791  1
  Al  Al9  1  0.337816  0.000905  0.430209  1
  Al  Al10  1  0.000905  0.337816  0.430209  1
  Al  Al11  1  0.662184  0.999095  0.569791  1
  Al  Al12  1  0.646877  0.993178  0.920984  1
  Al  Al13  1  0.353123  0.006822  0.079016  1
  Al  Al14  1  0.334114  0.334114  0.544433  1
  Al  Al15  1  0.665886  0.665886  0.455567  1
  Al  Al16  1  0.648893  0.648893  0.060697  1
  Al  Al17  1  0.351107  0.351107  0.939303  1
  Al  Al18  1  0.339814  0.551830  0.252488  1
  Al  Al19  1  0.660186  0.448170  0.747512  1
  Al  Al20  1  0.551830  0.339814  0.252488  1
  Al  Al21  1  0.448170  0.660186  0.747512  1
  Hg  Hg22  1  0.000000  0.000000  0.000000  1
  Ir  Ir23  1  0.329202  0.670798  0.500000  1
  Ir  Ir24  1  0.670798  0.329202  0.500000  1
  Rh  Rh25  1  0.670830  0.329170  0.000000  1
  Rh  Rh26  1  0.329170  0.670830  0.000000  1
  Rh  Rh27  1  0.000000  0.000000  0.500000  1
