# generated using pymatgen
data_Ho3Lu5(HfIr3)2
_symmetry_space_group_name_H-M   'P 1'
_cell_length_a   10.67624584
_cell_length_b   10.68225000
_cell_length_c   6.18189500
_cell_angle_alpha   90.00000000
_cell_angle_beta   89.97733660
_cell_angle_gamma   90.00000000
_symmetry_Int_Tables_number   1
_chemical_formula_structural   Ho3Lu5(HfIr3)2
_chemical_formula_sum   'Ho6 Lu10 Hf4 Ir12'
_cell_volume   705.02236395
_cell_formula_units_Z   2
loop_
 _symmetry_equiv_pos_site_id
 _symmetry_equiv_pos_as_xyz
  1  'x, y, z'
loop_
 _atom_site_type_symbol
 _atom_site_label
 _atom_site_symmetry_multiplicity
 _atom_site_fract_x
 _atom_site_fract_y
 _atom_site_fract_z
 _atom_site_occupancy
  Ho  Ho0  1  0.788488  0.413038  0.127589  1
  Ho  Ho1  1  0.788494  0.586959  0.627594  1
  Ho  Ho2  1  0.913492  0.711400  0.127528  1
  Ho  Ho3  1  0.913501  0.288602  0.627536  1
  Ho  Ho4  1  0.087840  0.711111  0.627738  1
  Ho  Ho5  1  0.087843  0.288876  0.127750  1
  Lu  Lu6  1  0.290769  0.085057  0.374094  1
  Lu  Lu7  1  0.290762  0.914945  0.874097  1
  Lu  Lu8  1  0.709261  0.085138  0.873909  1
  Lu  Lu9  1  0.709268  0.914877  0.373909  1
  Lu  Lu10  1  0.584956  0.790595  0.873832  1
  Lu  Lu11  1  0.584952  0.209391  0.373850  1
  Lu  Lu12  1  0.414258  0.790212  0.373856  1
  Lu  Lu13  1  0.414261  0.209778  0.873845  1
  Lu  Lu14  1  0.211054  0.413832  0.626800  1
  Lu  Lu15  1  0.211042  0.586144  0.126816  1
  Hf  Hf16  1  0.000326  0.999964  0.498079  1
  Hf  Hf17  1  0.000317  0.000052  0.998066  1
  Hf  Hf18  1  0.498975  0.500116  0.998980  1
  Hf  Hf19  1  0.498973  0.499878  0.498967  1
  Ir  Ir20  1  0.852814  0.143278  0.249173  1
  Ir  Ir21  1  0.852770  0.856729  0.749149  1
  Ir  Ir22  1  0.147461  0.144321  0.748397  1
  Ir  Ir23  1  0.147491  0.855683  0.248448  1
  Ir  Ir24  1  0.643123  0.352792  0.749199  1
  Ir  Ir25  1  0.643126  0.647231  0.249248  1
  Ir  Ir26  1  0.355113  0.354154  0.250661  1
  Ir  Ir27  1  0.355129  0.645866  0.750647  1
  Ir  Ir28  1  0.499951  0.999896  0.121791  1
  Ir  Ir29  1  0.499954  0.000107  0.621794  1
  Ir  Ir30  1  0.002120  0.500004  0.878335  1
  Ir  Ir31  1  0.002117  0.499974  0.378323  1
