# generated using pymatgen
data_TiAl6Cr5Ru12
_symmetry_space_group_name_H-M   'P 1'
_cell_length_a   4.24271300
_cell_length_b   6.00937900
_cell_length_c   12.69625300
_cell_angle_alpha   89.99996288
_cell_angle_beta   89.99913011
_cell_angle_gamma   90.00000000
_symmetry_Int_Tables_number   1
_chemical_formula_structural   TiAl6Cr5Ru12
_chemical_formula_sum   'Ti1 Al6 Cr5 Ru12'
_cell_volume   323.70456035
_cell_formula_units_Z   1
loop_
 _symmetry_equiv_pos_site_id
 _symmetry_equiv_pos_as_xyz
  1  'x, y, z'
loop_
 _atom_site_type_symbol
 _atom_site_label
 _atom_site_symmetry_multiplicity
 _atom_site_fract_x
 _atom_site_fract_y
 _atom_site_fract_z
 _atom_site_occupancy
  Ti  Ti0  1  0.500114  0.999999  0.833332  1
  Al  Al1  1  0.000007  0.999999  0.000342  1
  Al  Al2  1  0.499871  0.499999  0.167352  1
  Al  Al3  1  0.999872  0.000000  0.333307  1
  Al  Al4  1  0.499997  0.500001  0.499316  1
  Al  Al5  1  0.000136  0.999999  0.666348  1
  Al  Al6  1  0.500126  0.500000  0.833336  1
  Cr  Cr7  1  0.000005  0.499998  0.000478  1
  Cr  Cr8  1  0.499872  0.999996  0.167482  1
  Cr  Cr9  1  0.999871  0.500000  0.333318  1
  Cr  Cr10  1  0.499997  0.000006  0.499185  1
  Cr  Cr11  1  0.000131  0.500000  0.666225  1
  Ru  Ru12  1  0.500000  0.253102  0.002544  1
  Ru  Ru13  1  0.500000  0.746895  0.002544  1
  Ru  Ru14  1  0.999896  0.250113  0.167353  1
  Ru  Ru15  1  0.999895  0.749885  0.167353  1
  Ru  Ru16  1  0.499887  0.250289  0.333330  1
  Ru  Ru17  1  0.499886  0.749713  0.333331  1
  Ru  Ru18  1  0.999996  0.250112  0.499310  1
  Ru  Ru19  1  0.999998  0.749890  0.499310  1
  Ru  Ru20  1  0.500104  0.253124  0.664119  1
  Ru  Ru21  1  0.500103  0.746877  0.664119  1
  Ru  Ru22  1  0.000117  0.255997  0.833332  1
  Ru  Ru23  1  0.000117  0.744000  0.833333  1
