# generated using pymatgen
data_YbHo2Mg3AgPb2
_symmetry_space_group_name_H-M   'P 1'
_cell_length_a   7.56212700
_cell_length_b   7.61421674
_cell_length_c   4.56559900
_cell_angle_alpha   90.00000000
_cell_angle_beta   90.00000000
_cell_angle_gamma   119.77395023
_symmetry_Int_Tables_number   1
_chemical_formula_structural   YbHo2Mg3AgPb2
_chemical_formula_sum   'Yb1 Ho2 Mg3 Ag1 Pb2'
_cell_volume   228.18250615
_cell_formula_units_Z   1
loop_
 _symmetry_equiv_pos_site_id
 _symmetry_equiv_pos_as_xyz
  1  'x, y, z'
loop_
 _atom_site_type_symbol
 _atom_site_label
 _atom_site_symmetry_multiplicity
 _atom_site_fract_x
 _atom_site_fract_y
 _atom_site_fract_z
 _atom_site_occupancy
  Yb  Yb0  1  0.587103  0.000000  0.000000  1
  Ho  Ho1  1  0.997788  0.585198  0.000000  1
  Ho  Ho2  1  0.412589  0.414802  0.000000  1
  Mg  Mg3  1  0.233260  0.000000  0.500000  1
  Mg  Mg4  1  0.000597  0.235491  0.500000  1
  Mg  Mg5  1  0.765105  0.764509  0.500000  1
  Ag  Ag6  1  0.004218  0.000000  0.000000  1
  Pb  Pb7  1  0.330904  0.662469  0.500000  1
  Pb  Pb8  1  0.668436  0.337531  0.500000  1
