# generated using pymatgen
data_La2Pr2NdIr2
_symmetry_space_group_name_H-M   'P 1'
_cell_length_a   9.16837804
_cell_length_b   9.16837784
_cell_length_c   7.36753106
_cell_angle_alpha   84.02091000
_cell_angle_beta   84.02090878
_cell_angle_gamma   43.21671531
_symmetry_Int_Tables_number   1
_chemical_formula_structural   La2Pr2NdIr2
_chemical_formula_sum   'La4 Pr4 Nd2 Ir4'
_cell_volume   421.40739287
_cell_formula_units_Z   2
loop_
 _symmetry_equiv_pos_site_id
 _symmetry_equiv_pos_as_xyz
  1  'x, y, z'
loop_
 _atom_site_type_symbol
 _atom_site_label
 _atom_site_symmetry_multiplicity
 _atom_site_fract_x
 _atom_site_fract_y
 _atom_site_fract_z
 _atom_site_occupancy
  La  La0  1  0.016242  0.796642  0.914934  1
  La  La1  1  0.203358  0.983758  0.585066  1
  La  La2  1  0.983758  0.203358  0.085066  1
  La  La3  1  0.796642  0.016242  0.414934  1
  Pr  Pr4  1  0.353876  0.213311  0.818173  1
  Pr  Pr5  1  0.786689  0.646124  0.681827  1
  Pr  Pr6  1  0.646124  0.786689  0.181827  1
  Pr  Pr7  1  0.213311  0.353876  0.318173  1
  Nd  Nd8  1  0.568940  0.431060  0.750000  1
  Nd  Nd9  1  0.431060  0.568940  0.250000  1
  Ir  Ir10  1  0.178139  0.599313  0.578491  1
  Ir  Ir11  1  0.400687  0.821861  0.921509  1
  Ir  Ir12  1  0.821861  0.400687  0.421509  1
  Ir  Ir13  1  0.599313  0.178139  0.078491  1
