# generated using pymatgen
data_TbY4(NiTe)2
_symmetry_space_group_name_H-M   'P 1'
_cell_length_a   7.77717582
_cell_length_b   7.77717548
_cell_length_c   14.94251501
_cell_angle_alpha   90.00544883
_cell_angle_beta   89.99455092
_cell_angle_gamma   149.90844572
_symmetry_Int_Tables_number   1
_chemical_formula_structural   TbY4(NiTe)2
_chemical_formula_sum   'Tb2 Y8 Ni4 Te4'
_cell_volume   453.14510700
_cell_formula_units_Z   2
loop_
 _symmetry_equiv_pos_site_id
 _symmetry_equiv_pos_as_xyz
  1  'x, y, z'
loop_
 _atom_site_type_symbol
 _atom_site_label
 _atom_site_symmetry_multiplicity
 _atom_site_fract_x
 _atom_site_fract_y
 _atom_site_fract_z
 _atom_site_occupancy
  Tb  Tb0  1  0.959039  0.040961  0.125839  1
  Tb  Tb1  1  0.040961  0.959039  0.874161  1
  Y  Y2  1  0.039910  0.960090  0.623969  1
  Y  Y3  1  0.960090  0.039910  0.376031  1
  Y  Y4  1  0.741410  0.258590  0.627213  1
  Y  Y5  1  0.258590  0.741410  0.372787  1
  Y  Y6  1  0.258429  0.741571  0.127320  1
  Y  Y7  1  0.741571  0.258429  0.872680  1
  Y  Y8  1  0.605913  0.394087  0.249878  1
  Y  Y9  1  0.394087  0.605913  0.750122  1
  Ni  Ni10  1  0.411198  0.588802  0.250298  1
  Ni  Ni11  1  0.588802  0.411198  0.749702  1
  Ni  Ni12  1  0.815013  0.184987  0.250037  1
  Ni  Ni13  1  0.184987  0.815013  0.749963  1
  Te  Te14  1  0.615117  0.384883  0.040575  1
  Te  Te15  1  0.384883  0.615117  0.959425  1
  Te  Te16  1  0.385197  0.614803  0.540342  1
  Te  Te17  1  0.614803  0.385197  0.459658  1
