# generated using pymatgen
data_TbUS6
_symmetry_space_group_name_H-M   'P 1'
_cell_length_a   3.95502700
_cell_length_b   5.39769500
_cell_length_c   9.48051381
_cell_angle_alpha   82.72704005
_cell_angle_beta   90.00000000
_cell_angle_gamma   90.00000000
_symmetry_Int_Tables_number   1
_chemical_formula_structural   TbUS6
_chemical_formula_sum   'Tb1 U1 S6'
_cell_volume   200.76191635
_cell_formula_units_Z   1
loop_
 _symmetry_equiv_pos_site_id
 _symmetry_equiv_pos_as_xyz
  1  'x, y, z'
loop_
 _atom_site_type_symbol
 _atom_site_label
 _atom_site_symmetry_multiplicity
 _atom_site_fract_x
 _atom_site_fract_y
 _atom_site_fract_z
 _atom_site_occupancy
  Tb  Tb0  1  0.250000  0.717397  0.146693  1
  U  U1  1  0.750000  0.279943  0.865136  1
  S  S2  1  0.250000  0.129201  0.691457  1
  S  S3  1  0.750000  0.873135  0.315006  1
  S  S4  1  0.750000  0.486311  0.314874  1
  S  S5  1  0.250000  0.508469  0.691757  1
  S  S6  1  0.750000  0.767333  0.922141  1
  S  S7  1  0.250000  0.238212  0.052936  1
