# generated using pymatgen
data_Li4CeEr3Si8
_symmetry_space_group_name_H-M   'P 1'
_cell_length_a   3.79213900
_cell_length_b   7.62467567
_cell_length_c   10.18111317
_cell_angle_alpha   90.05147565
_cell_angle_beta   90.00000000
_cell_angle_gamma   90.00000000
_symmetry_Int_Tables_number   1
_chemical_formula_structural   Li4CeEr3Si8
_chemical_formula_sum   'Li4 Ce1 Er3 Si8'
_cell_volume   294.37485627
_cell_formula_units_Z   1
loop_
 _symmetry_equiv_pos_site_id
 _symmetry_equiv_pos_as_xyz
  1  'x, y, z'
loop_
 _atom_site_type_symbol
 _atom_site_label
 _atom_site_symmetry_multiplicity
 _atom_site_fract_x
 _atom_site_fract_y
 _atom_site_fract_z
 _atom_site_occupancy
  Li  Li0  1  0.250000  0.990815  0.392285  1
  Li  Li1  1  0.250000  0.490334  0.105494  1
  Li  Li2  1  0.750000  0.009899  0.609329  1
  Li  Li3  1  0.750000  0.509824  0.893477  1
  Ce  Ce4  1  0.750000  0.358587  0.362778  1
  Er  Er5  1  0.250000  0.135692  0.863678  1
  Er  Er6  1  0.250000  0.635751  0.636004  1
  Er  Er7  1  0.750000  0.865529  0.135062  1
  Si  Si8  1  0.250000  0.235918  0.570125  1
  Si  Si9  1  0.250000  0.733679  0.933153  1
  Si  Si10  1  0.750000  0.771084  0.432335  1
  Si  Si11  1  0.750000  0.262753  0.064769  1
  Si  Si12  1  0.250000  0.659333  0.319171  1
  Si  Si13  1  0.250000  0.156144  0.178714  1
  Si  Si14  1  0.750000  0.341414  0.684576  1
  Si  Si15  1  0.750000  0.843244  0.819049  1
