# generated using pymatgen
data_Y6Si6IrOsRh2
_symmetry_space_group_name_H-M   'P 1'
_cell_length_a   5.77428615
_cell_length_b   5.77428712
_cell_length_c   13.74613217
_cell_angle_alpha   90.03447624
_cell_angle_beta   89.96552493
_cell_angle_gamma   137.45114998
_symmetry_Int_Tables_number   1
_chemical_formula_structural   Y6Si6IrOsRh2
_chemical_formula_sum   'Y6 Si6 Ir1 Os1 Rh2'
_cell_volume   309.93040842
_cell_formula_units_Z   1
loop_
 _symmetry_equiv_pos_site_id
 _symmetry_equiv_pos_as_xyz
  1  'x, y, z'
loop_
 _atom_site_type_symbol
 _atom_site_label
 _atom_site_symmetry_multiplicity
 _atom_site_fract_x
 _atom_site_fract_y
 _atom_site_fract_z
 _atom_site_occupancy
  Y  Y0  1  0.921164  0.078836  0.384766  1
  Y  Y1  1  0.078974  0.921026  0.615113  1
  Y  Y2  1  0.925008  0.074992  0.114892  1
  Y  Y3  1  0.076161  0.923839  0.885492  1
  Y  Y4  1  0.644162  0.355838  0.249546  1
  Y  Y5  1  0.356081  0.643919  0.749384  1
  Si  Si6  1  0.609742  0.390258  0.460441  1
  Si  Si7  1  0.389762  0.610238  0.538987  1
  Si  Si8  1  0.615075  0.384925  0.039186  1
  Si  Si9  1  0.383093  0.616907  0.959572  1
  Si  Si10  1  0.334577  0.665423  0.248465  1
  Si  Si11  1  0.669008  0.330992  0.752961  1
  Ir  Ir12  1  0.213647  0.786353  0.081313  1
  Os  Os13  1  0.784856  0.215144  0.919635  1
  Rh  Rh14  1  0.783844  0.216156  0.578856  1
  Rh  Rh15  1  0.214847  0.785153  0.421392  1
