# generated using pymatgen
data_Nd3CdCu(HgAu)2
_symmetry_space_group_name_H-M   'P 1'
_cell_length_a   8.03527473
_cell_length_b   8.03527537
_cell_length_c   3.90959500
_cell_angle_alpha   90.00000000
_cell_angle_beta   90.00000000
_cell_angle_gamma   120.49751314
_symmetry_Int_Tables_number   1
_chemical_formula_structural   Nd3CdCu(HgAu)2
_chemical_formula_sum   'Nd3 Cd1 Cu1 Hg2 Au2'
_cell_volume   217.50275228
_cell_formula_units_Z   1
loop_
 _symmetry_equiv_pos_site_id
 _symmetry_equiv_pos_as_xyz
  1  'x, y, z'
loop_
 _atom_site_type_symbol
 _atom_site_label
 _atom_site_symmetry_multiplicity
 _atom_site_fract_x
 _atom_site_fract_y
 _atom_site_fract_z
 _atom_site_occupancy
  Nd  Nd0  1  0.593115  0.006011  0.000000  1
  Nd  Nd1  1  0.006011  0.593115  0.000000  1
  Nd  Nd2  1  0.398469  0.398469  0.000000  1
  Cd  Cd3  1  0.753913  0.753913  0.500000  1
  Cu  Cu4  1  0.997545  0.997545  0.000000  1
  Hg  Hg5  1  0.247241  0.995036  0.500000  1
  Hg  Hg6  1  0.995036  0.247241  0.500000  1
  Au  Au7  1  0.341872  0.666798  0.500000  1
  Au  Au8  1  0.666798  0.341872  0.500000  1
