# generated using pymatgen
data_Nd2Dy3Co12P12Ru7
_symmetry_space_group_name_H-M   'P 1'
_cell_length_a   12.24399836
_cell_length_b   12.25895620
_cell_length_c   3.76376400
_cell_angle_alpha   90.00000000
_cell_angle_beta   90.00000000
_cell_angle_gamma   119.81612881
_symmetry_Int_Tables_number   1
_chemical_formula_structural   Nd2Dy3Co12P12Ru7
_chemical_formula_sum   'Nd2 Dy3 Co12 P12 Ru7'
_cell_volume   490.15276600
_cell_formula_units_Z   1
loop_
 _symmetry_equiv_pos_site_id
 _symmetry_equiv_pos_as_xyz
  1  'x, y, z'
loop_
 _atom_site_type_symbol
 _atom_site_label
 _atom_site_symmetry_multiplicity
 _atom_site_fract_x
 _atom_site_fract_y
 _atom_site_fract_z
 _atom_site_occupancy
  Nd  Nd0  1  0.665937  0.332597  0.000000  1
  Nd  Nd1  1  0.336849  0.666798  0.000000  1
  Dy  Dy2  1  0.182106  0.182063  0.500000  1
  Dy  Dy3  1  0.819480  0.000800  0.500000  1
  Dy  Dy4  1  0.999453  0.819031  0.500000  1
  Co  Co5  1  0.828345  0.196033  0.000000  1
  Co  Co6  1  0.801310  0.631786  0.000000  1
  Co  Co7  1  0.369134  0.171081  0.000000  1
  Co  Co8  1  0.196195  0.827238  0.000000  1
  Co  Co9  1  0.628909  0.806477  0.000000  1
  Co  Co10  1  0.177966  0.371981  0.000000  1
  Co  Co11  1  0.519528  0.871576  0.500000  1
  Co  Co12  1  0.354785  0.483490  0.500000  1
  Co  Co13  1  0.718413  0.721195  0.500000  1
  Co  Co14  1  0.280224  0.998817  0.500000  1
  Co  Co15  1  0.001664  0.280294  0.500000  1
  Co  Co16  1  0.000038  0.999623  0.000000  1
  P  P17  1  0.360124  0.365449  0.000000  1
  P  P18  1  0.636275  0.995560  0.000000  1
  P  P19  1  0.000539  0.637119  0.000000  1
  P  P20  1  0.841356  0.313187  0.500000  1
  P  P21  1  0.683657  0.527682  0.500000  1
  P  P22  1  0.472425  0.158757  0.500000  1
  P  P23  1  0.318722  0.841835  0.500000  1
  P  P24  1  0.525370  0.687462  0.500000  1
  P  P25  1  0.163519  0.472906  0.500000  1
  P  P26  1  0.821032  0.822719  0.000000  1
  P  P27  1  0.178031  0.999737  0.000000  1
  P  P28  1  0.002009  0.178975  0.000000  1
  Ru  Ru29  1  0.548714  0.557496  0.000000  1
  Ru  Ru30  1  0.443611  0.992147  0.000000  1
  Ru  Ru31  1  0.001151  0.444794  0.000000  1
  Ru  Ru32  1  0.645128  0.120888  0.500000  1
  Ru  Ru33  1  0.872839  0.520652  0.500000  1
  Ru  Ru34  1  0.475184  0.354686  0.500000  1
  Ru  Ru35  1  0.129977  0.647073  0.500000  1
