# generated using pymatgen
data_TbZr2Fe8Co
_symmetry_space_group_name_H-M   'P 1'
_cell_length_a   8.51889330
_cell_length_b   8.51889387
_cell_length_c   8.51889288
_cell_angle_alpha   34.06793252
_cell_angle_beta   34.06792572
_cell_angle_gamma   34.06792680
_symmetry_Int_Tables_number   1
_chemical_formula_structural   TbZr2Fe8Co
_chemical_formula_sum   'Tb1 Zr2 Fe8 Co1'
_cell_volume   172.94489387
_cell_formula_units_Z   1
loop_
 _symmetry_equiv_pos_site_id
 _symmetry_equiv_pos_as_xyz
  1  'x, y, z'
loop_
 _atom_site_type_symbol
 _atom_site_label
 _atom_site_symmetry_multiplicity
 _atom_site_fract_x
 _atom_site_fract_y
 _atom_site_fract_z
 _atom_site_occupancy
  Tb  Tb0  1  0.999915  0.999915  0.999915  1
  Zr  Zr1  1  0.142776  0.142776  0.142776  1
  Zr  Zr2  1  0.857209  0.857209  0.857209  1
  Fe  Fe3  1  0.499738  0.499738  0.499738  1
  Fe  Fe4  1  0.667119  0.667119  0.667119  1
  Fe  Fe5  1  0.081493  0.585493  0.585493  1
  Fe  Fe6  1  0.585493  0.585493  0.081493  1
  Fe  Fe7  1  0.585493  0.081493  0.585493  1
  Fe  Fe8  1  0.414951  0.917841  0.414951  1
  Fe  Fe9  1  0.917841  0.414951  0.414951  1
  Fe  Fe10  1  0.414951  0.414951  0.917841  1
  Co  Co11  1  0.333022  0.333022  0.333022  1
