# generated using pymatgen
data_Tb3TmGa4(CuRu)2
_symmetry_space_group_name_H-M   'P 1'
_cell_length_a   4.48736200
_cell_length_b   7.13483978
_cell_length_c   7.18599802
_cell_angle_alpha   89.31392826
_cell_angle_beta   90.00000000
_cell_angle_gamma   90.00000000
_symmetry_Int_Tables_number   1
_chemical_formula_structural   Tb3TmGa4(CuRu)2
_chemical_formula_sum   'Tb3 Tm1 Ga4 Cu2 Ru2'
_cell_volume   230.05479456
_cell_formula_units_Z   1
loop_
 _symmetry_equiv_pos_site_id
 _symmetry_equiv_pos_as_xyz
  1  'x, y, z'
loop_
 _atom_site_type_symbol
 _atom_site_label
 _atom_site_symmetry_multiplicity
 _atom_site_fract_x
 _atom_site_fract_y
 _atom_site_fract_z
 _atom_site_occupancy
  Tb  Tb0  1  0.250000  0.980301  0.802304  1
  Tb  Tb1  1  0.750000  0.020694  0.198847  1
  Tb  Tb2  1  0.250000  0.486476  0.698259  1
  Tm  Tm3  1  0.750000  0.516115  0.294551  1
  Ga  Ga4  1  0.250000  0.294745  0.094696  1
  Ga  Ga5  1  0.750000  0.705390  0.908118  1
  Ga  Ga6  1  0.250000  0.801819  0.393542  1
  Ga  Ga7  1  0.750000  0.199083  0.605617  1
  Cu  Cu8  1  0.750000  0.824709  0.573686  1
  Cu  Cu9  1  0.250000  0.172845  0.426181  1
  Ru  Ru10  1  0.750000  0.342925  0.931951  1
  Ru  Ru11  1  0.250000  0.654894  0.072247  1
