# generated using pymatgen
data_CeTm3(MgIr)4
_symmetry_space_group_name_H-M   'P 1'
_cell_length_a   7.02458990
_cell_length_b   4.05914400
_cell_length_c   8.59781159
_cell_angle_alpha   90.00000000
_cell_angle_beta   90.38887732
_cell_angle_gamma   90.00000000
_symmetry_Int_Tables_number   1
_chemical_formula_structural   CeTm3(MgIr)4
_chemical_formula_sum   'Ce1 Tm3 Mg4 Ir4'
_cell_volume   245.15082204
_cell_formula_units_Z   1
loop_
 _symmetry_equiv_pos_site_id
 _symmetry_equiv_pos_as_xyz
  1  'x, y, z'
loop_
 _atom_site_type_symbol
 _atom_site_label
 _atom_site_symmetry_multiplicity
 _atom_site_fract_x
 _atom_site_fract_y
 _atom_site_fract_z
 _atom_site_occupancy
  Ce  Ce0  1  0.536330  0.750000  0.678788  1
  Tm  Tm1  1  0.957778  0.250000  0.174626  1
  Tm  Tm2  1  0.460236  0.250000  0.321141  1
  Tm  Tm3  1  0.039368  0.750000  0.830242  1
  Mg  Mg4  1  0.869399  0.250000  0.556506  1
  Mg  Mg5  1  0.361462  0.250000  0.946183  1
  Mg  Mg6  1  0.136574  0.750000  0.437785  1
  Mg  Mg7  1  0.635121  0.750000  0.060052  1
  Ir  Ir8  1  0.751254  0.250000  0.862927  1
  Ir  Ir9  1  0.258125  0.250000  0.631460  1
  Ir  Ir10  1  0.245539  0.750000  0.131299  1
  Ir  Ir11  1  0.748816  0.750000  0.368991  1
