# generated using pymatgen
data_La4FeRu3F28
_symmetry_space_group_name_H-M   'P 1'
_cell_length_a   5.78713373
_cell_length_b   9.31704547
_cell_length_c   12.42073382
_cell_angle_alpha   62.78318417
_cell_angle_beta   89.86110194
_cell_angle_gamma   90.32840079
_symmetry_Int_Tables_number   1
_chemical_formula_structural   La4FeRu3F28
_chemical_formula_sum   'La4 Fe1 Ru3 F28'
_cell_volume   595.54482261
_cell_formula_units_Z   1
loop_
 _symmetry_equiv_pos_site_id
 _symmetry_equiv_pos_as_xyz
  1  'x, y, z'
loop_
 _atom_site_type_symbol
 _atom_site_label
 _atom_site_symmetry_multiplicity
 _atom_site_fract_x
 _atom_site_fract_y
 _atom_site_fract_z
 _atom_site_occupancy
  La  La0  1  0.757076  0.802888  0.280657  1
  La  La1  1  0.257589  0.174175  0.244020  1
  La  La2  1  0.239510  0.204720  0.726473  1
  La  La3  1  0.740648  0.809866  0.759437  1
  Fe  Fe4  1  0.244474  0.725333  0.544691  1
  Ru  Ru5  1  0.743440  0.270537  0.960466  1
  Ru  Ru6  1  0.754287  0.275842  0.452594  1
  Ru  Ru7  1  0.253676  0.723137  0.046235  1
  F  F8  1  0.972733  0.710232  0.455350  1
  F  F9  1  0.465341  0.282853  0.045135  1
  F  F10  1  0.038352  0.285833  0.533464  1
  F  F11  1  0.526517  0.712864  0.957551  1
  F  F12  1  0.054172  0.705634  0.927849  1
  F  F13  1  0.568817  0.297190  0.574964  1
  F  F14  1  0.938895  0.289167  0.080010  1
  F  F15  1  0.452901  0.712510  0.424531  1
  F  F16  1  0.740023  0.500244  0.868739  1
  F  F17  1  0.234306  0.488540  0.638764  1
  F  F18  1  0.260913  0.493228  0.137850  1
  F  F19  1  0.763140  0.504576  0.358930  1
  F  F20  1  0.737116  0.042094  0.047897  1
  F  F21  1  0.234385  0.962146  0.443496  1
  F  F22  1  0.253953  0.951717  0.957507  1
  F  F23  1  0.752475  0.047608  0.539676  1
  F  F24  1  0.040720  0.750051  0.662615  1
  F  F25  1  0.550965  0.253262  0.837668  1
  F  F26  1  0.938871  0.260885  0.326376  1
  F  F27  1  0.453633  0.740715  0.165794  1
  F  F28  1  0.018379  0.262035  0.872716  1
  F  F29  1  0.506836  0.737206  0.639531  1
  F  F30  1  0.983226  0.728253  0.137204  1
  F  F31  1  0.473975  0.273554  0.367036  1
  F  F32  1  0.089808  0.967560  0.222382  1
  F  F33  1  0.603182  0.037926  0.268052  1
  F  F34  1  0.925783  0.031857  0.761629  1
  F  F35  1  0.429883  0.983761  0.732710  1
