# generated using pymatgen
data_Nd(CuPd)6
_symmetry_space_group_name_H-M   'P 1'
_cell_length_a   6.70800706
_cell_length_b   6.70800742
_cell_length_c   6.70800731
_cell_angle_alpha   136.32545922
_cell_angle_beta   97.00565916
_cell_angle_gamma   98.90279160
_symmetry_Int_Tables_number   1
_chemical_formula_structural   Nd(CuPd)6
_chemical_formula_sum   'Nd1 Cu6 Pd6'
_cell_volume   193.44888375
_cell_formula_units_Z   1
loop_
 _symmetry_equiv_pos_site_id
 _symmetry_equiv_pos_as_xyz
  1  'x, y, z'
loop_
 _atom_site_type_symbol
 _atom_site_label
 _atom_site_symmetry_multiplicity
 _atom_site_fract_x
 _atom_site_fract_y
 _atom_site_fract_z
 _atom_site_occupancy
  Nd  Nd0  1  0.000000  0.000000  0.000000  1
  Cu  Cu1  1  0.000000  0.000000  0.500000  1
  Cu  Cu2  1  0.000000  0.500000  0.000000  1
  Cu  Cu3  1  0.500000  0.500000  0.500000  1
  Cu  Cu4  1  0.500000  0.000000  0.000000  1
  Cu  Cu5  1  0.235800  0.500000  0.735800  1
  Cu  Cu6  1  0.764200  0.500000  0.264200  1
  Pd  Pd7  1  0.651794  0.000000  0.651794  1
  Pd  Pd8  1  0.348206  0.000000  0.348206  1
  Pd  Pd9  1  0.654604  0.654604  0.000000  1
  Pd  Pd10  1  0.345396  0.345396  0.000000  1
  Pd  Pd11  1  0.196178  0.696178  0.500000  1
  Pd  Pd12  1  0.803822  0.303822  0.500000  1
