# generated using pymatgen
data_RbSm6(CBr6)2
_symmetry_space_group_name_H-M   'P 1'
_cell_length_a   9.09806770
_cell_length_b   9.07038509
_cell_length_c   9.61129446
_cell_angle_alpha   71.72896955
_cell_angle_beta   70.45727455
_cell_angle_gamma   72.43645684
_symmetry_Int_Tables_number   1
_chemical_formula_structural   RbSm6(CBr6)2
_chemical_formula_sum   'Rb1 Sm6 C2 Br12'
_cell_volume   692.38443859
_cell_formula_units_Z   1
loop_
 _symmetry_equiv_pos_site_id
 _symmetry_equiv_pos_as_xyz
  1  'x, y, z'
loop_
 _atom_site_type_symbol
 _atom_site_label
 _atom_site_symmetry_multiplicity
 _atom_site_fract_x
 _atom_site_fract_y
 _atom_site_fract_z
 _atom_site_occupancy
  Rb  Rb0  1  0.000000  0.500001  0.000000  1
  Sm  Sm1  1  0.476647  0.116571  0.181882  1
  Sm  Sm2  1  0.780855  0.032357  0.405822  1
  Sm  Sm3  1  0.594588  0.721876  0.475994  1
  Sm  Sm4  1  0.405413  0.278124  0.524007  1
  Sm  Sm5  1  0.219145  0.967643  0.594177  1
  Sm  Sm6  1  0.523353  0.883429  0.818118  1
  C  C7  1  0.493810  0.025992  0.424206  1
  C  C8  1  0.506191  0.974007  0.575795  1
  Br  Br9  1  0.799832  0.160616  0.082442  1
  Br  Br10  1  0.587468  0.783901  0.142693  1
  Br  Br11  1  0.350712  0.433542  0.223682  1
  Br  Br12  1  0.137379  0.070891  0.295645  1
  Br  Br13  1  0.924504  0.721023  0.354448  1
  Br  Br14  1  0.714541  0.365350  0.429709  1
  Br  Br15  1  0.285460  0.634650  0.570291  1
  Br  Br16  1  0.075496  0.278977  0.645552  1
  Br  Br17  1  0.862622  0.929108  0.704355  1
  Br  Br18  1  0.649289  0.566459  0.776319  1
  Br  Br19  1  0.412532  0.216097  0.857306  1
  Br  Br20  1  0.200168  0.839383  0.917559  1
