# generated using pymatgen
data_DyTm3SiBr6
_symmetry_space_group_name_H-M   'P 1'
_cell_length_a   4.01442600
_cell_length_b   13.13818324
_cell_length_c   13.88385900
_cell_angle_alpha   90.37299109
_cell_angle_beta   90.00000000
_cell_angle_gamma   90.00000000
_symmetry_Int_Tables_number   1
_chemical_formula_structural   DyTm3SiBr6
_chemical_formula_sum   'Dy2 Tm6 Si2 Br12'
_cell_volume   732.25064591
_cell_formula_units_Z   2
loop_
 _symmetry_equiv_pos_site_id
 _symmetry_equiv_pos_as_xyz
  1  'x, y, z'
loop_
 _atom_site_type_symbol
 _atom_site_label
 _atom_site_symmetry_multiplicity
 _atom_site_fract_x
 _atom_site_fract_y
 _atom_site_fract_z
 _atom_site_occupancy
  Dy  Dy0  1  0.000000  0.618773  0.920904  1
  Dy  Dy1  1  0.000000  0.381227  0.079096  1
  Tm  Tm2  1  0.500000  0.117112  0.342616  1
  Tm  Tm3  1  0.500000  0.882888  0.657384  1
  Tm  Tm4  1  0.500000  0.618049  0.158466  1
  Tm  Tm5  1  0.500000  0.381951  0.841534  1
  Tm  Tm6  1  0.000000  0.116447  0.577718  1
  Tm  Tm7  1  0.000000  0.883553  0.422282  1
  Si  Si8  1  0.500000  0.000000  0.500000  1
  Si  Si9  1  0.500000  0.500000  0.000000  1
  Br  Br10  1  0.500000  0.241085  0.166230  1
  Br  Br11  1  0.500000  0.758915  0.833770  1
  Br  Br12  1  0.500000  0.747287  0.337042  1
  Br  Br13  1  0.500000  0.252713  0.662958  1
  Br  Br14  1  0.000000  0.253904  0.412232  1
  Br  Br15  1  0.000000  0.746096  0.587768  1
  Br  Br16  1  0.000000  0.755528  0.092484  1
  Br  Br17  1  0.000000  0.244472  0.907516  1
  Br  Br18  1  0.000000  0.001742  0.244429  1
  Br  Br19  1  0.000000  0.998258  0.755571  1
  Br  Br20  1  0.000000  0.506145  0.258816  1
  Br  Br21  1  0.000000  0.493855  0.741184  1
