# generated using pymatgen
data_Nd2Zn2IrRh
_symmetry_space_group_name_H-M   'P 1'
_cell_length_a   4.04679900
_cell_length_b   7.31039015
_cell_length_c   16.57345785
_cell_angle_alpha   90.08776037
_cell_angle_beta   90.00000000
_cell_angle_gamma   90.00000000
_symmetry_Int_Tables_number   1
_chemical_formula_structural   Nd2Zn2IrRh
_chemical_formula_sum   'Nd8 Zn8 Ir4 Rh4'
_cell_volume   490.30329079
_cell_formula_units_Z   4
loop_
 _symmetry_equiv_pos_site_id
 _symmetry_equiv_pos_as_xyz
  1  'x, y, z'
loop_
 _atom_site_type_symbol
 _atom_site_label
 _atom_site_symmetry_multiplicity
 _atom_site_fract_x
 _atom_site_fract_y
 _atom_site_fract_z
 _atom_site_occupancy
  Nd  Nd0  1  0.250000  0.166614  0.939300  1
  Nd  Nd1  1  0.250000  0.666898  0.560350  1
  Nd  Nd2  1  0.750000  0.334280  0.439316  1
  Nd  Nd3  1  0.750000  0.953626  0.283863  1
  Nd  Nd4  1  0.750000  0.832870  0.060260  1
  Nd  Nd5  1  0.750000  0.451637  0.216934  1
  Nd  Nd6  1  0.250000  0.047125  0.716378  1
  Nd  Nd7  1  0.250000  0.546971  0.783430  1
  Zn  Zn8  1  0.750000  0.000911  0.560513  1
  Zn  Zn9  1  0.250000  0.623504  0.349495  1
  Zn  Zn10  1  0.750000  0.375774  0.651092  1
  Zn  Zn11  1  0.250000  0.498323  0.060554  1
  Zn  Zn12  1  0.750000  0.501197  0.939278  1
  Zn  Zn13  1  0.250000  0.998380  0.439517  1
  Zn  Zn14  1  0.250000  0.124770  0.151043  1
  Zn  Zn15  1  0.750000  0.876177  0.848925  1
  Ir  Ir16  1  0.750000  0.756435  0.435053  1
  Ir  Ir17  1  0.250000  0.245355  0.312836  1
  Ir  Ir18  1  0.750000  0.254306  0.813801  1
  Ir  Ir19  1  0.750000  0.754444  0.686922  1
  Rh  Rh20  1  0.250000  0.243392  0.564668  1
  Rh  Rh21  1  0.250000  0.746104  0.185811  1
  Rh  Rh22  1  0.750000  0.256135  0.064738  1
  Rh  Rh23  1  0.250000  0.744769  0.935924  1
