# generated using pymatgen
data_K5Rb12Al2TlBi8
_symmetry_space_group_name_H-M   'P 1'
_cell_length_a   11.09163005
_cell_length_b   11.07738537
_cell_length_c   11.59049000
_cell_angle_alpha   90.00000000
_cell_angle_beta   90.00000000
_cell_angle_gamma   119.95747237
_symmetry_Int_Tables_number   1
_chemical_formula_structural   K5Rb12Al2TlBi8
_chemical_formula_sum   'K5 Rb12 Al2 Tl1 Bi8'
_cell_volume   1233.81776837
_cell_formula_units_Z   1
loop_
 _symmetry_equiv_pos_site_id
 _symmetry_equiv_pos_as_xyz
  1  'x, y, z'
loop_
 _atom_site_type_symbol
 _atom_site_label
 _atom_site_symmetry_multiplicity
 _atom_site_fract_x
 _atom_site_fract_y
 _atom_site_fract_z
 _atom_site_occupancy
  K  K0  1  0.888331  0.120514  0.750000  1
  K  K1  1  0.761337  0.880669  0.250000  1
  K  K2  1  0.120440  0.239270  0.250000  1
  K  K3  1  0.120443  0.881170  0.250000  1
  K  K4  1  0.888334  0.767820  0.750000  1
  Rb  Rb5  1  0.209366  0.796990  0.954056  1
  Rb  Rb6  1  0.209367  0.412375  0.954055  1
  Rb  Rb7  1  0.581691  0.790844  0.958636  1
  Rb  Rb8  1  0.412674  0.206338  0.465938  1
  Rb  Rb9  1  0.790905  0.581930  0.042448  1
  Rb  Rb10  1  0.790906  0.208977  0.457553  1
  Rb  Rb11  1  0.790905  0.581930  0.457552  1
  Rb  Rb12  1  0.209366  0.796990  0.545944  1
  Rb  Rb13  1  0.581691  0.790844  0.541364  1
  Rb  Rb14  1  0.412674  0.206338  0.034062  1
  Rb  Rb15  1  0.790906  0.208977  0.042447  1
  Rb  Rb16  1  0.209367  0.412375  0.545945  1
  Al  Al17  1  0.332617  0.666308  0.250000  1
  Al  Al18  1  0.669170  0.334586  0.750000  1
  Tl  Tl19  1  0.233787  0.116893  0.750000  1
  Bi  Bi20  1  0.001200  0.000600  0.998537  1
  Bi  Bi21  1  0.043732  0.521866  0.250000  1
  Bi  Bi22  1  0.478021  0.955731  0.250000  1
  Bi  Bi23  1  0.518814  0.046522  0.750000  1
  Bi  Bi24  1  0.518814  0.472291  0.750000  1
  Bi  Bi25  1  0.001200  0.000600  0.501463  1
  Bi  Bi26  1  0.478021  0.522291  0.250000  1
  Bi  Bi27  1  0.955918  0.477959  0.750000  1
