# generated using pymatgen
data_Er5Hf8Al9(CoIr3)2
_symmetry_space_group_name_H-M   'P 1'
_cell_length_a   9.19753263
_cell_length_b   9.19508952
_cell_length_c   9.19753247
_cell_angle_alpha   60.04272097
_cell_angle_beta   59.89152715
_cell_angle_gamma   60.04272300
_symmetry_Int_Tables_number   1
_chemical_formula_structural   Er5Hf8Al9(CoIr3)2
_chemical_formula_sum   'Er5 Hf8 Al9 Co2 Ir6'
_cell_volume   549.92823853
_cell_formula_units_Z   1
loop_
 _symmetry_equiv_pos_site_id
 _symmetry_equiv_pos_as_xyz
  1  'x, y, z'
loop_
 _atom_site_type_symbol
 _atom_site_label
 _atom_site_symmetry_multiplicity
 _atom_site_fract_x
 _atom_site_fract_y
 _atom_site_fract_z
 _atom_site_occupancy
  Er  Er0  1  0.204100  0.203670  0.798942  1
  Er  Er1  1  0.798942  0.203670  0.204100  1
  Er  Er2  1  0.201108  0.799807  0.201108  1
  Er  Er3  1  0.804008  0.804006  0.181366  1
  Er  Er4  1  0.181366  0.804006  0.804008  1
  Hf  Hf5  1  0.802930  0.177641  0.802930  1
  Hf  Hf6  1  0.381228  0.381194  0.381228  1
  Hf  Hf7  1  0.383094  0.856659  0.383094  1
  Hf  Hf8  1  0.854481  0.382498  0.386162  1
  Hf  Hf9  1  0.386162  0.382498  0.854481  1
  Hf  Hf10  1  0.835498  0.488860  0.835498  1
  Hf  Hf11  1  0.496358  0.834522  0.834084  1
  Hf  Hf12  1  0.834084  0.834522  0.496358  1
  Al  Al13  1  0.170771  0.169286  0.170771  1
  Al  Al14  1  0.169105  0.493229  0.169105  1
  Al  Al15  1  0.504256  0.167288  0.164056  1
  Al  Al16  1  0.164056  0.167288  0.504256  1
  Al  Al17  1  0.616656  0.612864  0.616656  1
  Al  Al18  1  0.618029  0.152299  0.618029  1
  Al  Al19  1  0.151662  0.616429  0.617343  1
  Al  Al20  1  0.617343  0.616429  0.151662  1
  Al  Al21  1  0.827218  0.826481  0.827218  1
  Co  Co22  1  0.500079  0.501230  0.500079  1
  Co  Co23  1  0.993439  0.016198  0.993439  1
  Ir  Ir24  1  0.001161  0.006149  0.499825  1
  Ir  Ir25  1  0.499825  0.006149  0.001161  1
  Ir  Ir26  1  0.004416  0.495207  0.004416  1
  Ir  Ir27  1  0.497670  0.497201  0.003855  1
  Ir  Ir28  1  0.003855  0.497201  0.497670  1
  Ir  Ir29  1  0.497096  0.005520  0.497096  1
