# generated using pymatgen
data_Pa4Sn2PdRh3
_symmetry_space_group_name_H-M   'P 1'
_cell_length_a   7.73279600
_cell_length_b   7.73279623
_cell_length_c   3.62650000
_cell_angle_alpha   90.00000000
_cell_angle_beta   90.00000000
_cell_angle_gamma   90.05817174
_symmetry_Int_Tables_number   1
_chemical_formula_structural   Pa4Sn2PdRh3
_chemical_formula_sum   'Pa4 Sn2 Pd1 Rh3'
_cell_volume   216.85057474
_cell_formula_units_Z   1
loop_
 _symmetry_equiv_pos_site_id
 _symmetry_equiv_pos_as_xyz
  1  'x, y, z'
loop_
 _atom_site_type_symbol
 _atom_site_label
 _atom_site_symmetry_multiplicity
 _atom_site_fract_x
 _atom_site_fract_y
 _atom_site_fract_z
 _atom_site_occupancy
  Pa  Pa0  1  0.679864  0.172636  0.500000  1
  Pa  Pa1  1  0.327364  0.820136  0.500000  1
  Pa  Pa2  1  0.166386  0.333614  0.500000  1
  Pa  Pa3  1  0.823982  0.676018  0.500000  1
  Sn  Sn4  1  0.000703  0.999349  0.000000  1
  Sn  Sn5  1  0.500651  0.499297  0.000000  1
  Pd  Pd6  1  0.370362  0.129638  0.000000  1
  Rh  Rh7  1  0.132218  0.631838  0.000000  1
  Rh  Rh8  1  0.868162  0.367782  0.000000  1
  Rh  Rh9  1  0.630308  0.869692  0.000000  1
