# generated using pymatgen
data_Pr8Si12OsAu3
_symmetry_space_group_name_H-M   'P 1'
_cell_length_a   8.32164200
_cell_length_b   8.32164218
_cell_length_c   8.69818100
_cell_angle_alpha   90.00000000
_cell_angle_beta   90.00000000
_cell_angle_gamma   120.00000725
_symmetry_Int_Tables_number   1
_chemical_formula_structural   Pr8Si12OsAu3
_chemical_formula_sum   'Pr8 Si12 Os1 Au3'
_cell_volume   521.64747140
_cell_formula_units_Z   1
loop_
 _symmetry_equiv_pos_site_id
 _symmetry_equiv_pos_as_xyz
  1  'x, y, z'
loop_
 _atom_site_type_symbol
 _atom_site_label
 _atom_site_symmetry_multiplicity
 _atom_site_fract_x
 _atom_site_fract_y
 _atom_site_fract_z
 _atom_site_occupancy
  Pr  Pr0  1  0.503090  0.496910  0.743694  1
  Pr  Pr1  1  0.503454  0.496546  0.256268  1
  Pr  Pr2  1  0.993819  0.496910  0.743694  1
  Pr  Pr3  1  0.993092  0.496546  0.256268  1
  Pr  Pr4  1  0.503090  0.006181  0.743694  1
  Pr  Pr5  1  0.503454  0.006908  0.256268  1
  Pr  Pr6  1  0.000000  0.000000  0.749985  1
  Pr  Pr7  1  0.000000  0.000000  0.250117  1
  Si  Si8  1  0.836815  0.163185  0.000857  1
  Si  Si9  1  0.163505  0.836495  0.999200  1
  Si  Si10  1  0.326369  0.163185  0.000857  1
  Si  Si11  1  0.161293  0.838707  0.499710  1
  Si  Si12  1  0.672991  0.836495  0.999200  1
  Si  Si13  1  0.831126  0.168874  0.500376  1
  Si  Si14  1  0.836815  0.673631  0.000857  1
  Si  Si15  1  0.677415  0.838707  0.499710  1
  Si  Si16  1  0.163505  0.327009  0.999200  1
  Si  Si17  1  0.337748  0.168874  0.500376  1
  Si  Si18  1  0.161293  0.322585  0.499710  1
  Si  Si19  1  0.831126  0.662252  0.500376  1
  Os  Os20  1  0.666667  0.333333  0.500416  1
  Au  Au21  1  0.666667  0.333333  0.998844  1
  Au  Au22  1  0.333333  0.666667  0.000821  1
  Au  Au23  1  0.333333  0.666667  0.499499  1
