# generated using pymatgen
data_Y12Th4Mg3HgIr4
_symmetry_space_group_name_H-M   'P 1'
_cell_length_a   9.80261518
_cell_length_b   9.80261597
_cell_length_c   9.80261622
_cell_angle_alpha   59.98013469
_cell_angle_beta   59.98013157
_cell_angle_gamma   59.98013500
_symmetry_Int_Tables_number   1
_chemical_formula_structural   Y12Th4Mg3HgIr4
_chemical_formula_sum   'Y12 Th4 Mg3 Hg1 Ir4'
_cell_volume   665.75626678
_cell_formula_units_Z   1
loop_
 _symmetry_equiv_pos_site_id
 _symmetry_equiv_pos_as_xyz
  1  'x, y, z'
loop_
 _atom_site_type_symbol
 _atom_site_label
 _atom_site_symmetry_multiplicity
 _atom_site_fract_x
 _atom_site_fract_y
 _atom_site_fract_z
 _atom_site_occupancy
  Y  Y0  1  0.062170  0.437880  0.437880  1
  Y  Y1  1  0.436297  0.062778  0.062778  1
  Y  Y2  1  0.437880  0.062170  0.437880  1
  Y  Y3  1  0.062778  0.436297  0.062778  1
  Y  Y4  1  0.437880  0.437880  0.062170  1
  Y  Y5  1  0.062778  0.062778  0.436297  1
  Y  Y6  1  0.185224  0.814118  0.814118  1
  Y  Y7  1  0.813498  0.186018  0.186018  1
  Y  Y8  1  0.814118  0.185224  0.814118  1
  Y  Y9  1  0.186018  0.813498  0.186018  1
  Y  Y10  1  0.814118  0.814118  0.185224  1
  Y  Y11  1  0.186018  0.186018  0.813498  1
  Th  Th12  1  0.597301  0.597301  0.597301  1
  Th  Th13  1  0.599854  0.599854  0.202337  1
  Th  Th14  1  0.599854  0.202337  0.599854  1
  Th  Th15  1  0.202337  0.599854  0.599854  1
  Mg  Mg16  1  0.829311  0.829311  0.511996  1
  Mg  Mg17  1  0.829311  0.511996  0.829311  1
  Mg  Mg18  1  0.511996  0.829311  0.829311  1
  Hg  Hg19  1  0.833825  0.833825  0.833825  1
  Ir  Ir20  1  0.393730  0.393730  0.393730  1
  Ir  Ir21  1  0.392843  0.392843  0.818018  1
  Ir  Ir22  1  0.392843  0.818018  0.392843  1
  Ir  Ir23  1  0.818018  0.392843  0.392843  1
