# generated using pymatgen
data_PrTi2(GaPt)2
_symmetry_space_group_name_H-M   'P 1'
_cell_length_a   5.59741629
_cell_length_b   5.59741645
_cell_length_c   5.59741782
_cell_angle_alpha   100.24174849
_cell_angle_beta   103.23184034
_cell_angle_gamma   126.39199398
_symmetry_Int_Tables_number   1
_chemical_formula_structural   PrTi2(GaPt)2
_chemical_formula_sum   'Pr1 Ti2 Ga2 Pt2'
_cell_volume   125.93820763
_cell_formula_units_Z   1
loop_
 _symmetry_equiv_pos_site_id
 _symmetry_equiv_pos_as_xyz
  1  'x, y, z'
loop_
 _atom_site_type_symbol
 _atom_site_label
 _atom_site_symmetry_multiplicity
 _atom_site_fract_x
 _atom_site_fract_y
 _atom_site_fract_z
 _atom_site_occupancy
  Pr  Pr0  1  0.000215  0.000000  0.000215  1
  Ti  Ti1  1  0.248103  0.749591  0.498512  1
  Ti  Ti2  1  0.748921  0.250409  0.498512  1
  Ga  Ga3  1  0.307215  0.299964  0.607177  1
  Ga  Ga4  1  0.307215  0.700036  0.007252  1
  Pt  Pt5  1  0.694166  0.298577  0.992743  1
  Pt  Pt6  1  0.694166  0.701423  0.395589  1
