# generated using pymatgen
data_SrLa2Nd(Ir2O7)2
_symmetry_space_group_name_H-M   'P 1'
_cell_length_a   7.46195948
_cell_length_b   7.42653032
_cell_length_c   7.47265900
_cell_angle_alpha   59.79432150
_cell_angle_beta   59.95256089
_cell_angle_gamma   59.82868825
_symmetry_Int_Tables_number   1
_chemical_formula_structural   SrLa2Nd(Ir2O7)2
_chemical_formula_sum   'Sr1 La2 Nd1 Ir4 O14'
_cell_volume   291.87751350
_cell_formula_units_Z   1
loop_
 _symmetry_equiv_pos_site_id
 _symmetry_equiv_pos_as_xyz
  1  'x, y, z'
loop_
 _atom_site_type_symbol
 _atom_site_label
 _atom_site_symmetry_multiplicity
 _atom_site_fract_x
 _atom_site_fract_y
 _atom_site_fract_z
 _atom_site_occupancy
  Sr  Sr0  1  0.125000  0.625000  0.125000  1
  La  La1  1  0.125000  0.125000  0.625000  1
  La  La2  1  0.125000  0.125000  0.125000  1
  Nd  Nd3  1  0.625000  0.125000  0.125000  1
  Ir  Ir4  1  0.125000  0.625000  0.625000  1
  Ir  Ir5  1  0.625000  0.125000  0.625000  1
  Ir  Ir6  1  0.625000  0.625000  0.125000  1
  Ir  Ir7  1  0.625000  0.625000  0.625000  1
  O  O8  1  0.693358  0.709455  0.298593  1
  O  O9  1  0.298504  0.296259  0.702618  1
  O  O10  1  0.699839  0.295198  0.708024  1
  O  O11  1  0.300504  0.703498  0.299879  1
  O  O12  1  0.300504  0.703498  0.696118  1
  O  O13  1  0.699839  0.295198  0.296939  1
  O  O14  1  0.556642  0.540545  0.951407  1
  O  O15  1  0.951496  0.953741  0.547382  1
  O  O16  1  0.550161  0.954802  0.541976  1
  O  O17  1  0.949496  0.546502  0.950121  1
  O  O18  1  0.949496  0.546502  0.553882  1
  O  O19  1  0.550161  0.954802  0.953061  1
  O  O20  1  0.254576  0.238373  0.253525  1
  O  O21  1  0.995424  0.011627  0.996475  1
