# generated using pymatgen
data_Dy4Y4Re3B24Os
_symmetry_space_group_name_H-M   'P 1'
_cell_length_a   3.68063600
_cell_length_b   9.18001157
_cell_length_c   11.56865704
_cell_angle_alpha   90.06892502
_cell_angle_beta   90.00000000
_cell_angle_gamma   90.00000000
_symmetry_Int_Tables_number   1
_chemical_formula_structural   Dy4Y4Re3B24Os
_chemical_formula_sum   'Dy4 Y4 Re3 B24 Os1'
_cell_volume   390.88475253
_cell_formula_units_Z   1
loop_
 _symmetry_equiv_pos_site_id
 _symmetry_equiv_pos_as_xyz
  1  'x, y, z'
loop_
 _atom_site_type_symbol
 _atom_site_label
 _atom_site_symmetry_multiplicity
 _atom_site_fract_x
 _atom_site_fract_y
 _atom_site_fract_z
 _atom_site_occupancy
  Dy  Dy0  1  0.000000  0.942633  0.369881  1
  Dy  Dy1  1  0.000000  0.056513  0.629486  1
  Dy  Dy2  1  0.000000  0.442750  0.129954  1
  Dy  Dy3  1  0.000000  0.556913  0.870742  1
  Y  Y4  1  0.000000  0.322079  0.414252  1
  Y  Y5  1  0.000000  0.677302  0.587582  1
  Y  Y6  1  0.000000  0.824673  0.084393  1
  Y  Y7  1  0.000000  0.176446  0.913572  1
  Re  Re8  1  0.000000  0.361977  0.678153  1
  Re  Re9  1  0.000000  0.138545  0.179614  1
  Re  Re10  1  0.000000  0.861514  0.820820  1
  B  B11  1  0.500000  0.553945  0.432636  1
  B  B12  1  0.500000  0.446845  0.567012  1
  B  B13  1  0.500000  0.053329  0.067016  1
  B  B14  1  0.500000  0.946792  0.932796  1
  B  B15  1  0.500000  0.748374  0.418283  1
  B  B16  1  0.500000  0.250886  0.581392  1
  B  B17  1  0.500000  0.248962  0.081470  1
  B  B18  1  0.500000  0.751441  0.918619  1
  B  B19  1  0.500000  0.790807  0.265827  1
  B  B20  1  0.500000  0.208249  0.734017  1
  B  B21  1  0.500000  0.291570  0.234561  1
  B  B22  1  0.500000  0.708136  0.766076  1
  B  B23  1  0.500000  0.631483  0.186191  1
  B  B24  1  0.500000  0.369175  0.813717  1
  B  B25  1  0.500000  0.131242  0.314490  1
  B  B26  1  0.500000  0.868656  0.685976  1
  B  B27  1  0.500000  0.983021  0.211963  1
  B  B28  1  0.500000  0.017161  0.787694  1
  B  B29  1  0.500000  0.483766  0.288083  1
  B  B30  1  0.500000  0.517572  0.712084  1
  B  B31  1  0.500000  0.602092  0.028903  1
  B  B32  1  0.500000  0.398173  0.971857  1
  B  B33  1  0.500000  0.101217  0.471389  1
  B  B34  1  0.500000  0.897435  0.528281  1
  Os  Os35  1  0.000000  0.638325  0.321216  1
