# generated using pymatgen
data_TbTh2(MgAu)3
_symmetry_space_group_name_H-M   'P 1'
_cell_length_a   7.72677847
_cell_length_b   7.72677859
_cell_length_c   4.18421700
_cell_angle_alpha   90.00000000
_cell_angle_beta   90.00000000
_cell_angle_gamma   120.18863561
_symmetry_Int_Tables_number   1
_chemical_formula_structural   TbTh2(MgAu)3
_chemical_formula_sum   'Tb1 Th2 Mg3 Au3'
_cell_volume   215.93005880
_cell_formula_units_Z   1
loop_
 _symmetry_equiv_pos_site_id
 _symmetry_equiv_pos_as_xyz
  1  'x, y, z'
loop_
 _atom_site_type_symbol
 _atom_site_label
 _atom_site_symmetry_multiplicity
 _atom_site_fract_x
 _atom_site_fract_y
 _atom_site_fract_z
 _atom_site_occupancy
  Tb  Tb0  1  0.411838  0.411838  0.000000  1
  Th  Th1  1  0.586857  0.000076  0.000000  1
  Th  Th2  1  0.000076  0.586857  0.000000  1
  Mg  Mg3  1  0.244370  0.005607  0.500000  1
  Mg  Mg4  1  0.005607  0.244370  0.500000  1
  Mg  Mg5  1  0.752085  0.752085  0.500000  1
  Au  Au6  1  0.334188  0.665916  0.500000  1
  Au  Au7  1  0.665916  0.334188  0.500000  1
  Au  Au8  1  0.999063  0.999063  0.000000  1
