# generated using pymatgen
data_Nd(BrO3)3
_symmetry_space_group_name_H-M   'P 1'
_cell_length_a   7.75516322
_cell_length_b   7.48304303
_cell_length_c   8.41667750
_cell_angle_alpha   67.78531356
_cell_angle_beta   67.20353290
_cell_angle_gamma   73.12430526
_symmetry_Int_Tables_number   1
_chemical_formula_structural   Nd(BrO3)3
_chemical_formula_sum   'Nd2 Br6 O18'
_cell_volume   410.90177220
_cell_formula_units_Z   2
loop_
 _symmetry_equiv_pos_site_id
 _symmetry_equiv_pos_as_xyz
  1  'x, y, z'
loop_
 _atom_site_type_symbol
 _atom_site_label
 _atom_site_symmetry_multiplicity
 _atom_site_fract_x
 _atom_site_fract_y
 _atom_site_fract_z
 _atom_site_occupancy
  Nd  Nd0  1  0.285154  0.276283  0.244696  1
  Nd  Nd1  1  0.714846  0.723717  0.755304  1
  Br  Br2  1  0.098728  0.802558  0.290361  1
  Br  Br3  1  0.901272  0.197442  0.709639  1
  Br  Br4  1  0.769567  0.282340  0.189526  1
  Br  Br5  1  0.230433  0.717660  0.810474  1
  Br  Br6  1  0.670965  0.804290  0.194817  1
  Br  Br7  1  0.329035  0.195710  0.805183  1
  O  O8  1  0.196617  0.572188  0.376643  1
  O  O9  1  0.803383  0.427812  0.623357  1
  O  O10  1  0.193682  0.944854  0.337254  1
  O  O11  1  0.806318  0.055146  0.662746  1
  O  O12  1  0.902924  0.396591  0.224292  1
  O  O13  1  0.097076  0.603409  0.775708  1
  O  O14  1  0.544802  0.338940  0.322211  1
  O  O15  1  0.455198  0.661060  0.677789  1
  O  O16  1  0.576197  0.778675  0.056202  1
  O  O17  1  0.423803  0.221325  0.943798  1
  O  O18  1  0.870217  0.821326  0.434613  1
  O  O19  1  0.129783  0.178674  0.565387  1
  O  O20  1  0.555403  0.016699  0.246897  1
  O  O21  1  0.444597  0.983301  0.753103  1
  O  O22  1  0.743938  0.405290  0.979865  1
  O  O23  1  0.256062  0.594710  0.020135  1
  O  O24  1  0.882342  0.861220  0.057344  1
  O  O25  1  0.117658  0.138780  0.942656  1
