# generated using pymatgen
data_Dy5YZr4(Sn3O)2
_symmetry_space_group_name_H-M   'P 1'
_cell_length_a   8.77115000
_cell_length_b   8.76961223
_cell_length_c   6.04690400
_cell_angle_alpha   90.00000000
_cell_angle_beta   90.00000000
_cell_angle_gamma   120.00580079
_symmetry_Int_Tables_number   1
_chemical_formula_structural   Dy5YZr4(Sn3O)2
_chemical_formula_sum   'Dy5 Y1 Zr4 Sn6 O2'
_cell_volume   402.78681461
_cell_formula_units_Z   1
loop_
 _symmetry_equiv_pos_site_id
 _symmetry_equiv_pos_as_xyz
  1  'x, y, z'
loop_
 _atom_site_type_symbol
 _atom_site_label
 _atom_site_symmetry_multiplicity
 _atom_site_fract_x
 _atom_site_fract_y
 _atom_site_fract_z
 _atom_site_occupancy
  Dy  Dy0  1  0.000001  0.772878  0.750000  1
  Dy  Dy1  1  0.000035  0.227126  0.250000  1
  Dy  Dy2  1  0.227123  0.227122  0.750000  1
  Dy  Dy3  1  0.227121  0.000000  0.250000  1
  Dy  Dy4  1  0.772910  0.772874  0.250000  1
  Y  Y5  1  0.772625  0.000000  0.750000  1
  Zr  Zr6  1  0.333312  0.666645  0.000038  1
  Zr  Zr7  1  0.333312  0.666645  0.499962  1
  Zr  Zr8  1  0.666669  0.333355  0.000038  1
  Zr  Zr9  1  0.666669  0.333355  0.499962  1
  Sn  Sn10  1  0.000004  0.593925  0.250000  1
  Sn  Sn11  1  0.000022  0.406121  0.750000  1
  Sn  Sn12  1  0.406079  0.406075  0.250000  1
  Sn  Sn13  1  0.593901  0.593879  0.750000  1
  Sn  Sn14  1  0.406048  0.000000  0.750000  1
  Sn  Sn15  1  0.593873  0.000000  0.250000  1
  O  O16  1  0.000148  0.000000  0.000157  1
  O  O17  1  0.000148  0.000000  0.499843  1
