# generated using pymatgen
data_Ca2La2TbIr2
_symmetry_space_group_name_H-M   'P 1'
_cell_length_a   6.64423030
_cell_length_b   7.48492297
_cell_length_c   8.97718046
_cell_angle_alpha   96.74298958
_cell_angle_beta   111.71944103
_cell_angle_gamma   89.99999071
_symmetry_Int_Tables_number   1
_chemical_formula_structural   Ca2La2TbIr2
_chemical_formula_sum   'Ca4 La4 Tb2 Ir4'
_cell_volume   411.42838972
_cell_formula_units_Z   2
loop_
 _symmetry_equiv_pos_site_id
 _symmetry_equiv_pos_as_xyz
  1  'x, y, z'
loop_
 _atom_site_type_symbol
 _atom_site_label
 _atom_site_symmetry_multiplicity
 _atom_site_fract_x
 _atom_site_fract_y
 _atom_site_fract_z
 _atom_site_occupancy
  Ca  Ca0  1  0.634619  0.818754  0.426025  1
  Ca  Ca1  1  0.208594  0.681246  0.573975  1
  Ca  Ca2  1  0.365381  0.181246  0.573975  1
  Ca  Ca3  1  0.791406  0.318754  0.426025  1
  La  La4  1  0.983418  0.913115  0.183998  1
  La  La5  1  0.799419  0.586885  0.816002  1
  La  La6  1  0.016582  0.086885  0.816002  1
  La  La7  1  0.200581  0.413115  0.183998  1
  Tb  Tb8  1  0.427312  0.750000  0.000000  1
  Tb  Tb9  1  0.572688  0.250000  0.000000  1
  Ir  Ir10  1  0.813898  0.577689  0.195067  1
  Ir  Ir11  1  0.618831  0.922311  0.804933  1
  Ir  Ir12  1  0.186102  0.422311  0.804933  1
  Ir  Ir13  1  0.381169  0.077689  0.195067  1
