# generated using pymatgen
data_Tm2Lu3Sn3Se
_symmetry_space_group_name_H-M   'P 1'
_cell_length_a   8.95977516
_cell_length_b   8.95977661
_cell_length_c   6.58307300
_cell_angle_alpha   90.00000000
_cell_angle_beta   90.00000000
_cell_angle_gamma   119.97864810
_symmetry_Int_Tables_number   1
_chemical_formula_structural   Tm2Lu3Sn3Se
_chemical_formula_sum   'Tm4 Lu6 Sn6 Se2'
_cell_volume   457.76965080
_cell_formula_units_Z   2
loop_
 _symmetry_equiv_pos_site_id
 _symmetry_equiv_pos_as_xyz
  1  'x, y, z'
loop_
 _atom_site_type_symbol
 _atom_site_label
 _atom_site_symmetry_multiplicity
 _atom_site_fract_x
 _atom_site_fract_y
 _atom_site_fract_z
 _atom_site_occupancy
  Tm  Tm0  1  0.746176  0.746176  0.750000  1
  Tm  Tm1  1  0.253834  0.999964  0.750000  1
  Tm  Tm2  1  0.999964  0.253834  0.750000  1
  Tm  Tm3  1  0.253917  0.253917  0.250000  1
  Lu  Lu4  1  0.666738  0.333349  0.000070  1
  Lu  Lu5  1  0.333349  0.666738  0.000070  1
  Lu  Lu6  1  0.333349  0.666738  0.499930  1
  Lu  Lu7  1  0.666738  0.333349  0.499930  1
  Lu  Lu8  1  0.746297  0.999942  0.250000  1
  Lu  Lu9  1  0.999942  0.746297  0.250000  1
  Sn  Sn10  1  0.396605  0.396605  0.750000  1
  Sn  Sn11  1  0.603482  0.000044  0.750000  1
  Sn  Sn12  1  0.000044  0.603482  0.750000  1
  Sn  Sn13  1  0.604187  0.604187  0.250000  1
  Sn  Sn14  1  0.396603  0.999620  0.250000  1
  Sn  Sn15  1  0.999620  0.396603  0.250000  1
  Se  Se16  1  0.999577  0.999577  0.000765  1
  Se  Se17  1  0.999577  0.999577  0.499235  1
