# generated using pymatgen
data_Pr8SiPI12
_symmetry_space_group_name_H-M   'P 1'
_cell_length_a   4.38069100
_cell_length_b   14.46957843
_cell_length_c   15.29228851
_cell_angle_alpha   90.05091982
_cell_angle_beta   90.00000000
_cell_angle_gamma   90.00000000
_symmetry_Int_Tables_number   1
_chemical_formula_structural   Pr8SiPI12
_chemical_formula_sum   'Pr8 Si1 P1 I12'
_cell_volume   969.32811642
_cell_formula_units_Z   1
loop_
 _symmetry_equiv_pos_site_id
 _symmetry_equiv_pos_as_xyz
  1  'x, y, z'
loop_
 _atom_site_type_symbol
 _atom_site_label
 _atom_site_symmetry_multiplicity
 _atom_site_fract_x
 _atom_site_fract_y
 _atom_site_fract_z
 _atom_site_occupancy
  Pr  Pr0  1  0.500000  0.112987  0.348790  1
  Pr  Pr1  1  0.500000  0.887013  0.651210  1
  Pr  Pr2  1  0.500000  0.615712  0.154656  1
  Pr  Pr3  1  0.500000  0.384288  0.845344  1
  Pr  Pr4  1  0.000000  0.108572  0.572523  1
  Pr  Pr5  1  0.000000  0.891428  0.427477  1
  Pr  Pr6  1  0.000000  0.614145  0.923631  1
  Pr  Pr7  1  0.000000  0.385855  0.076369  1
  Si  Si8  1  0.500000  0.500000  0.000000  1
  P  P9  1  0.500000  0.000000  0.500000  1
  I  I10  1  0.500000  0.242978  0.162977  1
  I  I11  1  0.500000  0.757022  0.837023  1
  I  I12  1  0.500000  0.745938  0.339682  1
  I  I13  1  0.500000  0.254062  0.660318  1
  I  I14  1  0.000000  0.258535  0.414496  1
  I  I15  1  0.000000  0.741465  0.585504  1
  I  I16  1  0.000000  0.759779  0.085773  1
  I  I17  1  0.000000  0.240221  0.914227  1
  I  I18  1  0.000000  0.998439  0.240730  1
  I  I19  1  0.000000  0.001561  0.759270  1
  I  I20  1  0.000000  0.498567  0.260549  1
  I  I21  1  0.000000  0.501433  0.739451  1
