# generated using pymatgen
data_Hf5Ti3Al14GaRu5Rh2
_symmetry_space_group_name_H-M   'P 1'
_cell_length_a   8.77660799
_cell_length_b   8.77662562
_cell_length_c   8.77685300
_cell_angle_alpha   120.32520389
_cell_angle_beta   119.83197326
_cell_angle_gamma   89.86496763
_symmetry_Int_Tables_number   1
_chemical_formula_structural   Hf5Ti3Al14GaRu5Rh2
_chemical_formula_sum   'Hf5 Ti3 Al14 Ga1 Ru5 Rh2'
_cell_volume   477.47277290
_cell_formula_units_Z   1
loop_
 _symmetry_equiv_pos_site_id
 _symmetry_equiv_pos_as_xyz
  1  'x, y, z'
loop_
 _atom_site_type_symbol
 _atom_site_label
 _atom_site_symmetry_multiplicity
 _atom_site_fract_x
 _atom_site_fract_y
 _atom_site_fract_z
 _atom_site_occupancy
  Hf  Hf0  1  0.794840  0.291147  0.072232  1
  Hf  Hf1  1  0.218910  0.291149  0.496304  1
  Hf  Hf2  1  0.203058  0.702971  0.499908  1
  Hf  Hf3  1  0.219045  0.722631  0.927996  1
  Hf  Hf4  1  0.794635  0.722639  0.503577  1
  Ti  Ti5  1  0.780313  0.280219  0.500034  1
  Ti  Ti6  1  0.378233  0.123485  0.745352  1
  Ti  Ti7  1  0.378165  0.632858  0.254703  1
  Al  Al8  1  0.163761  0.336097  0.172304  1
  Al  Al9  1  0.163706  0.991209  0.827500  1
  Al  Al10  1  0.153012  0.341309  0.811669  1
  Al  Al11  1  0.529651  0.341318  0.188313  1
  Al  Al12  1  0.839357  0.652764  0.813376  1
  Al  Al13  1  0.839337  0.025904  0.186561  1
  Al  Al14  1  0.833881  0.662332  0.171550  1
  Al  Al15  1  0.490777  0.662348  0.828458  1
  Al  Al16  1  0.388298  0.124726  0.263575  1
  Al  Al17  1  0.861151  0.124719  0.736439  1
  Al  Al18  1  0.621583  0.880490  0.258878  1
  Al  Al19  1  0.621534  0.362626  0.741073  1
  Al  Al20  1  0.616126  0.876363  0.739835  1
  Al  Al21  1  0.136521  0.876353  0.260223  1
  Ga  Ga22  1  0.984737  0.484895  0.500138  1
  Ru  Ru23  1  0.000411  0.998517  0.501683  1
  Ru  Ru24  1  0.496851  0.998524  0.998080  1
  Ru  Ru25  1  0.496888  0.496923  0.000028  1
  Ru  Ru26  1  0.496840  0.498788  0.498359  1
  Ru  Ru27  1  0.000380  0.498753  0.001886  1
  Rh  Rh28  1  0.999502  0.999525  0.000021  1
  Rh  Rh29  1  0.498489  0.998414  0.499951  1
