# generated using pymatgen
data_Y2CuIr2
_symmetry_space_group_name_H-M   'P 1'
_cell_length_a   5.44473370
_cell_length_b   5.44473471
_cell_length_c   5.44472686
_cell_angle_alpha   134.55536585
_cell_angle_beta   116.37336370
_cell_angle_gamma   81.61549517
_symmetry_Int_Tables_number   1
_chemical_formula_structural   Y2CuIr2
_chemical_formula_sum   'Y2 Cu1 Ir2'
_cell_volume   99.50720069
_cell_formula_units_Z   1
loop_
 _symmetry_equiv_pos_site_id
 _symmetry_equiv_pos_as_xyz
  1  'x, y, z'
loop_
 _atom_site_type_symbol
 _atom_site_label
 _atom_site_symmetry_multiplicity
 _atom_site_fract_x
 _atom_site_fract_y
 _atom_site_fract_z
 _atom_site_occupancy
  Y  Y0  1  0.704373  0.204373  0.500000  1
  Y  Y1  1  0.295627  0.795627  0.499999  1
  Cu  Cu2  1  0.000000  0.000000  0.000000  1
  Ir  Ir3  1  0.730081  0.499999  0.230079  1
  Ir  Ir4  1  0.269920  0.500000  0.769920  1
