# generated using pymatgen
data_Zr3Sc(SiW)4
_symmetry_space_group_name_H-M   'P 1'
_cell_length_a   3.54700000
_cell_length_b   6.98704166
_cell_length_c   8.24139703
_cell_angle_alpha   90.06817415
_cell_angle_beta   90.00000000
_cell_angle_gamma   90.00000000
_symmetry_Int_Tables_number   1
_chemical_formula_structural   Zr3Sc(SiW)4
_chemical_formula_sum   'Zr3 Sc1 Si4 W4'
_cell_volume   204.24670110
_cell_formula_units_Z   1
loop_
 _symmetry_equiv_pos_site_id
 _symmetry_equiv_pos_as_xyz
  1  'x, y, z'
loop_
 _atom_site_type_symbol
 _atom_site_label
 _atom_site_symmetry_multiplicity
 _atom_site_fract_x
 _atom_site_fract_y
 _atom_site_fract_z
 _atom_site_occupancy
  Zr  Zr0  1  0.250000  0.542118  0.166865  1
  Zr  Zr1  1  0.250000  0.041513  0.333548  1
  Zr  Zr2  1  0.750000  0.458441  0.833839  1
  Sc  Sc3  1  0.750000  0.958409  0.665942  1
  Si  Si4  1  0.250000  0.759922  0.858067  1
  Si  Si5  1  0.250000  0.256259  0.640545  1
  Si  Si6  1  0.750000  0.242575  0.139572  1
  Si  Si7  1  0.750000  0.742323  0.360900  1
  W  W8  1  0.250000  0.630358  0.559596  1
  W  W9  1  0.250000  0.131014  0.940301  1
  W  W10  1  0.750000  0.368960  0.440792  1
  W  W11  1  0.750000  0.868107  0.060032  1
