# generated using pymatgen
data_Hf18ZnCrFeRe7
_symmetry_space_group_name_H-M   'P 1'
_cell_length_a   8.49629800
_cell_length_b   8.58790223
_cell_length_c   8.58790500
_cell_angle_alpha   119.99971310
_cell_angle_beta   90.00001807
_cell_angle_gamma   89.99971251
_symmetry_Int_Tables_number   1
_chemical_formula_structural   Hf18ZnCrFeRe7
_chemical_formula_sum   'Hf18 Zn1 Cr1 Fe1 Re7'
_cell_volume   542.67016683
_cell_formula_units_Z   1
loop_
 _symmetry_equiv_pos_site_id
 _symmetry_equiv_pos_as_xyz
  1  'x, y, z'
loop_
 _atom_site_type_symbol
 _atom_site_label
 _atom_site_symmetry_multiplicity
 _atom_site_fract_x
 _atom_site_fract_y
 _atom_site_fract_z
 _atom_site_occupancy
  Hf  Hf0  1  0.550100  0.808338  0.616675  1
  Hf  Hf1  1  0.550099  0.808318  0.191671  1
  Hf  Hf2  1  0.550093  0.383329  0.191665  1
  Hf  Hf3  1  0.442200  0.200046  0.400075  1
  Hf  Hf4  1  0.442195  0.200056  0.799945  1
  Hf  Hf5  1  0.442195  0.599910  0.799956  1
  Hf  Hf6  1  0.058711  0.201203  0.402407  1
  Hf  Hf7  1  0.058718  0.201201  0.798790  1
  Hf  Hf8  1  0.058706  0.597603  0.798797  1
  Hf  Hf9  1  0.949906  0.807565  0.615120  1
  Hf  Hf10  1  0.949890  0.807566  0.192447  1
  Hf  Hf11  1  0.949903  0.384869  0.192438  1
  Hf  Hf12  1  0.749698  0.459101  0.918223  1
  Hf  Hf13  1  0.749698  0.459101  0.540900  1
  Hf  Hf14  1  0.749693  0.081783  0.540899  1
  Hf  Hf15  1  0.250485  0.540317  0.080624  1
  Hf  Hf16  1  0.250489  0.540319  0.459683  1
  Hf  Hf17  1  0.250503  0.919379  0.459685  1
  Zn  Zn18  1  0.749165  0.666645  0.333340  1
  Cr  Cr19  1  0.499947  0.999987  0.999998  1
  Fe  Fe20  1  0.250097  0.333345  0.666651  1
  Re  Re21  1  0.745564  0.109949  0.219916  1
  Re  Re22  1  0.745563  0.109961  0.890048  1
  Re  Re23  1  0.745558  0.780088  0.890051  1
  Re  Re24  1  0.253872  0.891087  0.782153  1
  Re  Re25  1  0.253869  0.891082  0.108918  1
  Re  Re26  1  0.253874  0.217854  0.108923  1
  Re  Re27  1  0.999208  0.999999  0.999998  1
