# generated using pymatgen
data_Y4Al17GaIr6
_symmetry_space_group_name_H-M   'P 1'
_cell_length_a   7.54679220
_cell_length_b   7.54678915
_cell_length_c   9.50721100
_cell_angle_alpha   90.00000000
_cell_angle_beta   90.00000000
_cell_angle_gamma   119.40859382
_symmetry_Int_Tables_number   1
_chemical_formula_structural   Y4Al17GaIr6
_chemical_formula_sum   'Y4 Al17 Ga1 Ir6'
_cell_volume   471.69989715
_cell_formula_units_Z   1
loop_
 _symmetry_equiv_pos_site_id
 _symmetry_equiv_pos_as_xyz
  1  'x, y, z'
loop_
 _atom_site_type_symbol
 _atom_site_label
 _atom_site_symmetry_multiplicity
 _atom_site_fract_x
 _atom_site_fract_y
 _atom_site_fract_z
 _atom_site_occupancy
  Y  Y0  1  0.993636  0.674229  0.250000  1
  Y  Y1  1  0.005292  0.328369  0.750000  1
  Y  Y2  1  0.674229  0.993635  0.250000  1
  Y  Y3  1  0.328369  0.005291  0.750000  1
  Al  Al4  1  0.869647  0.869647  0.750000  1
  Al  Al5  1  0.001188  0.335463  0.072807  1
  Al  Al6  1  0.998552  0.664315  0.926348  1
  Al  Al7  1  0.998552  0.664315  0.573652  1
  Al  Al8  1  0.335462  0.001187  0.427193  1
  Al  Al9  1  0.001188  0.335463  0.427193  1
  Al  Al10  1  0.664316  0.998552  0.573652  1
  Al  Al11  1  0.664316  0.998552  0.926348  1
  Al  Al12  1  0.335462  0.001187  0.072807  1
  Al  Al13  1  0.333378  0.333378  0.553093  1
  Al  Al14  1  0.665782  0.665782  0.449572  1
  Al  Al15  1  0.665782  0.665782  0.050428  1
  Al  Al16  1  0.333378  0.333378  0.946907  1
  Al  Al17  1  0.338387  0.549109  0.250000  1
  Al  Al18  1  0.660842  0.451628  0.750000  1
  Al  Al19  1  0.549109  0.338387  0.250000  1
  Al  Al20  1  0.451628  0.660842  0.750000  1
  Ga  Ga21  1  0.134482  0.134482  0.250000  1
  Ir  Ir22  1  0.671154  0.327729  0.000135  1
  Ir  Ir23  1  0.327729  0.671154  0.000136  1
  Ir  Ir24  1  0.327729  0.671154  0.499864  1
  Ir  Ir25  1  0.671154  0.327729  0.499865  1
  Ir  Ir26  1  0.999631  0.999631  0.997938  1
  Ir  Ir27  1  0.999631  0.999631  0.502062  1
