# generated using pymatgen
data_Sr12TaTc3O22
_symmetry_space_group_name_H-M   'P 1'
_cell_length_a   5.98729987
_cell_length_b   5.98756232
_cell_length_c   23.90185102
_cell_angle_alpha   58.47102174
_cell_angle_beta   58.92533671
_cell_angle_gamma   60.28947012
_symmetry_Int_Tables_number   1
_chemical_formula_structural   Sr12TaTc3O22
_chemical_formula_sum   'Sr12 Ta1 Tc3 O22'
_cell_volume   594.91308400
_cell_formula_units_Z   1
loop_
 _symmetry_equiv_pos_site_id
 _symmetry_equiv_pos_as_xyz
  1  'x, y, z'
loop_
 _atom_site_type_symbol
 _atom_site_label
 _atom_site_symmetry_multiplicity
 _atom_site_fract_x
 _atom_site_fract_y
 _atom_site_fract_z
 _atom_site_occupancy
  Sr  Sr0  1  0.104002  0.332226  0.079851  1
  Sr  Sr1  1  0.430070  0.616199  0.108972  1
  Sr  Sr2  1  0.167981  0.365885  0.290110  1
  Sr  Sr3  1  0.365285  0.552092  0.387441  1
  Sr  Sr4  1  0.614749  0.813124  0.205960  1
  Sr  Sr5  1  0.235224  0.247798  0.575500  1
  Sr  Sr6  1  0.510979  0.519286  0.608361  1
  Sr  Sr7  1  0.237501  0.280821  0.792582  1
  Sr  Sr8  1  0.646700  0.872914  0.417165  1
  Sr  Sr9  1  0.454206  0.472326  0.889027  1
  Sr  Sr10  1  0.698505  0.737587  0.705554  1
  Sr  Sr11  1  0.723350  0.749718  0.920798  1
  Ta  Ta12  1  0.975584  0.007120  0.748240  1
  Tc  Tc13  1  0.002656  0.042891  0.999450  1
  Tc  Tc14  1  0.895512  0.088479  0.248428  1
  Tc  Tc15  1  0.939349  0.964558  0.497574  1
  O  O16  1  0.079257  0.384034  0.185136  1
  O  O17  1  0.192041  0.858886  0.189843  1
  O  O18  1  0.795975  0.374015  0.029626  1
  O  O19  1  0.786491  0.834281  0.078621  1
  O  O20  1  0.667570  0.247976  0.189950  1
  O  O21  1  0.605333  0.330891  0.302848  1
  O  O22  1  0.143986  0.183636  0.418109  1
  O  O23  1  0.114414  0.925418  0.310056  1
  O  O24  1  0.720871  0.784236  0.312486  1
  O  O25  1  0.607975  0.175290  0.466516  1
  O  O26  1  0.733251  0.057741  0.576839  1
  O  O27  1  0.148987  0.790964  0.684729  1
  O  O28  1  0.271605  0.715179  0.528294  1
  O  O29  1  0.322540  0.043453  0.999394  1
  O  O30  1  0.938988  0.645167  0.497479  1
  O  O31  1  0.773617  0.328097  0.683294  1
  O  O32  1  0.280135  0.173883  0.694179  1
  O  O33  1  0.799369  0.215125  0.812430  1
  O  O34  1  0.251727  0.712121  0.968922  1
  O  O35  1  0.192943  0.690312  0.810765  1
  O  O36  1  0.661604  0.845724  0.805364  1
  O  O37  1  0.905166  0.252038  0.920329  1
