# generated using pymatgen
data_ScNbB2Ru5W
_symmetry_space_group_name_H-M   'P 1'
_cell_length_a   9.45151547
_cell_length_b   9.45151547
_cell_length_c   3.02873900
_cell_angle_alpha   90.00000000
_cell_angle_beta   90.00000000
_cell_angle_gamma   89.74460464
_symmetry_Int_Tables_number   1
_chemical_formula_structural   ScNbB2Ru5W
_chemical_formula_sum   'Sc2 Nb2 B4 Ru10 W2'
_cell_volume   270.55803414
_cell_formula_units_Z   2
loop_
 _symmetry_equiv_pos_site_id
 _symmetry_equiv_pos_as_xyz
  1  'x, y, z'
loop_
 _atom_site_type_symbol
 _atom_site_label
 _atom_site_symmetry_multiplicity
 _atom_site_fract_x
 _atom_site_fract_y
 _atom_site_fract_z
 _atom_site_occupancy
  Sc  Sc0  1  0.824914  0.675086  0.000000  1
  Sc  Sc1  1  0.175086  0.324914  0.000000  1
  Nb  Nb2  1  0.323007  0.823007  0.000000  1
  Nb  Nb3  1  0.676993  0.176993  0.000000  1
  B  B4  1  0.622016  0.877984  0.000000  1
  B  B5  1  0.377984  0.122016  0.000000  1
  B  B6  1  0.119241  0.619241  0.000000  1
  B  B7  1  0.880759  0.380759  0.000000  1
  Ru  Ru8  1  0.566327  0.717923  0.500000  1
  Ru  Ru9  1  0.433673  0.282077  0.500000  1
  Ru  Ru10  1  0.074691  0.785523  0.500000  1
  Ru  Ru11  1  0.925309  0.214477  0.500000  1
  Ru  Ru12  1  0.285523  0.574691  0.500000  1
  Ru  Ru13  1  0.714477  0.425309  0.500000  1
  Ru  Ru14  1  0.217923  0.066327  0.500000  1
  Ru  Ru15  1  0.782077  0.933673  0.500000  1
  Ru  Ru16  1  0.500000  0.000000  0.500000  1
  Ru  Ru17  1  0.000000  0.500000  0.500000  1
  W  W18  1  0.500000  0.500000  0.000000  1
  W  W19  1  0.000000  0.000000  0.000000  1
