# generated using pymatgen
data_Y5Lu(BePd5)2
_symmetry_space_group_name_H-M   'P 1'
_cell_length_a   8.11718026
_cell_length_b   8.11718174
_cell_length_c   8.11718100
_cell_angle_alpha   127.16706932
_cell_angle_beta   124.65863204
_cell_angle_gamma   80.04777685
_symmetry_Int_Tables_number   1
_chemical_formula_structural   Y5Lu(BePd5)2
_chemical_formula_sum   'Y5 Lu1 Be2 Pd10'
_cell_volume   338.46571685
_cell_formula_units_Z   1
loop_
 _symmetry_equiv_pos_site_id
 _symmetry_equiv_pos_as_xyz
  1  'x, y, z'
loop_
 _atom_site_type_symbol
 _atom_site_label
 _atom_site_symmetry_multiplicity
 _atom_site_fract_x
 _atom_site_fract_y
 _atom_site_fract_z
 _atom_site_occupancy
  Y  Y0  1  0.221034  0.446082  0.774817  1
  Y  Y1  1  0.778756  0.553798  0.225075  1
  Y  Y2  1  0.828735  0.053785  0.774820  1
  Y  Y3  1  0.171275  0.946318  0.225072  1
  Y  Y4  1  0.405072  0.249961  0.155033  1
  Lu  Lu5  1  0.590958  0.750029  0.840989  1
  Be  Be6  1  0.794147  0.249994  0.544140  1
  Be  Be7  1  0.207003  0.750008  0.457011  1
  Pd  Pd8  1  0.173658  0.409329  0.359829  1
  Pd  Pd9  1  0.825427  0.180515  0.232147  1
  Pd  Pd10  1  0.450536  0.090702  0.764366  1
  Pd  Pd11  1  0.551658  0.319494  0.644918  1
  Pd  Pd12  1  0.000260  0.499933  0.000192  1
  Pd  Pd13  1  0.000263  0.000074  0.500337  1
  Pd  Pd14  1  0.450502  0.686172  0.359829  1
  Pd  Pd15  1  0.551629  0.906721  0.232146  1
  Pd  Pd16  1  0.173661  0.813826  0.764362  1
  Pd  Pd17  1  0.825424  0.593258  0.644917  1
