# generated using pymatgen
data_YbPr2(MgIr)3
_symmetry_space_group_name_H-M   'P 1'
_cell_length_a   7.28522000
_cell_length_b   7.33714425
_cell_length_c   4.23989200
_cell_angle_alpha   90.00000000
_cell_angle_beta   90.00000000
_cell_angle_gamma   119.76617279
_symmetry_Int_Tables_number   1
_chemical_formula_structural   YbPr2(MgIr)3
_chemical_formula_sum   'Yb1 Pr2 Mg3 Ir3'
_cell_volume   196.73137343
_cell_formula_units_Z   1
loop_
 _symmetry_equiv_pos_site_id
 _symmetry_equiv_pos_as_xyz
  1  'x, y, z'
loop_
 _atom_site_type_symbol
 _atom_site_label
 _atom_site_symmetry_multiplicity
 _atom_site_fract_x
 _atom_site_fract_y
 _atom_site_fract_z
 _atom_site_occupancy
  Yb  Yb0  1  0.412488  0.000000  0.500000  1
  Pr  Pr1  1  0.999927  0.412654  0.500000  1
  Pr  Pr2  1  0.587272  0.587346  0.500000  1
  Mg  Mg3  1  0.006573  0.765113  0.000000  1
  Mg  Mg4  1  0.241460  0.234887  0.000000  1
  Mg  Mg5  1  0.751392  0.000000  0.000000  1
  Ir  Ir6  1  0.332658  0.662282  0.000000  1
  Ir  Ir7  1  0.670377  0.337718  0.000000  1
  Ir  Ir8  1  0.997855  0.000000  0.500000  1
