# generated using pymatgen
data_Ho10Tl8PtAu3
_symmetry_space_group_name_H-M   'P 1'
_cell_length_a   3.67966100
_cell_length_b   8.13276673
_cell_length_c   18.27004300
_cell_angle_alpha   90.07901030
_cell_angle_beta   90.00000000
_cell_angle_gamma   90.00000000
_symmetry_Int_Tables_number   1
_chemical_formula_structural   Ho10Tl8PtAu3
_chemical_formula_sum   'Ho10 Tl8 Pt1 Au3'
_cell_volume   546.74558182
_cell_formula_units_Z   1
loop_
 _symmetry_equiv_pos_site_id
 _symmetry_equiv_pos_as_xyz
  1  'x, y, z'
loop_
 _atom_site_type_symbol
 _atom_site_label
 _atom_site_symmetry_multiplicity
 _atom_site_fract_x
 _atom_site_fract_y
 _atom_site_fract_z
 _atom_site_occupancy
  Ho  Ho0  1  0.000000  0.116954  0.417872  1
  Ho  Ho1  1  0.000000  0.880636  0.580373  1
  Ho  Ho2  1  0.000000  0.380699  0.920086  1
  Ho  Ho3  1  0.000000  0.615384  0.085343  1
  Ho  Ho4  1  0.000000  0.252933  0.217272  1
  Ho  Ho5  1  0.000000  0.762717  0.784072  1
  Ho  Ho6  1  0.000000  0.262848  0.716440  1
  Ho  Ho7  1  0.000000  0.729514  0.279552  1
  Ho  Ho8  1  0.000000  0.999924  0.000794  1
  Ho  Ho9  1  0.000000  0.500014  0.499541  1
  Tl  Tl10  1  0.500000  0.419606  0.353700  1
  Tl  Tl11  1  0.500000  0.581796  0.645944  1
  Tl  Tl12  1  0.500000  0.082416  0.854177  1
  Tl  Tl13  1  0.500000  0.919795  0.146245  1
  Tl  Tl14  1  0.500000  0.290705  0.065765  1
  Tl  Tl15  1  0.500000  0.709063  0.936510  1
  Tl  Tl16  1  0.500000  0.209645  0.564499  1
  Tl  Tl17  1  0.500000  0.788624  0.433445  1
  Pt  Pt18  1  0.500000  0.527401  0.196283  1
  Au  Au19  1  0.500000  0.027420  0.301817  1
  Au  Au20  1  0.500000  0.970688  0.696795  1
  Au  Au21  1  0.500000  0.471216  0.803474  1
