# generated using pymatgen
data_Tb3Pd2RhPb3
_symmetry_space_group_name_H-M   'P 1'
_cell_length_a   7.84990900
_cell_length_b   7.84990909
_cell_length_c   3.85755900
_cell_angle_alpha   90.00000000
_cell_angle_beta   90.00000000
_cell_angle_gamma   119.99999542
_symmetry_Int_Tables_number   1
_chemical_formula_structural   Tb3Pd2RhPb3
_chemical_formula_sum   'Tb3 Pd2 Rh1 Pb3'
_cell_volume   205.86024160
_cell_formula_units_Z   1
loop_
 _symmetry_equiv_pos_site_id
 _symmetry_equiv_pos_as_xyz
  1  'x, y, z'
loop_
 _atom_site_type_symbol
 _atom_site_label
 _atom_site_symmetry_multiplicity
 _atom_site_fract_x
 _atom_site_fract_y
 _atom_site_fract_z
 _atom_site_occupancy
  Tb  Tb0  1  0.397661  0.000000  0.500000  1
  Tb  Tb1  1  0.000000  0.397661  0.500000  1
  Tb  Tb2  1  0.602339  0.602339  0.500000  1
  Pd  Pd3  1  0.333333  0.666667  0.000000  1
  Pd  Pd4  1  0.666667  0.333333  0.000000  1
  Rh  Rh5  1  0.000000  0.000000  0.500000  1
  Pb  Pb6  1  0.735167  0.000000  0.000000  1
  Pb  Pb7  1  0.000000  0.735167  0.000000  1
  Pb  Pb8  1  0.264833  0.264833  0.000000  1
