# generated using pymatgen
data_TmLu3(ReB6)2
_symmetry_space_group_name_H-M   'P 1'
_cell_length_a   3.62423900
_cell_length_b   9.07138000
_cell_length_c   11.42799500
_cell_angle_alpha   89.99846867
_cell_angle_beta   90.00000000
_cell_angle_gamma   90.00000000
_symmetry_Int_Tables_number   1
_chemical_formula_structural   TmLu3(ReB6)2
_chemical_formula_sum   'Tm2 Lu6 Re4 B24'
_cell_volume   375.71646798
_cell_formula_units_Z   2
loop_
 _symmetry_equiv_pos_site_id
 _symmetry_equiv_pos_as_xyz
  1  'x, y, z'
loop_
 _atom_site_type_symbol
 _atom_site_label
 _atom_site_symmetry_multiplicity
 _atom_site_fract_x
 _atom_site_fract_y
 _atom_site_fract_z
 _atom_site_occupancy
  Tm  Tm0  1  0.000000  0.323063  0.413730  1
  Tm  Tm1  1  0.000000  0.676937  0.586270  1
  Lu  Lu2  1  0.000000  0.823263  0.086161  1
  Lu  Lu3  1  0.000000  0.176737  0.913839  1
  Lu  Lu4  1  0.000000  0.943629  0.370295  1
  Lu  Lu5  1  0.000000  0.056371  0.629705  1
  Lu  Lu6  1  0.000000  0.443531  0.129272  1
  Lu  Lu7  1  0.000000  0.556469  0.870728  1
  Re  Re8  1  0.000000  0.639447  0.320088  1
  Re  Re9  1  0.000000  0.360553  0.679912  1
  Re  Re10  1  0.000000  0.138991  0.179112  1
  Re  Re11  1  0.000000  0.861009  0.820888  1
  B  B12  1  0.500000  0.553301  0.433210  1
  B  B13  1  0.500000  0.446699  0.566790  1
  B  B14  1  0.500000  0.053083  0.066289  1
  B  B15  1  0.500000  0.946917  0.933711  1
  B  B16  1  0.500000  0.750814  0.419137  1
  B  B17  1  0.500000  0.249186  0.580863  1
  B  B18  1  0.500000  0.250563  0.080191  1
  B  B19  1  0.500000  0.749437  0.919809  1
  B  B20  1  0.500000  0.793589  0.264646  1
  B  B21  1  0.500000  0.206411  0.735354  1
  B  B22  1  0.500000  0.293338  0.234627  1
  B  B23  1  0.500000  0.706662  0.765373  1
  B  B24  1  0.500000  0.630831  0.184131  1
  B  B25  1  0.500000  0.369169  0.815869  1
  B  B26  1  0.500000  0.130503  0.315251  1
  B  B27  1  0.500000  0.869497  0.684749  1
  B  B28  1  0.500000  0.981086  0.211879  1
  B  B29  1  0.500000  0.018914  0.788121  1
  B  B30  1  0.500000  0.481386  0.287467  1
  B  B31  1  0.500000  0.518614  0.712533  1
  B  B32  1  0.500000  0.599366  0.027645  1
  B  B33  1  0.500000  0.400634  0.972355  1
  B  B34  1  0.500000  0.098876  0.472461  1
  B  B35  1  0.500000  0.901124  0.527539  1
