# generated using pymatgen
data_Y2LuRuI3
_symmetry_space_group_name_H-M   'P 1'
_cell_length_a   4.21415100
_cell_length_b   8.84775353
_cell_length_c   12.23441454
_cell_angle_alpha   85.91223210
_cell_angle_beta   90.00000000
_cell_angle_gamma   90.00000000
_symmetry_Int_Tables_number   1
_chemical_formula_structural   Y2LuRuI3
_chemical_formula_sum   'Y4 Lu2 Ru2 I6'
_cell_volume   455.00907490
_cell_formula_units_Z   2
loop_
 _symmetry_equiv_pos_site_id
 _symmetry_equiv_pos_as_xyz
  1  'x, y, z'
loop_
 _atom_site_type_symbol
 _atom_site_label
 _atom_site_symmetry_multiplicity
 _atom_site_fract_x
 _atom_site_fract_y
 _atom_site_fract_z
 _atom_site_occupancy
  Y  Y0  1  0.750000  0.097534  0.684180  1
  Y  Y1  1  0.250000  0.902466  0.315820  1
  Y  Y2  1  0.250000  0.262433  0.898557  1
  Y  Y3  1  0.750000  0.737567  0.101443  1
  Lu  Lu4  1  0.750000  0.126762  0.124047  1
  Lu  Lu5  1  0.250000  0.873238  0.875953  1
  Ru  Ru6  1  0.750000  0.050591  0.909227  1
  Ru  Ru7  1  0.250000  0.949409  0.090773  1
  I  I8  1  0.250000  0.353474  0.636718  1
  I  I9  1  0.750000  0.646526  0.363282  1
  I  I10  1  0.750000  0.144589  0.391169  1
  I  I11  1  0.250000  0.855411  0.608831  1
  I  I12  1  0.250000  0.424069  0.133510  1
  I  I13  1  0.750000  0.575931  0.866490  1
