# generated using pymatgen
data_Dy2ErTm(B6Ru)2
_symmetry_space_group_name_H-M   'P 1'
_cell_length_a   3.64073500
_cell_length_b   9.10631907
_cell_length_c   11.48606409
_cell_angle_alpha   90.01431205
_cell_angle_beta   90.00000000
_cell_angle_gamma   90.00000000
_symmetry_Int_Tables_number   1
_chemical_formula_structural   Dy2ErTm(B6Ru)2
_chemical_formula_sum   'Dy4 Er2 Tm2 B24 Ru4'
_cell_volume   380.80544868
_cell_formula_units_Z   2
loop_
 _symmetry_equiv_pos_site_id
 _symmetry_equiv_pos_as_xyz
  1  'x, y, z'
loop_
 _atom_site_type_symbol
 _atom_site_label
 _atom_site_symmetry_multiplicity
 _atom_site_fract_x
 _atom_site_fract_y
 _atom_site_fract_z
 _atom_site_occupancy
  Dy  Dy0  1  0.000000  0.322270  0.414144  1
  Dy  Dy1  1  0.000000  0.677730  0.585856  1
  Dy  Dy2  1  0.000000  0.821999  0.085729  1
  Dy  Dy3  1  0.000000  0.178001  0.914271  1
  Er  Er4  1  0.000000  0.943746  0.372117  1
  Er  Er5  1  0.000000  0.056254  0.627883  1
  Tm  Tm6  1  0.000000  0.443826  0.127619  1
  Tm  Tm7  1  0.000000  0.556174  0.872381  1
  B  B8  1  0.500000  0.554359  0.432842  1
  B  B9  1  0.500000  0.445641  0.567158  1
  B  B10  1  0.500000  0.054502  0.067075  1
  B  B11  1  0.500000  0.945498  0.932925  1
  B  B12  1  0.500000  0.748691  0.419394  1
  B  B13  1  0.500000  0.251309  0.580606  1
  B  B14  1  0.500000  0.249176  0.080565  1
  B  B15  1  0.500000  0.750824  0.919435  1
  B  B16  1  0.500000  0.791218  0.265838  1
  B  B17  1  0.500000  0.208782  0.734162  1
  B  B18  1  0.500000  0.291731  0.233962  1
  B  B19  1  0.500000  0.708269  0.766038  1
  B  B20  1  0.500000  0.631049  0.184472  1
  B  B21  1  0.500000  0.368951  0.815528  1
  B  B22  1  0.500000  0.131496  0.315264  1
  B  B23  1  0.500000  0.868504  0.684736  1
  B  B24  1  0.500000  0.983455  0.212993  1
  B  B25  1  0.500000  0.016545  0.787007  1
  B  B26  1  0.500000  0.483160  0.286678  1
  B  B27  1  0.500000  0.516840  0.713322  1
  B  B28  1  0.500000  0.605438  0.028980  1
  B  B29  1  0.500000  0.394562  0.971020  1
  B  B30  1  0.500000  0.106202  0.470834  1
  B  B31  1  0.500000  0.893798  0.529166  1
  Ru  Ru32  1  0.000000  0.637932  0.320410  1
  Ru  Ru33  1  0.000000  0.362068  0.679590  1
  Ru  Ru34  1  0.000000  0.138609  0.179260  1
  Ru  Ru35  1  0.000000  0.861391  0.820740  1
