# generated using pymatgen
data_Li4Er4Sn3Sb
_symmetry_space_group_name_H-M   'P 1'
_cell_length_a   9.34313600
_cell_length_b   9.33979231
_cell_length_c   7.16843139
_cell_angle_alpha   90.08088349
_cell_angle_beta   89.99961196
_cell_angle_gamma   120.01179779
_symmetry_Int_Tables_number   1
_chemical_formula_structural   Li4Er4Sn3Sb
_chemical_formula_sum   'Li8 Er8 Sn6 Sb2'
_cell_volume   541.66707406
_cell_formula_units_Z   2
loop_
 _symmetry_equiv_pos_site_id
 _symmetry_equiv_pos_as_xyz
  1  'x, y, z'
loop_
 _atom_site_type_symbol
 _atom_site_label
 _atom_site_symmetry_multiplicity
 _atom_site_fract_x
 _atom_site_fract_y
 _atom_site_fract_z
 _atom_site_occupancy
  Li  Li0  1  0.166255  0.332511  0.213638  1
  Li  Li1  1  0.167316  0.834322  0.212988  1
  Li  Li2  1  0.667003  0.834315  0.212987  1
  Li  Li3  1  0.666205  0.332417  0.326277  1
  Li  Li4  1  0.833211  0.666427  0.713550  1
  Li  Li5  1  0.333658  0.166797  0.713361  1
  Li  Li6  1  0.833140  0.166794  0.713361  1
  Li  Li7  1  0.333336  0.666667  0.826659  1
  Er  Er8  1  0.000910  0.001821  0.998050  1
  Er  Er9  1  0.512738  0.025484  0.004913  1
  Er  Er10  1  0.510633  0.486800  0.003887  1
  Er  Er11  1  0.976168  0.486800  0.003885  1
  Er  Er12  1  0.000919  0.001838  0.501570  1
  Er  Er13  1  0.489349  0.978703  0.508327  1
  Er  Er14  1  0.021628  0.508970  0.509632  1
  Er  Er15  1  0.487342  0.508976  0.509629  1
  Sn  Sn16  1  0.334383  0.167771  0.267928  1
  Sn  Sn17  1  0.833380  0.167765  0.267930  1
  Sn  Sn18  1  0.667165  0.334329  0.739592  1
  Sn  Sn19  1  0.167250  0.334477  0.767003  1
  Sn  Sn20  1  0.166526  0.832009  0.767440  1
  Sn  Sn21  1  0.665485  0.832009  0.767432  1
  Sb  Sb22  1  0.333020  0.666043  0.241251  1
  Sb  Sb23  1  0.832979  0.665955  0.266692  1
