# generated using pymatgen
data_Nd3Th2Fe3(P3Ru4)4
_symmetry_space_group_name_H-M   'P 1'
_cell_length_a   12.60821800
_cell_length_b   12.60821893
_cell_length_c   3.95011600
_cell_angle_alpha   90.00000000
_cell_angle_beta   90.00000000
_cell_angle_gamma   120.00000806
_symmetry_Int_Tables_number   1
_chemical_formula_structural   Nd3Th2Fe3(P3Ru4)4
_chemical_formula_sum   'Nd3 Th2 Fe3 P12 Ru16'
_cell_volume   543.81088512
_cell_formula_units_Z   1
loop_
 _symmetry_equiv_pos_site_id
 _symmetry_equiv_pos_as_xyz
  1  'x, y, z'
loop_
 _atom_site_type_symbol
 _atom_site_label
 _atom_site_symmetry_multiplicity
 _atom_site_fract_x
 _atom_site_fract_y
 _atom_site_fract_z
 _atom_site_occupancy
  Nd  Nd0  1  0.000000  0.183026  0.500000  1
  Nd  Nd1  1  0.816974  0.816974  0.500000  1
  Nd  Nd2  1  0.183026  0.000000  0.500000  1
  Th  Th3  1  0.666667  0.333333  0.000000  1
  Th  Th4  1  0.333333  0.666667  0.000000  1
  Fe  Fe5  1  0.000000  0.716077  0.500000  1
  Fe  Fe6  1  0.283923  0.283923  0.500000  1
  Fe  Fe7  1  0.716077  0.000000  0.500000  1
  P  P8  1  0.000000  0.810736  0.000000  1
  P  P9  1  0.189264  0.189264  0.000000  1
  P  P10  1  0.810736  0.000000  0.000000  1
  P  P11  1  0.691859  0.161123  0.500000  1
  P  P12  1  0.838877  0.530736  0.500000  1
  P  P13  1  0.469264  0.308141  0.500000  1
  P  P14  1  0.161123  0.691859  0.500000  1
  P  P15  1  0.530736  0.838877  0.500000  1
  P  P16  1  0.308141  0.469264  0.500000  1
  P  P17  1  0.000000  0.374781  0.000000  1
  P  P18  1  0.625219  0.625219  0.000000  1
  P  P19  1  0.374781  0.000000  0.000000  1
  Ru  Ru20  1  0.000000  0.557415  0.000000  1
  Ru  Ru21  1  0.442585  0.442585  0.000000  1
  Ru  Ru22  1  0.557415  0.000000  0.000000  1
  Ru  Ru23  1  0.805508  0.181848  0.000000  1
  Ru  Ru24  1  0.818152  0.623659  0.000000  1
  Ru  Ru25  1  0.376341  0.194492  0.000000  1
  Ru  Ru26  1  0.181848  0.805508  0.000000  1
  Ru  Ru27  1  0.623659  0.818152  0.000000  1
  Ru  Ru28  1  0.194492  0.376341  0.000000  1
  Ru  Ru29  1  0.873502  0.364920  0.500000  1
  Ru  Ru30  1  0.635080  0.508583  0.500000  1
  Ru  Ru31  1  0.491417  0.126498  0.500000  1
  Ru  Ru32  1  0.364920  0.873502  0.500000  1
  Ru  Ru33  1  0.508583  0.635080  0.500000  1
  Ru  Ru34  1  0.126498  0.491417  0.500000  1
  Ru  Ru35  1  0.000000  0.000000  0.000000  1
