# generated using pymatgen
data_Rb4RhO4
_symmetry_space_group_name_H-M   'P 1'
_cell_length_a   5.91030148
_cell_length_b   5.91030110
_cell_length_c   6.48089192
_cell_angle_alpha   76.06273744
_cell_angle_beta   76.06273695
_cell_angle_gamma   68.24159780
_symmetry_Int_Tables_number   1
_chemical_formula_structural   Rb4RhO4
_chemical_formula_sum   'Rb4 Rh1 O4'
_cell_volume   201.16358111
_cell_formula_units_Z   1
loop_
 _symmetry_equiv_pos_site_id
 _symmetry_equiv_pos_as_xyz
  1  'x, y, z'
loop_
 _atom_site_type_symbol
 _atom_site_label
 _atom_site_symmetry_multiplicity
 _atom_site_fract_x
 _atom_site_fract_y
 _atom_site_fract_z
 _atom_site_occupancy
  Rb  Rb0  1  0.189805  0.189805  0.413720  1
  Rb  Rb1  1  0.379544  0.379544  0.858135  1
  Rb  Rb2  1  0.620456  0.620456  0.141865  1
  Rb  Rb3  1  0.810195  0.810195  0.586280  1
  Rh  Rh4  1  0.000000  0.000000  0.000000  1
  O  O5  1  0.684712  0.097977  0.192194  1
  O  O6  1  0.315288  0.902023  0.807806  1
  O  O7  1  0.097977  0.684712  0.192194  1
  O  O8  1  0.902023  0.315288  0.807806  1
