# generated using pymatgen
data_Li2Tb3Tm3(Co4P3)4
_symmetry_space_group_name_H-M   'P 1'
_cell_length_a   3.70481400
_cell_length_b   10.55191404
_cell_length_c   12.16363305
_cell_angle_alpha   90.01025435
_cell_angle_beta   90.00000000
_cell_angle_gamma   90.00000000
_symmetry_Int_Tables_number   1
_chemical_formula_structural   Li2Tb3Tm3(Co4P3)4
_chemical_formula_sum   'Li2 Tb3 Tm3 Co16 P12'
_cell_volume   475.51142578
_cell_formula_units_Z   1
loop_
 _symmetry_equiv_pos_site_id
 _symmetry_equiv_pos_as_xyz
  1  'x, y, z'
loop_
 _atom_site_type_symbol
 _atom_site_label
 _atom_site_symmetry_multiplicity
 _atom_site_fract_x
 _atom_site_fract_y
 _atom_site_fract_z
 _atom_site_occupancy
  Li  Li0  1  0.500000  0.499936  0.152975  1
  Li  Li1  1  0.000000  0.999982  0.846918  1
  Tb  Tb2  1  0.000000  0.500001  0.523226  1
  Tb  Tb3  1  0.500000  0.000184  0.477157  1
  Tb  Tb4  1  0.500000  0.819774  0.206009  1
  Tm  Tm5  1  0.500000  0.180762  0.205820  1
  Tm  Tm6  1  0.000000  0.679807  0.794345  1
  Tm  Tm7  1  0.000000  0.319943  0.793839  1
  Co  Co8  1  0.500000  0.499761  0.706102  1
  Co  Co9  1  0.000000  0.001597  0.294314  1
  Co  Co10  1  0.000000  0.499417  0.986601  1
  Co  Co11  1  0.500000  0.000746  0.011921  1
  Co  Co12  1  0.500000  0.332868  0.996867  1
  Co  Co13  1  0.500000  0.666391  0.996031  1
  Co  Co14  1  0.000000  0.167814  0.002602  1
  Co  Co15  1  0.000000  0.832775  0.002230  1
  Co  Co16  1  0.500000  0.296429  0.430780  1
  Co  Co17  1  0.500000  0.703236  0.431874  1
  Co  Co18  1  0.000000  0.204020  0.569422  1
  Co  Co19  1  0.000000  0.796165  0.570259  1
  Co  Co20  1  0.500000  0.877917  0.707960  1
  Co  Co21  1  0.500000  0.122120  0.707682  1
  Co  Co22  1  0.000000  0.620746  0.293232  1
  Co  Co23  1  0.000000  0.377790  0.292173  1
  P  P24  1  0.500000  0.499524  0.884519  1
  P  P25  1  0.000000  0.001394  0.114097  1
  P  P26  1  0.500000  0.499992  0.345695  1
  P  P27  1  0.000000  0.000118  0.654575  1
  P  P28  1  0.500000  0.309647  0.617020  1
  P  P29  1  0.500000  0.690094  0.617638  1
  P  P30  1  0.000000  0.190786  0.383112  1
  P  P31  1  0.000000  0.809152  0.384846  1
  P  P32  1  0.500000  0.842358  0.892806  1
  P  P33  1  0.500000  0.158004  0.892481  1
  P  P34  1  0.000000  0.656156  0.105719  1
  P  P35  1  0.000000  0.342596  0.107153  1
