# generated using pymatgen
data_Y2HoAl3Zn2Au
_symmetry_space_group_name_H-M   'P 1'
_cell_length_a   7.04384293
_cell_length_b   7.04384273
_cell_length_c   4.29153500
_cell_angle_alpha   90.00000000
_cell_angle_beta   90.00000000
_cell_angle_gamma   119.96134241
_symmetry_Int_Tables_number   1
_chemical_formula_structural   Y2HoAl3Zn2Au
_chemical_formula_sum   'Y2 Ho1 Al3 Zn2 Au1'
_cell_volume   184.47250598
_cell_formula_units_Z   1
loop_
 _symmetry_equiv_pos_site_id
 _symmetry_equiv_pos_as_xyz
  1  'x, y, z'
loop_
 _atom_site_type_symbol
 _atom_site_label
 _atom_site_symmetry_multiplicity
 _atom_site_fract_x
 _atom_site_fract_y
 _atom_site_fract_z
 _atom_site_occupancy
  Y  Y0  1  0.577802  0.000214  0.500000  1
  Y  Y1  1  0.000214  0.577802  0.500000  1
  Ho  Ho2  1  0.421660  0.421660  0.500000  1
  Al  Al3  1  0.757962  0.757962  0.000000  1
  Al  Al4  1  0.241380  0.000289  0.000000  1
  Al  Al5  1  0.000289  0.241380  0.000000  1
  Zn  Zn6  1  0.665983  0.333395  0.000000  1
  Zn  Zn7  1  0.333395  0.665983  0.000000  1
  Au  Au8  1  0.001313  0.001313  0.500000  1
