# generated using pymatgen
data_Zr2FeIr3
_symmetry_space_group_name_H-M   'P 1'
_cell_length_a   5.07252479
_cell_length_b   5.07252497
_cell_length_c   5.07252430
_cell_angle_alpha   63.31765081
_cell_angle_beta   63.31765144
_cell_angle_gamma   63.31764607
_symmetry_Int_Tables_number   1
_chemical_formula_structural   Zr2FeIr3
_chemical_formula_sum   'Zr2 Fe1 Ir3'
_cell_volume   99.07126734
_cell_formula_units_Z   1
loop_
 _symmetry_equiv_pos_site_id
 _symmetry_equiv_pos_as_xyz
  1  'x, y, z'
loop_
 _atom_site_type_symbol
 _atom_site_label
 _atom_site_symmetry_multiplicity
 _atom_site_fract_x
 _atom_site_fract_y
 _atom_site_fract_z
 _atom_site_occupancy
  Zr  Zr0  1  0.626808  0.626808  0.626808  1
  Zr  Zr1  1  0.373192  0.373192  0.373192  1
  Fe  Fe2  1  0.000000  0.000000  0.000000  1
  Ir  Ir3  1  0.000000  0.500000  0.000000  1
  Ir  Ir4  1  0.500000  0.000000  0.000000  1
  Ir  Ir5  1  0.000000  0.000000  0.500000  1
