# generated using pymatgen
data_HfZr4Sn2GeSb
_symmetry_space_group_name_H-M   'P 1'
_cell_length_a   8.69169618
_cell_length_b   8.69169461
_cell_length_c   5.89289103
_cell_angle_alpha   90.00557071
_cell_angle_beta   90.00557983
_cell_angle_gamma   119.97598687
_symmetry_Int_Tables_number   1
_chemical_formula_structural   HfZr4Sn2GeSb
_chemical_formula_sum   'Hf2 Zr8 Sn4 Ge2 Sb2'
_cell_volume   385.63200062
_cell_formula_units_Z   2
loop_
 _symmetry_equiv_pos_site_id
 _symmetry_equiv_pos_as_xyz
  1  'x, y, z'
loop_
 _atom_site_type_symbol
 _atom_site_label
 _atom_site_symmetry_multiplicity
 _atom_site_fract_x
 _atom_site_fract_y
 _atom_site_fract_z
 _atom_site_occupancy
  Hf  Hf0  1  0.667074  0.332654  0.998514  1
  Hf  Hf1  1  0.332654  0.667074  0.998514  1
  Zr  Zr2  1  0.332335  0.667084  0.500689  1
  Zr  Zr3  1  0.667084  0.332335  0.500689  1
  Zr  Zr4  1  0.735277  0.735277  0.750555  1
  Zr  Zr5  1  0.265364  0.000365  0.750759  1
  Zr  Zr6  1  0.000365  0.265364  0.750759  1
  Zr  Zr7  1  0.261437  0.261437  0.249710  1
  Zr  Zr8  1  0.737479  0.000146  0.249746  1
  Zr  Zr9  1  0.000146  0.737479  0.249746  1
  Sn  Sn10  1  0.393304  0.393304  0.751477  1
  Sn  Sn11  1  0.608548  0.999408  0.751579  1
  Sn  Sn12  1  0.999408  0.608548  0.751579  1
  Sn  Sn13  1  0.605269  0.605269  0.248583  1
  Ge  Ge14  1  0.999453  0.999453  0.997971  1
  Ge  Ge15  1  0.999432  0.999432  0.502199  1
  Sb  Sb16  1  0.395398  0.999974  0.248465  1
  Sb  Sb17  1  0.999974  0.395398  0.248465  1
