# generated using pymatgen
data_TiVPC
_symmetry_space_group_name_H-M   'P 1'
_cell_length_a   3.12012900
_cell_length_b   3.12012840
_cell_length_c   11.20480100
_cell_angle_alpha   90.00000000
_cell_angle_beta   90.00000000
_cell_angle_gamma   120.00001692
_symmetry_Int_Tables_number   1
_chemical_formula_structural   TiVPC
_chemical_formula_sum   'Ti2 V2 P2 C2'
_cell_volume   94.46691275
_cell_formula_units_Z   2
loop_
 _symmetry_equiv_pos_site_id
 _symmetry_equiv_pos_as_xyz
  1  'x, y, z'
loop_
 _atom_site_type_symbol
 _atom_site_label
 _atom_site_symmetry_multiplicity
 _atom_site_fract_x
 _atom_site_fract_y
 _atom_site_fract_z
 _atom_site_occupancy
  Ti  Ti0  1  0.333333  0.666667  0.401594  1
  Ti  Ti1  1  0.666667  0.333333  0.901594  1
  V  V2  1  0.666667  0.333333  0.600598  1
  V  V3  1  0.333333  0.666667  0.100598  1
  P  P4  1  0.333333  0.666667  0.743625  1
  P  P5  1  0.666667  0.333333  0.243625  1
  C  C6  1  0.000000  0.000000  0.004183  1
  C  C7  1  0.000000  0.000000  0.504183  1
