# generated using pymatgen
data_ThMg(SeO4)3
_symmetry_space_group_name_H-M   'P 1'
_cell_length_a   9.37007500
_cell_length_b   9.37007830
_cell_length_c   6.16753000
_cell_angle_alpha   90.00000000
_cell_angle_beta   90.00000000
_cell_angle_gamma   120.00018763
_symmetry_Int_Tables_number   1
_chemical_formula_structural   ThMg(SeO4)3
_chemical_formula_sum   'Th2 Mg2 Se6 O24'
_cell_volume   468.95089419
_cell_formula_units_Z   2
loop_
 _symmetry_equiv_pos_site_id
 _symmetry_equiv_pos_as_xyz
  1  'x, y, z'
loop_
 _atom_site_type_symbol
 _atom_site_label
 _atom_site_symmetry_multiplicity
 _atom_site_fract_x
 _atom_site_fract_y
 _atom_site_fract_z
 _atom_site_occupancy
  Th  Th0  1  0.333334  0.666667  0.250000  1
  Th  Th1  1  0.666666  0.333333  0.749999  1
  Mg  Mg2  1  0.000000  0.000000  0.000000  1
  Mg  Mg3  1  0.000000  0.000000  0.500001  1
  Se  Se4  1  0.717198  0.097770  0.250000  1
  Se  Se5  1  0.380571  0.282803  0.250000  1
  Se  Se6  1  0.902230  0.619430  0.250000  1
  Se  Se7  1  0.097770  0.380571  0.749999  1
  Se  Se8  1  0.619428  0.717197  0.749999  1
  Se  Se9  1  0.282802  0.902230  0.749999  1
  O  O10  1  0.786372  0.551024  0.028669  1
  O  O11  1  0.764652  0.213629  0.028668  1
  O  O12  1  0.448976  0.235347  0.028667  1
  O  O13  1  0.843525  0.015362  0.250000  1
  O  O14  1  0.171835  0.156475  0.250000  1
  O  O15  1  0.443863  0.482973  0.250000  1
  O  O16  1  0.039109  0.556139  0.250000  1
  O  O17  1  0.984638  0.828163  0.250000  1
  O  O18  1  0.517027  0.960889  0.250000  1
  O  O19  1  0.448976  0.235347  0.471332  1
  O  O20  1  0.764652  0.213629  0.471331  1
  O  O21  1  0.786372  0.551024  0.471331  1
  O  O22  1  0.213629  0.448975  0.528670  1
  O  O23  1  0.235348  0.786371  0.528669  1
  O  O24  1  0.551023  0.764652  0.528668  1
  O  O25  1  0.482973  0.039111  0.749999  1
  O  O26  1  0.015363  0.171836  0.749999  1
  O  O27  1  0.960891  0.443862  0.749999  1
  O  O28  1  0.556137  0.517027  0.749999  1
  O  O29  1  0.828165  0.843525  0.749999  1
  O  O30  1  0.156474  0.984637  0.749999  1
  O  O31  1  0.551023  0.764652  0.971333  1
  O  O32  1  0.235348  0.786371  0.971331  1
  O  O33  1  0.213629  0.448975  0.971331  1
