# generated using pymatgen
data_DyEr2ZrAl17GaRh6
_symmetry_space_group_name_H-M   'P 1'
_cell_length_a   7.53503000
_cell_length_b   7.52318698
_cell_length_c   9.39773300
_cell_angle_alpha   90.00000000
_cell_angle_beta   90.00000000
_cell_angle_gamma   119.46599745
_symmetry_Int_Tables_number   1
_chemical_formula_structural   DyEr2ZrAl17GaRh6
_chemical_formula_sum   'Dy1 Er2 Zr1 Al17 Ga1 Rh6'
_cell_volume   463.82316793
_cell_formula_units_Z   1
loop_
 _symmetry_equiv_pos_site_id
 _symmetry_equiv_pos_as_xyz
  1  'x, y, z'
loop_
 _atom_site_type_symbol
 _atom_site_label
 _atom_site_symmetry_multiplicity
 _atom_site_fract_x
 _atom_site_fract_y
 _atom_site_fract_z
 _atom_site_occupancy
  Dy  Dy0  1  0.007093  0.323934  0.250000  1
  Er  Er1  1  0.672515  0.996373  0.750000  1
  Er  Er2  1  0.325036  0.007282  0.250000  1
  Zr  Zr3  1  0.996791  0.672064  0.750000  1
  Al  Al4  1  0.125214  0.122819  0.750000  1
  Al  Al5  1  0.000035  0.338626  0.579940  1
  Al  Al6  1  0.999399  0.664419  0.428283  1
  Al  Al7  1  0.999399  0.664419  0.071717  1
  Al  Al8  1  0.332770  0.997634  0.920323  1
  Al  Al9  1  0.000035  0.338626  0.920060  1
  Al  Al10  1  0.662970  0.997889  0.075388  1
  Al  Al11  1  0.662970  0.997889  0.424612  1
  Al  Al12  1  0.332770  0.997634  0.579677  1
  Al  Al13  1  0.334897  0.334614  0.046763  1
  Al  Al14  1  0.670367  0.668247  0.941155  1
  Al  Al15  1  0.670367  0.668247  0.558845  1
  Al  Al16  1  0.334897  0.334614  0.453237  1
  Al  Al17  1  0.336480  0.552537  0.750000  1
  Al  Al18  1  0.660696  0.448979  0.250000  1
  Al  Al19  1  0.557216  0.343616  0.750000  1
  Al  Al20  1  0.447945  0.659587  0.250000  1
  Ga  Ga21  1  0.867075  0.865460  0.250000  1
  Rh  Rh22  1  0.673037  0.328675  0.501013  1
  Rh  Rh23  1  0.328612  0.673521  0.501653  1
  Rh  Rh24  1  0.328612  0.673521  0.998347  1
  Rh  Rh25  1  0.673037  0.328675  0.998987  1
  Rh  Rh26  1  0.999883  0.000049  0.503216  1
  Rh  Rh27  1  0.999883  0.000049  0.996784  1
