# generated using pymatgen
data_Pr2NdAl12Ir3Ru
_symmetry_space_group_name_H-M   'P 1'
_cell_length_a   8.94016223
_cell_length_b   8.94016301
_cell_length_c   9.64607800
_cell_angle_alpha   90.00000000
_cell_angle_beta   90.00000000
_cell_angle_gamma   120.08103099
_symmetry_Int_Tables_number   1
_chemical_formula_structural   Pr2NdAl12Ir3Ru
_chemical_formula_sum   'Pr4 Nd2 Al24 Ir6 Ru2'
_cell_volume   667.14010382
_cell_formula_units_Z   2
loop_
 _symmetry_equiv_pos_site_id
 _symmetry_equiv_pos_as_xyz
  1  'x, y, z'
loop_
 _atom_site_type_symbol
 _atom_site_label
 _atom_site_symmetry_multiplicity
 _atom_site_fract_x
 _atom_site_fract_y
 _atom_site_fract_z
 _atom_site_occupancy
  Pr  Pr0  1  0.190562  0.381112  0.250000  1
  Pr  Pr1  1  0.809438  0.618888  0.750000  1
  Pr  Pr2  1  0.618888  0.809438  0.250000  1
  Pr  Pr3  1  0.381112  0.190562  0.750000  1
  Nd  Nd4  1  0.190480  0.809520  0.250000  1
  Nd  Nd5  1  0.809520  0.190480  0.750000  1
  Al  Al6  1  0.333147  0.666853  0.013570  1
  Al  Al7  1  0.666853  0.333147  0.986430  1
  Al  Al8  1  0.666853  0.333147  0.513570  1
  Al  Al9  1  0.333147  0.666853  0.486430  1
  Al  Al10  1  0.162550  0.325774  0.575368  1
  Al  Al11  1  0.837450  0.674226  0.424632  1
  Al  Al12  1  0.674226  0.837450  0.575368  1
  Al  Al13  1  0.837450  0.674226  0.075368  1
  Al  Al14  1  0.325774  0.162550  0.424632  1
  Al  Al15  1  0.162550  0.325774  0.924632  1
  Al  Al16  1  0.162946  0.837054  0.574774  1
  Al  Al17  1  0.325774  0.162550  0.075368  1
  Al  Al18  1  0.837054  0.162946  0.425226  1
  Al  Al19  1  0.674226  0.837450  0.924632  1
  Al  Al20  1  0.837054  0.162946  0.074774  1
  Al  Al21  1  0.162946  0.837054  0.925226  1
  Al  Al22  1  0.563081  0.126825  0.250000  1
  Al  Al23  1  0.436919  0.873175  0.750000  1
  Al  Al24  1  0.873175  0.436919  0.250000  1
  Al  Al25  1  0.126825  0.563081  0.750000  1
  Al  Al26  1  0.563723  0.436277  0.250000  1
  Al  Al27  1  0.436277  0.563723  0.750000  1
  Al  Al28  1  0.000403  0.999597  0.250000  1
  Al  Al29  1  0.999597  0.000403  0.750000  1
  Ir  Ir30  1  0.500000  0.000000  0.000000  1
  Ir  Ir31  1  0.000000  0.500000  0.000000  1
  Ir  Ir32  1  0.500000  0.000000  0.500000  1
  Ir  Ir33  1  0.500000  0.500000  0.000000  1
  Ir  Ir34  1  0.000000  0.500000  0.500000  1
  Ir  Ir35  1  0.500000  0.500000  0.500000  1
  Ru  Ru36  1  0.000000  0.000000  0.000000  1
  Ru  Ru37  1  0.000000  0.000000  0.500000  1
