# generated using pymatgen
data_Pr10GaSi4Ir
_symmetry_space_group_name_H-M   'P 1'
_cell_length_a   7.71176500
_cell_length_b   9.23220172
_cell_length_c   7.71176500
_cell_angle_alpha   114.68667934
_cell_angle_beta   90.00000000
_cell_angle_gamma   114.68667934
_symmetry_Int_Tables_number   1
_chemical_formula_structural   Pr10GaSi4Ir
_chemical_formula_sum   'Pr10 Ga1 Si4 Ir1'
_cell_volume   443.04289353
_cell_formula_units_Z   1
loop_
 _symmetry_equiv_pos_site_id
 _symmetry_equiv_pos_as_xyz
  1  'x, y, z'
loop_
 _atom_site_type_symbol
 _atom_site_label
 _atom_site_symmetry_multiplicity
 _atom_site_fract_x
 _atom_site_fract_y
 _atom_site_fract_z
 _atom_site_occupancy
  Pr  Pr0  1  0.966987  0.933974  0.966987  1
  Pr  Pr1  1  0.533013  0.066026  0.533013  1
  Pr  Pr2  1  0.516539  0.716267  0.662206  1
  Pr  Pr3  1  0.199728  0.716267  0.054062  1
  Pr  Pr4  1  0.662206  0.716267  0.199728  1
  Pr  Pr5  1  0.054062  0.716267  0.516539  1
  Pr  Pr6  1  0.445938  0.283733  0.300272  1
  Pr  Pr7  1  0.837794  0.283733  0.983461  1
  Pr  Pr8  1  0.300272  0.283733  0.837794  1
  Pr  Pr9  1  0.983461  0.283733  0.445938  1
  Ga  Ga10  1  0.750000  0.500000  0.750000  1
  Si  Si11  1  0.884955  0.000000  0.615045  1
  Si  Si12  1  0.115045  0.000000  0.384955  1
  Si  Si13  1  0.615045  0.000000  0.115045  1
  Si  Si14  1  0.384955  0.000000  0.884955  1
  Ir  Ir15  1  0.250000  0.500000  0.250000  1
