# generated using pymatgen
data_Tm8Al(CuPd11)2
_symmetry_space_group_name_H-M   'P 1'
_cell_length_a   8.20550600
_cell_length_b   8.31525000
_cell_length_c   8.37197900
_cell_angle_alpha   90.00000000
_cell_angle_beta   90.00000000
_cell_angle_gamma   90.00000000
_symmetry_Int_Tables_number   1
_chemical_formula_structural   Tm8Al(CuPd11)2
_chemical_formula_sum   'Tm8 Al1 Cu2 Pd22'
_cell_volume   571.22710745
_cell_formula_units_Z   1
loop_
 _symmetry_equiv_pos_site_id
 _symmetry_equiv_pos_as_xyz
  1  'x, y, z'
loop_
 _atom_site_type_symbol
 _atom_site_label
 _atom_site_symmetry_multiplicity
 _atom_site_fract_x
 _atom_site_fract_y
 _atom_site_fract_z
 _atom_site_occupancy
  Tm  Tm0  1  0.252314  0.250254  0.255378  1
  Tm  Tm1  1  0.747686  0.749746  0.744622  1
  Tm  Tm2  1  0.747686  0.749746  0.255378  1
  Tm  Tm3  1  0.747686  0.250254  0.744622  1
  Tm  Tm4  1  0.252314  0.250254  0.744622  1
  Tm  Tm5  1  0.252314  0.749746  0.255378  1
  Tm  Tm6  1  0.252314  0.749746  0.744622  1
  Tm  Tm7  1  0.747686  0.250254  0.255378  1
  Al  Al8  1  0.000000  0.000000  0.000000  1
  Cu  Cu9  1  0.262436  0.500000  0.000000  1
  Cu  Cu10  1  0.737564  0.500000  0.000000  1
  Pd  Pd11  1  0.000000  0.258866  0.500000  1
  Pd  Pd12  1  0.500000  0.266570  0.000000  1
  Pd  Pd13  1  0.000000  0.741134  0.500000  1
  Pd  Pd14  1  0.500000  0.733430  0.000000  1
  Pd  Pd15  1  0.500000  0.000000  0.259205  1
  Pd  Pd16  1  0.258947  0.000000  0.500000  1
  Pd  Pd17  1  0.500000  0.000000  0.740795  1
  Pd  Pd18  1  0.741053  0.000000  0.500000  1
  Pd  Pd19  1  0.000000  0.500000  0.259149  1
  Pd  Pd20  1  0.000000  0.500000  0.740851  1
  Pd  Pd21  1  0.253341  0.500000  0.500000  1
  Pd  Pd22  1  0.746659  0.500000  0.500000  1
  Pd  Pd23  1  0.500000  0.253801  0.500000  1
  Pd  Pd24  1  0.500000  0.746199  0.500000  1
  Pd  Pd25  1  0.500000  0.500000  0.248856  1
  Pd  Pd26  1  0.500000  0.500000  0.751144  1
  Pd  Pd27  1  0.290525  0.000000  0.000000  1
  Pd  Pd28  1  0.709475  0.000000  0.000000  1
  Pd  Pd29  1  0.000000  0.294466  0.000000  1
  Pd  Pd30  1  0.000000  0.705534  0.000000  1
  Pd  Pd31  1  0.000000  0.000000  0.285926  1
  Pd  Pd32  1  0.000000  0.000000  0.714074  1
