# generated using pymatgen
data_Th3Zn(Sn2Au)2
_symmetry_space_group_name_H-M   'P 1'
_cell_length_a   8.72088879
_cell_length_b   8.72088932
_cell_length_c   8.72088925
_cell_angle_alpha   109.12072127
_cell_angle_beta   110.17451057
_cell_angle_gamma   109.12072378
_symmetry_Int_Tables_number   1
_chemical_formula_structural   Th3Zn(Sn2Au)2
_chemical_formula_sum   'Th6 Zn2 Sn8 Au4'
_cell_volume   510.51825269
_cell_formula_units_Z   2
loop_
 _symmetry_equiv_pos_site_id
 _symmetry_equiv_pos_as_xyz
  1  'x, y, z'
loop_
 _atom_site_type_symbol
 _atom_site_label
 _atom_site_symmetry_multiplicity
 _atom_site_fract_x
 _atom_site_fract_y
 _atom_site_fract_z
 _atom_site_occupancy
  Th  Th0  1  0.875000  0.250000  0.125000  1
  Th  Th1  1  0.625000  0.750000  0.375000  1
  Th  Th2  1  0.250000  0.125971  0.875971  1
  Th  Th3  1  0.750000  0.374029  0.624029  1
  Th  Th4  1  0.124029  0.874029  0.250000  1
  Th  Th5  1  0.375971  0.625971  0.750000  1
  Zn  Zn6  1  0.375000  0.250000  0.625000  1
  Zn  Zn7  1  0.125000  0.750000  0.875000  1
  Sn  Sn8  1  0.675709  0.496640  0.993848  1
  Sn  Sn9  1  0.497208  0.003360  0.679069  1
  Sn  Sn10  1  0.002792  0.681861  0.506152  1
  Sn  Sn11  1  0.824291  0.818139  0.820931  1
  Sn  Sn12  1  0.493848  0.996640  0.175709  1
  Sn  Sn13  1  0.179069  0.503360  0.997208  1
  Sn  Sn14  1  0.006152  0.181861  0.502792  1
  Sn  Sn15  1  0.320931  0.318139  0.324291  1
  Au  Au16  1  0.250000  0.624510  0.374510  1
  Au  Au17  1  0.750000  0.875490  0.125490  1
  Au  Au18  1  0.625490  0.375490  0.250000  1
  Au  Au19  1  0.874510  0.124510  0.750000  1
