# generated using pymatgen
data_Cs4La3Nd(GeSe4)4
_symmetry_space_group_name_H-M   'P 1'
_cell_length_a   7.26112733
_cell_length_b   6.98822255
_cell_length_c   19.93955920
_cell_angle_alpha   71.32184871
_cell_angle_beta   90.09671365
_cell_angle_gamma   89.98179129
_symmetry_Int_Tables_number   1
_chemical_formula_structural   Cs4La3Nd(GeSe4)4
_chemical_formula_sum   'Cs4 La3 Nd1 Ge4 Se16'
_cell_volume   958.49082176
_cell_formula_units_Z   1
loop_
 _symmetry_equiv_pos_site_id
 _symmetry_equiv_pos_as_xyz
  1  'x, y, z'
loop_
 _atom_site_type_symbol
 _atom_site_label
 _atom_site_symmetry_multiplicity
 _atom_site_fract_x
 _atom_site_fract_y
 _atom_site_fract_z
 _atom_site_occupancy
  Cs  Cs0  1  0.750730  0.730201  0.032744  1
  Cs  Cs1  1  0.249316  0.270166  0.966833  1
  Cs  Cs2  1  0.749360  0.729697  0.533042  1
  Cs  Cs3  1  0.250829  0.270252  0.467338  1
  La  La4  1  0.232936  0.228571  0.226376  1
  La  La5  1  0.732872  0.771441  0.273587  1
  La  La6  1  0.766985  0.771660  0.773255  1
  Nd  Nd7  1  0.267615  0.227771  0.726723  1
  Ge  Ge8  1  0.732532  0.213572  0.833907  1
  Ge  Ge9  1  0.767906  0.212828  0.334368  1
  Ge  Ge10  1  0.232520  0.786670  0.666022  1
  Ge  Ge11  1  0.267957  0.787227  0.165595  1
  Se  Se12  1  0.506429  0.036638  0.142484  1
  Se  Se13  1  0.760704  0.410512  0.410406  1
  Se  Se14  1  0.006168  0.012966  0.846851  1
  Se  Se15  1  0.834291  0.424563  0.216953  1
  Se  Se16  1  0.996709  0.039668  0.643645  1
  Se  Se17  1  0.260570  0.589439  0.089571  1
  Se  Se18  1  0.739948  0.410413  0.910361  1
  Se  Se19  1  0.334520  0.575366  0.283081  1
  Se  Se20  1  0.239681  0.584296  0.591412  1
  Se  Se21  1  0.492761  0.965828  0.856452  1
  Se  Se22  1  0.660986  0.424580  0.716714  1
  Se  Se23  1  0.165354  0.569726  0.782480  1
  Se  Se24  1  0.006520  0.963160  0.357581  1
  Se  Se25  1  0.995723  0.989643  0.151519  1
  Se  Se26  1  0.495870  0.010369  0.348485  1
  Se  Se27  1  0.502211  0.992774  0.652214  1
