# generated using pymatgen
data_DyY4BeP11Ir19
_symmetry_space_group_name_H-M   'P 1'
_cell_length_a   12.71262627
_cell_length_b   12.67191737
_cell_length_c   3.97171600
_cell_angle_alpha   90.00000000
_cell_angle_beta   90.00000000
_cell_angle_gamma   120.18085517
_symmetry_Int_Tables_number   1
_chemical_formula_structural   DyY4BeP11Ir19
_chemical_formula_sum   'Dy1 Y4 Be1 P11 Ir19'
_cell_volume   553.08524952
_cell_formula_units_Z   1
loop_
 _symmetry_equiv_pos_site_id
 _symmetry_equiv_pos_as_xyz
  1  'x, y, z'
loop_
 _atom_site_type_symbol
 _atom_site_label
 _atom_site_symmetry_multiplicity
 _atom_site_fract_x
 _atom_site_fract_y
 _atom_site_fract_z
 _atom_site_occupancy
  Dy  Dy0  1  0.810452  0.994617  0.000000  1
  Y  Y1  1  0.344531  0.667337  0.500000  1
  Y  Y2  1  0.666905  0.333530  0.500000  1
  Y  Y3  1  0.998545  0.816194  0.000000  1
  Y  Y4  1  0.183434  0.184289  0.000000  1
  Be  Be5  1  0.520236  0.685290  0.000000  1
  P  P6  1  0.001193  0.643614  0.500000  1
  P  P7  1  0.360406  0.364019  0.500000  1
  P  P8  1  0.638668  0.994661  0.500000  1
  P  P9  1  0.315547  0.828236  0.000000  1
  P  P10  1  0.174070  0.484321  0.000000  1
  P  P11  1  0.482607  0.174189  0.000000  1
  P  P12  1  0.689695  0.517412  0.000000  1
  P  P13  1  0.828388  0.311073  0.000000  1
  P  P14  1  0.996515  0.176518  0.500000  1
  P  P15  1  0.818482  0.818315  0.500000  1
  P  P16  1  0.178416  0.999380  0.500000  1
  Ir  Ir17  1  0.510510  0.869949  0.000000  1
  Ir  Ir18  1  0.133136  0.638979  0.000000  1
  Ir  Ir19  1  0.356066  0.484440  0.000000  1
  Ir  Ir20  1  0.492673  0.364710  0.000000  1
  Ir  Ir21  1  0.869541  0.507198  0.000000  1
  Ir  Ir22  1  0.637736  0.134045  0.000000  1
  Ir  Ir23  1  0.000707  0.462748  0.500000  1
  Ir  Ir24  1  0.536067  0.552651  0.500000  1
  Ir  Ir25  1  0.461464  0.001158  0.500000  1
  Ir  Ir26  1  0.998925  0.284413  0.000000  1
  Ir  Ir27  1  0.713566  0.712193  0.000000  1
  Ir  Ir28  1  0.285610  0.999748  0.000000  1
  Ir  Ir29  1  0.625775  0.804809  0.500000  1
  Ir  Ir30  1  0.196897  0.819117  0.500000  1
  Ir  Ir31  1  0.176844  0.374957  0.500000  1
  Ir  Ir32  1  0.375167  0.182039  0.500000  1
  Ir  Ir33  1  0.805249  0.621879  0.500000  1
  Ir  Ir34  1  0.816479  0.192613  0.500000  1
  Ir  Ir35  1  0.999501  0.999359  0.500000  1
