# generated using pymatgen
data_Cs4Zr6IrI18
_symmetry_space_group_name_H-M   'P 1'
_cell_length_a   11.70064712
_cell_length_b   12.08703600
_cell_length_c   12.17981306
_cell_angle_alpha   118.32414124
_cell_angle_beta   100.77758051
_cell_angle_gamma   104.15758182
_symmetry_Int_Tables_number   1
_chemical_formula_structural   Cs4Zr6IrI18
_chemical_formula_sum   'Cs4 Zr6 Ir1 I18'
_cell_volume   1374.47291371
_cell_formula_units_Z   1
loop_
 _symmetry_equiv_pos_site_id
 _symmetry_equiv_pos_as_xyz
  1  'x, y, z'
loop_
 _atom_site_type_symbol
 _atom_site_label
 _atom_site_symmetry_multiplicity
 _atom_site_fract_x
 _atom_site_fract_y
 _atom_site_fract_z
 _atom_site_occupancy
  Cs  Cs0  1  0.662523  0.538139  0.229469  1
  Cs  Cs1  1  0.337477  0.461861  0.770531  1
  Cs  Cs2  1  0.697611  0.229741  0.566993  1
  Cs  Cs3  1  0.302389  0.770259  0.433007  1
  Zr  Zr4  1  0.149745  0.055520  0.224124  1
  Zr  Zr5  1  0.850255  0.944480  0.775876  1
  Zr  Zr6  1  0.863879  0.119806  0.126142  1
  Zr  Zr7  1  0.136121  0.880194  0.873858  1
  Zr  Zr8  1  0.143917  0.231746  0.044692  1
  Zr  Zr9  1  0.856083  0.768254  0.955308  1
  Ir  Ir10  1  0.000000  0.000000  0.000000  1
  I  I11  1  0.007623  0.393555  0.188270  1
  I  I12  1  0.992377  0.606445  0.811730  1
  I  I13  1  0.326058  0.324029  0.303644  1
  I  I14  1  0.673942  0.675971  0.696356  1
  I  I15  1  0.315722  0.503247  0.099311  1
  I  I16  1  0.684278  0.496753  0.900689  1
  I  I17  1  0.005371  0.803511  0.203163  1
  I  I18  1  0.994629  0.196489  0.796837  1
  I  I19  1  0.709458  0.258799  0.271993  1
  I  I20  1  0.290542  0.741201  0.728007  1
  I  I21  1  0.311993  0.125577  0.909300  1
  I  I22  1  0.688007  0.874423  0.090700  1
  I  I23  1  0.016582  0.196646  0.393473  1
  I  I24  1  0.983418  0.803354  0.606527  1
  I  I25  1  0.317411  0.929249  0.110271  1
  I  I26  1  0.682589  0.070751  0.889729  1
  I  I27  1  0.329627  0.121340  0.486308  1
  I  I28  1  0.670373  0.878660  0.513692  1
