# generated using pymatgen
data_Ca20(Zn3Cd)3
_symmetry_space_group_name_H-M   'P 1'
_cell_length_a   8.00049100
_cell_length_b   8.00049100
_cell_length_c   15.26238200
_cell_angle_alpha   90.00000000
_cell_angle_beta   90.00000000
_cell_angle_gamma   90.00000000
_symmetry_Int_Tables_number   1
_chemical_formula_structural   Ca20(Zn3Cd)3
_chemical_formula_sum   'Ca20 Zn9 Cd3'
_cell_volume   976.91235295
_cell_formula_units_Z   1
loop_
 _symmetry_equiv_pos_site_id
 _symmetry_equiv_pos_as_xyz
  1  'x, y, z'
loop_
 _atom_site_type_symbol
 _atom_site_label
 _atom_site_symmetry_multiplicity
 _atom_site_fract_x
 _atom_site_fract_y
 _atom_site_fract_z
 _atom_site_occupancy
  Ca  Ca0  1  0.674905  0.165364  0.103633  1
  Ca  Ca1  1  0.169936  0.670455  0.606195  1
  Ca  Ca2  1  0.325095  0.834636  0.103633  1
  Ca  Ca3  1  0.830064  0.329545  0.606195  1
  Ca  Ca4  1  0.834636  0.674905  0.103633  1
  Ca  Ca5  1  0.329545  0.169936  0.606195  1
  Ca  Ca6  1  0.165364  0.325095  0.103633  1
  Ca  Ca7  1  0.670455  0.830064  0.606195  1
  Ca  Ca8  1  0.834636  0.325095  0.896367  1
  Ca  Ca9  1  0.329545  0.830064  0.393805  1
  Ca  Ca10  1  0.165364  0.674905  0.896367  1
  Ca  Ca11  1  0.670455  0.169936  0.393805  1
  Ca  Ca12  1  0.674905  0.834636  0.896367  1
  Ca  Ca13  1  0.169936  0.329545  0.393805  1
  Ca  Ca14  1  0.325095  0.165364  0.896367  1
  Ca  Ca15  1  0.830064  0.670455  0.393805  1
  Ca  Ca16  1  0.500000  0.500000  0.754324  1
  Ca  Ca17  1  0.000000  0.000000  0.249777  1
  Ca  Ca18  1  0.000000  0.000000  0.750223  1
  Ca  Ca19  1  0.500000  0.500000  0.245676  1
  Zn  Zn20  1  0.618243  0.119529  0.751637  1
  Zn  Zn21  1  0.119529  0.618243  0.248363  1
  Zn  Zn22  1  0.880471  0.381757  0.248363  1
  Zn  Zn23  1  0.381757  0.880471  0.751637  1
  Zn  Zn24  1  0.880471  0.618243  0.751637  1
  Zn  Zn25  1  0.381757  0.119529  0.248363  1
  Zn  Zn26  1  0.119529  0.381757  0.751637  1
  Zn  Zn27  1  0.618243  0.880471  0.248363  1
  Zn  Zn28  1  0.000000  0.000000  0.000000  1
  Cd  Cd29  1  0.500000  0.500000  0.500000  1
  Cd  Cd30  1  0.500000  0.500000  0.000000  1
  Cd  Cd31  1  0.000000  0.000000  0.500000  1
