# generated using pymatgen
data_Ho7Er9Cd2(HgIr2)2
_symmetry_space_group_name_H-M   'P 1'
_cell_length_a   9.55521542
_cell_length_b   9.55521564
_cell_length_c   9.56194300
_cell_angle_alpha   59.97670397
_cell_angle_beta   59.97670321
_cell_angle_gamma   59.99169414
_symmetry_Int_Tables_number   1
_chemical_formula_structural   Ho7Er9Cd2(HgIr2)2
_chemical_formula_sum   'Ho7 Er9 Cd2 Hg2 Ir4'
_cell_volume   617.06634763
_cell_formula_units_Z   1
loop_
 _symmetry_equiv_pos_site_id
 _symmetry_equiv_pos_as_xyz
  1  'x, y, z'
loop_
 _atom_site_type_symbol
 _atom_site_label
 _atom_site_symmetry_multiplicity
 _atom_site_fract_x
 _atom_site_fract_y
 _atom_site_fract_z
 _atom_site_occupancy
  Ho  Ho0  1  0.059742  0.059742  0.440258  1
  Ho  Ho1  1  0.187682  0.811335  0.812231  1
  Ho  Ho2  1  0.811335  0.187682  0.188752  1
  Ho  Ho3  1  0.811335  0.187682  0.812231  1
  Ho  Ho4  1  0.187682  0.811335  0.188752  1
  Ho  Ho5  1  0.811678  0.811678  0.188322  1
  Ho  Ho6  1  0.188119  0.188119  0.811881  1
  Er  Er7  1  0.599828  0.599828  0.598419  1
  Er  Er8  1  0.599828  0.599828  0.201927  1
  Er  Er9  1  0.600928  0.199356  0.599858  1
  Er  Er10  1  0.199356  0.600928  0.599858  1
  Er  Er11  1  0.060027  0.438710  0.440582  1
  Er  Er12  1  0.438710  0.060027  0.060680  1
  Er  Er13  1  0.438710  0.060027  0.440582  1
  Er  Er14  1  0.060027  0.438710  0.060680  1
  Er  Er15  1  0.439092  0.439092  0.060908  1
  Cd  Cd16  1  0.830540  0.507056  0.831202  1
  Cd  Cd17  1  0.507056  0.830540  0.831202  1
  Hg  Hg18  1  0.833546  0.833546  0.835513  1
  Hg  Hg19  1  0.833546  0.833546  0.497394  1
  Ir  Ir20  1  0.392267  0.392267  0.391592  1
  Ir  Ir21  1  0.392267  0.392267  0.823875  1
  Ir  Ir22  1  0.392471  0.824228  0.391651  1
  Ir  Ir23  1  0.824228  0.392471  0.391651  1
