# generated using pymatgen
data_Dy5Er3Re3B24Ir
_symmetry_space_group_name_H-M   'P 1'
_cell_length_a   3.66931200
_cell_length_b   9.15952245
_cell_length_c   11.54536901
_cell_angle_alpha   90.13783057
_cell_angle_beta   90.00000000
_cell_angle_gamma   90.00000000
_symmetry_Int_Tables_number   1
_chemical_formula_structural   Dy5Er3Re3B24Ir
_chemical_formula_sum   'Dy5 Er3 Re3 B24 Ir1'
_cell_volume   388.02886598
_cell_formula_units_Z   1
loop_
 _symmetry_equiv_pos_site_id
 _symmetry_equiv_pos_as_xyz
  1  'x, y, z'
loop_
 _atom_site_type_symbol
 _atom_site_label
 _atom_site_symmetry_multiplicity
 _atom_site_fract_x
 _atom_site_fract_y
 _atom_site_fract_z
 _atom_site_occupancy
  Dy  Dy0  1  0.000000  0.318325  0.415594  1
  Dy  Dy1  1  0.000000  0.678570  0.591363  1
  Dy  Dy2  1  0.000000  0.826845  0.081378  1
  Dy  Dy3  1  0.000000  0.177363  0.912553  1
  Dy  Dy4  1  0.000000  0.944215  0.370550  1
  Er  Er5  1  0.000000  0.055982  0.629288  1
  Er  Er6  1  0.000000  0.440971  0.128163  1
  Er  Er7  1  0.000000  0.556655  0.871513  1
  Re  Re8  1  0.000000  0.362532  0.677869  1
  Re  Re9  1  0.000000  0.138953  0.179823  1
  Re  Re10  1  0.000000  0.861467  0.820843  1
  B  B11  1  0.500000  0.553848  0.433604  1
  B  B12  1  0.500000  0.446565  0.566856  1
  B  B13  1  0.500000  0.053551  0.066694  1
  B  B14  1  0.500000  0.946803  0.932556  1
  B  B15  1  0.500000  0.748934  0.420018  1
  B  B16  1  0.500000  0.250302  0.581173  1
  B  B17  1  0.500000  0.249412  0.081276  1
  B  B18  1  0.500000  0.751232  0.918782  1
  B  B19  1  0.500000  0.790848  0.265192  1
  B  B20  1  0.500000  0.208316  0.733989  1
  B  B21  1  0.500000  0.292039  0.234770  1
  B  B22  1  0.500000  0.707987  0.766057  1
  B  B23  1  0.500000  0.631332  0.184237  1
  B  B24  1  0.500000  0.369595  0.814150  1
  B  B25  1  0.500000  0.131217  0.314613  1
  B  B26  1  0.500000  0.868654  0.685536  1
  B  B27  1  0.500000  0.983363  0.211889  1
  B  B28  1  0.500000  0.017273  0.786847  1
  B  B29  1  0.500000  0.482828  0.287612  1
  B  B30  1  0.500000  0.518102  0.712597  1
  B  B31  1  0.500000  0.602974  0.029164  1
  B  B32  1  0.500000  0.397882  0.972016  1
  B  B33  1  0.500000  0.102332  0.471614  1
  B  B34  1  0.500000  0.895510  0.528808  1
  Ir  Ir35  1  0.000000  0.637227  0.321007  1
