# generated using pymatgen
data_SmY7(Si4Mo3)4
_symmetry_space_group_name_H-M   'P 1'
_cell_length_a   6.79127781
_cell_length_b   6.97400104
_cell_length_c   12.95849607
_cell_angle_alpha   89.95391992
_cell_angle_beta   89.99071112
_cell_angle_gamma   90.01151033
_symmetry_Int_Tables_number   1
_chemical_formula_structural   SmY7(Si4Mo3)4
_chemical_formula_sum   'Sm1 Y7 Si16 Mo12'
_cell_volume   613.74497626
_cell_formula_units_Z   1
loop_
 _symmetry_equiv_pos_site_id
 _symmetry_equiv_pos_as_xyz
  1  'x, y, z'
loop_
 _atom_site_type_symbol
 _atom_site_label
 _atom_site_symmetry_multiplicity
 _atom_site_fract_x
 _atom_site_fract_y
 _atom_site_fract_z
 _atom_site_occupancy
  Sm  Sm0  1  0.997978  0.165972  0.093713  1
  Y  Y1  1  0.497454  0.333269  0.094233  1
  Y  Y2  1  0.997667  0.166795  0.405696  1
  Y  Y3  1  0.502663  0.666929  0.594349  1
  Y  Y4  1  0.002572  0.833577  0.905286  1
  Y  Y5  1  0.502797  0.666499  0.905335  1
  Y  Y6  1  0.002293  0.833039  0.594337  1
  Y  Y7  1  0.497409  0.333391  0.406322  1
  Si  Si8  1  0.658233  0.042511  0.547837  1
  Si  Si9  1  0.158378  0.458639  0.951524  1
  Si  Si10  1  0.343990  0.956354  0.047562  1
  Si  Si11  1  0.841955  0.542110  0.452306  1
  Si  Si12  1  0.341673  0.957557  0.452472  1
  Si  Si13  1  0.841121  0.544113  0.047466  1
  Si  Si14  1  0.657196  0.042442  0.951394  1
  Si  Si15  1  0.158259  0.457667  0.547931  1
  Si  Si16  1  0.534727  0.364481  0.749727  1
  Si  Si17  1  0.035040  0.135576  0.749916  1
  Si  Si18  1  0.464770  0.635319  0.250260  1
  Si  Si19  1  0.964745  0.863416  0.250713  1
  Si  Si20  1  0.803192  0.627673  0.749818  1
  Si  Si21  1  0.303323  0.872407  0.749897  1
  Si  Si22  1  0.197607  0.373589  0.250583  1
  Si  Si23  1  0.695392  0.127211  0.250657  1
  Mo  Mo24  1  0.830837  0.335242  0.625293  1
  Mo  Mo25  1  0.330833  0.165048  0.874351  1
  Mo  Mo26  1  0.169330  0.664871  0.125355  1
  Mo  Mo27  1  0.669038  0.834778  0.375116  1
  Mo  Mo28  1  0.169539  0.664787  0.375201  1
  Mo  Mo29  1  0.668975  0.834692  0.125695  1
  Mo  Mo30  1  0.830404  0.335678  0.874174  1
  Mo  Mo31  1  0.330548  0.164822  0.625296  1
  Mo  Mo32  1  0.665871  0.000098  0.749726  1
  Mo  Mo33  1  0.165973  0.500065  0.749853  1
  Mo  Mo34  1  0.334312  0.999046  0.250433  1
  Mo  Mo35  1  0.833906  0.500337  0.250171  1
