# generated using pymatgen
data_Pr5Dy5(In3Cl)2
_symmetry_space_group_name_H-M   'P 1'
_cell_length_a   9.40971614
_cell_length_b   9.40971638
_cell_length_c   6.70794000
_cell_angle_alpha   90.00000000
_cell_angle_beta   90.00000000
_cell_angle_gamma   120.01987212
_symmetry_Int_Tables_number   1
_chemical_formula_structural   Pr5Dy5(In3Cl)2
_chemical_formula_sum   'Pr5 Dy5 In6 Cl2'
_cell_volume   514.26368441
_cell_formula_units_Z   1
loop_
 _symmetry_equiv_pos_site_id
 _symmetry_equiv_pos_as_xyz
  1  'x, y, z'
loop_
 _atom_site_type_symbol
 _atom_site_label
 _atom_site_symmetry_multiplicity
 _atom_site_fract_x
 _atom_site_fract_y
 _atom_site_fract_z
 _atom_site_occupancy
  Pr  Pr0  1  0.999201  0.739597  0.750000  1
  Pr  Pr1  1  0.739597  0.999201  0.750000  1
  Pr  Pr2  1  0.257784  0.257784  0.750000  1
  Pr  Pr3  1  0.000485  0.261096  0.250000  1
  Pr  Pr4  1  0.261096  0.000485  0.250000  1
  Dy  Dy5  1  0.740979  0.740979  0.250000  1
  Dy  Dy6  1  0.336369  0.667233  0.499345  1
  Dy  Dy7  1  0.667233  0.336369  0.499345  1
  Dy  Dy8  1  0.336369  0.667233  0.000655  1
  Dy  Dy9  1  0.667233  0.336369  0.000655  1
  In  In10  1  0.398040  0.000002  0.750000  1
  In  In11  1  0.996158  0.603263  0.250000  1
  In  In12  1  0.603263  0.996158  0.250000  1
  In  In13  1  0.000002  0.398040  0.750000  1
  In  In14  1  0.400977  0.400977  0.250000  1
  In  In15  1  0.602789  0.602789  0.750000  1
  Cl  Cl16  1  0.996212  0.996212  0.495861  1
  Cl  Cl17  1  0.996212  0.996212  0.004139  1
