# generated using pymatgen
data_Sc10AlSn2Sb3
_symmetry_space_group_name_H-M   'P 1'
_cell_length_a   8.42885637
_cell_length_b   8.40862931
_cell_length_c   6.01238500
_cell_angle_alpha   90.00000000
_cell_angle_beta   90.00000000
_cell_angle_gamma   119.99366561
_symmetry_Int_Tables_number   1
_chemical_formula_structural   Sc10AlSn2Sb3
_chemical_formula_sum   'Sc10 Al1 Sn2 Sb3'
_cell_volume   369.06171214
_cell_formula_units_Z   1
loop_
 _symmetry_equiv_pos_site_id
 _symmetry_equiv_pos_as_xyz
  1  'x, y, z'
loop_
 _atom_site_type_symbol
 _atom_site_label
 _atom_site_symmetry_multiplicity
 _atom_site_fract_x
 _atom_site_fract_y
 _atom_site_fract_z
 _atom_site_occupancy
  Sc  Sc0  1  0.328196  0.661936  0.502301  1
  Sc  Sc1  1  0.672130  0.334264  0.997666  1
  Sc  Sc2  1  0.672130  0.334264  0.502334  1
  Sc  Sc3  1  0.328196  0.661936  0.997699  1
  Sc  Sc4  1  0.768214  0.008588  0.750000  1
  Sc  Sc5  1  0.761770  0.762000  0.250000  1
  Sc  Sc6  1  0.239628  0.999293  0.250000  1
  Sc  Sc7  1  0.232670  0.242516  0.750000  1
  Sc  Sc8  1  0.998811  0.756436  0.750000  1
  Sc  Sc9  1  0.999123  0.237978  0.250000  1
  Al  Al10  1  0.000639  0.396365  0.750000  1
  Sn  Sn11  1  0.608472  0.609046  0.750000  1
  Sn  Sn12  1  0.606192  0.998147  0.250000  1
  Sb  Sb13  1  0.390082  0.000837  0.750000  1
  Sb  Sb14  1  0.393109  0.390713  0.250000  1
  Sb  Sb15  1  0.000638  0.605680  0.250000  1
