# generated using pymatgen
data_Pr3SnAs5Rh9
_symmetry_space_group_name_H-M   'P 1'
_cell_length_a   4.09057000
_cell_length_b   8.57676839
_cell_length_c   10.10818866
_cell_angle_alpha   107.10333538
_cell_angle_beta   90.00000000
_cell_angle_gamma   103.79614633
_symmetry_Int_Tables_number   1
_chemical_formula_structural   Pr3SnAs5Rh9
_chemical_formula_sum   'Pr3 Sn1 As5 Rh9'
_cell_volume   328.23142204
_cell_formula_units_Z   1
loop_
 _symmetry_equiv_pos_site_id
 _symmetry_equiv_pos_as_xyz
  1  'x, y, z'
loop_
 _atom_site_type_symbol
 _atom_site_label
 _atom_site_symmetry_multiplicity
 _atom_site_fract_x
 _atom_site_fract_y
 _atom_site_fract_z
 _atom_site_occupancy
  Pr  Pr0  1  0.843551  0.687101  0.302789  1
  Pr  Pr1  1  0.150967  0.301933  0.690106  1
  Pr  Pr2  1  0.005911  0.011823  0.000746  1
  Sn  Sn3  1  0.803308  0.606615  0.873823  1
  As  As4  1  0.196490  0.392981  0.131535  1
  As  As5  1  0.535112  0.070225  0.777057  1
  As  As6  1  0.464218  0.928435  0.223331  1
  As  As7  1  0.638599  0.277197  0.454705  1
  As  As8  1  0.361329  0.722658  0.544823  1
  Rh  Rh9  1  0.957439  0.914879  0.664395  1
  Rh  Rh10  1  0.043426  0.086851  0.330122  1
  Rh  Rh11  1  0.782218  0.564436  0.597456  1
  Rh  Rh12  1  0.218606  0.437212  0.392895  1
  Rh  Rh13  1  0.380647  0.761294  0.791009  1
  Rh  Rh14  1  0.625601  0.251204  0.211686  1
  Rh  Rh15  1  0.499881  0.999762  0.497930  1
  Rh  Rh16  1  0.669762  0.339524  0.964012  1
  Rh  Rh17  1  0.322935  0.645870  0.051581  1
