# generated using pymatgen
data_HoEr2Ni7B2
_symmetry_space_group_name_H-M   'P 1'
_cell_length_a   5.04394600
_cell_length_b   5.04394568
_cell_length_c   14.33795000
_cell_angle_alpha   90.00000000
_cell_angle_beta   90.00000000
_cell_angle_gamma   120.00000211
_symmetry_Int_Tables_number   1
_chemical_formula_structural   HoEr2Ni7B2
_chemical_formula_sum   'Ho2 Er4 Ni14 B4'
_cell_volume   315.90646454
_cell_formula_units_Z   2
loop_
 _symmetry_equiv_pos_site_id
 _symmetry_equiv_pos_as_xyz
  1  'x, y, z'
loop_
 _atom_site_type_symbol
 _atom_site_label
 _atom_site_symmetry_multiplicity
 _atom_site_fract_x
 _atom_site_fract_y
 _atom_site_fract_z
 _atom_site_occupancy
  Ho  Ho0  1  0.333333  0.666667  0.467054  1
  Ho  Ho1  1  0.666667  0.333333  0.967054  1
  Er  Er2  1  0.666667  0.333333  0.532971  1
  Er  Er3  1  0.333333  0.666667  0.032971  1
  Er  Er4  1  0.666667  0.333333  0.749907  1
  Er  Er5  1  0.333333  0.666667  0.249907  1
  Ni  Ni6  1  0.834290  0.165710  0.351238  1
  Ni  Ni7  1  0.834290  0.668579  0.351238  1
  Ni  Ni8  1  0.000000  0.000000  0.000121  1
  Ni  Ni9  1  0.000000  0.000000  0.500121  1
  Ni  Ni10  1  0.834357  0.668714  0.148724  1
  Ni  Ni11  1  0.165643  0.834357  0.648724  1
  Ni  Ni12  1  0.668714  0.834357  0.648724  1
  Ni  Ni13  1  0.331286  0.165643  0.148724  1
  Ni  Ni14  1  0.834357  0.165643  0.148724  1
  Ni  Ni15  1  0.165710  0.331421  0.851238  1
  Ni  Ni16  1  0.165710  0.834290  0.851238  1
  Ni  Ni17  1  0.165643  0.331286  0.648724  1
  Ni  Ni18  1  0.668579  0.834290  0.851238  1
  Ni  Ni19  1  0.331421  0.165710  0.351238  1
  B  B20  1  0.666667  0.333333  0.249992  1
  B  B21  1  0.333333  0.666667  0.749992  1
  B  B22  1  0.000000  0.000000  0.750071  1
  B  B23  1  0.000000  0.000000  0.250071  1
