# generated using pymatgen
data_Tm3Th(Ni7P4)2
_symmetry_space_group_name_H-M   'P 1'
_cell_length_a   3.70315100
_cell_length_b   9.14864658
_cell_length_c   10.25083788
_cell_angle_alpha   89.91365793
_cell_angle_beta   90.00000000
_cell_angle_gamma   90.00000000
_symmetry_Int_Tables_number   1
_chemical_formula_structural   Tm3Th(Ni7P4)2
_chemical_formula_sum   'Tm3 Th1 Ni14 P8'
_cell_volume   347.28589404
_cell_formula_units_Z   1
loop_
 _symmetry_equiv_pos_site_id
 _symmetry_equiv_pos_as_xyz
  1  'x, y, z'
loop_
 _atom_site_type_symbol
 _atom_site_label
 _atom_site_symmetry_multiplicity
 _atom_site_fract_x
 _atom_site_fract_y
 _atom_site_fract_z
 _atom_site_occupancy
  Tm  Tm0  1  0.000000  0.442621  0.518591  1
  Tm  Tm1  1  0.500000  0.558006  0.018219  1
  Tm  Tm2  1  0.000000  0.064306  0.736912  1
  Th  Th3  1  0.500000  0.939915  0.237760  1
  Ni  Ni4  1  0.000000  0.775156  0.405731  1
  Ni  Ni5  1  0.500000  0.224354  0.902731  1
  Ni  Ni6  1  0.000000  0.752494  0.640956  1
  Ni  Ni7  1  0.500000  0.250100  0.139741  1
  Ni  Ni8  1  0.000000  0.812155  0.000657  1
  Ni  Ni9  1  0.500000  0.186745  0.504728  1
  Ni  Ni10  1  0.000000  0.442771  0.213535  1
  Ni  Ni11  1  0.500000  0.554023  0.714647  1
  Ni  Ni12  1  0.000000  0.400492  0.819481  1
  Ni  Ni13  1  0.500000  0.596397  0.321858  1
  Ni  Ni14  1  0.000000  0.195939  0.313301  1
  Ni  Ni15  1  0.500000  0.804888  0.809414  1
  Ni  Ni16  1  0.000000  0.083696  0.040223  1
  Ni  Ni17  1  0.500000  0.918158  0.551541  1
  P  P18  1  0.000000  0.686361  0.199281  1
  P  P19  1  0.500000  0.308939  0.698899  1
  P  P20  1  0.000000  0.023819  0.461456  1
  P  P21  1  0.500000  0.979728  0.947534  1
  P  P22  1  0.000000  0.321618  0.023651  1
  P  P23  1  0.500000  0.679578  0.525845  1
  P  P24  1  0.000000  0.650705  0.830706  1
  P  P25  1  0.500000  0.347036  0.332201  1
