# generated using pymatgen
data_Ho9TmCo4
_symmetry_space_group_name_H-M   'P 1'
_cell_length_a   6.24617290
_cell_length_b   6.87687238
_cell_length_c   8.47929641
_cell_angle_alpha   96.36116831
_cell_angle_beta   111.61198696
_cell_angle_gamma   89.99999691
_symmetry_Int_Tables_number   1
_chemical_formula_structural   Ho9TmCo4
_chemical_formula_sum   'Ho9 Tm1 Co4'
_cell_volume   336.20275022
_cell_formula_units_Z   1
loop_
 _symmetry_equiv_pos_site_id
 _symmetry_equiv_pos_as_xyz
  1  'x, y, z'
loop_
 _atom_site_type_symbol
 _atom_site_label
 _atom_site_symmetry_multiplicity
 _atom_site_fract_x
 _atom_site_fract_y
 _atom_site_fract_z
 _atom_site_occupancy
  Ho  Ho0  1  0.794327  0.086475  0.811921  1
  Ho  Ho1  1  0.982404  0.413525  0.188079  1
  Ho  Ho2  1  0.204716  0.912331  0.187789  1
  Ho  Ho3  1  0.016927  0.587669  0.812211  1
  Ho  Ho4  1  0.214547  0.184067  0.567033  1
  Ho  Ho5  1  0.647514  0.315933  0.432967  1
  Ho  Ho6  1  0.785641  0.815742  0.432120  1
  Ho  Ho7  1  0.353522  0.684258  0.567880  1
  Ho  Ho8  1  0.427770  0.250000  0.000000  1
  Tm  Tm9  1  0.571394  0.750000  0.000000  1
  Co  Co10  1  0.601835  0.428364  0.778737  1
  Co  Co11  1  0.823096  0.071636  0.221263  1
  Co  Co12  1  0.398730  0.572281  0.221154  1
  Co  Co13  1  0.177576  0.927719  0.778846  1
