# generated using pymatgen
data_Pr16Y3Si16Ag
_symmetry_space_group_name_H-M   'P 1'
_cell_length_a   7.84445102
_cell_length_b   7.84445102
_cell_length_c   15.20209407
_cell_angle_alpha   90.08235915
_cell_angle_beta   89.91764085
_cell_angle_gamma   90.01219724
_symmetry_Int_Tables_number   1
_chemical_formula_structural   Pr16Y3Si16Ag
_chemical_formula_sum   'Pr16 Y3 Si16 Ag1'
_cell_volume   935.46516392
_cell_formula_units_Z   1
loop_
 _symmetry_equiv_pos_site_id
 _symmetry_equiv_pos_as_xyz
  1  'x, y, z'
loop_
 _atom_site_type_symbol
 _atom_site_label
 _atom_site_symmetry_multiplicity
 _atom_site_fract_x
 _atom_site_fract_y
 _atom_site_fract_z
 _atom_site_occupancy
  Pr  Pr0  1  0.379967  0.014902  0.446330  1
  Pr  Pr1  1  0.487392  0.876475  0.698984  1
  Pr  Pr2  1  0.506788  0.119805  0.188957  1
  Pr  Pr3  1  0.876475  0.487392  0.301016  1
  Pr  Pr4  1  0.119805  0.506788  0.811043  1
  Pr  Pr5  1  0.610220  0.994551  0.947817  1
  Pr  Pr6  1  0.014902  0.379967  0.553670  1
  Pr  Pr7  1  0.994551  0.610220  0.052183  1
  Pr  Pr8  1  0.130605  0.988831  0.882208  1
  Pr  Pr9  1  0.517013  0.619148  0.126314  1
  Pr  Pr10  1  0.474752  0.377997  0.627824  1
  Pr  Pr11  1  0.619148  0.517013  0.873686  1
  Pr  Pr12  1  0.377997  0.474752  0.372176  1
  Pr  Pr13  1  0.872430  0.024036  0.376104  1
  Pr  Pr14  1  0.988831  0.130605  0.117792  1
  Pr  Pr15  1  0.024036  0.872430  0.623896  1
  Y  Y16  1  0.191400  0.808401  0.249362  1
  Y  Y17  1  0.808401  0.191400  0.750638  1
  Y  Y18  1  0.692929  0.692929  0.500000  1
  Si  Si19  1  0.187775  0.173722  0.707558  1
  Si  Si20  1  0.331734  0.696159  0.954100  1
  Si  Si21  1  0.674411  0.311257  0.458101  1
  Si  Si22  1  0.696159  0.331734  0.045900  1
  Si  Si23  1  0.311257  0.674411  0.541899  1
  Si  Si24  1  0.810884  0.829160  0.202405  1
  Si  Si25  1  0.173722  0.187775  0.292442  1
  Si  Si26  1  0.829160  0.810884  0.797595  1
  Si  Si27  1  0.279756  0.902546  0.066181  1
  Si  Si28  1  0.580588  0.786559  0.310464  1
  Si  Si29  1  0.423022  0.211084  0.809900  1
  Si  Si30  1  0.786559  0.580588  0.689536  1
  Si  Si31  1  0.211084  0.423022  0.190100  1
  Si  Si32  1  0.713998  0.079124  0.564434  1
  Si  Si33  1  0.902546  0.279756  0.933819  1
  Si  Si34  1  0.079124  0.713998  0.435566  1
  Ag  Ag35  1  0.320578  0.320578  0.000000  1
