# generated using pymatgen
data_Sc3MnAl7Fe2Si5
_symmetry_space_group_name_H-M   'P 1'
_cell_length_a   8.29041257
_cell_length_b   8.31040762
_cell_length_c   8.90719294
_cell_angle_alpha   90.00000006
_cell_angle_beta   89.84514389
_cell_angle_gamma   120.07981534
_symmetry_Int_Tables_number   1
_chemical_formula_structural   Sc3MnAl7Fe2Si5
_chemical_formula_sum   'Sc6 Mn2 Al14 Fe4 Si10'
_cell_volume   531.02869452
_cell_formula_units_Z   2
loop_
 _symmetry_equiv_pos_site_id
 _symmetry_equiv_pos_as_xyz
  1  'x, y, z'
loop_
 _atom_site_type_symbol
 _atom_site_label
 _atom_site_symmetry_multiplicity
 _atom_site_fract_x
 _atom_site_fract_y
 _atom_site_fract_z
 _atom_site_occupancy
  Sc  Sc0  1  0.200197  0.801651  0.248906  1
  Sc  Sc1  1  0.200197  0.398546  0.248906  1
  Sc  Sc2  1  0.600118  0.800059  0.248975  1
  Sc  Sc3  1  0.799803  0.198349  0.751094  1
  Sc  Sc4  1  0.799803  0.601454  0.751094  1
  Sc  Sc5  1  0.399882  0.199941  0.751025  1
  Mn  Mn6  1  0.500000  0.500000  0.000000  1
  Mn  Mn7  1  0.500000  0.000000  0.000000  1
  Al  Al8  1  0.161226  0.837815  0.921536  1
  Al  Al9  1  0.161226  0.323411  0.921536  1
  Al  Al10  1  0.676218  0.838109  0.921441  1
  Al  Al11  1  0.838774  0.162185  0.078464  1
  Al  Al12  1  0.838774  0.676589  0.078464  1
  Al  Al13  1  0.323782  0.161891  0.078559  1
  Al  Al14  1  0.838785  0.162244  0.422025  1
  Al  Al15  1  0.838785  0.676541  0.422025  1
  Al  Al16  1  0.323690  0.161845  0.422091  1
  Al  Al17  1  0.161215  0.837756  0.577975  1
  Al  Al18  1  0.161215  0.323459  0.577975  1
  Al  Al19  1  0.676310  0.838155  0.577909  1
  Al  Al20  1  0.999387  0.999693  0.249830  1
  Al  Al21  1  0.000613  0.000307  0.750170  1
  Fe  Fe22  1  0.500000  0.500000  0.500000  1
  Fe  Fe23  1  0.500000  0.000000  0.500000  1
  Fe  Fe24  1  0.000000  0.500000  0.500000  1
  Fe  Fe25  1  0.000000  0.500000  0.000000  1
  Si  Si26  1  0.560775  0.439346  0.250008  1
  Si  Si27  1  0.560775  0.121429  0.250008  1
  Si  Si28  1  0.878537  0.439269  0.250374  1
  Si  Si29  1  0.439225  0.560654  0.749992  1
  Si  Si30  1  0.439225  0.878571  0.749992  1
  Si  Si31  1  0.121463  0.560731  0.749626  1
  Si  Si32  1  0.332933  0.666467  0.459515  1
  Si  Si33  1  0.667067  0.333533  0.540485  1
  Si  Si34  1  0.666509  0.333254  0.961947  1
  Si  Si35  1  0.333491  0.666746  0.038053  1
