# generated using pymatgen
data_Dy11TmNi4SnRu
_symmetry_space_group_name_H-M   'P 1'
_cell_length_a   8.29459950
_cell_length_b   8.30027623
_cell_length_c   8.29773329
_cell_angle_alpha   107.08126708
_cell_angle_beta   109.77757094
_cell_angle_gamma   111.59449468
_symmetry_Int_Tables_number   1
_chemical_formula_structural   Dy11TmNi4SnRu
_chemical_formula_sum   'Dy11 Tm1 Ni4 Sn1 Ru1'
_cell_volume   439.03855078
_cell_formula_units_Z   1
loop_
 _symmetry_equiv_pos_site_id
 _symmetry_equiv_pos_as_xyz
  1  'x, y, z'
loop_
 _atom_site_type_symbol
 _atom_site_label
 _atom_site_symmetry_multiplicity
 _atom_site_fract_x
 _atom_site_fract_y
 _atom_site_fract_z
 _atom_site_occupancy
  Dy  Dy0  1  0.689119  0.285192  0.974864  1
  Dy  Dy1  1  0.310459  0.715629  0.025350  1
  Dy  Dy2  1  0.689056  0.714111  0.403826  1
  Dy  Dy3  1  0.310534  0.285135  0.594824  1
  Dy  Dy4  1  0.805668  0.126873  0.320095  1
  Dy  Dy5  1  0.805634  0.485612  0.678685  1
  Dy  Dy6  1  0.193879  0.873438  0.679840  1
  Dy  Dy7  1  0.193955  0.514084  0.320594  1
  Dy  Dy8  1  0.609268  0.790799  0.818513  1
  Dy  Dy9  1  0.972614  0.791301  0.181240  1
  Dy  Dy10  1  0.029498  0.209977  0.819598  1
  Tm  Tm11  1  0.391387  0.210606  0.180737  1
  Ni  Ni12  1  0.860591  0.498168  0.362664  1
  Ni  Ni13  1  0.136507  0.499874  0.636557  1
  Ni  Ni14  1  0.001978  0.123387  0.123475  1
  Ni  Ni15  1  0.002998  0.878777  0.879245  1
  Sn  Sn16  1  0.499537  0.999609  0.500033  1
  Ru  Ru17  1  0.497318  0.497428  0.999857  1
