# generated using pymatgen
data_Ba7Pa2HgSe12
_symmetry_space_group_name_H-M   'P 1'
_cell_length_a   9.07689059
_cell_length_b   9.07689063
_cell_length_c   9.07689100
_cell_angle_alpha   87.82594936
_cell_angle_beta   87.82594303
_cell_angle_gamma   87.82596320
_symmetry_Int_Tables_number   1
_chemical_formula_structural   Ba7Pa2HgSe12
_chemical_formula_sum   'Ba7 Pa2 Hg1 Se12'
_cell_volume   746.26938966
_cell_formula_units_Z   1
loop_
 _symmetry_equiv_pos_site_id
 _symmetry_equiv_pos_as_xyz
  1  'x, y, z'
loop_
 _atom_site_type_symbol
 _atom_site_label
 _atom_site_symmetry_multiplicity
 _atom_site_fract_x
 _atom_site_fract_y
 _atom_site_fract_z
 _atom_site_occupancy
  Ba  Ba0  1  0.891451  0.608549  0.250000  1
  Ba  Ba1  1  0.250000  0.891451  0.608549  1
  Ba  Ba2  1  0.608549  0.250000  0.891451  1
  Ba  Ba3  1  0.750000  0.126258  0.373742  1
  Ba  Ba4  1  0.373742  0.750000  0.126258  1
  Ba  Ba5  1  0.126258  0.373742  0.750000  1
  Ba  Ba6  1  0.750000  0.750000  0.750000  1
  Pa  Pa7  1  0.501499  0.501499  0.501499  1
  Pa  Pa8  1  0.998501  0.998501  0.998501  1
  Hg  Hg9  1  0.250000  0.250000  0.250000  1
  Se  Se10  1  0.212247  0.576137  0.439806  1
  Se  Se11  1  0.439806  0.212247  0.576137  1
  Se  Se12  1  0.576137  0.439806  0.212247  1
  Se  Se13  1  0.920406  0.061101  0.702708  1
  Se  Se14  1  0.702708  0.920406  0.061101  1
  Se  Se15  1  0.061101  0.702708  0.920406  1
  Se  Se16  1  0.797292  0.438899  0.579594  1
  Se  Se17  1  0.579594  0.797292  0.438899  1
  Se  Se18  1  0.438899  0.579594  0.797292  1
  Se  Se19  1  0.060194  0.923863  0.287753  1
  Se  Se20  1  0.287753  0.060194  0.923863  1
  Se  Se21  1  0.923863  0.287753  0.060194  1
