# generated using pymatgen
data_YbSmRu2O7
_symmetry_space_group_name_H-M   'P 1'
_cell_length_a   7.27173641
_cell_length_b   7.27325610
_cell_length_c   7.27325568
_cell_angle_alpha   59.93237722
_cell_angle_beta   60.00690093
_cell_angle_gamma   60.00691215
_symmetry_Int_Tables_number   1
_chemical_formula_structural   YbSmRu2O7
_chemical_formula_sum   'Yb2 Sm2 Ru4 O14'
_cell_volume   271.89655560
_cell_formula_units_Z   2
loop_
 _symmetry_equiv_pos_site_id
 _symmetry_equiv_pos_as_xyz
  1  'x, y, z'
loop_
 _atom_site_type_symbol
 _atom_site_label
 _atom_site_symmetry_multiplicity
 _atom_site_fract_x
 _atom_site_fract_y
 _atom_site_fract_z
 _atom_site_occupancy
  Yb  Yb0  1  0.625000  0.625000  0.125000  1
  Yb  Yb1  1  0.625000  0.125000  0.625000  1
  Sm  Sm2  1  0.625000  0.625000  0.625000  1
  Sm  Sm3  1  0.125000  0.625000  0.625000  1
  Ru  Ru4  1  0.125000  0.125000  0.125000  1
  Ru  Ru5  1  0.625000  0.125000  0.125000  1
  Ru  Ru6  1  0.125000  0.125000  0.625000  1
  Ru  Ru7  1  0.125000  0.625000  0.125000  1
  O  O8  1  0.501149  0.498851  0.498851  1
  O  O9  1  0.748851  0.751149  0.751149  1
  O  O10  1  0.049974  0.048820  0.451219  1
  O  O11  1  0.800013  0.798781  0.201180  1
  O  O12  1  0.449987  0.048820  0.451219  1
  O  O13  1  0.446837  0.053163  0.053163  1
  O  O14  1  0.045629  0.454371  0.454371  1
  O  O15  1  0.049974  0.451219  0.048820  1
  O  O16  1  0.449987  0.451219  0.048820  1
  O  O17  1  0.204371  0.795629  0.795629  1
  O  O18  1  0.803163  0.196837  0.196837  1
  O  O19  1  0.200026  0.201180  0.798781  1
  O  O20  1  0.200026  0.798781  0.201180  1
  O  O21  1  0.800013  0.201180  0.798781  1
