# generated using pymatgen
data_DyYPa2(VB4)4
_symmetry_space_group_name_H-M   'P 1'
_cell_length_a   3.53682400
_cell_length_b   5.97887816
_cell_length_c   11.57950000
_cell_angle_alpha   89.80652974
_cell_angle_beta   90.00000000
_cell_angle_gamma   90.00000000
_symmetry_Int_Tables_number   1
_chemical_formula_structural   DyYPa2(VB4)4
_chemical_formula_sum   'Dy1 Y1 Pa2 V4 B16'
_cell_volume   244.86148747
_cell_formula_units_Z   1
loop_
 _symmetry_equiv_pos_site_id
 _symmetry_equiv_pos_as_xyz
  1  'x, y, z'
loop_
 _atom_site_type_symbol
 _atom_site_label
 _atom_site_symmetry_multiplicity
 _atom_site_fract_x
 _atom_site_fract_y
 _atom_site_fract_z
 _atom_site_occupancy
  Dy  Dy0  1  0.000000  0.877133  0.851087  1
  Y  Y1  1  0.000000  0.122832  0.148900  1
  Pa  Pa2  1  0.000000  0.625677  0.347470  1
  Pa  Pa3  1  0.000000  0.374318  0.652549  1
  V  V4  1  0.000000  0.624246  0.083272  1
  V  V5  1  0.000000  0.375763  0.916680  1
  V  V6  1  0.000000  0.127507  0.417371  1
  V  V7  1  0.000000  0.872509  0.582656  1
  B  B8  1  0.500000  0.783241  0.184928  1
  B  B9  1  0.500000  0.216669  0.815106  1
  B  B10  1  0.500000  0.283573  0.314581  1
  B  B11  1  0.500000  0.716502  0.685475  1
  B  B12  1  0.500000  0.864142  0.032633  1
  B  B13  1  0.500000  0.135780  0.967270  1
  B  B14  1  0.500000  0.363869  0.467140  1
  B  B15  1  0.500000  0.636128  0.532856  1
  B  B16  1  0.500000  0.886991  0.453197  1
  B  B17  1  0.500000  0.113006  0.546801  1
  B  B18  1  0.500000  0.385831  0.046067  1
  B  B19  1  0.500000  0.614250  0.953891  1
  B  B20  1  0.500000  0.974204  0.308159  1
  B  B21  1  0.500000  0.025722  0.691883  1
  B  B22  1  0.500000  0.476571  0.191196  1
  B  B23  1  0.500000  0.523537  0.808833  1
