# generated using pymatgen
data_La2Lu(Zn3Ni2)3
_symmetry_space_group_name_H-M   'P 1'
_cell_length_a   8.97099200
_cell_length_b   8.97099066
_cell_length_c   4.19975800
_cell_angle_alpha   90.00000000
_cell_angle_beta   90.00000000
_cell_angle_gamma   119.99999756
_symmetry_Int_Tables_number   1
_chemical_formula_structural   La2Lu(Zn3Ni2)3
_chemical_formula_sum   'La2 Lu1 Zn9 Ni6'
_cell_volume   292.70880207
_cell_formula_units_Z   1
loop_
 _symmetry_equiv_pos_site_id
 _symmetry_equiv_pos_as_xyz
  1  'x, y, z'
loop_
 _atom_site_type_symbol
 _atom_site_label
 _atom_site_symmetry_multiplicity
 _atom_site_fract_x
 _atom_site_fract_y
 _atom_site_fract_z
 _atom_site_occupancy
  La  La0  1  0.333333  0.666667  0.000000  1
  La  La1  1  0.666667  0.333333  0.000000  1
  Lu  Lu2  1  0.000000  0.000000  0.500000  1
  Zn  Zn3  1  0.500000  0.000000  0.500000  1
  Zn  Zn4  1  0.500000  0.500000  0.500000  1
  Zn  Zn5  1  0.000000  0.500000  0.500000  1
  Zn  Zn6  1  0.288185  0.000000  0.000000  1
  Zn  Zn7  1  0.288185  0.288185  0.000000  1
  Zn  Zn8  1  0.000000  0.711815  0.000000  1
  Zn  Zn9  1  0.000000  0.288185  0.000000  1
  Zn  Zn10  1  0.711815  0.711815  0.000000  1
  Zn  Zn11  1  0.711815  0.000000  0.000000  1
  Ni  Ni12  1  0.177692  0.355384  0.500000  1
  Ni  Ni13  1  0.822308  0.177692  0.500000  1
  Ni  Ni14  1  0.355384  0.177692  0.500000  1
  Ni  Ni15  1  0.644616  0.822308  0.500000  1
  Ni  Ni16  1  0.177692  0.822308  0.500000  1
  Ni  Ni17  1  0.822308  0.644616  0.500000  1
