# generated using pymatgen
data_Dy2Ho2TmBiAu2
_symmetry_space_group_name_H-M   'P 1'
_cell_length_a   8.69015295
_cell_length_b   8.69015374
_cell_length_c   8.69015300
_cell_angle_alpha   124.20466502
_cell_angle_beta   124.20466230
_cell_angle_gamma   82.85957993
_symmetry_Int_Tables_number   1
_chemical_formula_structural   Dy2Ho2TmBiAu2
_chemical_formula_sum   'Dy4 Ho4 Tm2 Bi2 Au4'
_cell_volume   430.88696665
_cell_formula_units_Z   2
loop_
 _symmetry_equiv_pos_site_id
 _symmetry_equiv_pos_as_xyz
  1  'x, y, z'
loop_
 _atom_site_type_symbol
 _atom_site_label
 _atom_site_symmetry_multiplicity
 _atom_site_fract_x
 _atom_site_fract_y
 _atom_site_fract_z
 _atom_site_occupancy
  Dy  Dy0  1  0.014767  0.514767  0.810147  1
  Dy  Dy1  1  0.704620  0.204620  0.189853  1
  Dy  Dy2  1  0.514767  0.704620  0.500000  1
  Dy  Dy3  1  0.204620  0.014767  0.500000  1
  Ho  Ho4  1  0.985019  0.485019  0.190188  1
  Ho  Ho5  1  0.294831  0.794831  0.809812  1
  Ho  Ho6  1  0.485019  0.294831  0.500000  1
  Ho  Ho7  1  0.794831  0.985019  0.500000  1
  Tm  Tm8  1  0.000147  0.000147  0.000000  1
  Tm  Tm9  1  0.500147  0.500147  0.000000  1
  Bi  Bi10  1  0.749975  0.749975  0.000000  1
  Bi  Bi11  1  0.249975  0.249975  0.000000  1
  Au  Au12  1  0.638784  0.138784  0.776926  1
  Au  Au13  1  0.361856  0.861856  0.223074  1
  Au  Au14  1  0.138784  0.361856  0.500000  1
  Au  Au15  1  0.861856  0.638784  0.500000  1
