# generated using pymatgen
data_Li4Ca8Al4Si7Ge
_symmetry_space_group_name_H-M   'P 1'
_cell_length_a   4.33620600
_cell_length_b   7.05956384
_cell_length_c   16.40096763
_cell_angle_alpha   90.10292719
_cell_angle_beta   90.00000000
_cell_angle_gamma   90.00000000
_symmetry_Int_Tables_number   1
_chemical_formula_structural   Li4Ca8Al4Si7Ge
_chemical_formula_sum   'Li4 Ca8 Al4 Si7 Ge1'
_cell_volume   502.06106936
_cell_formula_units_Z   1
loop_
 _symmetry_equiv_pos_site_id
 _symmetry_equiv_pos_as_xyz
  1  'x, y, z'
loop_
 _atom_site_type_symbol
 _atom_site_label
 _atom_site_symmetry_multiplicity
 _atom_site_fract_x
 _atom_site_fract_y
 _atom_site_fract_z
 _atom_site_occupancy
  Li  Li0  1  0.250000  0.982869  0.067740  1
  Li  Li1  1  0.750000  0.516219  0.568513  1
  Li  Li2  1  0.750000  0.017034  0.932216  1
  Li  Li3  1  0.250000  0.481642  0.432066  1
  Ca  Ca4  1  0.250000  0.341976  0.938725  1
  Ca  Ca5  1  0.250000  0.842729  0.561942  1
  Ca  Ca6  1  0.750000  0.159051  0.438817  1
  Ca  Ca7  1  0.750000  0.495188  0.276313  1
  Ca  Ca8  1  0.750000  0.996083  0.222780  1
  Ca  Ca9  1  0.750000  0.658131  0.061060  1
  Ca  Ca10  1  0.250000  0.504409  0.723302  1
  Ca  Ca11  1  0.250000  0.004358  0.776806  1
  Al  Al12  1  0.750000  0.165834  0.655886  1
  Al  Al13  1  0.250000  0.835944  0.342273  1
  Al  Al14  1  0.750000  0.665925  0.844151  1
  Al  Al15  1  0.250000  0.334139  0.155738  1
  Si  Si16  1  0.750000  0.232739  0.073150  1
  Si  Si17  1  0.750000  0.794837  0.690142  1
  Si  Si18  1  0.250000  0.205133  0.309821  1
  Si  Si19  1  0.250000  0.705164  0.189723  1
  Si  Si20  1  0.250000  0.267598  0.573097  1
  Si  Si21  1  0.750000  0.295059  0.810005  1
  Si  Si22  1  0.250000  0.767339  0.926889  1
  Ge  Ge23  1  0.750000  0.730599  0.428846  1
