# generated using pymatgen
data_Sm2Co12SiP6
_symmetry_space_group_name_H-M   'P 1'
_cell_length_a   9.08900100
_cell_length_b   9.08900146
_cell_length_c   3.61538600
_cell_angle_alpha   90.00000000
_cell_angle_beta   90.00000000
_cell_angle_gamma   120.00000198
_symmetry_Int_Tables_number   1
_chemical_formula_structural   Sm2Co12SiP6
_chemical_formula_sum   'Sm2 Co12 Si1 P6'
_cell_volume   258.65305913
_cell_formula_units_Z   1
loop_
 _symmetry_equiv_pos_site_id
 _symmetry_equiv_pos_as_xyz
  1  'x, y, z'
loop_
 _atom_site_type_symbol
 _atom_site_label
 _atom_site_symmetry_multiplicity
 _atom_site_fract_x
 _atom_site_fract_y
 _atom_site_fract_z
 _atom_site_occupancy
  Sm  Sm0  1  0.333333  0.666667  0.500000  1
  Sm  Sm1  1  0.000000  0.000000  0.000000  1
  Co  Co2  1  0.099437  0.392126  0.000000  1
  Co  Co3  1  0.607874  0.707310  0.000000  1
  Co  Co4  1  0.292690  0.900563  0.000000  1
  Co  Co5  1  0.050917  0.767092  0.500000  1
  Co  Co6  1  0.232908  0.283825  0.500000  1
  Co  Co7  1  0.716175  0.949083  0.500000  1
  Co  Co8  1  0.823415  0.612830  0.000000  1
  Co  Co9  1  0.387170  0.210585  0.000000  1
  Co  Co10  1  0.789415  0.176585  0.000000  1
  Co  Co11  1  0.897272  0.434997  0.500000  1
  Co  Co12  1  0.565003  0.462275  0.500000  1
  Co  Co13  1  0.537725  0.102728  0.500000  1
  Si  Si14  1  0.666667  0.333333  0.000000  1
  P  P15  1  0.774775  0.732410  0.500000  1
  P  P16  1  0.267590  0.042365  0.500000  1
  P  P17  1  0.957635  0.225225  0.500000  1
  P  P18  1  0.069682  0.626821  0.000000  1
  P  P19  1  0.373179  0.442861  0.000000  1
  P  P20  1  0.557139  0.930318  0.000000  1
