# generated using pymatgen
data_CaDy5(SiPd)6
_symmetry_space_group_name_H-M   'P 1'
_cell_length_a   4.34470800
_cell_length_b   7.47283090
_cell_length_c   21.23640600
_cell_angle_alpha   89.97189200
_cell_angle_beta   90.00000000
_cell_angle_gamma   90.00000000
_symmetry_Int_Tables_number   1
_chemical_formula_structural   CaDy5(SiPd)6
_chemical_formula_sum   'Ca2 Dy10 Si12 Pd12'
_cell_volume   689.48800604
_cell_formula_units_Z   2
loop_
 _symmetry_equiv_pos_site_id
 _symmetry_equiv_pos_as_xyz
  1  'x, y, z'
loop_
 _atom_site_type_symbol
 _atom_site_label
 _atom_site_symmetry_multiplicity
 _atom_site_fract_x
 _atom_site_fract_y
 _atom_site_fract_z
 _atom_site_occupancy
  Ca  Ca0  1  0.250000  0.704346  0.332483  1
  Ca  Ca1  1  0.750000  0.295654  0.667517  1
  Dy  Dy2  1  0.750000  0.203512  0.167226  1
  Dy  Dy3  1  0.250000  0.796488  0.832774  1
  Dy  Dy4  1  0.250000  0.795058  0.166530  1
  Dy  Dy5  1  0.750000  0.204942  0.833470  1
  Dy  Dy6  1  0.750000  0.295004  0.333882  1
  Dy  Dy7  1  0.250000  0.704996  0.666118  1
  Dy  Dy8  1  0.250000  0.710706  0.000993  1
  Dy  Dy9  1  0.750000  0.289294  0.999007  1
  Dy  Dy10  1  0.750000  0.207950  0.499445  1
  Dy  Dy11  1  0.250000  0.792050  0.500555  1
  Si  Si12  1  0.250000  0.090869  0.070918  1
  Si  Si13  1  0.750000  0.909131  0.929082  1
  Si  Si14  1  0.750000  0.588148  0.433252  1
  Si  Si15  1  0.250000  0.411852  0.566748  1
  Si  Si16  1  0.250000  0.087553  0.272032  1
  Si  Si17  1  0.750000  0.912447  0.727968  1
  Si  Si18  1  0.750000  0.583441  0.226101  1
  Si  Si19  1  0.250000  0.416559  0.773899  1
  Si  Si20  1  0.250000  0.089135  0.394571  1
  Si  Si21  1  0.750000  0.910865  0.605429  1
  Si  Si22  1  0.750000  0.588115  0.104608  1
  Si  Si23  1  0.250000  0.411885  0.895392  1
  Pd  Pd24  1  0.250000  0.414959  0.235490  1
  Pd  Pd25  1  0.750000  0.585041  0.764510  1
  Pd  Pd26  1  0.750000  0.917682  0.261823  1
  Pd  Pd27  1  0.250000  0.082318  0.738177  1
  Pd  Pd28  1  0.250000  0.415898  0.437287  1
  Pd  Pd29  1  0.750000  0.584102  0.562713  1
  Pd  Pd30  1  0.750000  0.916894  0.062411  1
  Pd  Pd31  1  0.250000  0.083106  0.937589  1
  Pd  Pd32  1  0.250000  0.420177  0.093645  1
  Pd  Pd33  1  0.750000  0.579823  0.906355  1
  Pd  Pd34  1  0.750000  0.919305  0.407232  1
  Pd  Pd35  1  0.250000  0.080695  0.592768  1
