# generated using pymatgen
data_Yb6PrSm(MgRu)2
_symmetry_space_group_name_H-M   'P 1'
_cell_length_a   10.00768655
_cell_length_b   10.00768627
_cell_length_c   9.98869800
_cell_angle_alpha   60.06274461
_cell_angle_beta   60.06274554
_cell_angle_gamma   60.17192223
_symmetry_Int_Tables_number   1
_chemical_formula_structural   Yb6PrSm(MgRu)2
_chemical_formula_sum   'Yb12 Pr2 Sm2 Mg4 Ru4'
_cell_volume   708.98111587
_cell_formula_units_Z   2
loop_
 _symmetry_equiv_pos_site_id
 _symmetry_equiv_pos_as_xyz
  1  'x, y, z'
loop_
 _atom_site_type_symbol
 _atom_site_label
 _atom_site_symmetry_multiplicity
 _atom_site_fract_x
 _atom_site_fract_y
 _atom_site_fract_z
 _atom_site_occupancy
  Yb  Yb0  1  0.951615  0.547782  0.548193  1
  Yb  Yb1  1  0.547782  0.951615  0.952410  1
  Yb  Yb2  1  0.547782  0.951615  0.548193  1
  Yb  Yb3  1  0.951615  0.547782  0.952410  1
  Yb  Yb4  1  0.548167  0.548167  0.951833  1
  Yb  Yb5  1  0.952107  0.952107  0.547893  1
  Yb  Yb6  1  0.810910  0.189701  0.189957  1
  Yb  Yb7  1  0.189701  0.810910  0.809433  1
  Yb  Yb8  1  0.189701  0.810910  0.189957  1
  Yb  Yb9  1  0.810910  0.189701  0.809433  1
  Yb  Yb10  1  0.189700  0.189700  0.810300  1
  Yb  Yb11  1  0.810088  0.810088  0.189912  1
  Pr  Pr12  1  0.341575  0.341575  0.342635  1
  Pr  Pr13  1  0.341575  0.341575  0.974212  1
  Sm  Sm14  1  0.339000  0.979737  0.340630  1
  Sm  Sm15  1  0.979737  0.339000  0.340630  1
  Mg  Mg16  1  0.577576  0.577576  0.576692  1
  Mg  Mg17  1  0.577576  0.577576  0.268156  1
  Mg  Mg18  1  0.578189  0.267460  0.577176  1
  Mg  Mg19  1  0.267460  0.578189  0.577176  1
  Ru  Ru20  1  0.136950  0.136950  0.140421  1
  Ru  Ru21  1  0.136950  0.136950  0.585679  1
  Ru  Ru22  1  0.134600  0.588732  0.138334  1
  Ru  Ru23  1  0.588732  0.134600  0.138334  1
