# generated using pymatgen
data_La9Pr6Th(MgIr)4
_symmetry_space_group_name_H-M   'P 1'
_cell_length_a   10.15697891
_cell_length_b   10.15697885
_cell_length_c   10.15697992
_cell_angle_alpha   60.05789918
_cell_angle_beta   60.05790068
_cell_angle_gamma   60.05790039
_symmetry_Int_Tables_number   1
_chemical_formula_structural   La9Pr6Th(MgIr)4
_chemical_formula_sum   'La9 Pr6 Th1 Mg4 Ir4'
_cell_volume   741.90488056
_cell_formula_units_Z   1
loop_
 _symmetry_equiv_pos_site_id
 _symmetry_equiv_pos_as_xyz
  1  'x, y, z'
loop_
 _atom_site_type_symbol
 _atom_site_label
 _atom_site_symmetry_multiplicity
 _atom_site_fract_x
 _atom_site_fract_y
 _atom_site_fract_z
 _atom_site_occupancy
  La  La0  1  0.346019  0.346019  0.962417  1
  La  La1  1  0.346019  0.962417  0.346019  1
  La  La2  1  0.962417  0.346019  0.346019  1
  La  La3  1  0.810721  0.188906  0.188906  1
  La  La4  1  0.189389  0.809873  0.809873  1
  La  La5  1  0.188906  0.810721  0.188906  1
  La  La6  1  0.809873  0.189389  0.809873  1
  La  La7  1  0.188906  0.188906  0.810721  1
  La  La8  1  0.809873  0.809873  0.189389  1
  Pr  Pr9  1  0.939888  0.563246  0.563246  1
  Pr  Pr10  1  0.561417  0.936921  0.936921  1
  Pr  Pr11  1  0.563246  0.939888  0.563246  1
  Pr  Pr12  1  0.936921  0.561417  0.936921  1
  Pr  Pr13  1  0.563246  0.563246  0.939888  1
  Pr  Pr14  1  0.936921  0.936921  0.561417  1
  Th  Th15  1  0.343574  0.343574  0.343574  1
  Mg  Mg16  1  0.578819  0.578819  0.578819  1
  Mg  Mg17  1  0.577213  0.577213  0.263188  1
  Mg  Mg18  1  0.577213  0.263188  0.577213  1
  Mg  Mg19  1  0.263188  0.577213  0.577213  1
  Ir  Ir20  1  0.141207  0.141207  0.141207  1
  Ir  Ir21  1  0.146525  0.146525  0.571974  1
  Ir  Ir22  1  0.146525  0.571974  0.146525  1
  Ir  Ir23  1  0.571974  0.146525  0.146525  1
