# generated using pymatgen
data_HoCdGaPd3
_symmetry_space_group_name_H-M   'P 1'
_cell_length_a   5.52429701
_cell_length_b   5.52429696
_cell_length_c   5.19486742
_cell_angle_alpha   57.87911548
_cell_angle_beta   57.87910031
_cell_angle_gamma   59.99998860
_symmetry_Int_Tables_number   1
_chemical_formula_structural   HoCdGaPd3
_chemical_formula_sum   'Ho1 Cd1 Ga1 Pd3'
_cell_volume   108.37282991
_cell_formula_units_Z   1
loop_
 _symmetry_equiv_pos_site_id
 _symmetry_equiv_pos_as_xyz
  1  'x, y, z'
loop_
 _atom_site_type_symbol
 _atom_site_label
 _atom_site_symmetry_multiplicity
 _atom_site_fract_x
 _atom_site_fract_y
 _atom_site_fract_z
 _atom_site_occupancy
  Ho  Ho0  1  0.247865  0.247865  0.256404  1
  Cd  Cd1  1  0.996054  0.996054  0.011839  1
  Ga  Ga2  1  0.627503  0.627503  0.117492  1
  Pd  Pd3  1  0.626300  0.125979  0.621422  1
  Pd  Pd4  1  0.125979  0.626300  0.621422  1
  Pd  Pd5  1  0.626300  0.626300  0.621422  1
