# generated using pymatgen
data_Tm4Re3Tc3W2
_symmetry_space_group_name_H-M   'P 1'
_cell_length_a   5.46933600
_cell_length_b   5.46933694
_cell_length_c   8.64129900
_cell_angle_alpha   90.00000000
_cell_angle_beta   90.00000000
_cell_angle_gamma   119.99999433
_symmetry_Int_Tables_number   1
_chemical_formula_structural   Tm4Re3Tc3W2
_chemical_formula_sum   'Tm4 Re3 Tc3 W2'
_cell_volume   223.86127463
_cell_formula_units_Z   1
loop_
 _symmetry_equiv_pos_site_id
 _symmetry_equiv_pos_as_xyz
  1  'x, y, z'
loop_
 _atom_site_type_symbol
 _atom_site_label
 _atom_site_symmetry_multiplicity
 _atom_site_fract_x
 _atom_site_fract_y
 _atom_site_fract_z
 _atom_site_occupancy
  Tm  Tm0  1  0.333333  0.666667  0.437468  1
  Tm  Tm1  1  0.666667  0.333333  0.562417  1
  Tm  Tm2  1  0.666667  0.333333  0.937583  1
  Tm  Tm3  1  0.333333  0.666667  0.062532  1
  Re  Re4  1  0.171172  0.828828  0.750000  1
  Re  Re5  1  0.171172  0.342346  0.750000  1
  Re  Re6  1  0.657654  0.828828  0.750000  1
  Tc  Tc7  1  0.827902  0.172098  0.250000  1
  Tc  Tc8  1  0.827902  0.655803  0.250000  1
  Tc  Tc9  1  0.344197  0.172098  0.250000  1
  W  W10  1  0.000000  0.000000  0.497907  1
  W  W11  1  0.000000  0.000000  0.002093  1
