# generated using pymatgen
data_Li8YbTh7Sn8
_symmetry_space_group_name_H-M   'P 1'
_cell_length_a   9.63516400
_cell_length_b   9.63516331
_cell_length_c   7.42683900
_cell_angle_alpha   90.00000000
_cell_angle_beta   90.00000000
_cell_angle_gamma   120.00000236
_symmetry_Int_Tables_number   1
_chemical_formula_structural   Li8YbTh7Sn8
_chemical_formula_sum   'Li8 Yb1 Th7 Sn8'
_cell_volume   597.10790679
_cell_formula_units_Z   1
loop_
 _symmetry_equiv_pos_site_id
 _symmetry_equiv_pos_as_xyz
  1  'x, y, z'
loop_
 _atom_site_type_symbol
 _atom_site_label
 _atom_site_symmetry_multiplicity
 _atom_site_fract_x
 _atom_site_fract_y
 _atom_site_fract_z
 _atom_site_occupancy
  Li  Li0  1  0.165883  0.331768  0.262276  1
  Li  Li1  1  0.165883  0.834117  0.262276  1
  Li  Li2  1  0.668232  0.834117  0.262276  1
  Li  Li3  1  0.835284  0.670567  0.782491  1
  Li  Li4  1  0.835284  0.164716  0.782491  1
  Li  Li5  1  0.329433  0.164716  0.782491  1
  Li  Li6  1  0.333333  0.666667  0.697388  1
  Li  Li7  1  0.666667  0.333333  0.195187  1
  Yb  Yb8  1  0.000000  0.000000  0.998890  1
  Th  Th9  1  0.507493  0.014986  0.495278  1
  Th  Th10  1  0.507493  0.492507  0.495278  1
  Th  Th11  1  0.985014  0.492507  0.495278  1
  Th  Th12  1  0.492699  0.985398  0.994860  1
  Th  Th13  1  0.492699  0.507301  0.994860  1
  Th  Th14  1  0.014602  0.507301  0.994860  1
  Th  Th15  1  0.000000  0.000000  0.498533  1
  Sn  Sn16  1  0.166615  0.333229  0.737575  1
  Sn  Sn17  1  0.166615  0.833385  0.737575  1
  Sn  Sn18  1  0.666771  0.833385  0.737575  1
  Sn  Sn19  1  0.833661  0.667322  0.236745  1
  Sn  Sn20  1  0.833661  0.166339  0.236745  1
  Sn  Sn21  1  0.332678  0.166339  0.236745  1
  Sn  Sn22  1  0.333333  0.666667  0.262477  1
  Sn  Sn23  1  0.666667  0.333333  0.761845  1
