# generated using pymatgen
data_HfSc7Si16(MoW3)3
_symmetry_space_group_name_H-M   'P 1'
_cell_length_a   6.56916837
_cell_length_b   6.78214890
_cell_length_c   12.68049782
_cell_angle_alpha   89.92395542
_cell_angle_beta   90.02333950
_cell_angle_gamma   90.06449245
_symmetry_Int_Tables_number   1
_chemical_formula_structural   HfSc7Si16(MoW3)3
_chemical_formula_sum   'Hf1 Sc7 Si16 Mo3 W9'
_cell_volume   564.95430637
_cell_formula_units_Z   1
loop_
 _symmetry_equiv_pos_site_id
 _symmetry_equiv_pos_as_xyz
  1  'x, y, z'
loop_
 _atom_site_type_symbol
 _atom_site_label
 _atom_site_symmetry_multiplicity
 _atom_site_fract_x
 _atom_site_fract_y
 _atom_site_fract_z
 _atom_site_occupancy
  Hf  Hf0  1  0.506337  0.669289  0.594090  1
  Sc  Sc1  1  0.995228  0.169057  0.093244  1
  Sc  Sc2  1  0.004893  0.830479  0.907623  1
  Sc  Sc3  1  0.505231  0.669456  0.907514  1
  Sc  Sc4  1  0.006831  0.830774  0.592036  1
  Sc  Sc5  1  0.495262  0.330350  0.093204  1
  Sc  Sc6  1  0.994413  0.169429  0.407309  1
  Sc  Sc7  1  0.495311  0.331327  0.407426  1
  Si  Si8  1  0.033496  0.121129  0.750245  1
  Si  Si9  1  0.966044  0.878911  0.249118  1
  Si  Si10  1  0.465067  0.619801  0.248916  1
  Si  Si11  1  0.534515  0.377793  0.751389  1
  Si  Si12  1  0.299471  0.859710  0.751112  1
  Si  Si13  1  0.699353  0.141397  0.250118  1
  Si  Si14  1  0.199326  0.358561  0.250011  1
  Si  Si15  1  0.802354  0.641427  0.751317  1
  Si  Si16  1  0.167699  0.461932  0.543103  1
  Si  Si17  1  0.831562  0.537097  0.456024  1
  Si  Si18  1  0.332648  0.963886  0.456247  1
  Si  Si19  1  0.834227  0.535832  0.044885  1
  Si  Si20  1  0.667903  0.038503  0.543524  1
  Si  Si21  1  0.165333  0.462895  0.954909  1
  Si  Si22  1  0.664639  0.037060  0.954462  1
  Si  Si23  1  0.334343  0.963860  0.044978  1
  Mo  Mo24  1  0.329743  0.165994  0.875778  1
  Mo  Mo25  1  0.830882  0.334752  0.875950  1
  Mo  Mo26  1  0.169143  0.664268  0.123463  1
  W  W27  1  0.166463  0.505550  0.747479  1
  W  W28  1  0.834244  0.495503  0.251117  1
  W  W29  1  0.334550  0.004226  0.250437  1
  W  W30  1  0.665609  0.992219  0.747684  1
  W  W31  1  0.332190  0.164467  0.624529  1
  W  W32  1  0.667417  0.833978  0.376386  1
  W  W33  1  0.168790  0.666052  0.375392  1
  W  W34  1  0.668688  0.834824  0.124178  1
  W  W35  1  0.830796  0.338212  0.624805  1
