# generated using pymatgen
data_Ta8V3TcB8
_symmetry_space_group_name_H-M   'P 1'
_cell_length_a   6.02502000
_cell_length_b   6.02502000
_cell_length_c   6.52666800
_cell_angle_alpha   90.00000000
_cell_angle_beta   90.00000000
_cell_angle_gamma   90.00000000
_symmetry_Int_Tables_number   1
_chemical_formula_structural   Ta8V3TcB8
_chemical_formula_sum   'Ta8 V3 Tc1 B8'
_cell_volume   236.92370050
_cell_formula_units_Z   1
loop_
 _symmetry_equiv_pos_site_id
 _symmetry_equiv_pos_as_xyz
  1  'x, y, z'
loop_
 _atom_site_type_symbol
 _atom_site_label
 _atom_site_symmetry_multiplicity
 _atom_site_fract_x
 _atom_site_fract_y
 _atom_site_fract_z
 _atom_site_occupancy
  Ta  Ta0  1  0.678572  0.819075  0.501789  1
  Ta  Ta1  1  0.321428  0.180925  0.501789  1
  Ta  Ta2  1  0.819112  0.321391  0.998201  1
  Ta  Ta3  1  0.180888  0.678609  0.998201  1
  Ta  Ta4  1  0.819075  0.321428  0.501789  1
  Ta  Ta5  1  0.180925  0.678572  0.501789  1
  Ta  Ta6  1  0.321391  0.180888  0.998201  1
  Ta  Ta7  1  0.678609  0.819112  0.998201  1
  V  V8  1  0.500000  0.500000  0.249913  1
  V  V9  1  0.000000  0.000000  0.749885  1
  V  V10  1  0.500000  0.500000  0.750076  1
  Tc  Tc11  1  0.000000  0.000000  0.250108  1
  B  B12  1  0.390963  0.888795  0.250007  1
  B  B13  1  0.609037  0.111205  0.250007  1
  B  B14  1  0.110598  0.389442  0.750007  1
  B  B15  1  0.889402  0.610558  0.750007  1
  B  B16  1  0.888795  0.609037  0.250007  1
  B  B17  1  0.111205  0.390963  0.250007  1
  B  B18  1  0.389442  0.889402  0.750007  1
  B  B19  1  0.610558  0.110598  0.750007  1
