# generated using pymatgen
data_Er5HfBiO12
_symmetry_space_group_name_H-M   'P 1'
_cell_length_a   6.46594064
_cell_length_b   6.47971852
_cell_length_c   6.44181501
_cell_angle_alpha   98.89057197
_cell_angle_beta   99.58828450
_cell_angle_gamma   99.07527981
_symmetry_Int_Tables_number   1
_chemical_formula_structural   Er5HfBiO12
_chemical_formula_sum   'Er5 Hf1 Bi1 O12'
_cell_volume   258.22272843
_cell_formula_units_Z   1
loop_
 _symmetry_equiv_pos_site_id
 _symmetry_equiv_pos_as_xyz
  1  'x, y, z'
loop_
 _atom_site_type_symbol
 _atom_site_label
 _atom_site_symmetry_multiplicity
 _atom_site_fract_x
 _atom_site_fract_y
 _atom_site_fract_z
 _atom_site_occupancy
  Er  Er0  1  0.143967  0.607478  0.312948  1
  Er  Er1  1  0.687951  0.858968  0.389965  1
  Er  Er2  1  0.313676  0.142276  0.610689  1
  Er  Er3  1  0.859549  0.391496  0.684772  1
  Er  Er4  1  0.392760  0.682541  0.854478  1
  Hf  Hf5  1  0.609345  0.321348  0.145278  1
  Bi  Bi6  1  0.999760  0.002251  0.003678  1
  O  O7  1  0.678743  0.928597  0.050273  1
  O  O8  1  0.929427  0.316832  0.078544  1
  O  O9  1  0.432193  0.562917  0.177081  1
  O  O10  1  0.071715  0.947128  0.320707  1
  O  O11  1  0.814743  0.561148  0.398899  1
  O  O12  1  0.581968  0.184931  0.412412  1
  O  O13  1  0.418962  0.824126  0.569277  1
  O  O14  1  0.179519  0.430511  0.586025  1
  O  O15  1  0.929012  0.052375  0.682397  1
  O  O16  1  0.575942  0.406965  0.833324  1
  O  O17  1  0.056112  0.685335  0.924493  1
  O  O18  1  0.324657  0.092778  0.964762  1
