# generated using pymatgen
data_Dy20GaCo4Bi2Sb5
_symmetry_space_group_name_H-M   'P 1'
_cell_length_a   7.91639014
_cell_length_b   8.80525767
_cell_length_c   12.19680901
_cell_angle_alpha   90.11749649
_cell_angle_beta   90.11237808
_cell_angle_gamma   90.20485509
_symmetry_Int_Tables_number   1
_chemical_formula_structural   Dy20GaCo4Bi2Sb5
_chemical_formula_sum   'Dy20 Ga1 Co4 Bi2 Sb5'
_cell_volume   850.18013119
_cell_formula_units_Z   1
loop_
 _symmetry_equiv_pos_site_id
 _symmetry_equiv_pos_as_xyz
  1  'x, y, z'
loop_
 _atom_site_type_symbol
 _atom_site_label
 _atom_site_symmetry_multiplicity
 _atom_site_fract_x
 _atom_site_fract_y
 _atom_site_fract_z
 _atom_site_occupancy
  Dy  Dy0  1  0.837462  0.741739  0.796165  1
  Dy  Dy1  1  0.155151  0.252718  0.197338  1
  Dy  Dy2  1  0.353630  0.259061  0.706637  1
  Dy  Dy3  1  0.649940  0.748422  0.296999  1
  Dy  Dy4  1  0.387457  0.740847  0.697982  1
  Dy  Dy5  1  0.617474  0.252009  0.307838  1
  Dy  Dy6  1  0.865361  0.258725  0.809988  1
  Dy  Dy7  1  0.123720  0.746890  0.190761  1
  Dy  Dy8  1  0.954446  0.747132  0.502404  1
  Dy  Dy9  1  0.049845  0.253216  0.497715  1
  Dy  Dy10  1  0.463676  0.259610  0.991772  1
  Dy  Dy11  1  0.545129  0.740788  0.997276  1
  Dy  Dy12  1  0.677336  0.035001  0.567168  1
  Dy  Dy13  1  0.324499  0.963442  0.434934  1
  Dy  Dy14  1  0.180225  0.967835  0.936205  1
  Dy  Dy15  1  0.322345  0.534003  0.434893  1
  Dy  Dy16  1  0.816910  0.030689  0.062487  1
  Dy  Dy17  1  0.676822  0.467055  0.571419  1
  Dy  Dy18  1  0.821452  0.464841  0.065275  1
  Dy  Dy19  1  0.181017  0.534708  0.931984  1
  Ga  Ga20  1  0.570399  0.494803  0.829832  1
  Co  Co21  1  0.566203  0.748692  0.510055  1
  Co  Co22  1  0.435395  0.250050  0.492778  1
  Co  Co23  1  0.058237  0.249839  0.990384  1
  Co  Co24  1  0.936939  0.749056  0.007243  1
  Bi  Bi25  1  0.928302  0.008913  0.325261  1
  Bi  Bi26  1  0.072829  0.993543  0.676453  1
  Sb  Sb27  1  0.427755  0.507724  0.173473  1
  Sb  Sb28  1  0.072537  0.506948  0.672838  1
  Sb  Sb29  1  0.427415  0.992873  0.168894  1
  Sb  Sb30  1  0.928186  0.492118  0.327269  1
  Sb  Sb31  1  0.571911  0.006711  0.828279  1
