# generated using pymatgen
data_Dy4Hf3ZrF28
_symmetry_space_group_name_H-M   'P 1'
_cell_length_a   5.70053629
_cell_length_b   9.04980534
_cell_length_c   12.18133879
_cell_angle_alpha   62.40053885
_cell_angle_beta   89.94816601
_cell_angle_gamma   90.02147893
_symmetry_Int_Tables_number   1
_chemical_formula_structural   Dy4Hf3ZrF28
_chemical_formula_sum   'Dy4 Hf3 Zr1 F28'
_cell_volume   556.91030928
_cell_formula_units_Z   1
loop_
 _symmetry_equiv_pos_site_id
 _symmetry_equiv_pos_as_xyz
  1  'x, y, z'
loop_
 _atom_site_type_symbol
 _atom_site_label
 _atom_site_symmetry_multiplicity
 _atom_site_fract_x
 _atom_site_fract_y
 _atom_site_fract_z
 _atom_site_occupancy
  Dy  Dy0  1  0.757164  0.814106  0.765450  1
  Dy  Dy1  1  0.255917  0.184938  0.734454  1
  Dy  Dy2  1  0.242964  0.185058  0.234637  1
  Dy  Dy3  1  0.743296  0.816280  0.265534  1
  Hf  Hf4  1  0.755608  0.273839  0.956026  1
  Hf  Hf5  1  0.256837  0.725855  0.544329  1
  Hf  Hf6  1  0.244106  0.726130  0.044302  1
  Zr  Zr7  1  0.743626  0.273620  0.456411  1
  F  F8  1  0.461170  0.710683  0.920475  1
  F  F9  1  0.950262  0.290903  0.585861  1
  F  F10  1  0.536208  0.289183  0.078702  1
  F  F11  1  0.040599  0.711201  0.420068  1
  F  F12  1  0.439497  0.276477  0.546150  1
  F  F13  1  0.952817  0.723614  0.950399  1
  F  F14  1  0.548466  0.720638  0.451687  1
  F  F15  1  0.045793  0.276973  0.050181  1
  F  F16  1  0.772744  0.522891  0.860729  1
  F  F17  1  0.271934  0.476246  0.639990  1
  F  F18  1  0.225834  0.477054  0.139829  1
  F  F19  1  0.727907  0.526825  0.357255  1
  F  F20  1  0.758686  0.025116  0.058053  1
  F  F21  1  0.261164  0.974573  0.443683  1
  F  F22  1  0.242563  0.974846  0.941482  1
  F  F23  1  0.741112  0.021003  0.556467  1
  F  F24  1  0.984761  0.730449  0.647475  1
  F  F25  1  0.486378  0.267000  0.852404  1
  F  F26  1  0.029022  0.268731  0.356773  1
  F  F27  1  0.516174  0.733717  0.146012  1
  F  F28  1  0.037799  0.748304  0.171207  1
  F  F29  1  0.543451  0.254471  0.323091  1
  F  F30  1  0.966161  0.252889  0.830496  1
  F  F31  1  0.463625  0.743994  0.672633  1
  F  F32  1  0.423550  0.971447  0.234700  1
  F  F33  1  0.922776  0.028728  0.268654  1
  F  F34  1  0.575269  0.029083  0.763067  1
  F  F35  1  0.074761  0.973137  0.731336  1
