# generated using pymatgen
data_Y2ReB8Mo
_symmetry_space_group_name_H-M   'P 1'
_cell_length_a   3.62120700
_cell_length_b   6.01080825
_cell_length_c   11.62800748
_cell_angle_alpha   89.96711929
_cell_angle_beta   90.00000000
_cell_angle_gamma   90.00000000
_symmetry_Int_Tables_number   1
_chemical_formula_structural   Y2ReB8Mo
_chemical_formula_sum   'Y4 Re2 B16 Mo2'
_cell_volume   253.09959823
_cell_formula_units_Z   2
loop_
 _symmetry_equiv_pos_site_id
 _symmetry_equiv_pos_as_xyz
  1  'x, y, z'
loop_
 _atom_site_type_symbol
 _atom_site_label
 _atom_site_symmetry_multiplicity
 _atom_site_fract_x
 _atom_site_fract_y
 _atom_site_fract_z
 _atom_site_occupancy
  Y  Y0  1  0.000000  0.127905  0.149398  1
  Y  Y1  1  0.000000  0.872095  0.850602  1
  Y  Y2  1  0.000000  0.626483  0.349235  1
  Y  Y3  1  0.000000  0.373517  0.650765  1
  Re  Re4  1  0.000000  0.634298  0.086779  1
  Re  Re5  1  0.000000  0.365702  0.913221  1
  B  B6  1  0.500000  0.476783  0.191328  1
  B  B7  1  0.500000  0.523217  0.808672  1
  B  B8  1  0.500000  0.975919  0.305834  1
  B  B9  1  0.500000  0.024081  0.694166  1
  B  B10  1  0.500000  0.288938  0.313549  1
  B  B11  1  0.500000  0.711062  0.686451  1
  B  B12  1  0.500000  0.785079  0.184326  1
  B  B13  1  0.500000  0.214921  0.815674  1
  B  B14  1  0.500000  0.367017  0.467580  1
  B  B15  1  0.500000  0.632983  0.532420  1
  B  B16  1  0.500000  0.863047  0.030724  1
  B  B17  1  0.500000  0.136953  0.969276  1
  B  B18  1  0.500000  0.387050  0.047113  1
  B  B19  1  0.500000  0.612950  0.952887  1
  B  B20  1  0.500000  0.885214  0.452494  1
  B  B21  1  0.500000  0.114786  0.547506  1
  Mo  Mo22  1  0.000000  0.128988  0.415442  1
  Mo  Mo23  1  0.000000  0.871012  0.584558  1
