# generated using pymatgen
data_Sr2Zn2I
_symmetry_space_group_name_H-M   'P 1'
_cell_length_a   4.51936900
_cell_length_b   4.51936980
_cell_length_c   18.33846000
_cell_angle_alpha   90.00000000
_cell_angle_beta   90.00000000
_cell_angle_gamma   120.00000145
_symmetry_Int_Tables_number   1
_chemical_formula_structural   Sr2Zn2I
_chemical_formula_sum   'Sr4 Zn4 I2'
_cell_volume   324.37634002
_cell_formula_units_Z   2
loop_
 _symmetry_equiv_pos_site_id
 _symmetry_equiv_pos_as_xyz
  1  'x, y, z'
loop_
 _atom_site_type_symbol
 _atom_site_label
 _atom_site_symmetry_multiplicity
 _atom_site_fract_x
 _atom_site_fract_y
 _atom_site_fract_z
 _atom_site_occupancy
  Sr  Sr0  1  0.000000  0.000000  0.112709  1
  Sr  Sr1  1  0.000000  0.000000  0.387291  1
  Sr  Sr2  1  0.000000  0.000000  0.612709  1
  Sr  Sr3  1  0.000000  0.000000  0.887291  1
  Zn  Zn4  1  0.333333  0.666665  0.001588  1
  Zn  Zn5  1  0.333333  0.666665  0.498412  1
  Zn  Zn6  1  0.666667  0.333334  0.501588  1
  Zn  Zn7  1  0.666667  0.333334  0.998412  1
  I  I8  1  0.666667  0.333334  0.250000  1
  I  I9  1  0.333333  0.666665  0.750000  1
