# generated using pymatgen
data_Tb11Ho(CoTc)2
_symmetry_space_group_name_H-M   'P 1'
_cell_length_a   6.33510325
_cell_length_b   7.20805214
_cell_length_c   9.28338693
_cell_angle_alpha   90.02037813
_cell_angle_beta   89.92882172
_cell_angle_gamma   90.01026032
_symmetry_Int_Tables_number   1
_chemical_formula_structural   Tb11Ho(CoTc)2
_chemical_formula_sum   'Tb11 Ho1 Co2 Tc2'
_cell_volume   423.91394171
_cell_formula_units_Z   1
loop_
 _symmetry_equiv_pos_site_id
 _symmetry_equiv_pos_as_xyz
  1  'x, y, z'
loop_
 _atom_site_type_symbol
 _atom_site_label
 _atom_site_symmetry_multiplicity
 _atom_site_fract_x
 _atom_site_fract_y
 _atom_site_fract_z
 _atom_site_occupancy
  Tb  Tb0  1  0.668501  0.173752  0.064195  1
  Tb  Tb1  1  0.370665  0.546667  0.249572  1
  Tb  Tb2  1  0.142671  0.040500  0.249783  1
  Tb  Tb3  1  0.823534  0.681642  0.432307  1
  Tb  Tb4  1  0.323277  0.818237  0.933171  1
  Tb  Tb5  1  0.168141  0.326223  0.564246  1
  Tb  Tb6  1  0.668201  0.173764  0.435773  1
  Tb  Tb7  1  0.167829  0.326540  0.936107  1
  Tb  Tb8  1  0.323396  0.818267  0.567155  1
  Tb  Tb9  1  0.870060  0.953410  0.750233  1
  Tb  Tb10  1  0.643462  0.459687  0.750384  1
  Ho  Ho11  1  0.823682  0.681524  0.067373  1
  Co  Co12  1  0.541255  0.885591  0.249558  1
  Co  Co13  1  0.040613  0.613991  0.750535  1
  Tc  Tc14  1  0.962471  0.392089  0.249728  1
  Tc  Tc15  1  0.462242  0.108116  0.749880  1
