# generated using pymatgen
data_TaTe5Au
_symmetry_space_group_name_H-M   'P 1'
_cell_length_a   7.51910187
_cell_length_b   7.51910248
_cell_length_c   16.34779500
_cell_angle_alpha   90.00000000
_cell_angle_beta   90.00000000
_cell_angle_gamma   151.46679437
_symmetry_Int_Tables_number   1
_chemical_formula_structural   TaTe5Au
_chemical_formula_sum   'Ta2 Te10 Au2'
_cell_volume   441.48636985
_cell_formula_units_Z   2
loop_
 _symmetry_equiv_pos_site_id
 _symmetry_equiv_pos_as_xyz
  1  'x, y, z'
loop_
 _atom_site_type_symbol
 _atom_site_label
 _atom_site_symmetry_multiplicity
 _atom_site_fract_x
 _atom_site_fract_y
 _atom_site_fract_z
 _atom_site_occupancy
  Ta  Ta0  1  0.503312  0.496688  0.750000  1
  Ta  Ta1  1  0.496688  0.503312  0.250000  1
  Te  Te2  1  0.155235  0.844765  0.750000  1
  Te  Te3  1  0.844765  0.155235  0.250000  1
  Te  Te4  1  0.394411  0.605589  0.094445  1
  Te  Te5  1  0.605589  0.394411  0.905555  1
  Te  Te6  1  0.902343  0.097657  0.847592  1
  Te  Te7  1  0.097657  0.902343  0.152408  1
  Te  Te8  1  0.097657  0.902343  0.347592  1
  Te  Te9  1  0.902343  0.097657  0.652408  1
  Te  Te10  1  0.394411  0.605589  0.405555  1
  Te  Te11  1  0.605589  0.394411  0.594445  1
  Au  Au12  1  0.000000  0.000000  0.000000  1
  Au  Au13  1  0.000000  0.000000  0.500000  1
