# generated using pymatgen
data_Lu4GaSe3
_symmetry_space_group_name_H-M   'P 1'
_cell_length_a   6.97555036
_cell_length_b   6.97555025
_cell_length_c   6.97554989
_cell_angle_alpha   131.91277092
_cell_angle_beta   131.91276469
_cell_angle_gamma   70.36683545
_symmetry_Int_Tables_number   1
_chemical_formula_structural   Lu4GaSe3
_chemical_formula_sum   'Lu4 Ga1 Se3'
_cell_volume   184.20155047
_cell_formula_units_Z   1
loop_
 _symmetry_equiv_pos_site_id
 _symmetry_equiv_pos_as_xyz
  1  'x, y, z'
loop_
 _atom_site_type_symbol
 _atom_site_label
 _atom_site_symmetry_multiplicity
 _atom_site_fract_x
 _atom_site_fract_y
 _atom_site_fract_z
 _atom_site_occupancy
  Lu  Lu0  1  0.244918  0.244918  0.000000  1
  Lu  Lu1  1  0.755082  0.755082  0.000000  1
  Lu  Lu2  1  0.500000  0.000000  0.500000  1
  Lu  Lu3  1  0.000000  0.500000  0.500000  1
  Ga  Ga4  1  0.000000  0.000000  0.000000  1
  Se  Se5  1  0.750000  0.250000  0.500000  1
  Se  Se6  1  0.250000  0.750000  0.500000  1
  Se  Se7  1  0.500000  0.500000  0.000000  1
