# generated using pymatgen
data_YEr3Al18(NiRh2)2
_symmetry_space_group_name_H-M   'P 1'
_cell_length_a   7.52301601
_cell_length_b   7.52326351
_cell_length_c   9.37822600
_cell_angle_alpha   90.00000000
_cell_angle_beta   90.00000000
_cell_angle_gamma   119.88367154
_symmetry_Int_Tables_number   1
_chemical_formula_structural   YEr3Al18(NiRh2)2
_chemical_formula_sum   'Y1 Er3 Al18 Ni2 Rh4'
_cell_volume   460.21150786
_cell_formula_units_Z   1
loop_
 _symmetry_equiv_pos_site_id
 _symmetry_equiv_pos_as_xyz
  1  'x, y, z'
loop_
 _atom_site_type_symbol
 _atom_site_label
 _atom_site_symmetry_multiplicity
 _atom_site_fract_x
 _atom_site_fract_y
 _atom_site_fract_z
 _atom_site_occupancy
  Y  Y0  1  0.994348  0.668270  0.750000  1
  Er  Er1  1  0.005660  0.331784  0.250000  1
  Er  Er2  1  0.668226  0.994398  0.750000  1
  Er  Er3  1  0.331809  0.005668  0.250000  1
  Al  Al4  1  0.120944  0.121120  0.750000  1
  Al  Al5  1  0.879107  0.879134  0.250000  1
  Al  Al6  1  0.999108  0.331468  0.574767  1
  Al  Al7  1  0.000877  0.668333  0.424991  1
  Al  Al8  1  0.000877  0.668333  0.075009  1
  Al  Al9  1  0.331848  0.999295  0.925232  1
  Al  Al10  1  0.999108  0.331468  0.925233  1
  Al  Al11  1  0.668343  0.000874  0.074847  1
  Al  Al12  1  0.668343  0.000874  0.425153  1
  Al  Al13  1  0.331848  0.999295  0.574768  1
  Al  Al14  1  0.330149  0.330145  0.050190  1
  Al  Al15  1  0.669676  0.669831  0.949922  1
  Al  Al16  1  0.669676  0.669831  0.550078  1
  Al  Al17  1  0.330149  0.330145  0.449810  1
  Al  Al18  1  0.338769  0.547398  0.750000  1
  Al  Al19  1  0.661394  0.452541  0.250000  1
  Al  Al20  1  0.547201  0.338431  0.750000  1
  Al  Al21  1  0.452548  0.661415  0.250000  1
  Ni  Ni22  1  0.999996  0.000051  0.499934  1
  Ni  Ni23  1  0.999996  0.000051  0.000066  1
  Rh  Rh24  1  0.672080  0.327773  0.499900  1
  Rh  Rh25  1  0.327918  0.672152  0.499908  1
  Rh  Rh26  1  0.327918  0.672152  0.000092  1
  Rh  Rh27  1  0.672080  0.327773  0.000100  1
