# generated using pymatgen
data_SrLa7(As7Ir8)2
_symmetry_space_group_name_H-M   'P 1'
_cell_length_a   4.16965700
_cell_length_b   13.34154731
_cell_length_c   13.73476731
_cell_angle_alpha   81.66312838
_cell_angle_beta   90.00000000
_cell_angle_gamma   90.00000000
_symmetry_Int_Tables_number   1
_chemical_formula_structural   SrLa7(As7Ir8)2
_chemical_formula_sum   'Sr1 La7 As14 Ir16'
_cell_volume   755.98658842
_cell_formula_units_Z   1
loop_
 _symmetry_equiv_pos_site_id
 _symmetry_equiv_pos_as_xyz
  1  'x, y, z'
loop_
 _atom_site_type_symbol
 _atom_site_label
 _atom_site_symmetry_multiplicity
 _atom_site_fract_x
 _atom_site_fract_y
 _atom_site_fract_z
 _atom_site_occupancy
  Sr  Sr0  1  0.250000  0.101271  0.792667  1
  La  La1  1  0.750000  0.900509  0.208957  1
  La  La2  1  0.250000  0.287376  0.105108  1
  La  La3  1  0.750000  0.713146  0.895239  1
  La  La4  1  0.250000  0.518991  0.292399  1
  La  La5  1  0.750000  0.480367  0.707365  1
  La  La6  1  0.250000  0.208015  0.438948  1
  La  La7  1  0.750000  0.791062  0.560990  1
  As  As8  1  0.250000  0.057728  0.098561  1
  As  As9  1  0.750000  0.942252  0.900546  1
  As  As10  1  0.250000  0.311356  0.687181  1
  As  As11  1  0.750000  0.688486  0.312456  1
  As  As12  1  0.250000  0.606709  0.565282  1
  As  As13  1  0.750000  0.393045  0.434968  1
  As  As14  1  0.250000  0.847316  0.721454  1
  As  As15  1  0.750000  0.152713  0.279742  1
  As  As16  1  0.750000  0.256575  0.918186  1
  As  As17  1  0.250000  0.743936  0.081789  1
  As  As18  1  0.750000  0.094540  0.587544  1
  As  As19  1  0.250000  0.905806  0.412088  1
  As  As20  1  0.750000  0.473268  0.127243  1
  As  As21  1  0.250000  0.526881  0.872950  1
  Ir  Ir22  1  0.250000  0.988072  0.574438  1
  Ir  Ir23  1  0.750000  0.011599  0.425399  1
  Ir  Ir24  1  0.250000  0.663989  0.733920  1
  Ir  Ir25  1  0.750000  0.335877  0.266405  1
  Ir  Ir26  1  0.250000  0.554787  0.046865  1
  Ir  Ir27  1  0.750000  0.445288  0.953498  1
  Ir  Ir28  1  0.250000  0.055171  0.276965  1
  Ir  Ir29  1  0.750000  0.941447  0.720583  1
  Ir  Ir30  1  0.250000  0.425894  0.526312  1
  Ir  Ir31  1  0.750000  0.574955  0.472981  1
  Ir  Ir32  1  0.250000  0.918939  0.998298  1
  Ir  Ir33  1  0.750000  0.080040  0.003794  1
  Ir  Ir34  1  0.250000  0.722682  0.400817  1
  Ir  Ir35  1  0.750000  0.279094  0.598431  1
  Ir  Ir36  1  0.250000  0.343164  0.861316  1
  Ir  Ir37  1  0.750000  0.657651  0.138314  1
