# generated using pymatgen
data_Eu3PI3
_symmetry_space_group_name_H-M   'P 1'
_cell_length_a   11.05246062
_cell_length_b   11.05246024
_cell_length_c   11.05246000
_cell_angle_alpha   109.47121837
_cell_angle_beta   109.47121766
_cell_angle_gamma   109.47122433
_symmetry_Int_Tables_number   1
_chemical_formula_structural   Eu3PI3
_chemical_formula_sum   'Eu12 P4 I12'
_cell_volume   1039.33369396
_cell_formula_units_Z   4
loop_
 _symmetry_equiv_pos_site_id
 _symmetry_equiv_pos_as_xyz
  1  'x, y, z'
loop_
 _atom_site_type_symbol
 _atom_site_label
 _atom_site_symmetry_multiplicity
 _atom_site_fract_x
 _atom_site_fract_y
 _atom_site_fract_z
 _atom_site_occupancy
  Eu  Eu0  1  0.467179  0.483590  0.233590  1
  Eu  Eu1  1  0.750000  0.233590  0.266410  1
  Eu  Eu2  1  0.750000  0.016410  0.483590  1
  Eu  Eu3  1  0.233590  0.467179  0.483590  1
  Eu  Eu4  1  0.266410  0.750000  0.233590  1
  Eu  Eu5  1  0.032821  0.266410  0.016410  1
  Eu  Eu6  1  0.016410  0.032821  0.266410  1
  Eu  Eu7  1  0.483590  0.750000  0.016410  1
  Eu  Eu8  1  0.483590  0.233590  0.467179  1
  Eu  Eu9  1  0.016410  0.483590  0.750000  1
  Eu  Eu10  1  0.266410  0.016410  0.032821  1
  Eu  Eu11  1  0.233590  0.266410  0.750000  1
  P  P12  1  0.250000  0.250000  0.250000  1
  P  P13  1  0.500000  0.000000  0.250000  1
  P  P14  1  0.000000  0.250000  0.500000  1
  P  P15  1  0.250000  0.500000  0.000000  1
  I  I16  1  0.250000  0.754946  0.745054  1
  I  I17  1  0.509892  0.504946  0.754946  1
  I  I18  1  0.990108  0.745054  0.995054  1
  I  I19  1  0.745054  0.250000  0.754946  1
  I  I20  1  0.995054  0.990108  0.745054  1
  I  I21  1  0.250000  0.995054  0.504946  1
  I  I22  1  0.754946  0.509892  0.504946  1
  I  I23  1  0.504946  0.250000  0.995054  1
  I  I24  1  0.754946  0.745054  0.250000  1
  I  I25  1  0.745054  0.995054  0.990108  1
  I  I26  1  0.995054  0.504946  0.250000  1
  I  I27  1  0.504946  0.754946  0.509892  1
