# generated using pymatgen
data_Pr4CdCo
_symmetry_space_group_name_H-M   'P 1'
_cell_length_a   9.92242911
_cell_length_b   9.92242860
_cell_length_c   9.92242900
_cell_angle_alpha   60.00000199
_cell_angle_beta   60.00000371
_cell_angle_gamma   59.99999883
_symmetry_Int_Tables_number   1
_chemical_formula_structural   Pr4CdCo
_chemical_formula_sum   'Pr16 Cd4 Co4'
_cell_volume   690.77880602
_cell_formula_units_Z   4
loop_
 _symmetry_equiv_pos_site_id
 _symmetry_equiv_pos_as_xyz
  1  'x, y, z'
loop_
 _atom_site_type_symbol
 _atom_site_label
 _atom_site_symmetry_multiplicity
 _atom_site_fract_x
 _atom_site_fract_y
 _atom_site_fract_z
 _atom_site_occupancy
  Pr  Pr0  1  0.596484  0.596484  0.596484  1
  Pr  Pr1  1  0.596484  0.596484  0.210546  1
  Pr  Pr2  1  0.596484  0.210546  0.596484  1
  Pr  Pr3  1  0.210546  0.596484  0.596484  1
  Pr  Pr4  1  0.189162  0.810838  0.810838  1
  Pr  Pr5  1  0.810838  0.189162  0.189162  1
  Pr  Pr6  1  0.810838  0.189162  0.810838  1
  Pr  Pr7  1  0.189162  0.810838  0.189162  1
  Pr  Pr8  1  0.810838  0.810838  0.189162  1
  Pr  Pr9  1  0.189162  0.189162  0.810838  1
  Pr  Pr10  1  0.059887  0.440113  0.440113  1
  Pr  Pr11  1  0.440113  0.059887  0.059887  1
  Pr  Pr12  1  0.440113  0.059887  0.440113  1
  Pr  Pr13  1  0.059887  0.440113  0.059887  1
  Pr  Pr14  1  0.440113  0.440113  0.059887  1
  Pr  Pr15  1  0.059887  0.059887  0.440113  1
  Cd  Cd16  1  0.829347  0.829347  0.829347  1
  Cd  Cd17  1  0.829347  0.829347  0.511960  1
  Cd  Cd18  1  0.829347  0.511960  0.829347  1
  Cd  Cd19  1  0.511960  0.829347  0.829347  1
  Co  Co20  1  0.390574  0.390574  0.390574  1
  Co  Co21  1  0.390574  0.390574  0.828277  1
  Co  Co22  1  0.390574  0.828277  0.390574  1
  Co  Co23  1  0.828277  0.390574  0.390574  1
