# generated using pymatgen
data_V3WSe8
_symmetry_space_group_name_H-M   'P 1'
_cell_length_a   3.33943600
_cell_length_b   3.33943651
_cell_length_c   37.72450900
_cell_angle_alpha   90.00000000
_cell_angle_beta   90.00000000
_cell_angle_gamma   119.99999494
_symmetry_Int_Tables_number   1
_chemical_formula_structural   V3WSe8
_chemical_formula_sum   'V3 W1 Se8'
_cell_volume   364.33472451
_cell_formula_units_Z   1
loop_
 _symmetry_equiv_pos_site_id
 _symmetry_equiv_pos_as_xyz
  1  'x, y, z'
loop_
 _atom_site_type_symbol
 _atom_site_label
 _atom_site_symmetry_multiplicity
 _atom_site_fract_x
 _atom_site_fract_y
 _atom_site_fract_z
 _atom_site_occupancy
  V  V0  1  0.333333  0.666667  0.090743  1
  V  V1  1  0.333333  0.666667  0.470801  1
  V  V2  1  0.666667  0.333333  0.279069  1
  W  W3  1  0.666667  0.333333  0.662367  1
  Se  Se4  1  0.333333  0.666667  0.706815  1
  Se  Se5  1  0.333333  0.666667  0.617986  1
  Se  Se6  1  0.333333  0.666667  0.321318  1
  Se  Se7  1  0.666667  0.333333  0.048323  1
  Se  Se8  1  0.666667  0.333333  0.428355  1
  Se  Se9  1  0.666667  0.333333  0.133191  1
  Se  Se10  1  0.666667  0.333333  0.513268  1
  Se  Se11  1  0.333333  0.666667  0.236514  1
