# generated using pymatgen
data_BaNpNiS3
_symmetry_space_group_name_H-M   'P 1'
_cell_length_a   7.04884579
_cell_length_b   7.04884552
_cell_length_c   10.18237878
_cell_angle_alpha   89.87658514
_cell_angle_beta   90.12341388
_cell_angle_gamma   147.19143341
_symmetry_Int_Tables_number   1
_chemical_formula_structural   BaNpNiS3
_chemical_formula_sum   'Ba2 Np2 Ni2 S6'
_cell_volume   274.12605431
_cell_formula_units_Z   2
loop_
 _symmetry_equiv_pos_site_id
 _symmetry_equiv_pos_as_xyz
  1  'x, y, z'
loop_
 _atom_site_type_symbol
 _atom_site_label
 _atom_site_symmetry_multiplicity
 _atom_site_fract_x
 _atom_site_fract_y
 _atom_site_fract_z
 _atom_site_occupancy
  Ba  Ba0  1  0.739465  0.260534  0.248700  1
  Ba  Ba1  1  0.260534  0.739465  0.751300  1
  Np  Np2  1  0.000000  0.000000  0.000000  1
  Np  Np3  1  0.000000  0.000000  0.500000  1
  Ni  Ni4  1  0.468455  0.531545  0.249033  1
  Ni  Ni5  1  0.531545  0.468455  0.750967  1
  S  S6  1  0.370380  0.629619  0.066197  1
  S  S7  1  0.059224  0.940776  0.249844  1
  S  S8  1  0.370560  0.629439  0.431721  1
  S  S9  1  0.629439  0.370560  0.568279  1
  S  S10  1  0.940776  0.059224  0.750156  1
  S  S11  1  0.629619  0.370380  0.933802  1
