# generated using pymatgen
data_BaErAlZn3O7
_symmetry_space_group_name_H-M   'P 1'
_cell_length_a   6.35937300
_cell_length_b   6.35935147
_cell_length_c   10.30433800
_cell_angle_alpha   90.00003604
_cell_angle_beta   89.99994594
_cell_angle_gamma   120.00000768
_symmetry_Int_Tables_number   1
_chemical_formula_structural   BaErAlZn3O7
_chemical_formula_sum   'Ba2 Er2 Al2 Zn6 O14'
_cell_volume   360.89247035
_cell_formula_units_Z   2
loop_
 _symmetry_equiv_pos_site_id
 _symmetry_equiv_pos_as_xyz
  1  'x, y, z'
loop_
 _atom_site_type_symbol
 _atom_site_label
 _atom_site_symmetry_multiplicity
 _atom_site_fract_x
 _atom_site_fract_y
 _atom_site_fract_z
 _atom_site_occupancy
  Ba  Ba0  1  0.666677  0.333352  0.476193  1
  Ba  Ba1  1  0.333325  0.666649  0.976195  1
  Er  Er2  1  0.333331  0.666665  0.327381  1
  Er  Er3  1  0.666669  0.333336  0.827384  1
  Al  Al4  1  0.999996  0.999996  0.392127  1
  Al  Al5  1  0.000004  0.000004  0.892128  1
  Zn  Zn6  1  0.830174  0.169576  0.141402  1
  Zn  Zn7  1  0.339401  0.169811  0.141403  1
  Zn  Zn8  1  0.830416  0.660596  0.141403  1
  Zn  Zn9  1  0.169828  0.830425  0.641402  1
  Zn  Zn10  1  0.660600  0.830190  0.641404  1
  Zn  Zn11  1  0.169583  0.339401  0.641404  1
  O  O12  1  0.490617  0.981482  0.192097  1
  O  O13  1  0.490873  0.509373  0.192101  1
  O  O14  1  0.018499  0.509120  0.192100  1
  O  O15  1  0.999999  0.999999  0.217584  1
  O  O16  1  0.691197  0.844964  0.445734  1
  O  O17  1  0.155018  0.846217  0.445735  1
  O  O18  1  0.153770  0.308794  0.445736  1
  O  O19  1  0.509385  0.018518  0.692096  1
  O  O20  1  0.981500  0.490879  0.692099  1
  O  O21  1  0.509128  0.490626  0.692101  1
  O  O22  1  0.000001  0.000001  0.717584  1
  O  O23  1  0.844983  0.153782  0.945736  1
  O  O24  1  0.308803  0.155037  0.945735  1
  O  O25  1  0.846231  0.691205  0.945736  1
