# generated using pymatgen
data_Ho2ErScMn4O14
_symmetry_space_group_name_H-M   'P 1'
_cell_length_a   7.00036353
_cell_length_b   7.00043668
_cell_length_c   7.00036201
_cell_angle_alpha   60.26267037
_cell_angle_beta   60.25558824
_cell_angle_gamma   60.26266376
_symmetry_Int_Tables_number   1
_chemical_formula_structural   Ho2ErScMn4O14
_chemical_formula_sum   'Ho2 Er1 Sc1 Mn4 O14'
_cell_volume   244.00717775
_cell_formula_units_Z   1
loop_
 _symmetry_equiv_pos_site_id
 _symmetry_equiv_pos_as_xyz
  1  'x, y, z'
loop_
 _atom_site_type_symbol
 _atom_site_label
 _atom_site_symmetry_multiplicity
 _atom_site_fract_x
 _atom_site_fract_y
 _atom_site_fract_z
 _atom_site_occupancy
  Ho  Ho0  1  0.000000  0.500000  0.500001  1
  Ho  Ho1  1  0.500000  0.500000  0.000000  1
  Er  Er2  1  0.500000  0.000000  0.500000  1
  Sc  Sc3  1  0.500000  0.500000  0.500000  1
  Mn  Mn4  1  0.000000  0.500000  0.000001  1
  Mn  Mn5  1  0.500000  0.000000  0.000000  1
  Mn  Mn6  1  0.000000  0.000000  0.500000  1
  Mn  Mn7  1  0.000000  0.000000  0.000000  1
  O  O8  1  0.332278  0.917978  0.917090  1
  O  O9  1  0.085058  0.668392  0.668440  1
  O  O10  1  0.917688  0.332132  0.917689  1
  O  O11  1  0.917089  0.917978  0.332279  1
  O  O12  1  0.331559  0.331609  0.914942  1
  O  O13  1  0.331715  0.915222  0.331716  1
  O  O14  1  0.082311  0.667869  0.082311  1
  O  O15  1  0.668284  0.084779  0.668284  1
  O  O16  1  0.381452  0.379671  0.381452  1
  O  O17  1  0.618547  0.620330  0.618548  1
  O  O18  1  0.914941  0.331609  0.331560  1
  O  O19  1  0.667721  0.082023  0.082910  1
  O  O20  1  0.082910  0.082023  0.667721  1
  O  O21  1  0.668440  0.668392  0.085058  1
