# generated using pymatgen
data_Ti8Al14Fe6SiPt
_symmetry_space_group_name_H-M   'P 1'
_cell_length_a   8.44775780
_cell_length_b   8.43300335
_cell_length_c   8.44913317
_cell_angle_alpha   120.10077636
_cell_angle_beta   119.76430003
_cell_angle_gamma   90.04591671
_symmetry_Int_Tables_number   1
_chemical_formula_structural   Ti8Al14Fe6SiPt
_chemical_formula_sum   'Ti8 Al14 Fe6 Si1 Pt1'
_cell_volume   426.31191652
_cell_formula_units_Z   1
loop_
 _symmetry_equiv_pos_site_id
 _symmetry_equiv_pos_as_xyz
  1  'x, y, z'
loop_
 _atom_site_type_symbol
 _atom_site_label
 _atom_site_symmetry_multiplicity
 _atom_site_fract_x
 _atom_site_fract_y
 _atom_site_fract_z
 _atom_site_occupancy
  Ti  Ti0  1  0.796574  0.290830  0.080488  1
  Ti  Ti1  1  0.215385  0.292712  0.494956  1
  Ti  Ti2  1  0.211798  0.703879  0.499811  1
  Ti  Ti3  1  0.211389  0.715047  0.920028  1
  Ti  Ti4  1  0.790439  0.712560  0.505717  1
  Ti  Ti5  1  0.781924  0.289745  0.500475  1
  Ti  Ti6  1  0.392526  0.123801  0.749095  1
  Ti  Ti7  1  0.381215  0.641051  0.263139  1
  Al  Al8  1  0.160980  0.339196  0.177987  1
  Al  Al9  1  0.164335  0.978965  0.828043  1
  Al  Al10  1  0.161275  0.351704  0.823109  1
  Al  Al11  1  0.524629  0.341574  0.183461  1
  Al  Al12  1  0.841145  0.658839  0.819129  1
  Al  Al13  1  0.835637  0.026479  0.174473  1
  Al  Al14  1  0.834591  0.648921  0.172397  1
  Al  Al15  1  0.479566  0.659415  0.819699  1
  Al  Al16  1  0.381888  0.119868  0.262921  1
  Al  Al17  1  0.855118  0.122443  0.744002  1
  Al  Al18  1  0.610726  0.875624  0.253095  1
  Al  Al19  1  0.618327  0.359222  0.738718  1
  Al  Al20  1  0.618578  0.877750  0.737725  1
  Al  Al21  1  0.142298  0.877163  0.254470  1
  Fe  Fe22  1  0.497539  0.000241  0.996358  1
  Fe  Fe23  1  0.497991  0.497255  0.998897  1
  Fe  Fe24  1  0.498816  0.499468  0.497982  1
  Fe  Fe25  1  0.002002  0.500783  0.002899  1
  Fe  Fe26  1  0.000236  0.000547  0.999913  1
  Fe  Fe27  1  0.497693  0.998398  0.501106  1
  Si  Si28  1  0.997222  0.496925  0.500573  1
  Pt  Pt29  1  0.998156  0.999596  0.499333  1
