# generated using pymatgen
data_CeHo3(Ni2Hg)2
_symmetry_space_group_name_H-M   'P 1'
_cell_length_a   7.35565335
_cell_length_b   7.35565319
_cell_length_c   3.63938400
_cell_angle_alpha   90.00000000
_cell_angle_beta   90.00000000
_cell_angle_gamma   91.47511745
_symmetry_Int_Tables_number   1
_chemical_formula_structural   CeHo3(Ni2Hg)2
_chemical_formula_sum   'Ce1 Ho3 Ni4 Hg2'
_cell_volume   196.84592564
_cell_formula_units_Z   1
loop_
 _symmetry_equiv_pos_site_id
 _symmetry_equiv_pos_as_xyz
  1  'x, y, z'
loop_
 _atom_site_type_symbol
 _atom_site_label
 _atom_site_symmetry_multiplicity
 _atom_site_fract_x
 _atom_site_fract_y
 _atom_site_fract_z
 _atom_site_occupancy
  Ce  Ce0  1  0.674613  0.174613  0.500000  1
  Ho  Ho1  1  0.324040  0.824040  0.500000  1
  Ho  Ho2  1  0.175571  0.327848  0.500000  1
  Ho  Ho3  1  0.827848  0.675571  0.500000  1
  Ni  Ni4  1  0.114370  0.614370  0.000000  1
  Ni  Ni5  1  0.869800  0.369800  0.000000  1
  Ni  Ni6  1  0.623020  0.886489  0.000000  1
  Ni  Ni7  1  0.386489  0.123020  0.000000  1
  Hg  Hg8  1  0.497661  0.506590  0.000000  1
  Hg  Hg9  1  0.006590  0.997661  0.000000  1
