# generated using pymatgen
data_Ta12Cr2Si3Os7N4
_symmetry_space_group_name_H-M   'P 1'
_cell_length_a   8.22481449
_cell_length_b   8.22481512
_cell_length_c   8.22481636
_cell_angle_alpha   59.93754360
_cell_angle_beta   59.93767301
_cell_angle_gamma   59.93753039
_symmetry_Int_Tables_number   1
_chemical_formula_structural   Ta12Cr2Si3Os7N4
_chemical_formula_sum   'Ta12 Cr2 Si3 Os7 N4'
_cell_volume   392.86939067
_cell_formula_units_Z   1
loop_
 _symmetry_equiv_pos_site_id
 _symmetry_equiv_pos_as_xyz
  1  'x, y, z'
loop_
 _atom_site_type_symbol
 _atom_site_label
 _atom_site_symmetry_multiplicity
 _atom_site_fract_x
 _atom_site_fract_y
 _atom_site_fract_z
 _atom_site_occupancy
  Ta  Ta0  1  0.806019  0.806018  0.187704  1
  Ta  Ta1  1  0.194694  0.194693  0.805870  1
  Ta  Ta2  1  0.806019  0.187703  0.806019  1
  Ta  Ta3  1  0.194693  0.805869  0.194693  1
  Ta  Ta4  1  0.187704  0.806019  0.806019  1
  Ta  Ta5  1  0.805870  0.194693  0.194693  1
  Ta  Ta6  1  0.445047  0.445048  0.053508  1
  Ta  Ta7  1  0.055006  0.055006  0.444880  1
  Ta  Ta8  1  0.445047  0.053508  0.445048  1
  Ta  Ta9  1  0.055006  0.444880  0.055006  1
  Ta  Ta10  1  0.053508  0.445047  0.445048  1
  Ta  Ta11  1  0.444880  0.055006  0.055007  1
  Cr  Cr12  1  0.625621  0.625622  0.625619  1
  Cr  Cr13  1  0.832224  0.832227  0.832223  1
  Si  Si14  1  0.122722  0.629198  0.629199  1
  Si  Si15  1  0.629198  0.122722  0.629198  1
  Si  Si16  1  0.629198  0.629198  0.122722  1
  Os  Os17  1  0.750653  0.415337  0.415337  1
  Os  Os18  1  0.415336  0.750653  0.415337  1
  Os  Os19  1  0.415337  0.415337  0.750653  1
  Os  Os20  1  0.415538  0.415537  0.415537  1
  Os  Os21  1  0.500408  0.835556  0.835558  1
  Os  Os22  1  0.835557  0.500408  0.835557  1
  Os  Os23  1  0.835557  0.835556  0.500408  1
  N  N24  1  0.625419  0.124768  0.124768  1
  N  N25  1  0.124768  0.625418  0.124768  1
  N  N26  1  0.124768  0.124767  0.625419  1
  N  N27  1  0.124202  0.124203  0.124203  1
