# generated using pymatgen
data_Cs4Na2NdInAs4
_symmetry_space_group_name_H-M   'P 1'
_cell_length_a   7.25364198
_cell_length_b   7.05029648
_cell_length_c   9.91154125
_cell_angle_alpha   110.86194610
_cell_angle_beta   111.47272258
_cell_angle_gamma   90.00197934
_symmetry_Int_Tables_number   1
_chemical_formula_structural   Cs4Na2NdInAs4
_chemical_formula_sum   'Cs4 Na2 Nd1 In1 As4'
_cell_volume   435.79039603
_cell_formula_units_Z   1
loop_
 _symmetry_equiv_pos_site_id
 _symmetry_equiv_pos_as_xyz
  1  'x, y, z'
loop_
 _atom_site_type_symbol
 _atom_site_label
 _atom_site_symmetry_multiplicity
 _atom_site_fract_x
 _atom_site_fract_y
 _atom_site_fract_z
 _atom_site_occupancy
  Cs  Cs0  1  0.408767  0.171654  0.356089  1
  Cs  Cs1  1  0.947289  0.684587  0.356217  1
  Cs  Cs2  1  0.052696  0.328379  0.643869  1
  Cs  Cs3  1  0.591133  0.815436  0.643860  1
  Na  Na4  1  0.999999  0.250046  0.000027  1
  Na  Na5  1  0.000011  0.750003  0.000035  1
  Nd  Nd6  1  0.500042  0.249991  0.000000  1
  In  In7  1  0.500034  0.750071  0.999953  1
  As  As8  1  0.814844  0.081740  0.186344  1
  As  As9  1  0.371673  0.604557  0.186370  1
  As  As10  1  0.628444  0.418276  0.813673  1
  As  As11  1  0.185068  0.895259  0.813564  1
