# generated using pymatgen
data_HoLu3Al24Pt8Au
_symmetry_space_group_name_H-M   'P 1'
_cell_length_a   7.52670492
_cell_length_b   7.54624373
_cell_length_c   13.10926710
_cell_angle_alpha   84.55510799
_cell_angle_beta   79.01666523
_cell_angle_gamma   59.89620310
_symmetry_Int_Tables_number   1
_chemical_formula_structural   HoLu3Al24Pt8Au
_chemical_formula_sum   'Ho1 Lu3 Al24 Pt8 Au1'
_cell_volume   632.35440378
_cell_formula_units_Z   1
loop_
 _symmetry_equiv_pos_site_id
 _symmetry_equiv_pos_as_xyz
  1  'x, y, z'
loop_
 _atom_site_type_symbol
 _atom_site_label
 _atom_site_symmetry_multiplicity
 _atom_site_fract_x
 _atom_site_fract_y
 _atom_site_fract_z
 _atom_site_occupancy
  Ho  Ho0  1  0.392880  0.169302  0.808824  1
  Lu  Lu1  1  0.605990  0.831419  0.193035  1
  Lu  Lu2  1  0.734054  0.499216  0.808122  1
  Lu  Lu3  1  0.266277  0.501035  0.192426  1
  Al  Al4  1  0.682877  0.833646  0.944926  1
  Al  Al5  1  0.316312  0.166079  0.056893  1
  Al  Al6  1  0.146720  0.839207  0.560237  1
  Al  Al7  1  0.854492  0.167262  0.436018  1
  Al  Al8  1  0.488386  0.159430  0.557365  1
  Al  Al9  1  0.520302  0.833529  0.439653  1
  Al  Al10  1  0.218766  0.165331  0.326968  1
  Al  Al11  1  0.776945  0.838492  0.675116  1
  Al  Al12  1  0.439971  0.507014  0.675270  1
  Al  Al13  1  0.563216  0.493836  0.326643  1
  Al  Al14  1  0.107865  0.155263  0.673826  1
  Al  Al15  1  0.891086  0.839539  0.327885  1
  Al  Al16  1  0.354385  0.498555  0.944796  1
  Al  Al17  1  0.645993  0.501518  0.056651  1
  Al  Al18  1  0.015327  0.168580  0.952429  1
  Al  Al19  1  0.983630  0.831473  0.049098  1
  Al  Al20  1  0.188113  0.499661  0.436283  1
  Al  Al21  1  0.806767  0.500047  0.557360  1
  Al  Al22  1  0.733445  0.163910  0.183062  1
  Al  Al23  1  0.267438  0.835080  0.817279  1
  Al  Al24  1  0.060145  0.633194  0.818282  1
  Al  Al25  1  0.938610  0.369198  0.184375  1
  Al  Al26  1  0.853760  0.042838  0.816602  1
  Al  Al27  1  0.145473  0.957463  0.183670  1
  Pt  Pt28  1  0.879850  0.509465  0.360086  1
  Pt  Pt29  1  0.657107  0.171538  0.999633  1
  Pt  Pt30  1  0.343102  0.828179  0.000060  1
  Pt  Pt31  1  0.537064  0.166728  0.360372  1
  Pt  Pt32  1  0.463006  0.832746  0.638767  1
  Pt  Pt33  1  0.778658  0.175804  0.637168  1
  Pt  Pt34  1  0.222275  0.824125  0.361811  1
  Pt  Pt35  1  0.999868  0.500018  0.000356  1
  Au  Au36  1  0.119844  0.490283  0.638656  1
