# generated using pymatgen
data_Pr5Ga6P6Ir19
_symmetry_space_group_name_H-M   'P 1'
_cell_length_a   13.06077200
_cell_length_b   13.06077170
_cell_length_c   4.04181300
_cell_angle_alpha   90.00000000
_cell_angle_beta   90.00000000
_cell_angle_gamma   120.00000076
_symmetry_Int_Tables_number   1
_chemical_formula_structural   Pr5Ga6P6Ir19
_chemical_formula_sum   'Pr5 Ga6 P6 Ir19'
_cell_volume   597.09650768
_cell_formula_units_Z   1
loop_
 _symmetry_equiv_pos_site_id
 _symmetry_equiv_pos_as_xyz
  1  'x, y, z'
loop_
 _atom_site_type_symbol
 _atom_site_label
 _atom_site_symmetry_multiplicity
 _atom_site_fract_x
 _atom_site_fract_y
 _atom_site_fract_z
 _atom_site_occupancy
  Pr  Pr0  1  0.666667  0.333333  0.000000  1
  Pr  Pr1  1  0.333333  0.666667  0.000000  1
  Pr  Pr2  1  0.815626  0.812717  0.500000  1
  Pr  Pr3  1  0.187283  0.002909  0.500000  1
  Pr  Pr4  1  0.997091  0.184374  0.500000  1
  Ga  Ga5  1  0.676836  0.157423  0.500000  1
  Ga  Ga6  1  0.842577  0.519413  0.500000  1
  Ga  Ga7  1  0.480587  0.323164  0.500000  1
  Ga  Ga8  1  0.633167  0.634311  0.000000  1
  Ga  Ga9  1  0.365689  0.998857  0.000000  1
  Ga  Ga10  1  0.001143  0.366833  0.000000  1
  P  P11  1  0.179527  0.698965  0.500000  1
  P  P12  1  0.519437  0.820473  0.500000  1
  P  P13  1  0.301035  0.480563  0.500000  1
  P  P14  1  0.179433  0.183985  0.000000  1
  P  P15  1  0.816015  0.995448  0.000000  1
  P  P16  1  0.004552  0.820567  0.000000  1
  Ir  Ir17  1  0.806069  0.169838  0.000000  1
  Ir  Ir18  1  0.830162  0.636231  0.000000  1
  Ir  Ir19  1  0.363769  0.193931  0.000000  1
  Ir  Ir20  1  0.180888  0.794172  0.000000  1
  Ir  Ir21  1  0.613285  0.819112  0.000000  1
  Ir  Ir22  1  0.205828  0.386715  0.000000  1
  Ir  Ir23  1  0.445982  0.440375  0.000000  1
  Ir  Ir24  1  0.559625  0.005606  0.000000  1
  Ir  Ir25  1  0.994394  0.554018  0.000000  1
  Ir  Ir26  1  0.272217  0.284504  0.500000  1
  Ir  Ir27  1  0.715496  0.987713  0.500000  1
  Ir  Ir28  1  0.012287  0.727783  0.500000  1
  Ir  Ir29  1  0.873966  0.349187  0.500000  1
  Ir  Ir30  1  0.650813  0.524780  0.500000  1
  Ir  Ir31  1  0.475220  0.126034  0.500000  1
  Ir  Ir32  1  0.372231  0.871070  0.500000  1
  Ir  Ir33  1  0.498842  0.627769  0.500000  1
  Ir  Ir34  1  0.128930  0.501158  0.500000  1
  Ir  Ir35  1  0.000000  0.000000  0.000000  1
