# generated using pymatgen
data_ErLu3Pd4F28
_symmetry_space_group_name_H-M   'P 1'
_cell_length_a   5.44773282
_cell_length_b   8.68825259
_cell_length_c   11.78681909
_cell_angle_alpha   62.82945786
_cell_angle_beta   90.04641597
_cell_angle_gamma   89.98375642
_symmetry_Int_Tables_number   1
_chemical_formula_structural   ErLu3Pd4F28
_chemical_formula_sum   'Er1 Lu3 Pd4 F28'
_cell_volume   496.32299563
_cell_formula_units_Z   1
loop_
 _symmetry_equiv_pos_site_id
 _symmetry_equiv_pos_as_xyz
  1  'x, y, z'
loop_
 _atom_site_type_symbol
 _atom_site_label
 _atom_site_symmetry_multiplicity
 _atom_site_fract_x
 _atom_site_fract_y
 _atom_site_fract_z
 _atom_site_occupancy
  Er  Er0  1  0.737480  0.814670  0.264573  1
  Lu  Lu1  1  0.763257  0.815149  0.764254  1
  Lu  Lu2  1  0.263313  0.184939  0.735999  1
  Lu  Lu3  1  0.235924  0.186794  0.235766  1
  Pd  Pd4  1  0.761080  0.272814  0.956081  1
  Pd  Pd5  1  0.259683  0.727797  0.544666  1
  Pd  Pd6  1  0.241152  0.727690  0.041793  1
  Pd  Pd7  1  0.739028  0.270519  0.457458  1
  F  F8  1  0.435182  0.699968  0.914194  1
  F  F9  1  0.935393  0.298916  0.584246  1
  F  F10  1  0.565377  0.300557  0.083197  1
  F  F11  1  0.065467  0.701039  0.416537  1
  F  F12  1  0.433986  0.274066  0.543612  1
  F  F13  1  0.934415  0.724563  0.956464  1
  F  F14  1  0.564413  0.723946  0.459336  1
  F  F15  1  0.065763  0.276372  0.042628  1
  F  F16  1  0.780974  0.524261  0.857007  1
  F  F17  1  0.279075  0.475880  0.643196  1
  F  F18  1  0.220336  0.476223  0.141711  1
  F  F19  1  0.717585  0.521395  0.358054  1
  F  F20  1  0.752565  0.022572  0.048982  1
  F  F21  1  0.251714  0.978202  0.451404  1
  F  F22  1  0.249623  0.978208  0.949555  1
  F  F23  1  0.748458  0.020043  0.550316  1
  F  F24  1  0.963303  0.723690  0.638206  1
  F  F25  1  0.465017  0.276731  0.861979  1
  F  F26  1  0.035136  0.276444  0.362979  1
  F  F27  1  0.538385  0.722304  0.134843  1
  F  F28  1  0.055044  0.746720  0.176533  1
  F  F29  1  0.549181  0.250560  0.323584  1
  F  F30  1  0.951246  0.252331  0.822607  1
  F  F31  1  0.448916  0.747845  0.678320  1
  F  F32  1  0.411645  0.973307  0.232120  1
  F  F33  1  0.915722  0.033185  0.267646  1
  F  F34  1  0.582789  0.028347  0.767133  1
  F  F35  1  0.082372  0.971953  0.733018  1
