# generated using pymatgen
data_U6Mn15FeSi7
_symmetry_space_group_name_H-M   'P 1'
_cell_length_a   8.22309502
_cell_length_b   8.30095275
_cell_length_c   8.30095300
_cell_angle_alpha   60.00000299
_cell_angle_beta   59.68630085
_cell_angle_gamma   59.68630403
_symmetry_Int_Tables_number   1
_chemical_formula_structural   U6Mn15FeSi7
_chemical_formula_sum   'U6 Mn15 Fe1 Si7'
_cell_volume   398.74994679
_cell_formula_units_Z   1
loop_
 _symmetry_equiv_pos_site_id
 _symmetry_equiv_pos_as_xyz
  1  'x, y, z'
loop_
 _atom_site_type_symbol
 _atom_site_label
 _atom_site_symmetry_multiplicity
 _atom_site_fract_x
 _atom_site_fract_y
 _atom_site_fract_z
 _atom_site_occupancy
  U  U0  1  0.784808  0.215231  0.784730  1
  U  U1  1  0.216125  0.782440  0.218995  1
  U  U2  1  0.216125  0.218995  0.782440  1
  U  U3  1  0.784808  0.784730  0.215231  1
  U  U4  1  0.216125  0.782440  0.782440  1
  U  U5  1  0.784808  0.215231  0.215231  1
  Mn  Mn6  1  0.173811  0.175322  0.175322  1
  Mn  Mn7  1  0.173811  0.175322  0.475547  1
  Mn  Mn8  1  0.826496  0.824134  0.525235  1
  Mn  Mn9  1  0.826496  0.525235  0.824134  1
  Mn  Mn10  1  0.619291  0.133364  0.623672  1
  Mn  Mn11  1  0.826496  0.824134  0.824134  1
  Mn  Mn12  1  0.381464  0.375217  0.375217  1
  Mn  Mn13  1  0.619291  0.623672  0.623672  1
  Mn  Mn14  1  0.477457  0.174181  0.174181  1
  Mn  Mn15  1  0.523625  0.825458  0.825458  1
  Mn  Mn16  1  0.173811  0.475547  0.175322  1
  Mn  Mn17  1  0.619291  0.623672  0.133364  1
  Mn  Mn18  1  0.381464  0.375217  0.868102  1
  Mn  Mn19  1  0.865633  0.378122  0.378122  1
  Mn  Mn20  1  0.381464  0.868102  0.375217  1
  Fe  Fe21  1  0.133408  0.622197  0.622197  1
  Si  Si22  1  0.499593  0.500619  0.999894  1
  Si  Si23  1  0.496477  0.501174  0.501174  1
  Si  Si24  1  0.499593  0.999894  0.500619  1
  Si  Si25  1  0.999545  0.000269  0.500093  1
  Si  Si26  1  0.999545  0.500093  0.500093  1
  Si  Si27  1  0.999545  0.500093  0.000269  1
  Si  Si28  1  0.499593  0.999894  0.999894  1
