# generated using pymatgen
data_La2HoLu(ZnGe)4
_symmetry_space_group_name_H-M   'P 1'
_cell_length_a   4.29960300
_cell_length_b   4.29960325
_cell_length_c   16.10060900
_cell_angle_alpha   90.00000000
_cell_angle_beta   90.00000000
_cell_angle_gamma   119.99999039
_symmetry_Int_Tables_number   1
_chemical_formula_structural   La2HoLu(ZnGe)4
_chemical_formula_sum   'La2 Ho1 Lu1 Zn4 Ge4'
_cell_volume   257.76842427
_cell_formula_units_Z   1
loop_
 _symmetry_equiv_pos_site_id
 _symmetry_equiv_pos_as_xyz
  1  'x, y, z'
loop_
 _atom_site_type_symbol
 _atom_site_label
 _atom_site_symmetry_multiplicity
 _atom_site_fract_x
 _atom_site_fract_y
 _atom_site_fract_z
 _atom_site_occupancy
  La  La0  1  0.000000  0.000000  0.000808  1
  La  La1  1  0.000000  0.000000  0.499192  1
  Ho  Ho2  1  0.000000  0.000000  0.750000  1
  Lu  Lu3  1  0.000000  0.000000  0.250000  1
  Zn  Zn4  1  0.333333  0.666667  0.157957  1
  Zn  Zn5  1  0.666667  0.333333  0.844297  1
  Zn  Zn6  1  0.666667  0.333333  0.655703  1
  Zn  Zn7  1  0.333333  0.666667  0.342043  1
  Ge  Ge8  1  0.333333  0.666667  0.619133  1
  Ge  Ge9  1  0.666667  0.333333  0.380150  1
  Ge  Ge10  1  0.666667  0.333333  0.119850  1
  Ge  Ge11  1  0.333333  0.666667  0.880867  1
