# generated using pymatgen
data_Ca17Yb3(GeBi2)4
_symmetry_space_group_name_H-M   'P 1'
_cell_length_a   8.13550073
_cell_length_b   9.58490973
_cell_length_c   12.99634779
_cell_angle_alpha   89.90088843
_cell_angle_beta   89.95403911
_cell_angle_gamma   89.98588097
_symmetry_Int_Tables_number   1
_chemical_formula_structural   Ca17Yb3(GeBi2)4
_chemical_formula_sum   'Ca17 Yb3 Ge4 Bi8'
_cell_volume   1013.42785616
_cell_formula_units_Z   1
loop_
 _symmetry_equiv_pos_site_id
 _symmetry_equiv_pos_as_xyz
  1  'x, y, z'
loop_
 _atom_site_type_symbol
 _atom_site_label
 _atom_site_symmetry_multiplicity
 _atom_site_fract_x
 _atom_site_fract_y
 _atom_site_fract_z
 _atom_site_occupancy
  Ca  Ca0  1  0.827643  0.526390  0.077280  1
  Ca  Ca1  1  0.830018  0.249415  0.784662  1
  Ca  Ca2  1  0.054918  0.752332  0.500826  1
  Ca  Ca3  1  0.355151  0.248901  0.694261  1
  Ca  Ca4  1  0.171531  0.027178  0.923095  1
  Ca  Ca5  1  0.555807  0.248319  0.999337  1
  Ca  Ca6  1  0.855132  0.751333  0.805542  1
  Ca  Ca7  1  0.330136  0.750719  0.715076  1
  Ca  Ca8  1  0.327511  0.474153  0.423043  1
  Ca  Ca9  1  0.670396  0.249284  0.284574  1
  Ca  Ca10  1  0.445265  0.751287  0.001068  1
  Ca  Ca11  1  0.672620  0.525983  0.576774  1
  Ca  Ca12  1  0.944972  0.247734  0.499081  1
  Ca  Ca13  1  0.144754  0.248117  0.194625  1
  Ca  Ca14  1  0.169785  0.750998  0.215452  1
  Ca  Ca15  1  0.172120  0.473445  0.923126  1
  Ca  Ca16  1  0.645158  0.751575  0.305362  1
  Yb  Yb17  1  0.829434  0.972772  0.076305  1
  Yb  Yb18  1  0.669817  0.972993  0.575576  1
  Yb  Yb19  1  0.329949  0.027091  0.424070  1
  Ge  Ge20  1  0.442486  0.751891  0.492786  1
  Ge  Ge21  1  0.557491  0.248250  0.506913  1
  Ge  Ge22  1  0.056627  0.750905  0.993428  1
  Ge  Ge23  1  0.941255  0.248682  0.007533  1
  Bi  Bi24  1  0.056255  0.007683  0.668841  1
  Bi  Bi25  1  0.943268  0.992384  0.331038  1
  Bi  Bi26  1  0.056474  0.492916  0.668220  1
  Bi  Bi27  1  0.556346  0.992679  0.830772  1
  Bi  Bi28  1  0.443939  0.007441  0.169538  1
  Bi  Bi29  1  0.443839  0.492799  0.168696  1
  Bi  Bi30  1  0.556094  0.507334  0.831265  1
  Bi  Bi31  1  0.943809  0.507016  0.331834  1
