# generated using pymatgen
data_LiAg3(PbO3)2
_symmetry_space_group_name_H-M   'P 1'
_cell_length_a   5.77181368
_cell_length_b   5.77930069
_cell_length_c   6.72022852
_cell_angle_alpha   73.32831779
_cell_angle_beta   98.25793237
_cell_angle_gamma   120.04291067
_symmetry_Int_Tables_number   1
_chemical_formula_structural   LiAg3(PbO3)2
_chemical_formula_sum   'Li1 Ag3 Pb2 O6'
_cell_volume   185.89327926
_cell_formula_units_Z   1
loop_
 _symmetry_equiv_pos_site_id
 _symmetry_equiv_pos_as_xyz
  1  'x, y, z'
loop_
 _atom_site_type_symbol
 _atom_site_label
 _atom_site_symmetry_multiplicity
 _atom_site_fract_x
 _atom_site_fract_y
 _atom_site_fract_z
 _atom_site_occupancy
  Li  Li0  1  0.333333  0.166667  0.500000  1
  Ag  Ag1  1  0.675559  0.337778  0.000000  1
  Ag  Ag2  1  0.333333  0.666667  0.000000  1
  Ag  Ag3  1  0.991108  0.995555  0.000000  1
  Pb  Pb4  1  0.999738  0.499868  0.500000  1
  Pb  Pb5  1  0.666929  0.833465  0.500000  1
  O  O6  1  0.333333  0.773642  0.673606  1
  O  O7  1  0.998926  0.108985  0.673704  1
  O  O8  1  0.667741  0.443393  0.673704  1
  O  O9  1  0.667741  0.224348  0.326296  1
  O  O10  1  0.333333  0.559692  0.326394  1
  O  O11  1  0.998926  0.889940  0.326296  1
