# generated using pymatgen
data_LiTa(TiPt6)2
_symmetry_space_group_name_H-M   'P 1'
_cell_length_a   5.59702600
_cell_length_b   5.59702539
_cell_length_c   9.06823300
_cell_angle_alpha   90.00000000
_cell_angle_beta   90.00000000
_cell_angle_gamma   120.00000359
_symmetry_Int_Tables_number   1
_chemical_formula_structural   LiTa(TiPt6)2
_chemical_formula_sum   'Li1 Ta1 Ti2 Pt12'
_cell_volume   246.01856894
_cell_formula_units_Z   1
loop_
 _symmetry_equiv_pos_site_id
 _symmetry_equiv_pos_as_xyz
  1  'x, y, z'
loop_
 _atom_site_type_symbol
 _atom_site_label
 _atom_site_symmetry_multiplicity
 _atom_site_fract_x
 _atom_site_fract_y
 _atom_site_fract_z
 _atom_site_occupancy
  Li  Li0  1  0.333333  0.666667  0.249598  1
  Ta  Ta1  1  0.000000  0.000000  0.493528  1
  Ti  Ti2  1  0.000000  0.000000  0.006077  1
  Ti  Ti3  1  0.666667  0.333333  0.752257  1
  Pt  Pt4  1  0.501068  0.498932  0.501886  1
  Pt  Pt5  1  0.501068  0.002137  0.501886  1
  Pt  Pt6  1  0.997863  0.498932  0.501886  1
  Pt  Pt7  1  0.501059  0.498941  0.998002  1
  Pt  Pt8  1  0.501059  0.002118  0.998002  1
  Pt  Pt9  1  0.997882  0.498941  0.998002  1
  Pt  Pt10  1  0.831675  0.663352  0.249293  1
  Pt  Pt11  1  0.336648  0.168325  0.249293  1
  Pt  Pt12  1  0.831675  0.168325  0.249293  1
  Pt  Pt13  1  0.167391  0.334781  0.750333  1
  Pt  Pt14  1  0.665219  0.832609  0.750333  1
  Pt  Pt15  1  0.167391  0.832609  0.750333  1
