# generated using pymatgen
data_Sc3In3HgRh2
_symmetry_space_group_name_H-M   'P 1'
_cell_length_a   7.82159200
_cell_length_b   7.82159218
_cell_length_c   3.44914300
_cell_angle_alpha   90.00000000
_cell_angle_beta   90.00000000
_cell_angle_gamma   120.00000770
_symmetry_Int_Tables_number   1
_chemical_formula_structural   Sc3In3HgRh2
_chemical_formula_sum   'Sc3 In3 Hg1 Rh2'
_cell_volume   182.73937042
_cell_formula_units_Z   1
loop_
 _symmetry_equiv_pos_site_id
 _symmetry_equiv_pos_as_xyz
  1  'x, y, z'
loop_
 _atom_site_type_symbol
 _atom_site_label
 _atom_site_symmetry_multiplicity
 _atom_site_fract_x
 _atom_site_fract_y
 _atom_site_fract_z
 _atom_site_occupancy
  Sc  Sc0  1  0.589833  0.965485  0.000000  1
  Sc  Sc1  1  0.375651  0.410167  0.000000  1
  Sc  Sc2  1  0.034515  0.624349  0.000000  1
  In  In3  1  0.729868  0.728423  0.500000  1
  In  In4  1  0.998555  0.270132  0.500000  1
  In  In5  1  0.271577  0.001445  0.500000  1
  Hg  Hg6  1  0.666667  0.333333  0.500000  1
  Rh  Rh7  1  0.000000  0.000000  0.000000  1
  Rh  Rh8  1  0.333333  0.666667  0.500000  1
