# generated using pymatgen
data_La3Cd2HgIrAu2
_symmetry_space_group_name_H-M   'P 1'
_cell_length_a   8.14654703
_cell_length_b   8.09511041
_cell_length_c   3.97959300
_cell_angle_alpha   90.00000000
_cell_angle_beta   90.00000000
_cell_angle_gamma   120.20050693
_symmetry_Int_Tables_number   1
_chemical_formula_structural   La3Cd2HgIrAu2
_chemical_formula_sum   'La3 Cd2 Hg1 Ir1 Au2'
_cell_volume   226.82170931
_cell_formula_units_Z   1
loop_
 _symmetry_equiv_pos_site_id
 _symmetry_equiv_pos_as_xyz
  1  'x, y, z'
loop_
 _atom_site_type_symbol
 _atom_site_label
 _atom_site_symmetry_multiplicity
 _atom_site_fract_x
 _atom_site_fract_y
 _atom_site_fract_z
 _atom_site_occupancy
  La  La0  1  0.426591  0.023642  0.000000  1
  La  La1  1  0.601895  0.579249  0.000000  1
  La  La2  1  0.974959  0.396761  0.000000  1
  Cd  Cd3  1  0.256583  0.257950  0.500000  1
  Cd  Cd4  1  0.002352  0.743874  0.500000  1
  Hg  Hg5  1  0.738097  0.997769  0.500000  1
  Ir  Ir6  1  0.665557  0.338130  0.500000  1
  Au  Au7  1  0.328294  0.662430  0.500000  1
  Au  Au8  1  0.005672  0.000196  0.000000  1
