# generated using pymatgen
data_Nb16AlFe3Te16
_symmetry_space_group_name_H-M   'P 1'
_cell_length_a   4.88647700
_cell_length_b   10.81799381
_cell_length_c   18.81652940
_cell_angle_alpha   89.95567907
_cell_angle_beta   90.00000000
_cell_angle_gamma   90.00000000
_symmetry_Int_Tables_number   1
_chemical_formula_structural   Nb16AlFe3Te16
_chemical_formula_sum   'Nb16 Al1 Fe3 Te16'
_cell_volume   994.67678309
_cell_formula_units_Z   1
loop_
 _symmetry_equiv_pos_site_id
 _symmetry_equiv_pos_as_xyz
  1  'x, y, z'
loop_
 _atom_site_type_symbol
 _atom_site_label
 _atom_site_symmetry_multiplicity
 _atom_site_fract_x
 _atom_site_fract_y
 _atom_site_fract_z
 _atom_site_occupancy
  Nb  Nb0  1  0.500514  0.565762  0.380431  1
  Nb  Nb1  1  0.500514  0.434238  0.619569  1
  Nb  Nb2  1  0.500020  0.064888  0.117558  1
  Nb  Nb3  1  0.500020  0.935112  0.882442  1
  Nb  Nb4  1  0.499428  0.708943  0.537438  1
  Nb  Nb5  1  0.499428  0.291057  0.462562  1
  Nb  Nb6  1  0.499798  0.205732  0.963059  1
  Nb  Nb7  1  0.499798  0.794268  0.036941  1
  Nb  Nb8  1  0.000445  0.694110  0.441537  1
  Nb  Nb9  1  0.000445  0.305890  0.558463  1
  Nb  Nb10  1  0.000290  0.191299  0.057420  1
  Nb  Nb11  1  0.000290  0.808701  0.942580  1
  Nb  Nb12  1  0.999666  0.399142  0.388873  1
  Nb  Nb13  1  0.999666  0.600858  0.611127  1
  Nb  Nb14  1  0.000000  0.900508  0.109210  1
  Nb  Nb15  1  0.000000  0.099492  0.890790  1
  Al  Al16  1  0.249790  0.500000  0.500000  1
  Fe  Fe17  1  0.750081  0.000000  0.000000  1
  Fe  Fe18  1  0.749717  0.500000  0.500000  1
  Fe  Fe19  1  0.249944  0.000000  0.000000  1
  Te  Te20  1  0.994772  0.851175  0.563516  1
  Te  Te21  1  0.994772  0.148825  0.436484  1
  Te  Te22  1  0.000083  0.350533  0.936378  1
  Te  Te23  1  0.000083  0.649467  0.063622  1
  Te  Te24  1  0.504488  0.330481  0.312942  1
  Te  Te25  1  0.504488  0.669519  0.687058  1
  Te  Te26  1  0.499760  0.831078  0.186467  1
  Te  Te27  1  0.499760  0.168922  0.813533  1
  Te  Te28  1  0.505164  0.827103  0.401868  1
  Te  Te29  1  0.505164  0.172897  0.598132  1
  Te  Te30  1  0.499979  0.326547  0.097712  1
  Te  Te31  1  0.499979  0.673453  0.902288  1
  Te  Te32  1  0.995557  0.609765  0.298013  1
  Te  Te33  1  0.995557  0.390235  0.701987  1
  Te  Te34  1  0.000272  0.109097  0.201186  1
  Te  Te35  1  0.000272  0.890903  0.798814  1
