# generated using pymatgen
data_Sc4VMoOs6
_symmetry_space_group_name_H-M   'P 1'
_cell_length_a   5.31140400
_cell_length_b   5.31140381
_cell_length_c   8.29575900
_cell_angle_alpha   90.00000000
_cell_angle_beta   90.00000000
_cell_angle_gamma   120.00001362
_symmetry_Int_Tables_number   1
_chemical_formula_structural   Sc4VMoOs6
_chemical_formula_sum   'Sc4 V1 Mo1 Os6'
_cell_volume   202.67741486
_cell_formula_units_Z   1
loop_
 _symmetry_equiv_pos_site_id
 _symmetry_equiv_pos_as_xyz
  1  'x, y, z'
loop_
 _atom_site_type_symbol
 _atom_site_label
 _atom_site_symmetry_multiplicity
 _atom_site_fract_x
 _atom_site_fract_y
 _atom_site_fract_z
 _atom_site_occupancy
  Sc  Sc0  1  0.333333  0.666667  0.434505  1
  Sc  Sc1  1  0.666667  0.333333  0.565495  1
  Sc  Sc2  1  0.666667  0.333333  0.935075  1
  Sc  Sc3  1  0.333333  0.666667  0.064925  1
  V  V4  1  0.000000  0.000000  0.500000  1
  Mo  Mo5  1  0.000000  0.000000  0.000000  1
  Os  Os6  1  0.172224  0.344447  0.745606  1
  Os  Os7  1  0.172224  0.827776  0.745606  1
  Os  Os8  1  0.344447  0.172224  0.254394  1
  Os  Os9  1  0.827776  0.655553  0.254394  1
  Os  Os10  1  0.655553  0.827776  0.745606  1
  Os  Os11  1  0.827776  0.172224  0.254394  1
