# generated using pymatgen
data_Ho5Er7(CoTc)2
_symmetry_space_group_name_H-M   'P 1'
_cell_length_a   6.25426913
_cell_length_b   7.15156301
_cell_length_c   9.12241418
_cell_angle_alpha   89.99786618
_cell_angle_beta   90.02233800
_cell_angle_gamma   90.00558239
_symmetry_Int_Tables_number   1
_chemical_formula_structural   Ho5Er7(CoTc)2
_chemical_formula_sum   'Ho5 Er7 Co2 Tc2'
_cell_volume   408.02548110
_cell_formula_units_Z   1
loop_
 _symmetry_equiv_pos_site_id
 _symmetry_equiv_pos_as_xyz
  1  'x, y, z'
loop_
 _atom_site_type_symbol
 _atom_site_label
 _atom_site_symmetry_multiplicity
 _atom_site_fract_x
 _atom_site_fract_y
 _atom_site_fract_z
 _atom_site_occupancy
  Ho  Ho0  1  0.370923  0.546718  0.250096  1
  Ho  Ho1  1  0.143765  0.040504  0.250029  1
  Ho  Ho2  1  0.871058  0.953262  0.749930  1
  Ho  Ho3  1  0.643575  0.459437  0.749879  1
  Ho  Ho4  1  0.823303  0.681689  0.066386  1
  Er  Er5  1  0.667888  0.173265  0.063569  1
  Er  Er6  1  0.823240  0.681657  0.433661  1
  Er  Er7  1  0.323400  0.818474  0.933465  1
  Er  Er8  1  0.168142  0.326622  0.563682  1
  Er  Er9  1  0.667909  0.173271  0.436452  1
  Er  Er10  1  0.168175  0.326563  0.936280  1
  Er  Er11  1  0.323386  0.818497  0.566479  1
  Co  Co12  1  0.540320  0.885695  0.250088  1
  Co  Co13  1  0.040471  0.614400  0.749927  1
  Tc  Tc14  1  0.962225  0.391037  0.250053  1
  Tc  Tc15  1  0.462222  0.108910  0.750023  1
