# generated using pymatgen
data_Zr3Si4MoRh4
_symmetry_space_group_name_H-M   'P 1'
_cell_length_a   3.89360400
_cell_length_b   6.52463159
_cell_length_c   7.43885772
_cell_angle_alpha   90.46017882
_cell_angle_beta   90.00000000
_cell_angle_gamma   90.00000000
_symmetry_Int_Tables_number   1
_chemical_formula_structural   Zr3Si4MoRh4
_chemical_formula_sum   'Zr3 Si4 Mo1 Rh4'
_cell_volume   188.97311341
_cell_formula_units_Z   1
loop_
 _symmetry_equiv_pos_site_id
 _symmetry_equiv_pos_as_xyz
  1  'x, y, z'
loop_
 _atom_site_type_symbol
 _atom_site_label
 _atom_site_symmetry_multiplicity
 _atom_site_fract_x
 _atom_site_fract_y
 _atom_site_fract_z
 _atom_site_occupancy
  Zr  Zr0  1  0.750000  0.479325  0.822968  1
  Zr  Zr1  1  0.250000  0.020347  0.312004  1
  Zr  Zr2  1  0.750000  0.972233  0.682590  1
  Si  Si3  1  0.250000  0.769441  0.894957  1
  Si  Si4  1  0.750000  0.244835  0.124171  1
  Si  Si5  1  0.250000  0.271871  0.617588  1
  Si  Si6  1  0.750000  0.707812  0.366106  1
  Mo  Mo7  1  0.250000  0.524513  0.177771  1
  Rh  Rh8  1  0.750000  0.860659  0.067151  1
  Rh  Rh9  1  0.250000  0.151020  0.935895  1
  Rh  Rh10  1  0.750000  0.348583  0.439008  1
  Rh  Rh11  1  0.250000  0.649363  0.559788  1
