# generated using pymatgen
data_Cs12Bi3AsSe12
_symmetry_space_group_name_H-M   'P 1'
_cell_length_a   10.84387747
_cell_length_b   10.84387747
_cell_length_c   10.84387747
_cell_angle_alpha   89.33466568
_cell_angle_beta   90.66533432
_cell_angle_gamma   90.66533432
_symmetry_Int_Tables_number   1
_chemical_formula_structural   Cs12Bi3AsSe12
_chemical_formula_sum   'Cs12 Bi3 As1 Se12'
_cell_volume   1274.87213097
_cell_formula_units_Z   1
loop_
 _symmetry_equiv_pos_site_id
 _symmetry_equiv_pos_as_xyz
  1  'x, y, z'
loop_
 _atom_site_type_symbol
 _atom_site_label
 _atom_site_symmetry_multiplicity
 _atom_site_fract_x
 _atom_site_fract_y
 _atom_site_fract_z
 _atom_site_occupancy
  Cs  Cs0  1  0.183252  0.683362  0.818122  1
  Cs  Cs1  1  0.311405  0.688595  0.188595  1
  Cs  Cs2  1  0.913622  0.429944  0.066230  1
  Cs  Cs3  1  0.808471  0.806859  0.812791  1
  Cs  Cs4  1  0.433770  0.086378  0.929944  1
  Cs  Cs5  1  0.681878  0.816748  0.183362  1
  Cs  Cs6  1  0.570056  0.566230  0.586378  1
  Cs  Cs7  1  0.818369  0.181631  0.681631  1
  Cs  Cs8  1  0.687209  0.191529  0.306859  1
  Cs  Cs9  1  0.072417  0.927583  0.427583  1
  Cs  Cs10  1  0.193141  0.312791  0.691529  1
  Cs  Cs11  1  0.316638  0.318122  0.316748  1
  Bi  Bi12  1  0.027773  0.023361  0.027395  1
  Bi  Bi13  1  0.976639  0.527395  0.472227  1
  Bi  Bi14  1  0.472605  0.972227  0.523361  1
  As  As15  1  0.518785  0.481215  0.981215  1
  Se  Se16  1  0.305803  0.406867  0.994724  1
  Se  Se17  1  0.792515  0.098322  0.003971  1
  Se  Se18  1  0.707618  0.897247  0.504635  1
  Se  Se19  1  0.995365  0.292382  0.397247  1
  Se  Se20  1  0.901678  0.503971  0.707485  1
  Se  Se21  1  0.102753  0.004635  0.792382  1
  Se  Se22  1  0.213421  0.602689  0.496931  1
  Se  Se23  1  0.397311  0.996931  0.286579  1
  Se  Se24  1  0.593133  0.494724  0.194197  1
  Se  Se25  1  0.505276  0.694197  0.906867  1
  Se  Se26  1  0.003069  0.786579  0.102689  1
  Se  Se27  1  0.496029  0.207485  0.598322  1
