# generated using pymatgen
data_Tb2Pr2Zn10SiGe
_symmetry_space_group_name_H-M   'P 1'
_cell_length_a   8.29411000
_cell_length_b   8.29411097
_cell_length_c   8.80733200
_cell_angle_alpha   90.00000000
_cell_angle_beta   90.00000000
_cell_angle_gamma   149.41750886
_symmetry_Int_Tables_number   1
_chemical_formula_structural   Tb2Pr2Zn10SiGe
_chemical_formula_sum   'Tb2 Pr2 Zn10 Si1 Ge1'
_cell_volume   308.25677560
_cell_formula_units_Z   1
loop_
 _symmetry_equiv_pos_site_id
 _symmetry_equiv_pos_as_xyz
  1  'x, y, z'
loop_
 _atom_site_type_symbol
 _atom_site_label
 _atom_site_symmetry_multiplicity
 _atom_site_fract_x
 _atom_site_fract_y
 _atom_site_fract_z
 _atom_site_occupancy
  Tb  Tb0  1  0.201580  0.798420  0.250000  1
  Tb  Tb1  1  0.797536  0.202464  0.750000  1
  Pr  Pr2  1  0.000172  0.999828  0.497836  1
  Pr  Pr3  1  0.000172  0.999828  0.002164  1
  Zn  Zn4  1  0.812420  0.187580  0.391818  1
  Zn  Zn5  1  0.187445  0.812555  0.607554  1
  Zn  Zn6  1  0.812420  0.187580  0.108182  1
  Zn  Zn7  1  0.187445  0.812555  0.892446  1
  Zn  Zn8  1  0.652304  0.347696  0.474405  1
  Zn  Zn9  1  0.346024  0.653976  0.522028  1
  Zn  Zn10  1  0.652304  0.347696  0.025595  1
  Zn  Zn11  1  0.346024  0.653976  0.977972  1
  Zn  Zn12  1  0.403977  0.596023  0.250000  1
  Zn  Zn13  1  0.599324  0.400676  0.750000  1
  Si  Si14  1  0.558863  0.441137  0.250000  1
  Ge  Ge15  1  0.441987  0.558013  0.750000  1
