# generated using pymatgen
data_Ba12TiFe3O19
_symmetry_space_group_name_H-M   'P 1'
_cell_length_a   7.91098884
_cell_length_b   7.92870906
_cell_length_c   10.52270327
_cell_angle_alpha   89.92988436
_cell_angle_beta   90.09517466
_cell_angle_gamma   97.20069733
_symmetry_Int_Tables_number   1
_chemical_formula_structural   Ba12TiFe3O19
_chemical_formula_sum   'Ba12 Ti1 Fe3 O19'
_cell_volume   654.81854166
_cell_formula_units_Z   1
loop_
 _symmetry_equiv_pos_site_id
 _symmetry_equiv_pos_as_xyz
  1  'x, y, z'
loop_
 _atom_site_type_symbol
 _atom_site_label
 _atom_site_symmetry_multiplicity
 _atom_site_fract_x
 _atom_site_fract_y
 _atom_site_fract_z
 _atom_site_occupancy
  Ba  Ba0  1  0.745412  0.263416  0.492632  1
  Ba  Ba1  1  0.259140  0.730308  0.008134  1
  Ba  Ba2  1  0.743416  0.272432  0.003882  1
  Ba  Ba3  1  0.251826  0.735349  0.494933  1
  Ba  Ba4  1  0.577971  0.578712  0.248301  1
  Ba  Ba5  1  0.067376  0.069743  0.762746  1
  Ba  Ba6  1  0.421452  0.427133  0.753513  1
  Ba  Ba7  1  0.930479  0.927744  0.236689  1
  Ba  Ba8  1  0.747489  0.747322  0.929867  1
  Ba  Ba9  1  0.260088  0.261411  0.423996  1
  Ba  Ba10  1  0.253735  0.250509  0.074565  1
  Ba  Ba11  1  0.740551  0.737571  0.572390  1
  Ti  Ti12  1  0.497279  0.998307  0.743748  1
  Fe  Fe13  1  0.504541  0.003382  0.258802  1
  Fe  Fe14  1  0.996368  0.497181  0.742382  1
  Fe  Fe15  1  0.002209  0.500859  0.254519  1
  O  O16  1  0.265057  0.962434  0.290749  1
  O  O17  1  0.758204  0.466928  0.766402  1
  O  O18  1  0.537991  0.241752  0.240050  1
  O  O19  1  0.037144  0.735436  0.705195  1
  O  O20  1  0.925225  0.630664  0.389811  1
  O  O21  1  0.425868  0.108823  0.883010  1
  O  O22  1  0.889069  0.581151  0.111639  1
  O  O23  1  0.370336  0.068944  0.612156  1
  O  O24  1  0.241391  0.538855  0.238318  1
  O  O25  1  0.729330  0.040320  0.715520  1
  O  O26  1  0.964456  0.261344  0.280590  1
  O  O27  1  0.456544  0.767624  0.762579  1
  O  O28  1  0.575601  0.882563  0.117568  1
  O  O29  1  0.065070  0.356163  0.609802  1
  O  O30  1  0.647160  0.938466  0.391056  1
  O  O31  1  0.113383  0.419042  0.884451  1
  O  O32  1  0.499057  0.497710  0.000347  1
  O  O33  1  0.002609  0.997908  0.998152  1
  O  O34  1  0.497174  0.502496  0.501505  1
