# generated using pymatgen
data_DySc4P12Ru19
_symmetry_space_group_name_H-M   'P 1'
_cell_length_a   12.43645800
_cell_length_b   12.43645751
_cell_length_c   3.94203200
_cell_angle_alpha   90.00000000
_cell_angle_beta   90.00000000
_cell_angle_gamma   120.00000129
_symmetry_Int_Tables_number   1
_chemical_formula_structural   DySc4P12Ru19
_chemical_formula_sum   'Dy1 Sc4 P12 Ru19'
_cell_volume   528.01245806
_cell_formula_units_Z   1
loop_
 _symmetry_equiv_pos_site_id
 _symmetry_equiv_pos_as_xyz
  1  'x, y, z'
loop_
 _atom_site_type_symbol
 _atom_site_label
 _atom_site_symmetry_multiplicity
 _atom_site_fract_x
 _atom_site_fract_y
 _atom_site_fract_z
 _atom_site_occupancy
  Dy  Dy0  1  0.333333  0.666667  0.000000  1
  Sc  Sc1  1  0.666667  0.333333  0.000000  1
  Sc  Sc2  1  0.817535  0.000098  0.500000  1
  Sc  Sc3  1  0.182563  0.182465  0.500000  1
  Sc  Sc4  1  0.999902  0.817437  0.500000  1
  P  P5  1  0.627864  0.000235  0.000000  1
  P  P6  1  0.372371  0.372136  0.000000  1
  P  P7  1  0.999765  0.627629  0.000000  1
  P  P8  1  0.693749  0.521688  0.500000  1
  P  P9  1  0.827940  0.306251  0.500000  1
  P  P10  1  0.306401  0.830204  0.500000  1
  P  P11  1  0.523802  0.693599  0.500000  1
  P  P12  1  0.182016  0.001255  0.000000  1
  P  P13  1  0.819239  0.817984  0.000000  1
  P  P14  1  0.998745  0.180761  0.000000  1
  P  P15  1  0.478312  0.172060  0.500000  1
  P  P16  1  0.169796  0.476198  0.500000  1
  Ru  Ru17  1  0.627830  0.812018  0.000000  1
  Ru  Ru18  1  0.184188  0.372170  0.000000  1
  Ru  Ru19  1  0.375196  0.185864  0.000000  1
  Ru  Ru20  1  0.187982  0.815812  0.000000  1
  Ru  Ru21  1  0.810668  0.624804  0.000000  1
  Ru  Ru22  1  0.871678  0.505858  0.500000  1
  Ru  Ru23  1  0.494142  0.365820  0.500000  1
  Ru  Ru24  1  0.634180  0.128322  0.500000  1
  Ru  Ru25  1  0.124982  0.634509  0.500000  1
  Ru  Ru26  1  0.365491  0.490473  0.500000  1
  Ru  Ru27  1  0.509527  0.875018  0.500000  1
  Ru  Ru28  1  0.000000  0.000000  0.000000  1
  Ru  Ru29  1  0.721274  0.720264  0.500000  1
  Ru  Ru30  1  0.998989  0.278726  0.500000  1
  Ru  Ru31  1  0.444231  0.000005  0.000000  1
  Ru  Ru32  1  0.555774  0.555769  0.000000  1
  Ru  Ru33  1  0.999995  0.444226  0.000000  1
  Ru  Ru34  1  0.814136  0.189332  0.000000  1
  Ru  Ru35  1  0.279736  0.001011  0.500000  1
