# generated using pymatgen
data_La8Y9Lu3Sn16
_symmetry_space_group_name_H-M   'P 1'
_cell_length_a   8.10183800
_cell_length_b   8.33499373
_cell_length_c   15.72679500
_cell_angle_alpha   90.00000000
_cell_angle_beta   90.00000000
_cell_angle_gamma   89.96312032
_symmetry_Int_Tables_number   1
_chemical_formula_structural   La8Y9Lu3Sn16
_chemical_formula_sum   'La8 Y9 Lu3 Sn16'
_cell_volume   1062.01088516
_cell_formula_units_Z   1
loop_
 _symmetry_equiv_pos_site_id
 _symmetry_equiv_pos_as_xyz
  1  'x, y, z'
loop_
 _atom_site_type_symbol
 _atom_site_label
 _atom_site_symmetry_multiplicity
 _atom_site_fract_x
 _atom_site_fract_y
 _atom_site_fract_z
 _atom_site_occupancy
  La  La0  1  0.508544  0.323541  0.903977  1
  La  La1  1  0.007816  0.175790  0.596105  1
  La  La2  1  0.491796  0.675968  0.403400  1
  La  La3  1  0.992081  0.823936  0.096584  1
  La  La4  1  0.491796  0.675968  0.096600  1
  La  La5  1  0.992081  0.823936  0.403416  1
  La  La6  1  0.508544  0.323541  0.596023  1
  La  La7  1  0.007816  0.175790  0.903895  1
  Y  Y8  1  0.349387  0.835533  0.876065  1
  Y  Y9  1  0.848410  0.665187  0.623925  1
  Y  Y10  1  0.650892  0.164903  0.375689  1
  Y  Y11  1  0.151216  0.335258  0.124469  1
  Y  Y12  1  0.650892  0.164903  0.124311  1
  Y  Y13  1  0.151216  0.335258  0.375531  1
  Y  Y14  1  0.349387  0.835533  0.623935  1
  Y  Y15  1  0.848410  0.665187  0.876075  1
  Y  Y16  1  0.181702  0.500661  0.750000  1
  Lu  Lu17  1  0.682031  0.998358  0.750000  1
  Lu  Lu18  1  0.818048  0.498675  0.250000  1
  Lu  Lu19  1  0.318227  0.001399  0.250000  1
  Sn  Sn20  1  0.314507  0.040957  0.042828  1
  Sn  Sn21  1  0.814663  0.459180  0.457121  1
  Sn  Sn22  1  0.685096  0.959222  0.542463  1
  Sn  Sn23  1  0.185410  0.541302  0.958172  1
  Sn  Sn24  1  0.685096  0.959222  0.957537  1
  Sn  Sn25  1  0.185410  0.541302  0.541828  1
  Sn  Sn26  1  0.314507  0.040957  0.457172  1
  Sn  Sn27  1  0.814663  0.459180  0.042879  1
  Sn  Sn28  1  0.546930  0.625193  0.750000  1
  Sn  Sn29  1  0.044802  0.876300  0.750000  1
  Sn  Sn30  1  0.454929  0.376031  0.250000  1
  Sn  Sn31  1  0.954823  0.123752  0.250000  1
  Sn  Sn32  1  0.315865  0.142114  0.750000  1
  Sn  Sn33  1  0.814673  0.355764  0.750000  1
  Sn  Sn34  1  0.684208  0.855882  0.250000  1
  Sn  Sn35  1  0.184123  0.644317  0.250000  1
