# generated using pymatgen
data_DyHo2Lu5Au4
_symmetry_space_group_name_H-M   'P 1'
_cell_length_a   4.84105500
_cell_length_b   7.09352980
_cell_length_c   8.80453300
_cell_angle_alpha   89.65165176
_cell_angle_beta   90.00000000
_cell_angle_gamma   90.00000000
_symmetry_Int_Tables_number   1
_chemical_formula_structural   DyHo2Lu5Au4
_chemical_formula_sum   'Dy1 Ho2 Lu5 Au4'
_cell_volume   302.34355371
_cell_formula_units_Z   1
loop_
 _symmetry_equiv_pos_site_id
 _symmetry_equiv_pos_as_xyz
  1  'x, y, z'
loop_
 _atom_site_type_symbol
 _atom_site_label
 _atom_site_symmetry_multiplicity
 _atom_site_fract_x
 _atom_site_fract_y
 _atom_site_fract_z
 _atom_site_occupancy
  Dy  Dy0  1  0.750000  0.015532  0.676897  1
  Ho  Ho1  1  0.250000  0.984233  0.322734  1
  Ho  Ho2  1  0.750000  0.516051  0.823084  1
  Lu  Lu3  1  0.250000  0.852104  0.923881  1
  Lu  Lu4  1  0.250000  0.352245  0.576757  1
  Lu  Lu5  1  0.750000  0.148707  0.078147  1
  Lu  Lu6  1  0.750000  0.647846  0.420236  1
  Lu  Lu7  1  0.250000  0.483409  0.176298  1
  Au  Au8  1  0.250000  0.253474  0.900126  1
  Au  Au9  1  0.250000  0.751546  0.603381  1
  Au  Au10  1  0.750000  0.746514  0.101614  1
  Au  Au11  1  0.750000  0.248337  0.396847  1
