# generated using pymatgen
data_Ca9Lu(Sn3H)2
_symmetry_space_group_name_H-M   'P 1'
_cell_length_a   9.41692476
_cell_length_b   9.41692458
_cell_length_c   9.41692465
_cell_angle_alpha   129.03808514
_cell_angle_beta   129.03808172
_cell_angle_gamma   74.94930187
_symmetry_Int_Tables_number   1
_chemical_formula_structural   Ca9Lu(Sn3H)2
_chemical_formula_sum   'Ca9 Lu1 Sn6 H2'
_cell_volume   490.64179457
_cell_formula_units_Z   1
loop_
 _symmetry_equiv_pos_site_id
 _symmetry_equiv_pos_as_xyz
  1  'x, y, z'
loop_
 _atom_site_type_symbol
 _atom_site_label
 _atom_site_symmetry_multiplicity
 _atom_site_fract_x
 _atom_site_fract_y
 _atom_site_fract_z
 _atom_site_occupancy
  Ca  Ca0  1  0.000000  0.000000  0.000000  1
  Ca  Ca1  1  0.509472  0.009977  0.823404  1
  Ca  Ca2  1  0.186573  0.686067  0.176596  1
  Ca  Ca3  1  0.009977  0.186573  0.500506  1
  Ca  Ca4  1  0.686067  0.509472  0.499494  1
  Ca  Ca5  1  0.490528  0.990023  0.176596  1
  Ca  Ca6  1  0.813427  0.313933  0.823404  1
  Ca  Ca7  1  0.990023  0.813427  0.499494  1
  Ca  Ca8  1  0.313933  0.490528  0.500506  1
  Lu  Lu9  1  0.500000  0.500000  0.000000  1
  Sn  Sn10  1  0.251989  0.251989  0.000000  1
  Sn  Sn11  1  0.748011  0.748011  0.000000  1
  Sn  Sn12  1  0.865220  0.375266  0.240486  1
  Sn  Sn13  1  0.134780  0.624734  0.759514  1
  Sn  Sn14  1  0.375266  0.134780  0.510046  1
  Sn  Sn15  1  0.624734  0.865220  0.489954  1
  H  H16  1  0.250000  0.750000  0.500000  1
  H  H17  1  0.750000  0.250000  0.500000  1
