# generated using pymatgen
data_SmDy7Sc12Si15Os
_symmetry_space_group_name_H-M   'P 1'
_cell_length_a   7.10266920
_cell_length_b   7.45688995
_cell_length_c   13.99068035
_cell_angle_alpha   90.04752225
_cell_angle_beta   90.01621125
_cell_angle_gamma   90.21499561
_symmetry_Int_Tables_number   1
_chemical_formula_structural   SmDy7Sc12Si15Os
_chemical_formula_sum   'Sm1 Dy7 Sc12 Si15 Os1'
_cell_volume   740.99440918
_cell_formula_units_Z   1
loop_
 _symmetry_equiv_pos_site_id
 _symmetry_equiv_pos_as_xyz
  1  'x, y, z'
loop_
 _atom_site_type_symbol
 _atom_site_label
 _atom_site_symmetry_multiplicity
 _atom_site_fract_x
 _atom_site_fract_y
 _atom_site_fract_z
 _atom_site_occupancy
  Sm  Sm0  1  0.011024  0.177841  0.095565  1
  Dy  Dy1  1  0.990769  0.827497  0.903201  1
  Dy  Dy2  1  0.488575  0.676612  0.903915  1
  Dy  Dy3  1  0.990792  0.827651  0.596622  1
  Dy  Dy4  1  0.510866  0.323329  0.096236  1
  Dy  Dy5  1  0.011495  0.178915  0.403615  1
  Dy  Dy6  1  0.511080  0.323172  0.403899  1
  Dy  Dy7  1  0.488359  0.676551  0.595908  1
  Sc  Sc8  1  0.155448  0.496163  0.750070  1
  Sc  Sc9  1  0.838408  0.495911  0.250197  1
  Sc  Sc10  1  0.339358  0.005162  0.250163  1
  Sc  Sc11  1  0.669176  0.998567  0.750079  1
  Sc  Sc12  1  0.317947  0.172006  0.627546  1
  Sc  Sc13  1  0.671642  0.825526  0.373914  1
  Sc  Sc14  1  0.171361  0.677797  0.374193  1
  Sc  Sc15  1  0.671700  0.825304  0.126255  1
  Sc  Sc16  1  0.837340  0.318738  0.627629  1
  Sc  Sc17  1  0.318411  0.171929  0.872284  1
  Sc  Sc18  1  0.836920  0.319220  0.872228  1
  Sc  Sc19  1  0.171419  0.677744  0.125994  1
  Si  Si20  1  0.968594  0.883410  0.250474  1
  Si  Si21  1  0.469176  0.614325  0.250104  1
  Si  Si22  1  0.529128  0.389357  0.749928  1
  Si  Si23  1  0.286208  0.867674  0.749920  1
  Si  Si24  1  0.712214  0.129286  0.250781  1
  Si  Si25  1  0.214732  0.372210  0.250756  1
  Si  Si26  1  0.778735  0.626666  0.749944  1
  Si  Si27  1  0.159453  0.468856  0.536942  1
  Si  Si28  1  0.844644  0.535990  0.461452  1
  Si  Si29  1  0.345222  0.965816  0.459980  1
  Si  Si30  1  0.844102  0.537422  0.038153  1
  Si  Si31  1  0.655121  0.034033  0.538365  1
  Si  Si32  1  0.159735  0.470260  0.962519  1
  Si  Si33  1  0.654603  0.033772  0.961407  1
  Si  Si34  1  0.347002  0.964832  0.039701  1
  Os  Os35  1  0.029240  0.110457  0.750060  1
