# generated using pymatgen
data_Y20Si15Pt
_symmetry_space_group_name_H-M   'P 1'
_cell_length_a   7.41876579
_cell_length_b   7.74310478
_cell_length_c   14.68062600
_cell_angle_alpha   90.00000000
_cell_angle_beta   90.00000000
_cell_angle_gamma   90.09819304
_symmetry_Int_Tables_number   1
_chemical_formula_structural   Y20Si15Pt
_chemical_formula_sum   'Y20 Si15 Pt1'
_cell_volume   843.31676393
_cell_formula_units_Z   1
loop_
 _symmetry_equiv_pos_site_id
 _symmetry_equiv_pos_as_xyz
  1  'x, y, z'
loop_
 _atom_site_type_symbol
 _atom_site_label
 _atom_site_symmetry_multiplicity
 _atom_site_fract_x
 _atom_site_fract_y
 _atom_site_fract_z
 _atom_site_occupancy
  Y  Y0  1  0.679801  0.178714  0.622478  1
  Y  Y1  1  0.186901  0.323449  0.877003  1
  Y  Y2  1  0.317798  0.820217  0.123263  1
  Y  Y3  1  0.817569  0.678030  0.376489  1
  Y  Y4  1  0.317798  0.820217  0.376737  1
  Y  Y5  1  0.817569  0.678030  0.123511  1
  Y  Y6  1  0.679801  0.178714  0.877522  1
  Y  Y7  1  0.186901  0.323449  0.622997  1
  Y  Y8  1  0.525368  0.682039  0.594209  1
  Y  Y9  1  0.027147  0.817648  0.904219  1
  Y  Y10  1  0.473228  0.315979  0.097625  1
  Y  Y11  1  0.973048  0.183076  0.402297  1
  Y  Y12  1  0.473228  0.315979  0.402375  1
  Y  Y13  1  0.973048  0.183076  0.097703  1
  Y  Y14  1  0.525368  0.682039  0.905791  1
  Y  Y15  1  0.027147  0.817648  0.595781  1
  Y  Y16  1  0.844242  0.508667  0.750000  1
  Y  Y17  1  0.355971  0.984838  0.750000  1
  Y  Y18  1  0.148627  0.486093  0.250000  1
  Y  Y19  1  0.648942  0.012913  0.250000  1
  Si  Si20  1  0.646405  0.971908  0.458887  1
  Si  Si21  1  0.145987  0.527752  0.040334  1
  Si  Si22  1  0.351744  0.025717  0.960436  1
  Si  Si23  1  0.852145  0.472825  0.539705  1
  Si  Si24  1  0.351744  0.025717  0.539564  1
  Si  Si25  1  0.852145  0.472825  0.960295  1
  Si  Si26  1  0.646405  0.971908  0.041113  1
  Si  Si27  1  0.145987  0.527752  0.459666  1
  Si  Si28  1  0.979667  0.101510  0.750000  1
  Si  Si29  1  0.521877  0.603551  0.250000  1
  Si  Si30  1  0.021992  0.895432  0.250000  1
  Si  Si31  1  0.741714  0.875623  0.750000  1
  Si  Si32  1  0.229188  0.631216  0.750000  1
  Si  Si33  1  0.266928  0.127071  0.250000  1
  Si  Si34  1  0.766188  0.373174  0.250000  1
  Pt  Pt35  1  0.480380  0.405205  0.750000  1
