# generated using pymatgen
data_PmAl3Ag2
_symmetry_space_group_name_H-M   'P 1'
_cell_length_a   5.58400512
_cell_length_b   5.58400323
_cell_length_c   4.37261100
_cell_angle_alpha   90.00000000
_cell_angle_beta   90.00000000
_cell_angle_gamma   59.99075871
_symmetry_Int_Tables_number   1
_chemical_formula_structural   PmAl3Ag2
_chemical_formula_sum   'Pm1 Al3 Ag2'
_cell_volume   118.06535951
_cell_formula_units_Z   1
loop_
 _symmetry_equiv_pos_site_id
 _symmetry_equiv_pos_as_xyz
  1  'x, y, z'
loop_
 _atom_site_type_symbol
 _atom_site_label
 _atom_site_symmetry_multiplicity
 _atom_site_fract_x
 _atom_site_fract_y
 _atom_site_fract_z
 _atom_site_occupancy
  Pm  Pm0  1  0.000000  0.000000  0.000000  1
  Al  Al1  1  0.500404  0.000002  0.499999  1
  Al  Al2  1  0.999998  0.499595  0.499999  1
  Al  Al3  1  0.499590  0.500409  0.499999  1
  Ag  Ag4  1  0.333312  0.333311  0.000000  1
  Ag  Ag5  1  0.666689  0.666688  0.000000  1
