# generated using pymatgen
data_Y2ThFe(Co4P3)2
_symmetry_space_group_name_H-M   'P 1'
_cell_length_a   3.72741200
_cell_length_b   10.56659200
_cell_length_c   12.23368400
_cell_angle_alpha   90.00000000
_cell_angle_beta   90.00000000
_cell_angle_gamma   90.00000000
_symmetry_Int_Tables_number   1
_chemical_formula_structural   Y2ThFe(Co4P3)2
_chemical_formula_sum   'Y4 Th2 Fe2 Co16 P12'
_cell_volume   481.83638964
_cell_formula_units_Z   2
loop_
 _symmetry_equiv_pos_site_id
 _symmetry_equiv_pos_as_xyz
  1  'x, y, z'
loop_
 _atom_site_type_symbol
 _atom_site_label
 _atom_site_symmetry_multiplicity
 _atom_site_fract_x
 _atom_site_fract_y
 _atom_site_fract_z
 _atom_site_occupancy
  Y  Y0  1  0.500000  0.816101  0.203499  1
  Y  Y1  1  0.500000  0.183899  0.203499  1
  Y  Y2  1  0.000000  0.683899  0.796501  1
  Y  Y3  1  0.000000  0.316101  0.796501  1
  Th  Th4  1  0.000000  0.500000  0.524216  1
  Th  Th5  1  0.500000  0.000000  0.475784  1
  Fe  Fe6  1  0.500000  0.500000  0.153782  1
  Fe  Fe7  1  0.000000  0.000000  0.846218  1
  Co  Co8  1  0.500000  0.500000  0.701754  1
  Co  Co9  1  0.000000  0.000000  0.298246  1
  Co  Co10  1  0.000000  0.500000  0.984983  1
  Co  Co11  1  0.500000  0.000000  0.015017  1
  Co  Co12  1  0.500000  0.333425  0.994488  1
  Co  Co13  1  0.500000  0.666575  0.994488  1
  Co  Co14  1  0.000000  0.166575  0.005512  1
  Co  Co15  1  0.000000  0.833425  0.005512  1
  Co  Co16  1  0.500000  0.298458  0.430119  1
  Co  Co17  1  0.500000  0.701542  0.430119  1
  Co  Co18  1  0.000000  0.201542  0.569881  1
  Co  Co19  1  0.000000  0.798458  0.569881  1
  Co  Co20  1  0.500000  0.879906  0.712688  1
  Co  Co21  1  0.500000  0.120094  0.712688  1
  Co  Co22  1  0.000000  0.620094  0.287312  1
  Co  Co23  1  0.000000  0.379906  0.287312  1
  P  P24  1  0.500000  0.500000  0.881780  1
  P  P25  1  0.000000  0.000000  0.118220  1
  P  P26  1  0.500000  0.500000  0.336860  1
  P  P27  1  0.000000  0.000000  0.663140  1
  P  P28  1  0.500000  0.305321  0.618202  1
  P  P29  1  0.500000  0.694679  0.618202  1
  P  P30  1  0.000000  0.194679  0.381798  1
  P  P31  1  0.000000  0.805321  0.381798  1
  P  P32  1  0.500000  0.847490  0.894937  1
  P  P33  1  0.500000  0.152510  0.894937  1
  P  P34  1  0.000000  0.652510  0.105063  1
  P  P35  1  0.000000  0.347490  0.105063  1
