# generated using pymatgen
data_Ti6CuPt21
_symmetry_space_group_name_H-M   'P 1'
_cell_length_a   5.57813100
_cell_length_b   5.57822493
_cell_length_c   15.92881200
_cell_angle_alpha   90.00062863
_cell_angle_beta   90.00171117
_cell_angle_gamma   120.00011287
_symmetry_Int_Tables_number   1
_chemical_formula_structural   Ti6CuPt21
_chemical_formula_sum   'Ti6 Cu1 Pt21'
_cell_volume   429.23809163
_cell_formula_units_Z   1
loop_
 _symmetry_equiv_pos_site_id
 _symmetry_equiv_pos_as_xyz
  1  'x, y, z'
loop_
 _atom_site_type_symbol
 _atom_site_label
 _atom_site_symmetry_multiplicity
 _atom_site_fract_x
 _atom_site_fract_y
 _atom_site_fract_z
 _atom_site_occupancy
  Ti  Ti0  1  0.000001  0.000001  0.003633  1
  Ti  Ti1  1  0.999998  0.000000  0.276525  1
  Ti  Ti2  1  0.666665  0.333332  0.423314  1
  Ti  Ti3  1  0.333335  0.666666  0.570474  1
  Ti  Ti4  1  0.999999  0.999998  0.719918  1
  Ti  Ti5  1  0.666667  0.333333  0.862969  1
  Cu  Cu6  1  0.333339  0.666678  0.143262  1
  Pt  Pt7  1  0.501045  0.002094  0.998713  1
  Pt  Pt8  1  0.501049  0.498959  0.998712  1
  Pt  Pt9  1  0.997907  0.498958  0.998710  1
  Pt  Pt10  1  0.832373  0.664752  0.143125  1
  Pt  Pt11  1  0.335257  0.167632  0.143121  1
  Pt  Pt12  1  0.832381  0.167620  0.143123  1
  Pt  Pt13  1  0.500424  0.499575  0.287797  1
  Pt  Pt14  1  0.500424  0.000849  0.287795  1
  Pt  Pt15  1  0.999148  0.499574  0.287797  1
  Pt  Pt16  1  0.167119  0.832878  0.429635  1
  Pt  Pt17  1  0.665756  0.832878  0.429635  1
  Pt  Pt18  1  0.167119  0.334239  0.429634  1
  Pt  Pt19  1  0.833068  0.666137  0.571280  1
  Pt  Pt20  1  0.333866  0.166933  0.571279  1
  Pt  Pt21  1  0.833068  0.166931  0.571278  1
  Pt  Pt22  1  0.500087  0.499906  0.713072  1
  Pt  Pt23  1  0.999819  0.499905  0.713072  1
  Pt  Pt24  1  0.500091  0.000183  0.713073  1
  Pt  Pt25  1  0.166802  0.833198  0.856352  1
  Pt  Pt26  1  0.666379  0.833188  0.856350  1
  Pt  Pt27  1  0.166804  0.333605  0.856355  1
