# generated using pymatgen
data_Er4UP12Ru19
_symmetry_space_group_name_H-M   'P 1'
_cell_length_a   12.55189046
_cell_length_b   12.55189156
_cell_length_c   3.95540300
_cell_angle_alpha   90.00000000
_cell_angle_beta   90.00000000
_cell_angle_gamma   120.22623895
_symmetry_Int_Tables_number   1
_chemical_formula_structural   Er4UP12Ru19
_chemical_formula_sum   'Er4 U1 P12 Ru19'
_cell_volume   538.44964224
_cell_formula_units_Z   1
loop_
 _symmetry_equiv_pos_site_id
 _symmetry_equiv_pos_as_xyz
  1  'x, y, z'
loop_
 _atom_site_type_symbol
 _atom_site_label
 _atom_site_symmetry_multiplicity
 _atom_site_fract_x
 _atom_site_fract_y
 _atom_site_fract_z
 _atom_site_occupancy
  Er  Er0  1  0.811594  0.999045  0.500000  1
  Er  Er1  1  0.999045  0.811594  0.500000  1
  Er  Er2  1  0.333224  0.665504  0.000000  1
  Er  Er3  1  0.665504  0.333224  0.000000  1
  U  U4  1  0.178509  0.178509  0.500000  1
  P  P5  1  0.818127  0.818127  0.000000  1
  P  P6  1  0.182516  0.994660  0.000000  1
  P  P7  1  0.994660  0.182516  0.000000  1
  P  P8  1  0.171872  0.479254  0.500000  1
  P  P9  1  0.522493  0.694293  0.500000  1
  P  P10  1  0.307849  0.828575  0.500000  1
  P  P11  1  0.694293  0.522493  0.500000  1
  P  P12  1  0.828575  0.307849  0.500000  1
  P  P13  1  0.479254  0.171872  0.500000  1
  P  P14  1  0.373947  0.373947  0.000000  1
  P  P15  1  0.627061  0.000163  0.000000  1
  P  P16  1  0.000163  0.627061  0.000000  1
  Ru  Ru17  1  0.555329  0.555329  0.000000  1
  Ru  Ru18  1  0.446128  0.003543  0.000000  1
  Ru  Ru19  1  0.003543  0.446128  0.000000  1
  Ru  Ru20  1  0.718863  0.718863  0.500000  1
  Ru  Ru21  1  0.282968  0.001616  0.500000  1
  Ru  Ru22  1  0.001616  0.282968  0.500000  1
  Ru  Ru23  1  0.184110  0.369445  0.000000  1
  Ru  Ru24  1  0.622968  0.807744  0.000000  1
  Ru  Ru25  1  0.193242  0.815037  0.000000  1
  Ru  Ru26  1  0.807744  0.622968  0.000000  1
  Ru  Ru27  1  0.815037  0.193242  0.000000  1
  Ru  Ru28  1  0.369445  0.184110  0.000000  1
  Ru  Ru29  1  0.364913  0.491744  0.500000  1
  Ru  Ru30  1  0.509061  0.875354  0.500000  1
  Ru  Ru31  1  0.127661  0.635132  0.500000  1
  Ru  Ru32  1  0.875354  0.509061  0.500000  1
  Ru  Ru33  1  0.635132  0.127661  0.500000  1
  Ru  Ru34  1  0.491744  0.364913  0.500000  1
  Ru  Ru35  1  0.006459  0.006459  0.000000  1
