# generated using pymatgen
data_Yb3TmNi2Sn5
_symmetry_space_group_name_H-M   'P 1'
_cell_length_a   4.39675200
_cell_length_b   8.73308600
_cell_length_c   13.73986000
_cell_angle_alpha   90.00000000
_cell_angle_beta   90.00000000
_cell_angle_gamma   90.00000000
_symmetry_Int_Tables_number   1
_chemical_formula_structural   Yb3TmNi2Sn5
_chemical_formula_sum   'Yb6 Tm2 Ni4 Sn10'
_cell_volume   527.57233564
_cell_formula_units_Z   2
loop_
 _symmetry_equiv_pos_site_id
 _symmetry_equiv_pos_as_xyz
  1  'x, y, z'
loop_
 _atom_site_type_symbol
 _atom_site_label
 _atom_site_symmetry_multiplicity
 _atom_site_fract_x
 _atom_site_fract_y
 _atom_site_fract_z
 _atom_site_occupancy
  Yb  Yb0  1  0.500000  0.789236  0.741725  1
  Yb  Yb1  1  0.000000  0.210764  0.758275  1
  Yb  Yb2  1  0.000000  0.210764  0.241725  1
  Yb  Yb3  1  0.500000  0.134871  0.000000  1
  Yb  Yb4  1  0.000000  0.865129  0.500000  1
  Yb  Yb5  1  0.500000  0.789236  0.258275  1
  Tm  Tm6  1  0.500000  0.701697  0.000000  1
  Tm  Tm7  1  0.000000  0.298303  0.500000  1
  Ni  Ni8  1  0.500000  0.382049  0.645858  1
  Ni  Ni9  1  0.000000  0.617951  0.854142  1
  Ni  Ni10  1  0.000000  0.617951  0.145858  1
  Ni  Ni11  1  0.500000  0.382049  0.354142  1
  Sn  Sn12  1  0.500000  0.089599  0.393425  1
  Sn  Sn13  1  0.000000  0.552475  0.664856  1
  Sn  Sn14  1  0.000000  0.410237  0.000000  1
  Sn  Sn15  1  0.500000  0.447525  0.164856  1
  Sn  Sn16  1  0.500000  0.589763  0.500000  1
  Sn  Sn17  1  0.500000  0.447525  0.835144  1
  Sn  Sn18  1  0.000000  0.910401  0.893425  1
  Sn  Sn19  1  0.000000  0.552475  0.335144  1
  Sn  Sn20  1  0.500000  0.089599  0.606575  1
  Sn  Sn21  1  0.000000  0.910401  0.106575  1
