# generated using pymatgen
data_Hf9CrRe3Se
_symmetry_space_group_name_H-M   'P 1'
_cell_length_a   8.65389000
_cell_length_b   8.65388900
_cell_length_c   8.52111000
_cell_angle_alpha   90.00000000
_cell_angle_beta   90.00000000
_cell_angle_gamma   119.99999619
_symmetry_Int_Tables_number   1
_chemical_formula_structural   Hf9CrRe3Se
_chemical_formula_sum   'Hf18 Cr2 Re6 Se2'
_cell_volume   552.64915563
_cell_formula_units_Z   2
loop_
 _symmetry_equiv_pos_site_id
 _symmetry_equiv_pos_as_xyz
  1  'x, y, z'
loop_
 _atom_site_type_symbol
 _atom_site_label
 _atom_site_symmetry_multiplicity
 _atom_site_fract_x
 _atom_site_fract_y
 _atom_site_fract_z
 _atom_site_occupancy
  Hf  Hf0  1  0.189731  0.810269  0.450187  1
  Hf  Hf1  1  0.189731  0.379461  0.450187  1
  Hf  Hf2  1  0.620539  0.810269  0.450187  1
  Hf  Hf3  1  0.810269  0.189731  0.549813  1
  Hf  Hf4  1  0.810269  0.620539  0.549813  1
  Hf  Hf5  1  0.379461  0.189731  0.549813  1
  Hf  Hf6  1  0.810269  0.189731  0.950187  1
  Hf  Hf7  1  0.810269  0.620539  0.950187  1
  Hf  Hf8  1  0.379461  0.189731  0.950187  1
  Hf  Hf9  1  0.189731  0.810269  0.049813  1
  Hf  Hf10  1  0.189731  0.379461  0.049813  1
  Hf  Hf11  1  0.620539  0.810269  0.049813  1
  Hf  Hf12  1  0.545596  0.454404  0.250000  1
  Hf  Hf13  1  0.545596  0.091192  0.250000  1
  Hf  Hf14  1  0.908808  0.454404  0.250000  1
  Hf  Hf15  1  0.454404  0.545596  0.750000  1
  Hf  Hf16  1  0.454404  0.908808  0.750000  1
  Hf  Hf17  1  0.091192  0.545596  0.750000  1
  Cr  Cr18  1  0.000000  0.000000  0.500000  1
  Cr  Cr19  1  0.000000  0.000000  0.000000  1
  Re  Re20  1  0.892507  0.107493  0.250000  1
  Re  Re21  1  0.892507  0.785016  0.250000  1
  Re  Re22  1  0.214984  0.107493  0.250000  1
  Re  Re23  1  0.107493  0.892507  0.750000  1
  Re  Re24  1  0.107493  0.214984  0.750000  1
  Re  Re25  1  0.785016  0.892507  0.750000  1
  Se  Se26  1  0.333333  0.666667  0.250000  1
  Se  Se27  1  0.666667  0.333333  0.750000  1
