# generated using pymatgen
data_Dy4Lu(CoTe)2
_symmetry_space_group_name_H-M   'P 1'
_cell_length_a   7.75327411
_cell_length_b   7.75327311
_cell_length_c   14.96267800
_cell_angle_alpha   89.99978134
_cell_angle_beta   90.00021923
_cell_angle_gamma   150.36862932
_symmetry_Int_Tables_number   1
_chemical_formula_structural   Dy4Lu(CoTe)2
_chemical_formula_sum   'Dy8 Lu2 Co4 Te4'
_cell_volume   444.70672905
_cell_formula_units_Z   2
loop_
 _symmetry_equiv_pos_site_id
 _symmetry_equiv_pos_as_xyz
  1  'x, y, z'
loop_
 _atom_site_type_symbol
 _atom_site_label
 _atom_site_symmetry_multiplicity
 _atom_site_fract_x
 _atom_site_fract_y
 _atom_site_fract_z
 _atom_site_occupancy
  Dy  Dy0  1  0.961541  0.038459  0.126961  1
  Dy  Dy1  1  0.038476  0.961524  0.873000  1
  Dy  Dy2  1  0.038471  0.961529  0.627001  1
  Dy  Dy3  1  0.961544  0.038456  0.373035  1
  Dy  Dy4  1  0.742510  0.257490  0.631275  1
  Dy  Dy5  1  0.257475  0.742525  0.368770  1
  Dy  Dy6  1  0.257472  0.742528  0.131228  1
  Dy  Dy7  1  0.742511  0.257489  0.868728  1
  Lu  Lu8  1  0.605229  0.394771  0.249998  1
  Lu  Lu9  1  0.394799  0.605201  0.750002  1
  Co  Co10  1  0.412117  0.587883  0.249999  1
  Co  Co11  1  0.587887  0.412113  0.750000  1
  Co  Co12  1  0.818671  0.181329  0.249999  1
  Co  Co13  1  0.181309  0.818691  0.750001  1
  Te  Te14  1  0.617974  0.382026  0.038996  1
  Te  Te15  1  0.382021  0.617979  0.960960  1
  Te  Te16  1  0.382021  0.617979  0.539042  1
  Te  Te17  1  0.617973  0.382027  0.461003  1
