# generated using pymatgen
data_Tl2ZnBr4
_symmetry_space_group_name_H-M   'P 1'
_cell_length_a   9.64219516
_cell_length_b   7.60677000
_cell_length_c   7.13788000
_cell_angle_alpha   90.00000000
_cell_angle_beta   109.83251499
_cell_angle_gamma   90.00000000
_symmetry_Int_Tables_number   1
_chemical_formula_structural   Tl2ZnBr4
_chemical_formula_sum   'Tl4 Zn2 Br8'
_cell_volume   492.48298099
_cell_formula_units_Z   2
loop_
 _symmetry_equiv_pos_site_id
 _symmetry_equiv_pos_as_xyz
  1  'x, y, z'
loop_
 _atom_site_type_symbol
 _atom_site_label
 _atom_site_symmetry_multiplicity
 _atom_site_fract_x
 _atom_site_fract_y
 _atom_site_fract_z
 _atom_site_occupancy
  Tl  Tl0  1  0.584659  0.250001  0.787877  1
  Tl  Tl1  1  0.415341  0.750001  0.212124  1
  Tl  Tl2  1  0.039309  0.250001  0.701616  1
  Tl  Tl3  1  0.960690  0.750001  0.298383  1
  Zn  Zn4  1  0.215517  0.250001  0.299397  1
  Zn  Zn5  1  0.784484  0.750001  0.700603  1
  Br  Br6  1  0.949526  0.250001  0.126665  1
  Br  Br7  1  0.050473  0.750001  0.873336  1
  Br  Br8  1  0.280545  0.996318  0.521639  1
  Br  Br9  1  0.719456  0.496318  0.478361  1
  Br  Br10  1  0.719456  0.003682  0.478361  1
  Br  Br11  1  0.280545  0.503681  0.521639  1
  Br  Br12  1  0.356004  0.250001  0.075697  1
  Br  Br13  1  0.643994  0.750001  0.924303  1
