# generated using pymatgen
data_HgPtF7
_symmetry_space_group_name_H-M   'P 1'
_cell_length_a   10.42977800
_cell_length_b   7.24478407
_cell_length_c   8.16890363
_cell_angle_alpha   78.62400926
_cell_angle_beta   90.00000000
_cell_angle_gamma   90.00000000
_symmetry_Int_Tables_number   1
_chemical_formula_structural   HgPtF7
_chemical_formula_sum   'Hg4 Pt4 F28'
_cell_volume   605.12789117
_cell_formula_units_Z   4
loop_
 _symmetry_equiv_pos_site_id
 _symmetry_equiv_pos_as_xyz
  1  'x, y, z'
loop_
 _atom_site_type_symbol
 _atom_site_label
 _atom_site_symmetry_multiplicity
 _atom_site_fract_x
 _atom_site_fract_y
 _atom_site_fract_z
 _atom_site_occupancy
  Hg  Hg0  1  0.246152  0.280294  0.902706  1
  Hg  Hg1  1  0.746152  0.719706  0.597294  1
  Hg  Hg2  1  0.753848  0.719706  0.097294  1
  Hg  Hg3  1  0.253848  0.280294  0.402706  1
  Pt  Pt4  1  0.560021  0.197856  0.201987  1
  Pt  Pt5  1  0.060021  0.802144  0.298013  1
  Pt  Pt6  1  0.439979  0.802144  0.798013  1
  Pt  Pt7  1  0.939979  0.197856  0.701987  1
  F  F8  1  0.709020  0.357847  0.145272  1
  F  F9  1  0.209020  0.642153  0.354728  1
  F  F10  1  0.290980  0.642153  0.854728  1
  F  F11  1  0.790980  0.357847  0.645272  1
  F  F12  1  0.641137  0.077180  0.404649  1
  F  F13  1  0.141137  0.922820  0.095351  1
  F  F14  1  0.358863  0.922820  0.595351  1
  F  F15  1  0.858863  0.077180  0.904649  1
  F  F16  1  0.476807  0.317725  0.996724  1
  F  F17  1  0.976807  0.682275  0.503276  1
  F  F18  1  0.523193  0.682275  0.003276  1
  F  F19  1  0.023193  0.317725  0.496724  1
  F  F20  1  0.409283  0.045153  0.258616  1
  F  F21  1  0.909283  0.954847  0.241384  1
  F  F22  1  0.590717  0.954847  0.741384  1
  F  F23  1  0.090717  0.045153  0.758616  1
  F  F24  1  0.635873  0.020132  0.080841  1
  F  F25  1  0.135873  0.979868  0.419159  1
  F  F26  1  0.364127  0.979868  0.919159  1
  F  F27  1  0.864127  0.020132  0.580841  1
  F  F28  1  0.479106  0.377026  0.319115  1
  F  F29  1  0.979106  0.622974  0.180885  1
  F  F30  1  0.520894  0.622974  0.680885  1
  F  F31  1  0.020894  0.377026  0.819115  1
  F  F32  1  0.190937  0.317002  0.146486  1
  F  F33  1  0.690937  0.682998  0.353514  1
  F  F34  1  0.809063  0.682998  0.853514  1
  F  F35  1  0.309063  0.317002  0.646486  1
