# generated using pymatgen
data_Tm5InSnSb
_symmetry_space_group_name_H-M   'P 1'
_cell_length_a   8.83997200
_cell_length_b   8.86784771
_cell_length_c   6.45333100
_cell_angle_alpha   90.00000000
_cell_angle_beta   90.00000000
_cell_angle_gamma   119.89607704
_symmetry_Int_Tables_number   1
_chemical_formula_structural   Tm5InSnSb
_chemical_formula_sum   'Tm10 In2 Sn2 Sb2'
_cell_volume   438.56859405
_cell_formula_units_Z   2
loop_
 _symmetry_equiv_pos_site_id
 _symmetry_equiv_pos_as_xyz
  1  'x, y, z'
loop_
 _atom_site_type_symbol
 _atom_site_label
 _atom_site_symmetry_multiplicity
 _atom_site_fract_x
 _atom_site_fract_y
 _atom_site_fract_z
 _atom_site_occupancy
  Tm  Tm0  1  0.334342  0.669566  0.001512  1
  Tm  Tm1  1  0.664778  0.330434  0.498488  1
  Tm  Tm2  1  0.664778  0.330434  0.001512  1
  Tm  Tm3  1  0.334342  0.669566  0.498488  1
  Tm  Tm4  1  0.235249  0.000000  0.250000  1
  Tm  Tm5  1  0.764250  0.000000  0.750000  1
  Tm  Tm6  1  0.995062  0.236794  0.250000  1
  Tm  Tm7  1  0.758269  0.763206  0.250000  1
  Tm  Tm8  1  0.242376  0.235886  0.750000  1
  Tm  Tm9  1  0.006490  0.764114  0.750000  1
  In  In10  1  0.600139  0.000000  0.250000  1
  In  In11  1  0.400733  0.000000  0.750000  1
  Sn  Sn12  1  0.997024  0.606506  0.250000  1
  Sn  Sn13  1  0.390518  0.393494  0.250000  1
  Sb  Sb14  1  0.609715  0.607779  0.750000  1
  Sb  Sb15  1  0.001936  0.392221  0.750000  1
