# generated using pymatgen
data_Dy4Ho8Ga2Co3Ni
_symmetry_space_group_name_H-M   'P 1'
_cell_length_a   8.23308306
_cell_length_b   8.23308202
_cell_length_c   8.23308265
_cell_angle_alpha   112.47349539
_cell_angle_beta   109.35333689
_cell_angle_gamma   106.63963070
_symmetry_Int_Tables_number   1
_chemical_formula_structural   Dy4Ho8Ga2Co3Ni
_chemical_formula_sum   'Dy4 Ho8 Ga2 Co3 Ni1'
_cell_volume   428.48386353
_cell_formula_units_Z   1
loop_
 _symmetry_equiv_pos_site_id
 _symmetry_equiv_pos_as_xyz
  1  'x, y, z'
loop_
 _atom_site_type_symbol
 _atom_site_label
 _atom_site_symmetry_multiplicity
 _atom_site_fract_x
 _atom_site_fract_y
 _atom_site_fract_z
 _atom_site_occupancy
  Dy  Dy0  1  0.435555  0.238443  0.197113  1
  Dy  Dy1  1  0.564873  0.762460  0.802413  1
  Dy  Dy2  1  0.041330  0.238443  0.802887  1
  Dy  Dy3  1  0.960048  0.762460  0.197587  1
  Ho  Ho4  1  0.182403  0.281362  0.460375  1
  Ho  Ho5  1  0.820985  0.722026  0.539625  1
  Ho  Ho6  1  0.182403  0.722026  0.901041  1
  Ho  Ho7  1  0.820985  0.281362  0.098959  1
  Ho  Ho8  1  0.325825  0.637499  0.311675  1
  Ho  Ho9  1  0.669222  0.359366  0.690143  1
  Ho  Ho10  1  0.325825  0.014150  0.688325  1
  Ho  Ho11  1  0.669222  0.979079  0.309857  1
  Ga  Ga12  1  0.500944  0.500944  0.000000  1
  Ga  Ga13  1  0.000465  0.000465  0.000000  1
  Co  Co14  1  0.340302  0.001456  0.338847  1
  Co  Co15  1  0.662609  0.001456  0.661153  1
  Co  Co16  1  0.115725  0.615725  0.500000  1
  Ni  Ni17  1  0.881277  0.381277  0.500000  1
