# generated using pymatgen
data_ErTm7Sb20
_symmetry_space_group_name_H-M   'P 1'
_cell_length_a   4.19608400
_cell_length_b   13.11413102
_cell_length_c   14.54102419
_cell_angle_alpha   78.40816269
_cell_angle_beta   90.00000000
_cell_angle_gamma   90.00000000
_symmetry_Int_Tables_number   1
_chemical_formula_structural   ErTm7Sb20
_chemical_formula_sum   'Er1 Tm7 Sb20'
_cell_volume   783.84318737
_cell_formula_units_Z   1
loop_
 _symmetry_equiv_pos_site_id
 _symmetry_equiv_pos_as_xyz
  1  'x, y, z'
loop_
 _atom_site_type_symbol
 _atom_site_label
 _atom_site_symmetry_multiplicity
 _atom_site_fract_x
 _atom_site_fract_y
 _atom_site_fract_z
 _atom_site_occupancy
  Er  Er0  1  0.750000  0.046350  0.640732  1
  Tm  Tm1  1  0.250000  0.394966  0.770525  1
  Tm  Tm2  1  0.750000  0.605321  0.229507  1
  Tm  Tm3  1  0.250000  0.661747  0.856035  1
  Tm  Tm4  1  0.750000  0.337988  0.144117  1
  Tm  Tm5  1  0.250000  0.668934  0.576436  1
  Tm  Tm6  1  0.750000  0.330924  0.423376  1
  Tm  Tm7  1  0.250000  0.953671  0.359810  1
  Sb  Sb8  1  0.250000  0.143790  0.778320  1
  Sb  Sb9  1  0.750000  0.856779  0.222018  1
  Sb  Sb10  1  0.250000  0.143792  0.482847  1
  Sb  Sb11  1  0.750000  0.856159  0.516505  1
  Sb  Sb12  1  0.250000  0.152861  0.170414  1
  Sb  Sb13  1  0.750000  0.846840  0.829597  1
  Sb  Sb14  1  0.250000  0.420542  0.975602  1
  Sb  Sb15  1  0.750000  0.579343  0.024528  1
  Sb  Sb16  1  0.750000  0.029252  0.911175  1
  Sb  Sb17  1  0.250000  0.970665  0.088755  1
  Sb  Sb18  1  0.750000  0.139156  0.321931  1
  Sb  Sb19  1  0.250000  0.860211  0.677924  1
  Sb  Sb20  1  0.750000  0.278846  0.936785  1
  Sb  Sb21  1  0.250000  0.721132  0.063241  1
  Sb  Sb22  1  0.750000  0.284953  0.652937  1
  Sb  Sb23  1  0.250000  0.715561  0.347105  1
  Sb  Sb24  1  0.750000  0.576318  0.734413  1
  Sb  Sb25  1  0.250000  0.423737  0.265548  1
  Sb  Sb26  1  0.750000  0.572308  0.447357  1
  Sb  Sb27  1  0.250000  0.427851  0.552461  1
