# generated using pymatgen
data_Na5Ti3(Cu4As3)4
_symmetry_space_group_name_H-M   'P 1'
_cell_length_a   13.07061600
_cell_length_b   13.07061657
_cell_length_c   3.91615800
_cell_angle_alpha   90.00000000
_cell_angle_beta   90.00000000
_cell_angle_gamma   120.00000869
_symmetry_Int_Tables_number   1
_chemical_formula_structural   Na5Ti3(Cu4As3)4
_chemical_formula_sum   'Na5 Ti3 Cu16 As12'
_cell_volume   579.40592162
_cell_formula_units_Z   1
loop_
 _symmetry_equiv_pos_site_id
 _symmetry_equiv_pos_as_xyz
  1  'x, y, z'
loop_
 _atom_site_type_symbol
 _atom_site_label
 _atom_site_symmetry_multiplicity
 _atom_site_fract_x
 _atom_site_fract_y
 _atom_site_fract_z
 _atom_site_occupancy
  Na  Na0  1  0.185492  0.185492  0.500000  1
  Na  Na1  1  0.814508  0.000000  0.500000  1
  Na  Na2  1  0.000000  0.814508  0.500000  1
  Na  Na3  1  0.333333  0.666667  0.000000  1
  Na  Na4  1  0.666667  0.333333  0.000000  1
  Ti  Ti5  1  0.563797  0.563797  0.000000  1
  Ti  Ti6  1  0.436203  0.000000  0.000000  1
  Ti  Ti7  1  0.000000  0.436203  0.000000  1
  Cu  Cu8  1  0.718315  0.718315  0.500000  1
  Cu  Cu9  1  0.281685  0.000000  0.500000  1
  Cu  Cu10  1  0.000000  0.281685  0.500000  1
  Cu  Cu11  1  0.180083  0.374042  0.000000  1
  Cu  Cu12  1  0.625958  0.806041  0.000000  1
  Cu  Cu13  1  0.193959  0.819917  0.000000  1
  Cu  Cu14  1  0.806041  0.625958  0.000000  1
  Cu  Cu15  1  0.819917  0.193959  0.000000  1
  Cu  Cu16  1  0.374042  0.180083  0.000000  1
  Cu  Cu17  1  0.355613  0.478563  0.500000  1
  Cu  Cu18  1  0.521437  0.877050  0.500000  1
  Cu  Cu19  1  0.122950  0.644387  0.500000  1
  Cu  Cu20  1  0.877050  0.521437  0.500000  1
  Cu  Cu21  1  0.644387  0.122950  0.500000  1
  Cu  Cu22  1  0.478563  0.355613  0.500000  1
  Cu  Cu23  1  0.000000  0.000000  0.000000  1
  As  As24  1  0.822872  0.822872  0.000000  1
  As  As25  1  0.177128  0.000000  0.000000  1
  As  As26  1  0.000000  0.177128  0.000000  1
  As  As27  1  0.165928  0.486391  0.500000  1
  As  As28  1  0.513609  0.679538  0.500000  1
  As  As29  1  0.320462  0.834072  0.500000  1
  As  As30  1  0.679538  0.513609  0.500000  1
  As  As31  1  0.834072  0.320462  0.500000  1
  As  As32  1  0.486391  0.165928  0.500000  1
  As  As33  1  0.364899  0.364899  0.000000  1
  As  As34  1  0.635101  0.000000  0.000000  1
  As  As35  1  0.000000  0.635101  0.000000  1
