# generated using pymatgen
data_La3YAu5
_symmetry_space_group_name_H-M   'P 1'
_cell_length_a   8.34947742
_cell_length_b   8.34947792
_cell_length_c   8.34947840
_cell_angle_alpha   65.60383975
_cell_angle_beta   65.60384098
_cell_angle_gamma   65.60382074
_symmetry_Int_Tables_number   1
_chemical_formula_structural   La3YAu5
_chemical_formula_sum   'La6 Y2 Au10'
_cell_volume   461.68377561
_cell_formula_units_Z   2
loop_
 _symmetry_equiv_pos_site_id
 _symmetry_equiv_pos_as_xyz
  1  'x, y, z'
loop_
 _atom_site_type_symbol
 _atom_site_label
 _atom_site_symmetry_multiplicity
 _atom_site_fract_x
 _atom_site_fract_y
 _atom_site_fract_z
 _atom_site_occupancy
  La  La0  1  0.892744  0.184073  0.622388  1
  La  La1  1  0.622388  0.892744  0.184073  1
  La  La2  1  0.184073  0.622388  0.892744  1
  La  La3  1  0.107256  0.815927  0.377612  1
  La  La4  1  0.377612  0.107256  0.815927  1
  La  La5  1  0.815927  0.377612  0.107256  1
  Y  Y6  1  0.657123  0.657123  0.657123  1
  Y  Y7  1  0.342877  0.342877  0.342877  1
  Au  Au8  1  0.000000  0.000000  0.000000  1
  Au  Au9  1  0.500000  0.500000  0.500000  1
  Au  Au10  1  0.804413  0.804413  0.804413  1
  Au  Au11  1  0.195587  0.195587  0.195587  1
  Au  Au12  1  0.940866  0.546441  0.321508  1
  Au  Au13  1  0.321508  0.940866  0.546441  1
  Au  Au14  1  0.546441  0.321508  0.940866  1
  Au  Au15  1  0.059134  0.453559  0.678492  1
  Au  Au16  1  0.678492  0.059134  0.453559  1
  Au  Au17  1  0.453559  0.678492  0.059134  1
