# generated using pymatgen
data_TaCr3(CoP)4
_symmetry_space_group_name_H-M   'P 1'
_cell_length_a   3.53418400
_cell_length_b   5.86972965
_cell_length_c   6.76653212
_cell_angle_alpha   90.16258345
_cell_angle_beta   90.00000000
_cell_angle_gamma   90.00000000
_symmetry_Int_Tables_number   1
_chemical_formula_structural   TaCr3(CoP)4
_chemical_formula_sum   'Ta1 Cr3 Co4 P4'
_cell_volume   140.36914485
_cell_formula_units_Z   1
loop_
 _symmetry_equiv_pos_site_id
 _symmetry_equiv_pos_as_xyz
  1  'x, y, z'
loop_
 _atom_site_type_symbol
 _atom_site_label
 _atom_site_symmetry_multiplicity
 _atom_site_fract_x
 _atom_site_fract_y
 _atom_site_fract_z
 _atom_site_occupancy
  Ta  Ta0  1  0.750000  0.473447  0.327195  1
  Cr  Cr1  1  0.250000  0.019426  0.828592  1
  Cr  Cr2  1  0.250000  0.530399  0.672858  1
  Cr  Cr3  1  0.750000  0.971209  0.170802  1
  Co  Co4  1  0.250000  0.147587  0.436625  1
  Co  Co5  1  0.250000  0.641516  0.061058  1
  Co  Co6  1  0.750000  0.855912  0.566316  1
  Co  Co7  1  0.750000  0.361704  0.935801  1
  P  P8  1  0.250000  0.251826  0.114198  1
  P  P9  1  0.250000  0.779971  0.376782  1
  P  P10  1  0.750000  0.737551  0.875749  1
  P  P11  1  0.750000  0.229453  0.634023  1
