# generated using pymatgen
data_LaPr2Pt9
_symmetry_space_group_name_H-M   'P 1'
_cell_length_a   9.53379630
_cell_length_b   9.53379661
_cell_length_c   9.53379676
_cell_angle_alpha   33.49308800
_cell_angle_beta   33.49308785
_cell_angle_gamma   33.49308892
_symmetry_Int_Tables_number   1
_chemical_formula_structural   LaPr2Pt9
_chemical_formula_sum   'La1 Pr2 Pt9'
_cell_volume   235.02573151
_cell_formula_units_Z   1
loop_
 _symmetry_equiv_pos_site_id
 _symmetry_equiv_pos_as_xyz
  1  'x, y, z'
loop_
 _atom_site_type_symbol
 _atom_site_label
 _atom_site_symmetry_multiplicity
 _atom_site_fract_x
 _atom_site_fract_y
 _atom_site_fract_z
 _atom_site_occupancy
  La  La0  1  0.000000  0.000000  0.000000  1
  Pr  Pr1  1  0.139402  0.139402  0.139402  1
  Pr  Pr2  1  0.860598  0.860598  0.860598  1
  Pt  Pt3  1  0.585959  0.585959  0.081227  1
  Pt  Pt4  1  0.332777  0.332777  0.332777  1
  Pt  Pt5  1  0.918773  0.414042  0.414041  1
  Pt  Pt6  1  0.414042  0.918773  0.414041  1
  Pt  Pt7  1  0.500000  0.500000  0.500000  1
  Pt  Pt8  1  0.585959  0.081227  0.585959  1
  Pt  Pt9  1  0.081227  0.585959  0.585959  1
  Pt  Pt10  1  0.667223  0.667223  0.667223  1
  Pt  Pt11  1  0.414041  0.414041  0.918774  1
