# generated using pymatgen
data_Ho3Tm(Al3Pt4)2
_symmetry_space_group_name_H-M   'P 1'
_cell_length_a   8.11734777
_cell_length_b   8.11734860
_cell_length_c   7.61288188
_cell_angle_alpha   90.05168456
_cell_angle_beta   89.94831712
_cell_angle_gamma   140.01661871
_symmetry_Int_Tables_number   1
_chemical_formula_structural   Ho3Tm(Al3Pt4)2
_chemical_formula_sum   'Ho3 Tm1 Al6 Pt8'
_cell_volume   322.32543060
_cell_formula_units_Z   1
loop_
 _symmetry_equiv_pos_site_id
 _symmetry_equiv_pos_as_xyz
  1  'x, y, z'
loop_
 _atom_site_type_symbol
 _atom_site_label
 _atom_site_symmetry_multiplicity
 _atom_site_fract_x
 _atom_site_fract_y
 _atom_site_fract_z
 _atom_site_occupancy
  Ho  Ho0  1  0.894117  0.105883  0.592598  1
  Ho  Ho1  1  0.393750  0.606250  0.907883  1
  Ho  Ho2  1  0.606103  0.393897  0.092602  1
  Tm  Tm3  1  0.106123  0.893877  0.407493  1
  Al  Al4  1  0.000161  0.999839  0.999692  1
  Al  Al5  1  0.500505  0.499495  0.499262  1
  Al  Al6  1  0.022173  0.477791  0.250611  1
  Al  Al7  1  0.477369  0.022399  0.750018  1
  Al  Al8  1  0.977601  0.522631  0.750018  1
  Al  Al9  1  0.522209  0.977827  0.250611  1
  Pt  Pt10  1  0.190805  0.308696  0.250175  1
  Pt  Pt11  1  0.309020  0.190438  0.748987  1
  Pt  Pt12  1  0.809562  0.690980  0.748987  1
  Pt  Pt13  1  0.691304  0.809195  0.250175  1
  Pt  Pt14  1  0.183447  0.816553  0.029027  1
  Pt  Pt15  1  0.816370  0.183630  0.971697  1
  Pt  Pt16  1  0.316434  0.683566  0.528488  1
  Pt  Pt17  1  0.682946  0.317054  0.471675  1
