# generated using pymatgen
data_La4Ge5Rh9
_symmetry_space_group_name_H-M   'P 1'
_cell_length_a   12.23179195
_cell_length_b   12.23179211
_cell_length_c   12.23179167
_cell_angle_alpha   26.87086167
_cell_angle_beta   26.87085831
_cell_angle_gamma   26.87086127
_symmetry_Int_Tables_number   1
_chemical_formula_structural   La4Ge5Rh9
_chemical_formula_sum   'La4 Ge5 Rh9'
_cell_volume   329.70251495
_cell_formula_units_Z   1
loop_
 _symmetry_equiv_pos_site_id
 _symmetry_equiv_pos_as_xyz
  1  'x, y, z'
loop_
 _atom_site_type_symbol
 _atom_site_label
 _atom_site_symmetry_multiplicity
 _atom_site_fract_x
 _atom_site_fract_y
 _atom_site_fract_z
 _atom_site_occupancy
  La  La0  1  0.949091  0.949091  0.949091  1
  La  La1  1  0.853388  0.853388  0.853388  1
  La  La2  1  0.146612  0.146612  0.146612  1
  La  La3  1  0.050909  0.050909  0.050909  1
  Ge  Ge4  1  0.278274  0.278274  0.278274  1
  Ge  Ge5  1  0.500000  0.500000  0.500000  1
  Ge  Ge6  1  0.387940  0.387940  0.387940  1
  Ge  Ge7  1  0.721726  0.721726  0.721726  1
  Ge  Ge8  1  0.612060  0.612060  0.612060  1
  Rh  Rh9  1  0.609071  0.609071  0.107324  1
  Rh  Rh10  1  0.892676  0.390929  0.390929  1
  Rh  Rh11  1  0.500000  0.000000  0.500000  1
  Rh  Rh12  1  0.390929  0.892676  0.390929  1
  Rh  Rh13  1  0.500000  0.500000  0.000000  1
  Rh  Rh14  1  0.107324  0.609071  0.609071  1
  Rh  Rh15  1  0.000000  0.500000  0.500000  1
  Rh  Rh16  1  0.390929  0.390929  0.892676  1
  Rh  Rh17  1  0.609071  0.107324  0.609071  1
