# generated using pymatgen
data_Zr11Sc11Os8
_symmetry_space_group_name_H-M   'P 1'
_cell_length_a   9.52355167
_cell_length_b   9.51796974
_cell_length_c   9.50972864
_cell_angle_alpha   60.06746758
_cell_angle_beta   60.00919186
_cell_angle_gamma   59.92335509
_symmetry_Int_Tables_number   1
_chemical_formula_structural   Zr11Sc11Os8
_chemical_formula_sum   'Zr11 Sc11 Os8'
_cell_volume   609.52994472
_cell_formula_units_Z   1
loop_
 _symmetry_equiv_pos_site_id
 _symmetry_equiv_pos_as_xyz
  1  'x, y, z'
loop_
 _atom_site_type_symbol
 _atom_site_label
 _atom_site_symmetry_multiplicity
 _atom_site_fract_x
 _atom_site_fract_y
 _atom_site_fract_z
 _atom_site_occupancy
  Zr  Zr0  1  0.842026  0.840225  0.841130  1
  Zr  Zr1  1  0.523380  0.158870  0.159775  1
  Zr  Zr2  1  0.159775  0.157974  0.523380  1
  Zr  Zr3  1  0.159127  0.523384  0.158608  1
  Zr  Zr4  1  0.841120  0.841392  0.476616  1
  Zr  Zr5  1  0.841130  0.476620  0.842026  1
  Zr  Zr6  1  0.476616  0.840873  0.841120  1
  Zr  Zr7  1  0.158608  0.158880  0.159127  1
  Zr  Zr8  1  0.199410  0.800590  0.199410  1
  Zr  Zr9  1  0.199866  0.800134  0.799553  1
  Zr  Zr10  1  0.799553  0.200447  0.199866  1
  Sc  Sc11  1  0.800638  0.800732  0.199268  1
  Sc  Sc12  1  0.199268  0.199362  0.800638  1
  Sc  Sc13  1  0.800963  0.199037  0.800963  1
  Sc  Sc14  1  0.383621  0.384131  0.383552  1
  Sc  Sc15  1  0.151306  0.616448  0.615869  1
  Sc  Sc16  1  0.616150  0.151890  0.616049  1
  Sc  Sc17  1  0.615869  0.616379  0.151306  1
  Sc  Sc18  1  0.383552  0.848694  0.383621  1
  Sc  Sc19  1  0.384088  0.383951  0.848110  1
  Sc  Sc20  1  0.848110  0.383850  0.384088  1
  Sc  Sc21  1  0.616049  0.615912  0.616150  1
  Os  Os22  1  0.499902  0.500098  0.000091  1
  Os  Os23  1  0.000091  0.999909  0.499902  1
  Os  Os24  1  0.499606  0.000394  0.499606  1
  Os  Os25  1  0.000083  0.499958  0.500042  1
  Os  Os26  1  0.500042  0.999917  0.000083  1
  Os  Os27  1  0.999606  0.500394  0.999606  1
  Os  Os28  1  0.499969  0.500031  0.499969  1
  Os  Os29  1  0.000476  0.999524  0.000476  1
