# generated using pymatgen
data_Pr19NdAgRh15
_symmetry_space_group_name_H-M   'P 1'
_cell_length_a   7.68740265
_cell_length_b   7.74961827
_cell_length_c   15.19789100
_cell_angle_alpha   90.00000000
_cell_angle_beta   90.00000000
_cell_angle_gamma   90.33996049
_symmetry_Int_Tables_number   1
_chemical_formula_structural   Pr19NdAgRh15
_chemical_formula_sum   'Pr19 Nd1 Ag1 Rh15'
_cell_volume   905.38984756
_cell_formula_units_Z   1
loop_
 _symmetry_equiv_pos_site_id
 _symmetry_equiv_pos_as_xyz
  1  'x, y, z'
loop_
 _atom_site_type_symbol
 _atom_site_label
 _atom_site_symmetry_multiplicity
 _atom_site_fract_x
 _atom_site_fract_y
 _atom_site_fract_z
 _atom_site_occupancy
  Pr  Pr0  1  0.672589  0.158509  0.619278  1
  Pr  Pr1  1  0.153769  0.332073  0.883572  1
  Pr  Pr2  1  0.335892  0.834193  0.122863  1
  Pr  Pr3  1  0.835339  0.666070  0.376637  1
  Pr  Pr4  1  0.335892  0.834193  0.377137  1
  Pr  Pr5  1  0.835339  0.666070  0.123363  1
  Pr  Pr6  1  0.672589  0.158509  0.880722  1
  Pr  Pr7  1  0.153769  0.332073  0.616428  1
  Pr  Pr8  1  0.520726  0.692237  0.587868  1
  Pr  Pr9  1  0.020404  0.816142  0.910572  1
  Pr  Pr10  1  0.484459  0.317636  0.092065  1
  Pr  Pr11  1  0.984718  0.180364  0.402129  1
  Pr  Pr12  1  0.484459  0.317636  0.407935  1
  Pr  Pr13  1  0.984718  0.180364  0.097871  1
  Pr  Pr14  1  0.520726  0.692237  0.912132  1
  Pr  Pr15  1  0.020404  0.816142  0.589428  1
  Pr  Pr16  1  0.837888  0.515839  0.750000  1
  Pr  Pr17  1  0.321411  0.985846  0.750000  1
  Pr  Pr18  1  0.176175  0.489845  0.250000  1
  Nd  Nd19  1  0.673657  0.009443  0.250000  1
  Ag  Ag20  1  0.454558  0.407432  0.750000  1
  Rh  Rh21  1  0.677629  0.968185  0.456397  1
  Rh  Rh22  1  0.172121  0.530061  0.043520  1
  Rh  Rh23  1  0.325787  0.033474  0.958078  1
  Rh  Rh24  1  0.820766  0.468284  0.541743  1
  Rh  Rh25  1  0.325787  0.033474  0.541922  1
  Rh  Rh26  1  0.820766  0.468284  0.958257  1
  Rh  Rh27  1  0.677629  0.968185  0.043603  1
  Rh  Rh28  1  0.172121  0.530061  0.456480  1
  Rh  Rh29  1  0.956856  0.099959  0.750000  1
  Rh  Rh30  1  0.540486  0.597864  0.250000  1
  Rh  Rh31  1  0.042102  0.902800  0.250000  1
  Rh  Rh32  1  0.693528  0.853905  0.750000  1
  Rh  Rh33  1  0.192928  0.644097  0.750000  1
  Rh  Rh34  1  0.306389  0.145300  0.250000  1
  Rh  Rh35  1  0.795626  0.353218  0.250000  1
