# generated using pymatgen
data_Th3ScAl2Ru2Pt
_symmetry_space_group_name_H-M   'P 1'
_cell_length_a   7.25985004
_cell_length_b   7.25984920
_cell_length_c   4.22969000
_cell_angle_alpha   90.00000000
_cell_angle_beta   90.00000000
_cell_angle_gamma   119.98764563
_symmetry_Int_Tables_number   1
_chemical_formula_structural   Th3ScAl2Ru2Pt
_chemical_formula_sum   'Th3 Sc1 Al2 Ru2 Pt1'
_cell_volume   193.08497146
_cell_formula_units_Z   1
loop_
 _symmetry_equiv_pos_site_id
 _symmetry_equiv_pos_as_xyz
  1  'x, y, z'
loop_
 _atom_site_type_symbol
 _atom_site_label
 _atom_site_symmetry_multiplicity
 _atom_site_fract_x
 _atom_site_fract_y
 _atom_site_fract_z
 _atom_site_occupancy
  Th  Th0  1  0.411202  0.411202  0.500000  1
  Th  Th1  1  0.573793  0.008989  0.500000  1
  Th  Th2  1  0.008989  0.573793  0.500000  1
  Sc  Sc3  1  0.763775  0.763775  0.000000  1
  Al  Al4  1  0.239589  0.004199  0.000000  1
  Al  Al5  1  0.004199  0.239589  0.000000  1
  Ru  Ru6  1  0.666488  0.327621  0.000000  1
  Ru  Ru7  1  0.327621  0.666488  0.000000  1
  Pt  Pt8  1  0.004344  0.004344  0.500000  1
