# generated using pymatgen
data_CaDy3Cr2(SbO7)2
_symmetry_space_group_name_H-M   'P 1'
_cell_length_a   7.32090865
_cell_length_b   7.37098010
_cell_length_c   7.22927160
_cell_angle_alpha   59.34942405
_cell_angle_beta   59.09195386
_cell_angle_gamma   59.77347693
_symmetry_Int_Tables_number   1
_chemical_formula_structural   CaDy3Cr2(SbO7)2
_chemical_formula_sum   'Ca1 Dy3 Cr2 Sb2 O14'
_cell_volume   272.09273523
_cell_formula_units_Z   1
loop_
 _symmetry_equiv_pos_site_id
 _symmetry_equiv_pos_as_xyz
  1  'x, y, z'
loop_
 _atom_site_type_symbol
 _atom_site_label
 _atom_site_symmetry_multiplicity
 _atom_site_fract_x
 _atom_site_fract_y
 _atom_site_fract_z
 _atom_site_occupancy
  Ca  Ca0  1  0.125000  0.125000  0.625000  1
  Dy  Dy1  1  0.125000  0.625000  0.125000  1
  Dy  Dy2  1  0.625000  0.125000  0.125000  1
  Dy  Dy3  1  0.125000  0.125000  0.125000  1
  Cr  Cr4  1  0.125000  0.625000  0.625000  1
  Cr  Cr5  1  0.625000  0.625000  0.125000  1
  Sb  Sb6  1  0.625000  0.625000  0.625000  1
  Sb  Sb7  1  0.625000  0.125000  0.625000  1
  O  O8  1  0.296498  0.699620  0.705345  1
  O  O9  1  0.537892  0.959148  0.961300  1
  O  O10  1  0.704471  0.293259  0.709010  1
  O  O11  1  0.296498  0.298536  0.705345  1
  O  O12  1  0.712108  0.708340  0.288700  1
  O  O13  1  0.997802  0.995488  0.011223  1
  O  O14  1  0.292973  0.700564  0.305898  1
  O  O15  1  0.957027  0.549436  0.944102  1
  O  O16  1  0.953502  0.951464  0.544655  1
  O  O17  1  0.537892  0.541660  0.961300  1
  O  O18  1  0.252198  0.254512  0.238777  1
  O  O19  1  0.545529  0.956741  0.540990  1
  O  O20  1  0.712108  0.290852  0.288700  1
  O  O21  1  0.953502  0.550380  0.544655  1
