# generated using pymatgen
data_EuAlCuSi
_symmetry_space_group_name_H-M   'P 1'
_cell_length_a   9.24422225
_cell_length_b   9.24422243
_cell_length_c   4.00858600
_cell_angle_alpha   90.00000000
_cell_angle_beta   90.00000000
_cell_angle_gamma   153.41643085
_symmetry_Int_Tables_number   1
_chemical_formula_structural   EuAlCuSi
_chemical_formula_sum   'Eu2 Al2 Cu2 Si2'
_cell_volume   153.29485614
_cell_formula_units_Z   2
loop_
 _symmetry_equiv_pos_site_id
 _symmetry_equiv_pos_as_xyz
  1  'x, y, z'
loop_
 _atom_site_type_symbol
 _atom_site_label
 _atom_site_symmetry_multiplicity
 _atom_site_fract_x
 _atom_site_fract_y
 _atom_site_fract_z
 _atom_site_occupancy
  Eu  Eu0  1  0.901757  0.098243  0.750000  1
  Eu  Eu1  1  0.098243  0.901757  0.250000  1
  Al  Al2  1  0.247940  0.752060  0.750000  1
  Al  Al3  1  0.752060  0.247940  0.250000  1
  Cu  Cu4  1  0.667984  0.332016  0.750000  1
  Cu  Cu5  1  0.332016  0.667984  0.250000  1
  Si  Si6  1  0.537097  0.462903  0.750000  1
  Si  Si7  1  0.462903  0.537097  0.250000  1
