# generated using pymatgen
data_ErTm9In8CoPt3
_symmetry_space_group_name_H-M   'P 1'
_cell_length_a   3.58295400
_cell_length_b   8.02361608
_cell_length_c   18.00347603
_cell_angle_alpha   90.01135361
_cell_angle_beta   90.00000000
_cell_angle_gamma   90.00000000
_symmetry_Int_Tables_number   1
_chemical_formula_structural   ErTm9In8CoPt3
_chemical_formula_sum   'Er1 Tm9 In8 Co1 Pt3'
_cell_volume   517.56837146
_cell_formula_units_Z   1
loop_
 _symmetry_equiv_pos_site_id
 _symmetry_equiv_pos_as_xyz
  1  'x, y, z'
loop_
 _atom_site_type_symbol
 _atom_site_label
 _atom_site_symmetry_multiplicity
 _atom_site_fract_x
 _atom_site_fract_y
 _atom_site_fract_z
 _atom_site_occupancy
  Er  Er0  1  0.000000  0.500888  0.498516  1
  Tm  Tm1  1  0.000000  0.112357  0.408327  1
  Tm  Tm2  1  0.000000  0.883583  0.584121  1
  Tm  Tm3  1  0.000000  0.383249  0.915370  1
  Tm  Tm4  1  0.000000  0.617822  0.087734  1
  Tm  Tm5  1  0.000000  0.233820  0.224309  1
  Tm  Tm6  1  0.000000  0.757332  0.778610  1
  Tm  Tm7  1  0.000000  0.256452  0.721113  1
  Tm  Tm8  1  0.000000  0.756153  0.279242  1
  Tm  Tm9  1  0.000000  0.000338  0.001337  1
  In  In10  1  0.500000  0.422856  0.351581  1
  In  In11  1  0.500000  0.575085  0.646804  1
  In  In12  1  0.500000  0.074544  0.853047  1
  In  In13  1  0.500000  0.930038  0.151423  1
  In  In14  1  0.500000  0.291881  0.068464  1
  In  In15  1  0.500000  0.708888  0.934663  1
  In  In16  1  0.500000  0.206941  0.564121  1
  In  In17  1  0.500000  0.795552  0.429334  1
  Co  Co18  1  0.500000  0.019163  0.304914  1
  Pt  Pt19  1  0.500000  0.975878  0.695303  1
  Pt  Pt20  1  0.500000  0.476094  0.804448  1
  Pt  Pt21  1  0.500000  0.521086  0.197217  1
