# generated using pymatgen
data_SrLaTb3Ho2CoI12
_symmetry_space_group_name_H-M   'P 1'
_cell_length_a   9.79829284
_cell_length_b   9.85798993
_cell_length_c   9.86145810
_cell_angle_alpha   106.12197979
_cell_angle_beta   106.56048138
_cell_angle_gamma   105.89331120
_symmetry_Int_Tables_number   1
_chemical_formula_structural   SrLaTb3Ho2CoI12
_chemical_formula_sum   'Sr1 La1 Tb3 Ho2 Co1 I12'
_cell_volume   810.10703217
_cell_formula_units_Z   1
loop_
 _symmetry_equiv_pos_site_id
 _symmetry_equiv_pos_as_xyz
  1  'x, y, z'
loop_
 _atom_site_type_symbol
 _atom_site_label
 _atom_site_symmetry_multiplicity
 _atom_site_fract_x
 _atom_site_fract_y
 _atom_site_fract_z
 _atom_site_occupancy
  Sr  Sr0  1  0.499203  0.501225  0.500223  1
  La  La1  1  0.286876  0.017839  0.091164  1
  Tb  Tb2  1  0.980027  0.907076  0.705438  1
  Tb  Tb3  1  0.904801  0.705944  0.979802  1
  Tb  Tb4  1  0.725805  0.981794  0.912551  1
  Ho  Ho5  1  0.020516  0.093167  0.290687  1
  Ho  Ho6  1  0.090499  0.289961  0.019084  1
  Co  Co7  1  0.005359  0.999164  0.001297  1
  I  I8  1  0.132322  0.444041  0.364482  1
  I  I9  1  0.446082  0.377298  0.136807  1
  I  I10  1  0.365345  0.142525  0.458856  1
  I  I11  1  0.864412  0.553313  0.633391  1
  I  I12  1  0.552387  0.635657  0.863878  1
  I  I13  1  0.632560  0.865264  0.555284  1
  I  I14  1  0.684115  0.075072  0.223041  1
  I  I15  1  0.072124  0.223271  0.679043  1
  I  I16  1  0.215931  0.664389  0.071514  1
  I  I17  1  0.318276  0.922443  0.764788  1
  I  I18  1  0.927265  0.781059  0.322865  1
  I  I19  1  0.776094  0.319500  0.925802  1
