# generated using pymatgen
data_DyY11Ni6Bi
_symmetry_space_group_name_H-M   'P 1'
_cell_length_a   8.50377135
_cell_length_b   8.50377113
_cell_length_c   8.51712272
_cell_angle_alpha   109.54034467
_cell_angle_beta   109.47436074
_cell_angle_gamma   109.33530511
_symmetry_Int_Tables_number   1
_chemical_formula_structural   DyY11Ni6Bi
_chemical_formula_sum   'Dy1 Y11 Ni6 Bi1'
_cell_volume   474.49730872
_cell_formula_units_Z   1
loop_
 _symmetry_equiv_pos_site_id
 _symmetry_equiv_pos_as_xyz
  1  'x, y, z'
loop_
 _atom_site_type_symbol
 _atom_site_label
 _atom_site_symmetry_multiplicity
 _atom_site_fract_x
 _atom_site_fract_y
 _atom_site_fract_z
 _atom_site_occupancy
  Dy  Dy0  1  0.812893  0.690548  0.503441  1
  Y  Y1  1  0.187444  0.308060  0.495504  1
  Y  Y2  1  0.187557  0.692867  0.880424  1
  Y  Y3  1  0.812829  0.307128  0.119957  1
  Y  Y4  1  0.692498  0.504681  0.812075  1
  Y  Y5  1  0.307595  0.494757  0.187432  1
  Y  Y6  1  0.692675  0.879837  0.187432  1
  Y  Y7  1  0.307395  0.119576  0.812075  1
  Y  Y8  1  0.505327  0.812305  0.692243  1
  Y  Y9  1  0.494817  0.187789  0.307281  1
  Y  Y10  1  0.119491  0.812463  0.307281  1
  Y  Y11  1  0.879939  0.186916  0.692243  1
  Ni  Ni12  1  0.876438  0.378238  0.501097  1
  Ni  Ni13  1  0.122857  0.624658  0.501097  1
  Ni  Ni14  1  0.377290  0.500002  0.877292  1
  Ni  Ni15  1  0.623991  0.500698  0.124688  1
  Ni  Ni16  1  0.497123  0.876440  0.373562  1
  Ni  Ni17  1  0.501729  0.122613  0.624341  1
  Bi  Bi18  1  0.000113  0.000423  0.000536  1
