# generated using pymatgen
data_Pr16SmLu3Sn16
_symmetry_space_group_name_H-M   'P 1'
_cell_length_a   8.27186415
_cell_length_b   8.43366016
_cell_length_c   16.02544600
_cell_angle_alpha   90.00000000
_cell_angle_beta   90.00000000
_cell_angle_gamma   89.97786437
_symmetry_Int_Tables_number   1
_chemical_formula_structural   Pr16SmLu3Sn16
_chemical_formula_sum   'Pr16 Sm1 Lu3 Sn16'
_cell_volume   1117.96854106
_cell_formula_units_Z   1
loop_
 _symmetry_equiv_pos_site_id
 _symmetry_equiv_pos_as_xyz
  1  'x, y, z'
loop_
 _atom_site_type_symbol
 _atom_site_label
 _atom_site_symmetry_multiplicity
 _atom_site_fract_x
 _atom_site_fract_y
 _atom_site_fract_z
 _atom_site_occupancy
  Pr  Pr0  1  0.367659  0.838941  0.879688  1
  Pr  Pr1  1  0.865361  0.662710  0.620627  1
  Pr  Pr2  1  0.633206  0.161504  0.379288  1
  Pr  Pr3  1  0.133533  0.338542  0.121454  1
  Pr  Pr4  1  0.633206  0.161504  0.120712  1
  Pr  Pr5  1  0.133533  0.338542  0.378546  1
  Pr  Pr6  1  0.367659  0.838941  0.620312  1
  Pr  Pr7  1  0.865361  0.662710  0.879373  1
  Pr  Pr8  1  0.519539  0.318003  0.901683  1
  Pr  Pr9  1  0.018382  0.180524  0.598530  1
  Pr  Pr10  1  0.481357  0.681321  0.401107  1
  Pr  Pr11  1  0.981521  0.818572  0.098615  1
  Pr  Pr12  1  0.481357  0.681321  0.098893  1
  Pr  Pr13  1  0.981521  0.818572  0.401385  1
  Pr  Pr14  1  0.519539  0.318003  0.598317  1
  Pr  Pr15  1  0.018382  0.180524  0.901470  1
  Sm  Sm16  1  0.196139  0.502088  0.750000  1
  Lu  Lu17  1  0.699128  0.997977  0.750000  1
  Lu  Lu18  1  0.800704  0.497775  0.250000  1
  Lu  Lu19  1  0.300765  0.001769  0.250000  1
  Sn  Sn20  1  0.291942  0.033806  0.045543  1
  Sn  Sn21  1  0.792143  0.466541  0.454535  1
  Sn  Sn22  1  0.707843  0.966276  0.545106  1
  Sn  Sn23  1  0.207774  0.534691  0.956576  1
  Sn  Sn24  1  0.707843  0.966276  0.954894  1
  Sn  Sn25  1  0.207774  0.534691  0.543424  1
  Sn  Sn26  1  0.291942  0.033806  0.454457  1
  Sn  Sn27  1  0.792143  0.466541  0.045465  1
  Sn  Sn28  1  0.565904  0.616872  0.750000  1
  Sn  Sn29  1  0.061473  0.885001  0.750000  1
  Sn  Sn30  1  0.437733  0.383633  0.250000  1
  Sn  Sn31  1  0.937361  0.116513  0.250000  1
  Sn  Sn32  1  0.324255  0.144094  0.750000  1
  Sn  Sn33  1  0.822936  0.350962  0.750000  1
  Sn  Sn34  1  0.676866  0.851996  0.250000  1
  Sn  Sn35  1  0.176216  0.648459  0.250000  1
