# generated using pymatgen
data_Ta5Be4Re
_symmetry_space_group_name_H-M   'P 1'
_cell_length_a   6.44266500
_cell_length_b   6.44266500
_cell_length_c   3.31107500
_cell_angle_alpha   90.00000000
_cell_angle_beta   90.00000000
_cell_angle_gamma   90.00000000
_symmetry_Int_Tables_number   1
_chemical_formula_structural   Ta5Be4Re
_chemical_formula_sum   'Ta5 Be4 Re1'
_cell_volume   137.43587695
_cell_formula_units_Z   1
loop_
 _symmetry_equiv_pos_site_id
 _symmetry_equiv_pos_as_xyz
  1  'x, y, z'
loop_
 _atom_site_type_symbol
 _atom_site_label
 _atom_site_symmetry_multiplicity
 _atom_site_fract_x
 _atom_site_fract_y
 _atom_site_fract_z
 _atom_site_occupancy
  Ta  Ta0  1  0.000000  0.000000  0.000000  1
  Ta  Ta1  1  0.673664  0.184685  0.500000  1
  Ta  Ta2  1  0.326336  0.815315  0.500000  1
  Ta  Ta3  1  0.184685  0.326336  0.500000  1
  Ta  Ta4  1  0.815315  0.673664  0.500000  1
  Be  Be5  1  0.116998  0.614466  0.000000  1
  Be  Be6  1  0.883002  0.385534  0.000000  1
  Be  Be7  1  0.614466  0.883002  0.000000  1
  Be  Be8  1  0.385534  0.116998  0.000000  1
  Re  Re9  1  0.500000  0.500000  0.000000  1
