# generated using pymatgen
data_DyPa(Si2Ni)2
_symmetry_space_group_name_H-M   'P 1'
_cell_length_a   8.42206460
_cell_length_b   8.42206460
_cell_length_c   3.99372000
_cell_angle_alpha   90.00000000
_cell_angle_beta   90.00000000
_cell_angle_gamma   152.48469770
_symmetry_Int_Tables_number   1
_chemical_formula_structural   DyPa(Si2Ni)2
_chemical_formula_sum   'Dy1 Pa1 Si4 Ni2'
_cell_volume   130.87090047
_cell_formula_units_Z   1
loop_
 _symmetry_equiv_pos_site_id
 _symmetry_equiv_pos_as_xyz
  1  'x, y, z'
loop_
 _atom_site_type_symbol
 _atom_site_label
 _atom_site_symmetry_multiplicity
 _atom_site_fract_x
 _atom_site_fract_y
 _atom_site_fract_z
 _atom_site_occupancy
  Dy  Dy0  1  0.897705  0.102295  0.750000  1
  Pa  Pa1  1  0.106217  0.893783  0.250000  1
  Si  Si2  1  0.750376  0.249624  0.250000  1
  Si  Si3  1  0.250334  0.749666  0.750000  1
  Si  Si4  1  0.538503  0.461497  0.750000  1
  Si  Si5  1  0.459854  0.540146  0.250000  1
  Ni  Ni6  1  0.676348  0.323652  0.750000  1
  Ni  Ni7  1  0.320663  0.679337  0.250000  1
