# generated using pymatgen
data_NdTh7ReW3C8
_symmetry_space_group_name_H-M   'P 1'
_cell_length_a   5.36141200
_cell_length_b   6.75529834
_cell_length_c   10.22418809
_cell_angle_alpha   90.35137767
_cell_angle_beta   90.00000000
_cell_angle_gamma   90.00000000
_symmetry_Int_Tables_number   1
_chemical_formula_structural   NdTh7ReW3C8
_chemical_formula_sum   'Nd1 Th7 Re1 W3 C8'
_cell_volume   370.29204286
_cell_formula_units_Z   1
loop_
 _symmetry_equiv_pos_site_id
 _symmetry_equiv_pos_as_xyz
  1  'x, y, z'
loop_
 _atom_site_type_symbol
 _atom_site_label
 _atom_site_symmetry_multiplicity
 _atom_site_fract_x
 _atom_site_fract_y
 _atom_site_fract_z
 _atom_site_occupancy
  Nd  Nd0  1  0.750000  0.188706  0.949172  1
  Th  Th1  1  0.250000  0.468509  0.782184  1
  Th  Th2  1  0.750000  0.029959  0.275162  1
  Th  Th3  1  0.250000  0.968399  0.724179  1
  Th  Th4  1  0.750000  0.529450  0.221697  1
  Th  Th5  1  0.250000  0.812544  0.049910  1
  Th  Th6  1  0.750000  0.688715  0.550316  1
  Th  Th7  1  0.250000  0.311414  0.448851  1
  Re  Re8  1  0.750000  0.729030  0.863168  1
  W  W9  1  0.250000  0.274530  0.134109  1
  W  W10  1  0.750000  0.225413  0.636958  1
  W  W11  1  0.250000  0.776038  0.366491  1
  C  C12  1  0.250000  0.668180  0.554950  1
  C  C13  1  0.750000  0.822843  0.049804  1
  C  C14  1  0.250000  0.170692  0.946929  1
  C  C15  1  0.750000  0.331271  0.447449  1
  C  C16  1  0.250000  0.037040  0.257040  1
  C  C17  1  0.750000  0.466342  0.758051  1
  C  C18  1  0.250000  0.539068  0.241411  1
  C  C19  1  0.750000  0.961854  0.742170  1
