# generated using pymatgen
data_DyHfZr(SnRh)3
_symmetry_space_group_name_H-M   'P 1'
_cell_length_a   7.49861796
_cell_length_b   7.47504832
_cell_length_c   7.37190100
_cell_angle_alpha   90.00000000
_cell_angle_beta   90.00000000
_cell_angle_gamma   119.83514620
_symmetry_Int_Tables_number   1
_chemical_formula_structural   DyHfZr(SnRh)3
_chemical_formula_sum   'Dy2 Hf2 Zr2 Sn6 Rh6'
_cell_volume   358.44654900
_cell_formula_units_Z   2
loop_
 _symmetry_equiv_pos_site_id
 _symmetry_equiv_pos_as_xyz
  1  'x, y, z'
loop_
 _atom_site_type_symbol
 _atom_site_label
 _atom_site_symmetry_multiplicity
 _atom_site_fract_x
 _atom_site_fract_y
 _atom_site_fract_z
 _atom_site_occupancy
  Dy  Dy0  1  0.001604  0.404805  0.250000  1
  Dy  Dy1  1  0.597470  0.594624  0.250000  1
  Hf  Hf2  1  0.605723  0.611551  0.750000  1
  Hf  Hf3  1  0.395717  0.999391  0.750000  1
  Zr  Zr4  1  0.995997  0.388848  0.750000  1
  Zr  Zr5  1  0.398790  0.997053  0.250000  1
  Sn  Sn6  1  0.268457  0.267163  0.508064  1
  Sn  Sn7  1  0.999710  0.731352  0.508162  1
  Sn  Sn8  1  0.999710  0.731352  0.991838  1
  Sn  Sn9  1  0.731930  0.000942  0.495434  1
  Sn  Sn10  1  0.731930  0.000942  0.004566  1
  Sn  Sn11  1  0.268457  0.267163  0.991936  1
  Rh  Rh12  1  0.337206  0.674008  0.530825  1
  Rh  Rh13  1  0.660862  0.329226  0.532449  1
  Rh  Rh14  1  0.337206  0.674008  0.969175  1
  Rh  Rh15  1  0.995312  0.998646  0.750000  1
  Rh  Rh16  1  0.013059  0.999701  0.250000  1
  Rh  Rh17  1  0.660862  0.329226  0.967551  1
