# generated using pymatgen
data_Ta3Ti16Si16Rh
_symmetry_space_group_name_H-M   'P 1'
_cell_length_a   6.70428518
_cell_length_b   6.70428468
_cell_length_c   12.19620815
_cell_angle_alpha   90.37932543
_cell_angle_beta   89.62067418
_cell_angle_gamma   89.87764963
_symmetry_Int_Tables_number   1
_chemical_formula_structural   Ta3Ti16Si16Rh
_chemical_formula_sum   'Ta3 Ti16 Si16 Rh1'
_cell_volume   548.16296140
_cell_formula_units_Z   1
loop_
 _symmetry_equiv_pos_site_id
 _symmetry_equiv_pos_as_xyz
  1  'x, y, z'
loop_
 _atom_site_type_symbol
 _atom_site_label
 _atom_site_symmetry_multiplicity
 _atom_site_fract_x
 _atom_site_fract_y
 _atom_site_fract_z
 _atom_site_occupancy
  Ta  Ta0  1  0.169772  0.169772  0.000000  1
  Ta  Ta1  1  0.327941  0.672265  0.252762  1
  Ta  Ta2  1  0.672265  0.327941  0.747238  1
  Ti  Ti3  1  0.995522  0.153103  0.619486  1
  Ti  Ti4  1  0.351229  0.494265  0.871399  1
  Ti  Ti5  1  0.645234  0.500049  0.370041  1
  Ti  Ti6  1  0.494265  0.351229  0.128601  1
  Ti  Ti7  1  0.500049  0.645234  0.629959  1
  Ti  Ti8  1  0.003632  0.851920  0.124444  1
  Ti  Ti9  1  0.153103  0.995522  0.380514  1
  Ti  Ti10  1  0.851920  0.003632  0.875556  1
  Ti  Ti11  1  0.002236  0.344063  0.221660  1
  Ti  Ti12  1  0.163473  0.501207  0.471266  1
  Ti  Ti13  1  0.843560  0.496620  0.969130  1
  Ti  Ti14  1  0.501207  0.163473  0.528734  1
  Ti  Ti15  1  0.496620  0.843560  0.030870  1
  Ti  Ti16  1  0.999403  0.654296  0.720413  1
  Ti  Ti17  1  0.344063  0.002236  0.778340  1
  Ti  Ti18  1  0.654296  0.999403  0.279587  1
  Si  Si19  1  0.044976  0.301598  0.812527  1
  Si  Si20  1  0.196654  0.545859  0.063592  1
  Si  Si21  1  0.802206  0.461979  0.559126  1
  Si  Si22  1  0.545859  0.196654  0.936408  1
  Si  Si23  1  0.461979  0.802206  0.440874  1
  Si  Si24  1  0.949149  0.701160  0.317790  1
  Si  Si25  1  0.301598  0.044976  0.187473  1
  Si  Si26  1  0.701160  0.949149  0.682210  1
  Si  Si27  1  0.292643  0.356672  0.672562  1
  Si  Si28  1  0.140767  0.791939  0.922410  1
  Si  Si29  1  0.861851  0.209021  0.421590  1
  Si  Si30  1  0.791939  0.140767  0.077590  1
  Si  Si31  1  0.209021  0.861851  0.578410  1
  Si  Si32  1  0.707671  0.640812  0.172559  1
  Si  Si33  1  0.356672  0.292643  0.327438  1
  Si  Si34  1  0.640812  0.707671  0.827441  1
  Rh  Rh35  1  0.825253  0.825253  0.500000  1
