# generated using pymatgen
data_ErTm3Sc6Ga7Si
_symmetry_space_group_name_H-M   'P 1'
_cell_length_a   7.21701854
_cell_length_b   7.44911279
_cell_length_c   14.42381119
_cell_angle_alpha   90.01679540
_cell_angle_beta   90.00841114
_cell_angle_gamma   90.25492320
_symmetry_Int_Tables_number   1
_chemical_formula_structural   ErTm3Sc6Ga7Si
_chemical_formula_sum   'Er2 Tm6 Sc12 Ga14 Si2'
_cell_volume   775.42192697
_cell_formula_units_Z   2
loop_
 _symmetry_equiv_pos_site_id
 _symmetry_equiv_pos_as_xyz
  1  'x, y, z'
loop_
 _atom_site_type_symbol
 _atom_site_label
 _atom_site_symmetry_multiplicity
 _atom_site_fract_x
 _atom_site_fract_y
 _atom_site_fract_z
 _atom_site_occupancy
  Er  Er0  1  0.012947  0.179112  0.096349  1
  Er  Er1  1  0.987053  0.820888  0.903651  1
  Tm  Tm2  1  0.489320  0.678045  0.904466  1
  Tm  Tm3  1  0.987068  0.820891  0.596364  1
  Tm  Tm4  1  0.510680  0.321955  0.095534  1
  Tm  Tm5  1  0.012932  0.179109  0.403636  1
  Tm  Tm6  1  0.510694  0.321932  0.404472  1
  Tm  Tm7  1  0.489306  0.678068  0.595528  1
  Sc  Sc8  1  0.160917  0.504298  0.749963  1
  Sc  Sc9  1  0.839083  0.495702  0.250037  1
  Sc  Sc10  1  0.336962  0.006376  0.250058  1
  Sc  Sc11  1  0.663038  0.993624  0.749942  1
  Sc  Sc12  1  0.331214  0.174349  0.622927  1
  Sc  Sc13  1  0.668786  0.825651  0.377073  1
  Sc  Sc14  1  0.170629  0.671516  0.376222  1
  Sc  Sc15  1  0.668687  0.825604  0.122930  1
  Sc  Sc16  1  0.829371  0.328484  0.623778  1
  Sc  Sc17  1  0.331313  0.174396  0.877070  1
  Sc  Sc18  1  0.829293  0.328510  0.876175  1
  Sc  Sc19  1  0.170707  0.671490  0.123825  1
  Ga  Ga20  1  0.032529  0.117297  0.749978  1
  Ga  Ga21  1  0.967471  0.882703  0.250022  1
  Ga  Ga22  1  0.467361  0.611961  0.249995  1
  Ga  Ga23  1  0.532639  0.388039  0.750005  1
  Ga  Ga24  1  0.285709  0.870581  0.749957  1
  Ga  Ga25  1  0.714291  0.129419  0.250043  1
  Ga  Ga26  1  0.159877  0.465873  0.540445  1
  Ga  Ga27  1  0.840123  0.534127  0.459555  1
  Ga  Ga28  1  0.338443  0.965296  0.459231  1
  Ga  Ga29  1  0.840027  0.534204  0.040463  1
  Ga  Ga30  1  0.661557  0.034704  0.540769  1
  Ga  Ga31  1  0.159973  0.465796  0.959537  1
  Ga  Ga32  1  0.661330  0.034838  0.959273  1
  Ga  Ga33  1  0.338670  0.965162  0.040727  1
  Si  Si34  1  0.215150  0.372976  0.250068  1
  Si  Si35  1  0.784850  0.627024  0.749932  1
