# generated using pymatgen
data_La10Nd6MgTl3Rh4
_symmetry_space_group_name_H-M   'P 1'
_cell_length_a   10.06534082
_cell_length_b   10.14111775
_cell_length_c   10.14111700
_cell_angle_alpha   59.99999918
_cell_angle_beta   59.75064431
_cell_angle_gamma   59.75064063
_symmetry_Int_Tables_number   1
_chemical_formula_structural   La10Nd6MgTl3Rh4
_chemical_formula_sum   'La10 Nd6 Mg1 Tl3 Rh4'
_cell_volume   729.18530345
_cell_formula_units_Z   1
loop_
 _symmetry_equiv_pos_site_id
 _symmetry_equiv_pos_as_xyz
  1  'x, y, z'
loop_
 _atom_site_type_symbol
 _atom_site_label
 _atom_site_symmetry_multiplicity
 _atom_site_fract_x
 _atom_site_fract_y
 _atom_site_fract_z
 _atom_site_occupancy
  La  La0  1  0.598135  0.596882  0.596882  1
  La  La1  1  0.598135  0.596882  0.208101  1
  La  La2  1  0.598135  0.208101  0.596882  1
  La  La3  1  0.201814  0.599396  0.599396  1
  La  La4  1  0.056823  0.442948  0.442948  1
  La  La5  1  0.437791  0.060490  0.060490  1
  La  La6  1  0.437791  0.060490  0.441230  1
  La  La7  1  0.056823  0.442948  0.057281  1
  La  La8  1  0.437791  0.441230  0.060490  1
  La  La9  1  0.056823  0.057281  0.442948  1
  Nd  Nd10  1  0.186659  0.814871  0.814871  1
  Nd  Nd11  1  0.813365  0.186472  0.186472  1
  Nd  Nd12  1  0.813365  0.186472  0.813692  1
  Nd  Nd13  1  0.186659  0.814871  0.183599  1
  Nd  Nd14  1  0.813365  0.813692  0.186472  1
  Nd  Nd15  1  0.186659  0.183599  0.814871  1
  Mg  Mg16  1  0.533280  0.822240  0.822240  1
  Tl  Tl17  1  0.830729  0.836180  0.836180  1
  Tl  Tl18  1  0.830729  0.836180  0.496913  1
  Tl  Tl19  1  0.830729  0.496913  0.836180  1
  Rh  Rh20  1  0.389868  0.391708  0.391708  1
  Rh  Rh21  1  0.389868  0.391708  0.826714  1
  Rh  Rh22  1  0.389868  0.826714  0.391708  1
  Rh  Rh23  1  0.824792  0.391735  0.391735  1
