# generated using pymatgen
data_Y8Ga12Ir3Au
_symmetry_space_group_name_H-M   'P 1'
_cell_length_a   7.14263000
_cell_length_b   8.88918113
_cell_length_c   8.88918100
_cell_angle_alpha   119.99999581
_cell_angle_beta   90.00000000
_cell_angle_gamma   90.00000000
_symmetry_Int_Tables_number   1
_chemical_formula_structural   Y8Ga12Ir3Au
_chemical_formula_sum   'Y8 Ga12 Ir3 Au1'
_cell_volume   488.77874104
_cell_formula_units_Z   1
loop_
 _symmetry_equiv_pos_site_id
 _symmetry_equiv_pos_as_xyz
  1  'x, y, z'
loop_
 _atom_site_type_symbol
 _atom_site_label
 _atom_site_symmetry_multiplicity
 _atom_site_fract_x
 _atom_site_fract_y
 _atom_site_fract_z
 _atom_site_occupancy
  Y  Y0  1  0.757476  0.000000  0.000000  1
  Y  Y1  1  0.251020  0.000000  0.000000  1
  Y  Y2  1  0.748491  0.472153  0.527847  1
  Y  Y3  1  0.244481  0.518286  0.481714  1
  Y  Y4  1  0.748491  0.055696  0.527847  1
  Y  Y5  1  0.244481  0.963427  0.481714  1
  Y  Y6  1  0.748491  0.472153  0.944304  1
  Y  Y7  1  0.244481  0.518286  0.036573  1
  Ga  Ga8  1  0.948676  0.828926  0.171074  1
  Ga  Ga9  1  0.046485  0.169160  0.830840  1
  Ga  Ga10  1  0.948676  0.342150  0.171074  1
  Ga  Ga11  1  0.452158  0.169063  0.830937  1
  Ga  Ga12  1  0.046485  0.661678  0.830840  1
  Ga  Ga13  1  0.548217  0.835850  0.164150  1
  Ga  Ga14  1  0.948676  0.828926  0.657850  1
  Ga  Ga15  1  0.452158  0.661875  0.830937  1
  Ga  Ga16  1  0.046485  0.169160  0.338322  1
  Ga  Ga17  1  0.548217  0.328300  0.164150  1
  Ga  Ga18  1  0.452158  0.169063  0.338125  1
  Ga  Ga19  1  0.548217  0.835850  0.671700  1
  Ir  Ir20  1  0.979211  0.666667  0.333333  1
  Ir  Ir21  1  0.034165  0.333333  0.666667  1
  Ir  Ir22  1  0.465439  0.333333  0.666667  1
  Au  Au23  1  0.547164  0.666667  0.333333  1
