# generated using pymatgen
data_Er4Tm16(BiSb3)3
_symmetry_space_group_name_H-M   'P 1'
_cell_length_a   8.03876456
_cell_length_b   9.27875381
_cell_length_c   11.73925226
_cell_angle_alpha   90.04783647
_cell_angle_beta   89.92890472
_cell_angle_gamma   89.99908756
_symmetry_Int_Tables_number   1
_chemical_formula_structural   Er4Tm16(BiSb3)3
_chemical_formula_sum   'Er4 Tm16 Bi3 Sb9'
_cell_volume   875.62652803
_cell_formula_units_Z   1
loop_
 _symmetry_equiv_pos_site_id
 _symmetry_equiv_pos_as_xyz
  1  'x, y, z'
loop_
 _atom_site_type_symbol
 _atom_site_label
 _atom_site_symmetry_multiplicity
 _atom_site_fract_x
 _atom_site_fract_y
 _atom_site_fract_z
 _atom_site_occupancy
  Er  Er0  1  0.315058  0.251191  0.217894  1
  Er  Er1  1  0.815116  0.248817  0.282223  1
  Er  Er2  1  0.683173  0.753455  0.781276  1
  Er  Er3  1  0.187628  0.752050  0.717523  1
  Tm  Tm4  1  0.352526  0.750619  0.215135  1
  Tm  Tm5  1  0.852535  0.749315  0.285062  1
  Tm  Tm6  1  0.644559  0.247764  0.783961  1
  Tm  Tm7  1  0.150066  0.246942  0.714568  1
  Tm  Tm8  1  0.690956  0.563590  0.058560  1
  Tm  Tm9  1  0.192390  0.937095  0.443016  1
  Tm  Tm10  1  0.310043  0.063025  0.938992  1
  Tm  Tm11  1  0.808346  0.436392  0.558911  1
  Tm  Tm12  1  0.311034  0.436747  0.941184  1
  Tm  Tm13  1  0.808932  0.062313  0.559508  1
  Tm  Tm14  1  0.688959  0.937072  0.058775  1
  Tm  Tm15  1  0.189342  0.563272  0.441461  1
  Tm  Tm16  1  0.473349  0.247670  0.490549  1
  Tm  Tm17  1  0.974255  0.250044  0.011005  1
  Tm  Tm18  1  0.525359  0.752016  0.512501  1
  Tm  Tm19  1  0.026041  0.750226  0.988621  1
  Bi  Bi20  1  0.934117  0.495875  0.824677  1
  Bi  Bi21  1  0.565542  0.504055  0.325738  1
  Bi  Bi22  1  0.065998  0.995924  0.175069  1
  Sb  Sb23  1  0.405714  0.750027  0.958763  1
  Sb  Sb24  1  0.906049  0.749823  0.541572  1
  Sb  Sb25  1  0.594417  0.250098  0.041207  1
  Sb  Sb26  1  0.093658  0.249925  0.458598  1
  Sb  Sb27  1  0.565008  0.995350  0.326599  1
  Sb  Sb28  1  0.065035  0.504665  0.173312  1
  Sb  Sb29  1  0.435067  0.495517  0.673303  1
  Sb  Sb30  1  0.934908  0.004588  0.826856  1
  Sb  Sb31  1  0.434820  0.004538  0.673581  1
