# generated using pymatgen
data_Ba2Cd(Si3Pd10)2
_symmetry_space_group_name_H-M   'P 1'
_cell_length_a   8.79392486
_cell_length_b   8.79392483
_cell_length_c   8.79392500
_cell_angle_alpha   59.99999560
_cell_angle_beta   59.99999572
_cell_angle_gamma   59.99999269
_symmetry_Int_Tables_number   1
_chemical_formula_structural   Ba2Cd(Si3Pd10)2
_chemical_formula_sum   'Ba2 Cd1 Si6 Pd20'
_cell_volume   480.87611533
_cell_formula_units_Z   1
loop_
 _symmetry_equiv_pos_site_id
 _symmetry_equiv_pos_as_xyz
  1  'x, y, z'
loop_
 _atom_site_type_symbol
 _atom_site_label
 _atom_site_symmetry_multiplicity
 _atom_site_fract_x
 _atom_site_fract_y
 _atom_site_fract_z
 _atom_site_occupancy
  Ba  Ba0  1  0.250000  0.250000  0.250000  1
  Ba  Ba1  1  0.750000  0.750000  0.750000  1
  Cd  Cd2  1  0.000000  0.000000  0.000000  1
  Si  Si3  1  0.732988  0.267012  0.267012  1
  Si  Si4  1  0.267012  0.732988  0.732988  1
  Si  Si5  1  0.267012  0.732988  0.267012  1
  Si  Si6  1  0.732988  0.267012  0.732988  1
  Si  Si7  1  0.267012  0.267012  0.732988  1
  Si  Si8  1  0.732988  0.732988  0.267012  1
  Pd  Pd9  1  0.342345  0.000000  0.000000  1
  Pd  Pd10  1  0.657655  0.000000  0.000000  1
  Pd  Pd11  1  0.000000  0.342345  0.657655  1
  Pd  Pd12  1  0.000000  0.657655  0.342345  1
  Pd  Pd13  1  0.000000  0.342345  0.000000  1
  Pd  Pd14  1  0.657655  0.000000  0.342345  1
  Pd  Pd15  1  0.000000  0.657655  0.000000  1
  Pd  Pd16  1  0.342345  0.000000  0.657655  1
  Pd  Pd17  1  0.000000  0.000000  0.342345  1
  Pd  Pd18  1  0.000000  0.000000  0.657655  1
  Pd  Pd19  1  0.657655  0.342345  0.000000  1
  Pd  Pd20  1  0.342345  0.657655  0.000000  1
  Pd  Pd21  1  0.387620  0.387620  0.387620  1
  Pd  Pd22  1  0.612380  0.612380  0.612380  1
  Pd  Pd23  1  0.387620  0.387620  0.837139  1
  Pd  Pd24  1  0.387620  0.837139  0.387620  1
  Pd  Pd25  1  0.612380  0.612380  0.162861  1
  Pd  Pd26  1  0.612380  0.162861  0.612380  1
  Pd  Pd27  1  0.837139  0.387620  0.387620  1
  Pd  Pd28  1  0.162861  0.612380  0.612380  1
