# generated using pymatgen
data_Ba2TcPtCl12
_symmetry_space_group_name_H-M   'P 1'
_cell_length_a   6.66967813
_cell_length_b   6.75360729
_cell_length_c   11.00880399
_cell_angle_alpha   86.80455198
_cell_angle_beta   87.06212304
_cell_angle_gamma   70.52324012
_symmetry_Int_Tables_number   1
_chemical_formula_structural   Ba2TcPtCl12
_chemical_formula_sum   'Ba2 Tc1 Pt1 Cl12'
_cell_volume   466.50065520
_cell_formula_units_Z   1
loop_
 _symmetry_equiv_pos_site_id
 _symmetry_equiv_pos_as_xyz
  1  'x, y, z'
loop_
 _atom_site_type_symbol
 _atom_site_label
 _atom_site_symmetry_multiplicity
 _atom_site_fract_x
 _atom_site_fract_y
 _atom_site_fract_z
 _atom_site_occupancy
  Ba  Ba0  1  0.010920  0.000386  0.749992  1
  Ba  Ba1  1  0.989080  0.999614  0.250008  1
  Tc  Tc2  1  0.000000  0.500000  0.000000  1
  Pt  Pt3  1  0.500000  0.000000  0.500000  1
  Cl  Cl4  1  0.406552  0.723676  0.598340  1
  Cl  Cl5  1  0.593448  0.276324  0.401660  1
  Cl  Cl6  1  0.281228  0.585333  0.897426  1
  Cl  Cl7  1  0.718772  0.414667  0.102574  1
  Cl  Cl8  1  0.502118  0.137875  0.691393  1
  Cl  Cl9  1  0.497882  0.862125  0.308607  1
  Cl  Cl10  1  0.854597  0.490880  0.807995  1
  Cl  Cl11  1  0.145403  0.509120  0.192005  1
  Cl  Cl12  1  0.799914  0.868076  0.006123  1
  Cl  Cl13  1  0.200086  0.131924  0.993877  1
  Cl  Cl14  1  0.136031  0.199162  0.487322  1
  Cl  Cl15  1  0.863969  0.800838  0.512678  1
