# generated using pymatgen
data_Tm5Lu3Re2(B12Ir)2
_symmetry_space_group_name_H-M   'P 1'
_cell_length_a   3.62240600
_cell_length_b   9.06398346
_cell_length_c   11.44790601
_cell_angle_alpha   90.28872372
_cell_angle_beta   90.00000000
_cell_angle_gamma   90.00000000
_symmetry_Int_Tables_number   1
_chemical_formula_structural   Tm5Lu3Re2(B12Ir)2
_chemical_formula_sum   'Tm5 Lu3 Re2 B24 Ir2'
_cell_volume   375.86922614
_cell_formula_units_Z   1
loop_
 _symmetry_equiv_pos_site_id
 _symmetry_equiv_pos_as_xyz
  1  'x, y, z'
loop_
 _atom_site_type_symbol
 _atom_site_label
 _atom_site_symmetry_multiplicity
 _atom_site_fract_x
 _atom_site_fract_y
 _atom_site_fract_z
 _atom_site_occupancy
  Tm  Tm0  1  0.000000  0.316220  0.409880  1
  Tm  Tm1  1  0.000000  0.683932  0.590360  1
  Tm  Tm2  1  0.000000  0.825964  0.082001  1
  Tm  Tm3  1  0.000000  0.174124  0.917800  1
  Tm  Tm4  1  0.000000  0.946296  0.372587  1
  Lu  Lu5  1  0.000000  0.053557  0.627789  1
  Lu  Lu6  1  0.000000  0.441650  0.125519  1
  Lu  Lu7  1  0.000000  0.558426  0.874308  1
  Re  Re8  1  0.000000  0.138904  0.179874  1
  Re  Re9  1  0.000000  0.861454  0.819905  1
  B  B10  1  0.500000  0.553847  0.434555  1
  B  B11  1  0.500000  0.445785  0.565575  1
  B  B12  1  0.500000  0.053321  0.066585  1
  B  B13  1  0.500000  0.946850  0.933147  1
  B  B14  1  0.500000  0.749949  0.421616  1
  B  B15  1  0.500000  0.249520  0.578675  1
  B  B16  1  0.500000  0.249442  0.080126  1
  B  B17  1  0.500000  0.750685  0.919737  1
  B  B18  1  0.500000  0.791409  0.265334  1
  B  B19  1  0.500000  0.208146  0.734533  1
  B  B20  1  0.500000  0.293500  0.234664  1
  B  B21  1  0.500000  0.706697  0.765232  1
  B  B22  1  0.500000  0.630974  0.183009  1
  B  B23  1  0.500000  0.368905  0.816892  1
  B  B24  1  0.500000  0.131625  0.315388  1
  B  B25  1  0.500000  0.868842  0.684525  1
  B  B26  1  0.500000  0.981935  0.213032  1
  B  B27  1  0.500000  0.018348  0.786577  1
  B  B28  1  0.500000  0.481391  0.286943  1
  B  B29  1  0.500000  0.518508  0.713015  1
  B  B30  1  0.500000  0.604176  0.029153  1
  B  B31  1  0.500000  0.395849  0.970684  1
  B  B32  1  0.500000  0.105882  0.471843  1
  B  B33  1  0.500000  0.894390  0.529014  1
  Ir  Ir34  1  0.000000  0.636296  0.321756  1
  Ir  Ir35  1  0.000000  0.363201  0.678368  1
