# generated using pymatgen
data_DyAs4(RuRh2)2
_symmetry_space_group_name_H-M   'P 1'
_cell_length_a   7.19509056
_cell_length_b   7.25287612
_cell_length_c   3.86827000
_cell_angle_alpha   90.00000000
_cell_angle_beta   90.00000000
_cell_angle_gamma   120.26603425
_symmetry_Int_Tables_number   1
_chemical_formula_structural   DyAs4(RuRh2)2
_chemical_formula_sum   'Dy1 As4 Ru2 Rh4'
_cell_volume   174.35060254
_cell_formula_units_Z   1
loop_
 _symmetry_equiv_pos_site_id
 _symmetry_equiv_pos_as_xyz
  1  'x, y, z'
loop_
 _atom_site_type_symbol
 _atom_site_label
 _atom_site_symmetry_multiplicity
 _atom_site_fract_x
 _atom_site_fract_y
 _atom_site_fract_z
 _atom_site_occupancy
  Dy  Dy0  1  0.000507  0.000254  0.000000  1
  As  As1  1  0.804014  0.616226  0.500000  1
  As  As2  1  0.335896  0.667948  0.000000  1
  As  As3  1  0.387315  0.193657  0.500000  1
  As  As4  1  0.804014  0.187786  0.500000  1
  Ru  Ru5  1  0.537318  0.068996  0.000000  1
  Ru  Ru6  1  0.537318  0.468321  0.000000  1
  Rh  Rh7  1  0.600193  0.800097  0.500000  1
  Rh  Rh8  1  0.195863  0.390361  0.500000  1
  Rh  Rh9  1  0.195863  0.805503  0.500000  1
  Rh  Rh10  1  0.935033  0.467516  0.000000  1
