# generated using pymatgen
data_Nd5(PtO6)2
_symmetry_space_group_name_H-M   'P 1'
_cell_length_a   7.13606007
_cell_length_b   7.13606141
_cell_length_c   7.53694242
_cell_angle_alpha   74.60542968
_cell_angle_beta   74.60542605
_cell_angle_gamma   50.98089477
_symmetry_Int_Tables_number   1
_chemical_formula_structural   Nd5(PtO6)2
_chemical_formula_sum   'Nd5 Pt2 O12'
_cell_volume   285.00606327
_cell_formula_units_Z   1
loop_
 _symmetry_equiv_pos_site_id
 _symmetry_equiv_pos_as_xyz
  1  'x, y, z'
loop_
 _atom_site_type_symbol
 _atom_site_label
 _atom_site_symmetry_multiplicity
 _atom_site_fract_x
 _atom_site_fract_y
 _atom_site_fract_z
 _atom_site_occupancy
  Nd  Nd0  1  0.301497  0.301497  0.358918  1
  Nd  Nd1  1  0.698503  0.698503  0.641082  1
  Nd  Nd2  1  0.695782  0.695782  0.163783  1
  Nd  Nd3  1  0.304218  0.304218  0.836217  1
  Nd  Nd4  1  0.000000  0.000000  0.500000  1
  Pt  Pt5  1  0.752790  0.247210  0.000000  1
  Pt  Pt6  1  0.247210  0.752790  0.000000  1
  O  O7  1  0.095722  0.599095  0.575277  1
  O  O8  1  0.999463  0.999463  0.174652  1
  O  O9  1  0.400905  0.904278  0.424723  1
  O  O10  1  0.500073  0.500073  0.177242  1
  O  O11  1  0.099273  0.573589  0.081647  1
  O  O12  1  0.904278  0.400905  0.424723  1
  O  O13  1  0.000537  0.000537  0.825348  1
  O  O14  1  0.599095  0.095721  0.575277  1
  O  O15  1  0.499927  0.499927  0.822758  1
  O  O16  1  0.573589  0.099273  0.081647  1
  O  O17  1  0.426411  0.900727  0.918353  1
  O  O18  1  0.900727  0.426411  0.918353  1
