# generated using pymatgen
data_Tb8Tm12Sn3Pb13
_symmetry_space_group_name_H-M   'P 1'
_cell_length_a   8.11681300
_cell_length_b   8.15788943
_cell_length_c   15.44106200
_cell_angle_alpha   90.00000000
_cell_angle_beta   90.00000000
_cell_angle_gamma   89.81739940
_symmetry_Int_Tables_number   1
_chemical_formula_structural   Tb8Tm12Sn3Pb13
_chemical_formula_sum   'Tb8 Tm12 Sn3 Pb13'
_cell_volume   1022.44114133
_cell_formula_units_Z   1
loop_
 _symmetry_equiv_pos_site_id
 _symmetry_equiv_pos_as_xyz
  1  'x, y, z'
loop_
 _atom_site_type_symbol
 _atom_site_label
 _atom_site_symmetry_multiplicity
 _atom_site_fract_x
 _atom_site_fract_y
 _atom_site_fract_z
 _atom_site_occupancy
  Tb  Tb0  1  0.538113  0.327006  0.898626  1
  Tb  Tb1  1  0.037647  0.172711  0.601431  1
  Tb  Tb2  1  0.462364  0.672745  0.399698  1
  Tb  Tb3  1  0.962313  0.823870  0.099694  1
  Tb  Tb4  1  0.462364  0.672745  0.100302  1
  Tb  Tb5  1  0.962313  0.823870  0.400306  1
  Tb  Tb6  1  0.538113  0.327006  0.601374  1
  Tb  Tb7  1  0.037647  0.172711  0.898569  1
  Tm  Tm8  1  0.379408  0.838739  0.876365  1
  Tm  Tm9  1  0.878717  0.661830  0.623569  1
  Tm  Tm10  1  0.618631  0.161884  0.377494  1
  Tm  Tm11  1  0.123461  0.340678  0.121446  1
  Tm  Tm12  1  0.618631  0.161884  0.122506  1
  Tm  Tm13  1  0.123461  0.340678  0.378554  1
  Tm  Tm14  1  0.379408  0.838739  0.623635  1
  Tm  Tm15  1  0.878717  0.661830  0.876431  1
  Tm  Tm16  1  0.210832  0.508482  0.750000  1
  Tm  Tm17  1  0.711114  0.991837  0.750000  1
  Tm  Tm18  1  0.788018  0.493560  0.250000  1
  Tm  Tm19  1  0.291212  0.007558  0.250000  1
  Sn  Sn20  1  0.574597  0.625012  0.750000  1
  Sn  Sn21  1  0.074349  0.874927  0.750000  1
  Sn  Sn22  1  0.425121  0.375381  0.250000  1
  Pb  Pb23  1  0.282811  0.032169  0.041801  1
  Pb  Pb24  1  0.783338  0.466401  0.458375  1
  Pb  Pb25  1  0.716450  0.967394  0.542076  1
  Pb  Pb26  1  0.216636  0.533621  0.957247  1
  Pb  Pb27  1  0.716450  0.967394  0.957924  1
  Pb  Pb28  1  0.216636  0.533621  0.542753  1
  Pb  Pb29  1  0.282811  0.032169  0.458199  1
  Pb  Pb30  1  0.783338  0.466401  0.041625  1
  Pb  Pb31  1  0.926766  0.125745  0.250000  1
  Pb  Pb32  1  0.348576  0.152626  0.750000  1
  Pb  Pb33  1  0.847820  0.347754  0.750000  1
  Pb  Pb34  1  0.650471  0.846587  0.250000  1
  Pb  Pb35  1  0.151344  0.652437  0.250000  1
