# generated using pymatgen
data_Fe2PdPt9
_symmetry_space_group_name_H-M   'P 1'
_cell_length_a   3.93217300
_cell_length_b   3.93217300
_cell_length_c   11.79039100
_cell_angle_alpha   90.00000000
_cell_angle_beta   90.00000000
_cell_angle_gamma   90.00000000
_symmetry_Int_Tables_number   1
_chemical_formula_structural   Fe2PdPt9
_chemical_formula_sum   'Fe2 Pd1 Pt9'
_cell_volume   182.30284291
_cell_formula_units_Z   1
loop_
 _symmetry_equiv_pos_site_id
 _symmetry_equiv_pos_as_xyz
  1  'x, y, z'
loop_
 _atom_site_type_symbol
 _atom_site_label
 _atom_site_symmetry_multiplicity
 _atom_site_fract_x
 _atom_site_fract_y
 _atom_site_fract_z
 _atom_site_occupancy
  Fe  Fe0  1  0.000000  0.000000  0.330598  1
  Fe  Fe1  1  0.000000  0.000000  0.669402  1
  Pd  Pd2  1  0.000000  0.000000  0.000000  1
  Pt  Pt3  1  0.500000  0.500000  0.000000  1
  Pt  Pt4  1  0.500000  0.500000  0.336852  1
  Pt  Pt5  1  0.500000  0.500000  0.663148  1
  Pt  Pt6  1  0.500000  0.000000  0.173375  1
  Pt  Pt7  1  0.500000  0.000000  0.500000  1
  Pt  Pt8  1  0.500000  0.000000  0.826625  1
  Pt  Pt9  1  0.000000  0.500000  0.173375  1
  Pt  Pt10  1  0.000000  0.500000  0.500000  1
  Pt  Pt11  1  0.000000  0.500000  0.826625  1
