# generated using pymatgen
data_Nb9(NiS3)2
_symmetry_space_group_name_H-M   'P 1'
_cell_length_a   10.31684800
_cell_length_b   10.31684934
_cell_length_c   3.41081100
_cell_angle_alpha   90.00000000
_cell_angle_beta   90.00000000
_cell_angle_gamma   119.99999571
_symmetry_Int_Tables_number   1
_chemical_formula_structural   Nb9(NiS3)2
_chemical_formula_sum   'Nb9 Ni2 S6'
_cell_volume   314.39991925
_cell_formula_units_Z   1
loop_
 _symmetry_equiv_pos_site_id
 _symmetry_equiv_pos_as_xyz
  1  'x, y, z'
loop_
 _atom_site_type_symbol
 _atom_site_label
 _atom_site_symmetry_multiplicity
 _atom_site_fract_x
 _atom_site_fract_y
 _atom_site_fract_z
 _atom_site_occupancy
  Nb  Nb0  1  0.737736  0.196577  0.500000  1
  Nb  Nb1  1  0.803423  0.541159  0.500000  1
  Nb  Nb2  1  0.458841  0.262264  0.500000  1
  Nb  Nb3  1  0.262264  0.458841  0.500000  1
  Nb  Nb4  1  0.541159  0.803423  0.500000  1
  Nb  Nb5  1  0.196577  0.737736  0.500000  1
  Nb  Nb6  1  0.000000  0.454283  0.000000  1
  Nb  Nb7  1  0.545717  0.545717  0.000000  1
  Nb  Nb8  1  0.454283  0.000000  0.000000  1
  Ni  Ni9  1  0.666667  0.333333  0.000000  1
  Ni  Ni10  1  0.333333  0.666667  0.000000  1
  S  S11  1  0.000000  0.699848  0.000000  1
  S  S12  1  0.300152  0.300152  0.000000  1
  S  S13  1  0.699848  0.000000  0.000000  1
  S  S14  1  0.000000  0.274754  0.500000  1
  S  S15  1  0.725246  0.725246  0.500000  1
  S  S16  1  0.274754  0.000000  0.500000  1
