# generated using pymatgen
data_NaPr3(NdSe4)2
_symmetry_space_group_name_H-M   'P 1'
_cell_length_a   7.78608767
_cell_length_b   7.78994006
_cell_length_c   7.78443165
_cell_angle_alpha   109.58256657
_cell_angle_beta   109.48568844
_cell_angle_gamma   109.36252537
_symmetry_Int_Tables_number   1
_chemical_formula_structural   NaPr3(NdSe4)2
_chemical_formula_sum   'Na1 Pr3 Nd2 Se8'
_cell_volume   363.38369193
_cell_formula_units_Z   1
loop_
 _symmetry_equiv_pos_site_id
 _symmetry_equiv_pos_as_xyz
  1  'x, y, z'
loop_
 _atom_site_type_symbol
 _atom_site_label
 _atom_site_symmetry_multiplicity
 _atom_site_fract_x
 _atom_site_fract_y
 _atom_site_fract_z
 _atom_site_occupancy
  Na  Na0  1  0.999930  0.999975  0.999997  1
  Pr  Pr1  1  0.624472  0.499996  0.381992  1
  Pr  Pr2  1  0.499930  0.881831  0.124383  1
  Pr  Pr3  1  0.118203  0.242668  0.618148  1
  Nd  Nd4  1  0.249976  0.749932  0.499883  1
  Nd  Nd5  1  0.757228  0.375174  0.875520  1
  Se  Se6  1  0.721272  0.973083  0.599773  1
  Se  Se7  1  0.233968  0.489383  0.104810  1
  Se  Se8  1  0.870021  0.764161  0.253776  1
  Se  Se9  1  0.027508  0.626667  0.749854  1
  Se  Se10  1  0.385630  0.130216  0.894739  1
  Se  Se11  1  0.510735  0.615415  0.745250  1
  Se  Se12  1  0.877811  0.279098  0.250208  1
  Se  Se13  1  0.373315  0.122402  0.401667  1
