# generated using pymatgen
data_Ho5MnRhO12
_symmetry_space_group_name_H-M   'P 1'
_cell_length_a   6.81559508
_cell_length_b   6.81559571
_cell_length_c   7.21127800
_cell_angle_alpha   74.55511632
_cell_angle_beta   74.55511487
_cell_angle_gamma   50.58467784
_symmetry_Int_Tables_number   1
_chemical_formula_structural   Ho5MnRhO12
_chemical_formula_sum   'Ho5 Mn1 Rh1 O12'
_cell_volume   247.31314725
_cell_formula_units_Z   1
loop_
 _symmetry_equiv_pos_site_id
 _symmetry_equiv_pos_as_xyz
  1  'x, y, z'
loop_
 _atom_site_type_symbol
 _atom_site_label
 _atom_site_symmetry_multiplicity
 _atom_site_fract_x
 _atom_site_fract_y
 _atom_site_fract_z
 _atom_site_occupancy
  Ho  Ho0  1  0.692096  0.691387  0.668450  1
  Ho  Ho1  1  0.691210  0.703861  0.140668  1
  Ho  Ho2  1  0.000616  0.999384  0.000000  1
  Ho  Ho3  1  0.296139  0.308790  0.859332  1
  Ho  Ho4  1  0.308613  0.307904  0.331550  1
  Mn  Mn5  1  0.250214  0.749786  0.500000  1
  Rh  Rh6  1  0.759003  0.240997  0.500000  1
  O  O7  1  0.402094  0.905611  0.924321  1
  O  O8  1  0.574820  0.096950  0.582916  1
  O  O9  1  0.903050  0.425180  0.417084  1
  O  O10  1  0.094389  0.597906  0.075679  1
  O  O11  1  0.010817  0.989204  0.317282  1
  O  O12  1  0.493176  0.506727  0.686093  1
  O  O13  1  0.901051  0.402507  0.926009  1
  O  O14  1  0.098054  0.576904  0.581952  1
  O  O15  1  0.423096  0.901946  0.418048  1
  O  O16  1  0.597493  0.098949  0.073991  1
  O  O17  1  0.493273  0.506824  0.313907  1
  O  O18  1  0.010796  0.989183  0.682718  1
