# generated using pymatgen
data_Sm3Th(CuP2)4
_symmetry_space_group_name_H-M   'P 1'
_cell_length_a   3.79092100
_cell_length_b   3.84251566
_cell_length_c   19.73495112
_cell_angle_alpha   89.63989637
_cell_angle_beta   90.00000000
_cell_angle_gamma   90.00000000
_symmetry_Int_Tables_number   1
_chemical_formula_structural   Sm3Th(CuP2)4
_chemical_formula_sum   'Sm3 Th1 Cu4 P8'
_cell_volume   287.46690806
_cell_formula_units_Z   1
loop_
 _symmetry_equiv_pos_site_id
 _symmetry_equiv_pos_as_xyz
  1  'x, y, z'
loop_
 _atom_site_type_symbol
 _atom_site_label
 _atom_site_symmetry_multiplicity
 _atom_site_fract_x
 _atom_site_fract_y
 _atom_site_fract_z
 _atom_site_occupancy
  Sm  Sm0  1  0.250000  0.712472  0.382226  1
  Sm  Sm1  1  0.250000  0.780136  0.883783  1
  Sm  Sm2  1  0.750000  0.287043  0.619292  1
  Th  Th3  1  0.750000  0.217987  0.114075  1
  Cu  Cu4  1  0.250000  0.213321  0.250022  1
  Cu  Cu5  1  0.750000  0.786832  0.751048  1
  Cu  Cu6  1  0.250000  0.285218  0.751222  1
  Cu  Cu7  1  0.750000  0.713511  0.250358  1
  P  P8  1  0.750000  0.815775  0.502351  1
  P  P9  1  0.750000  0.718810  0.999729  1
  P  P10  1  0.250000  0.185473  0.497863  1
  P  P11  1  0.250000  0.284189  0.998749  1
  P  P12  1  0.250000  0.716513  0.173914  1
  P  P13  1  0.750000  0.212824  0.324259  1
  P  P14  1  0.750000  0.283752  0.825220  1
  P  P15  1  0.250000  0.786144  0.675890  1
