# generated using pymatgen
data_Tb5HfZr2(Co4As3)4
_symmetry_space_group_name_H-M   'P 1'
_cell_length_a   12.74035413
_cell_length_b   12.74035265
_cell_length_c   3.84136200
_cell_angle_alpha   90.00000000
_cell_angle_beta   90.00000000
_cell_angle_gamma   119.98335532
_symmetry_Int_Tables_number   1
_chemical_formula_structural   Tb5HfZr2(Co4As3)4
_chemical_formula_sum   'Tb5 Hf1 Zr2 Co16 As12'
_cell_volume   540.07196489
_cell_formula_units_Z   1
loop_
 _symmetry_equiv_pos_site_id
 _symmetry_equiv_pos_as_xyz
  1  'x, y, z'
loop_
 _atom_site_type_symbol
 _atom_site_label
 _atom_site_symmetry_multiplicity
 _atom_site_fract_x
 _atom_site_fract_y
 _atom_site_fract_z
 _atom_site_occupancy
  Tb  Tb0  1  0.183576  0.183576  0.500000  1
  Tb  Tb1  1  0.816833  0.999883  0.500000  1
  Tb  Tb2  1  0.999883  0.816833  0.500000  1
  Tb  Tb3  1  0.333311  0.666551  0.000000  1
  Tb  Tb4  1  0.666551  0.333311  0.000000  1
  Hf  Hf5  1  0.562536  0.562536  0.000000  1
  Zr  Zr6  1  0.438246  0.000072  0.000000  1
  Zr  Zr7  1  0.000072  0.438246  0.000000  1
  Co  Co8  1  0.718810  0.718810  0.500000  1
  Co  Co9  1  0.279854  0.999882  0.500000  1
  Co  Co10  1  0.999882  0.279854  0.500000  1
  Co  Co11  1  0.178262  0.373896  0.000000  1
  Co  Co12  1  0.625796  0.802878  0.000000  1
  Co  Co13  1  0.195808  0.821961  0.000000  1
  Co  Co14  1  0.802878  0.625796  0.000000  1
  Co  Co15  1  0.821961  0.195808  0.000000  1
  Co  Co16  1  0.373896  0.178262  0.000000  1
  Co  Co17  1  0.358991  0.480726  0.500000  1
  Co  Co18  1  0.520348  0.877455  0.500000  1
  Co  Co19  1  0.122274  0.642358  0.500000  1
  Co  Co20  1  0.877455  0.520348  0.500000  1
  Co  Co21  1  0.642358  0.122274  0.500000  1
  Co  Co22  1  0.480726  0.358991  0.500000  1
  Co  Co23  1  0.999965  0.999965  0.000000  1
  As  As24  1  0.822503  0.822503  0.000000  1
  As  As25  1  0.177518  0.000111  0.000000  1
  As  As26  1  0.000111  0.177518  0.000000  1
  As  As27  1  0.173598  0.481050  0.500000  1
  As  As28  1  0.518554  0.691283  0.500000  1
  As  As29  1  0.307862  0.826535  0.500000  1
  As  As30  1  0.691283  0.518554  0.500000  1
  As  As31  1  0.826535  0.307862  0.500000  1
  As  As32  1  0.481050  0.173598  0.500000  1
  As  As33  1  0.353903  0.353903  0.000000  1
  As  As34  1  0.647141  0.999673  0.000000  1
  As  As35  1  0.999673  0.647141  0.000000  1
