# generated using pymatgen
data_PrThRh2Pb
_symmetry_space_group_name_H-M   'P 1'
_cell_length_a   7.92427064
_cell_length_b   7.92427098
_cell_length_c   3.79386000
_cell_angle_alpha   90.00000000
_cell_angle_beta   90.00000000
_cell_angle_gamma   93.92577954
_symmetry_Int_Tables_number   1
_chemical_formula_structural   PrThRh2Pb
_chemical_formula_sum   'Pr2 Th2 Rh4 Pb2'
_cell_volume   237.67290920
_cell_formula_units_Z   2
loop_
 _symmetry_equiv_pos_site_id
 _symmetry_equiv_pos_as_xyz
  1  'x, y, z'
loop_
 _atom_site_type_symbol
 _atom_site_label
 _atom_site_symmetry_multiplicity
 _atom_site_fract_x
 _atom_site_fract_y
 _atom_site_fract_z
 _atom_site_occupancy
  Pr  Pr0  1  0.826890  0.673110  0.500000  1
  Pr  Pr1  1  0.173110  0.326890  0.500000  1
  Th  Th2  1  0.327407  0.827407  0.500000  1
  Th  Th3  1  0.672593  0.172593  0.500000  1
  Rh  Rh4  1  0.862052  0.362052  0.000000  1
  Rh  Rh5  1  0.621723  0.878277  0.000000  1
  Rh  Rh6  1  0.378277  0.121723  0.000000  1
  Rh  Rh7  1  0.137948  0.637948  0.000000  1
  Pb  Pb8  1  0.500000  0.500000  0.000000  1
  Pb  Pb9  1  0.000000  0.000000  0.000000  1
