# generated using pymatgen
data_Gd5Ho7Ru4
_symmetry_space_group_name_H-M   'P 1'
_cell_length_a   7.28659365
_cell_length_b   9.21205361
_cell_length_c   6.33160567
_cell_angle_alpha   89.75542495
_cell_angle_beta   90.01001584
_cell_angle_gamma   89.94570421
_symmetry_Int_Tables_number   1
_chemical_formula_structural   Gd5Ho7Ru4
_chemical_formula_sum   'Gd5 Ho7 Ru4'
_cell_volume   425.00174013
_cell_formula_units_Z   1
loop_
 _symmetry_equiv_pos_site_id
 _symmetry_equiv_pos_as_xyz
  1  'x, y, z'
loop_
 _atom_site_type_symbol
 _atom_site_label
 _atom_site_symmetry_multiplicity
 _atom_site_fract_x
 _atom_site_fract_y
 _atom_site_fract_z
 _atom_site_occupancy
  Gd  Gd0  1  0.459724  0.749077  0.132788  1
  Gd  Gd1  1  0.177013  0.065292  0.169166  1
  Gd  Gd2  1  0.958708  0.749158  0.367398  1
  Gd  Gd3  1  0.039963  0.251149  0.633823  1
  Gd  Gd4  1  0.540943  0.250557  0.865792  1
  Ho  Ho5  1  0.176341  0.436064  0.169081  1
  Ho  Ho6  1  0.676233  0.064960  0.331629  1
  Ho  Ho7  1  0.676779  0.434904  0.331087  1
  Ho  Ho8  1  0.323963  0.565026  0.668729  1
  Ho  Ho9  1  0.324039  0.934019  0.669638  1
  Ho  Ho10  1  0.823639  0.565030  0.830801  1
  Ho  Ho11  1  0.822788  0.934081  0.830140  1
  Ru  Ru12  1  0.884502  0.250947  0.039441  1
  Ru  Ru13  1  0.385081  0.250714  0.461508  1
  Ru  Ru14  1  0.615354  0.750716  0.539604  1
  Ru  Ru15  1  0.114927  0.748304  0.959380  1
