# generated using pymatgen
data_Tb4Pt3Au
_symmetry_space_group_name_H-M   'P 1'
_cell_length_a   4.59498600
_cell_length_b   5.65637027
_cell_length_c   7.08566706
_cell_angle_alpha   90.24984558
_cell_angle_beta   90.00000000
_cell_angle_gamma   90.00000000
_symmetry_Int_Tables_number   1
_chemical_formula_structural   Tb4Pt3Au
_chemical_formula_sum   'Tb4 Pt3 Au1'
_cell_volume   184.16141213
_cell_formula_units_Z   1
loop_
 _symmetry_equiv_pos_site_id
 _symmetry_equiv_pos_as_xyz
  1  'x, y, z'
loop_
 _atom_site_type_symbol
 _atom_site_label
 _atom_site_symmetry_multiplicity
 _atom_site_fract_x
 _atom_site_fract_y
 _atom_site_fract_z
 _atom_site_occupancy
  Tb  Tb0  1  0.250000  0.354780  0.687755  1
  Tb  Tb1  1  0.250000  0.145673  0.179859  1
  Tb  Tb2  1  0.750000  0.637194  0.308643  1
  Tb  Tb3  1  0.750000  0.859447  0.824931  1
  Pt  Pt4  1  0.250000  0.657208  0.042129  1
  Pt  Pt5  1  0.750000  0.155439  0.459155  1
  Pt  Pt6  1  0.750000  0.343503  0.956598  1
  Au  Au7  1  0.250000  0.846756  0.540930  1
