# generated using pymatgen
data_RbCeCuP2Pd
_symmetry_space_group_name_H-M   'P 1'
_cell_length_a   4.12574900
_cell_length_b   4.12574937
_cell_length_c   9.15133500
_cell_angle_alpha   90.00000000
_cell_angle_beta   90.00000000
_cell_angle_gamma   120.00002112
_symmetry_Int_Tables_number   1
_chemical_formula_structural   RbCeCuP2Pd
_chemical_formula_sum   'Rb1 Ce1 Cu1 P2 Pd1'
_cell_volume   134.90269867
_cell_formula_units_Z   1
loop_
 _symmetry_equiv_pos_site_id
 _symmetry_equiv_pos_as_xyz
  1  'x, y, z'
loop_
 _atom_site_type_symbol
 _atom_site_label
 _atom_site_symmetry_multiplicity
 _atom_site_fract_x
 _atom_site_fract_y
 _atom_site_fract_z
 _atom_site_occupancy
  Rb  Rb0  1  0.000000  0.000000  0.501078  1
  Ce  Ce1  1  0.000000  0.000000  0.998482  1
  Cu  Cu2  1  0.333333  0.666667  0.211348  1
  P  P3  1  0.333333  0.666667  0.809672  1
  P  P4  1  0.666667  0.333333  0.200133  1
  Pd  Pd5  1  0.666667  0.333333  0.779287  1
