# generated using pymatgen
data_Hf6Al16Ir5Pt2
_symmetry_space_group_name_H-M   'P 1'
_cell_length_a   8.72151400
_cell_length_b   8.72151389
_cell_length_c   8.74382600
_cell_angle_alpha   59.91533650
_cell_angle_beta   59.91533692
_cell_angle_gamma   60.14626248
_symmetry_Int_Tables_number   1
_chemical_formula_structural   Hf6Al16Ir5Pt2
_chemical_formula_sum   'Hf6 Al16 Ir5 Pt2'
_cell_volume   470.20781773
_cell_formula_units_Z   1
loop_
 _symmetry_equiv_pos_site_id
 _symmetry_equiv_pos_as_xyz
  1  'x, y, z'
loop_
 _atom_site_type_symbol
 _atom_site_label
 _atom_site_symmetry_multiplicity
 _atom_site_fract_x
 _atom_site_fract_y
 _atom_site_fract_z
 _atom_site_occupancy
  Hf  Hf0  1  0.686088  0.313912  0.312574  1
  Hf  Hf1  1  0.313912  0.686088  0.687426  1
  Hf  Hf2  1  0.313912  0.686088  0.312574  1
  Hf  Hf3  1  0.686088  0.313912  0.687426  1
  Hf  Hf4  1  0.325068  0.325068  0.674932  1
  Hf  Hf5  1  0.674932  0.674932  0.325068  1
  Al  Al6  1  0.338663  0.338663  0.337532  1
  Al  Al7  1  0.661337  0.661337  0.662468  1
  Al  Al8  1  0.338663  0.338663  0.985141  1
  Al  Al9  1  0.340256  0.984208  0.337768  1
  Al  Al10  1  0.661337  0.661337  0.014859  1
  Al  Al11  1  0.659744  0.015792  0.662232  1
  Al  Al12  1  0.984208  0.340256  0.337768  1
  Al  Al13  1  0.015792  0.659744  0.662232  1
  Al  Al14  1  0.123775  0.123775  0.114166  1
  Al  Al15  1  0.876225  0.876225  0.885834  1
  Al  Al16  1  0.123775  0.123775  0.638283  1
  Al  Al17  1  0.121893  0.636496  0.120805  1
  Al  Al18  1  0.876225  0.876225  0.361717  1
  Al  Al19  1  0.878107  0.363504  0.879195  1
  Al  Al20  1  0.636496  0.121893  0.120805  1
  Al  Al21  1  0.363504  0.878107  0.879195  1
  Ir  Ir22  1  0.500000  0.000000  0.000000  1
  Ir  Ir23  1  0.000000  0.500000  0.500000  1
  Ir  Ir24  1  0.000000  0.500000  0.000000  1
  Ir  Ir25  1  0.500000  0.000000  0.500000  1
  Ir  Ir26  1  0.500000  0.500000  0.000000  1
  Pt  Pt27  1  0.000000  0.000000  0.500000  1
  Pt  Pt28  1  0.000000  0.000000  0.000000  1
