# generated using pymatgen
data_MnNb12Al9(CoN2)2
_symmetry_space_group_name_H-M   'P 1'
_cell_length_a   8.23756856
_cell_length_b   8.24520259
_cell_length_c   8.25627513
_cell_angle_alpha   60.04434917
_cell_angle_beta   60.03566973
_cell_angle_gamma   59.96933850
_symmetry_Int_Tables_number   1
_chemical_formula_structural   MnNb12Al9(CoN2)2
_chemical_formula_sum   'Mn1 Nb12 Al9 Co2 N4'
_cell_volume   396.67153776
_cell_formula_units_Z   1
loop_
 _symmetry_equiv_pos_site_id
 _symmetry_equiv_pos_as_xyz
  1  'x, y, z'
loop_
 _atom_site_type_symbol
 _atom_site_label
 _atom_site_symmetry_multiplicity
 _atom_site_fract_x
 _atom_site_fract_y
 _atom_site_fract_z
 _atom_site_occupancy
  Mn  Mn0  1  0.625000  0.625000  0.125000  1
  Nb  Nb1  1  0.812547  0.809462  0.185289  1
  Nb  Nb2  1  0.186901  0.196251  0.809079  1
  Nb  Nb3  1  0.815168  0.186038  0.812756  1
  Nb  Nb4  1  0.193404  0.805546  0.195503  1
  Nb  Nb5  1  0.186901  0.807769  0.809079  1
  Nb  Nb6  1  0.812547  0.192702  0.185289  1
  Nb  Nb7  1  0.437453  0.440538  0.064711  1
  Nb  Nb8  1  0.063099  0.053749  0.440921  1
  Nb  Nb9  1  0.434832  0.063962  0.437244  1
  Nb  Nb10  1  0.056596  0.444454  0.054497  1
  Nb  Nb11  1  0.063099  0.442231  0.440921  1
  Nb  Nb12  1  0.437453  0.057298  0.064711  1
  Al  Al13  1  0.125000  0.625000  0.625000  1
  Al  Al14  1  0.752494  0.413528  0.420452  1
  Al  Al15  1  0.431336  0.747455  0.414813  1
  Al  Al16  1  0.432051  0.407869  0.752212  1
  Al  Al17  1  0.431336  0.406397  0.414813  1
  Al  Al18  1  0.497506  0.836472  0.829548  1
  Al  Al19  1  0.818664  0.502545  0.835187  1
  Al  Al20  1  0.817949  0.842131  0.497788  1
  Al  Al21  1  0.818664  0.843603  0.835187  1
  Co  Co22  1  0.625000  0.125000  0.625000  1
  Co  Co23  1  0.625000  0.625000  0.625000  1
  N  N24  1  0.625000  0.125000  0.125000  1
  N  N25  1  0.125000  0.625000  0.125000  1
  N  N26  1  0.125000  0.125000  0.625000  1
  N  N27  1  0.125000  0.125000  0.125000  1
