# generated using pymatgen
data_Er20Sn3Sb5Os4
_symmetry_space_group_name_H-M   'P 1'
_cell_length_a   7.75900771
_cell_length_b   8.95266920
_cell_length_c   12.18947866
_cell_angle_alpha   90.02342404
_cell_angle_beta   89.82922526
_cell_angle_gamma   90.00713809
_symmetry_Int_Tables_number   1
_chemical_formula_structural   Er20Sn3Sb5Os4
_chemical_formula_sum   'Er20 Sn3 Sb5 Os4'
_cell_volume   846.72402808
_cell_formula_units_Z   1
loop_
 _symmetry_equiv_pos_site_id
 _symmetry_equiv_pos_as_xyz
  1  'x, y, z'
loop_
 _atom_site_type_symbol
 _atom_site_label
 _atom_site_symmetry_multiplicity
 _atom_site_fract_x
 _atom_site_fract_y
 _atom_site_fract_z
 _atom_site_occupancy
  Er  Er0  1  0.160392  0.750442  0.213027  1
  Er  Er1  1  0.661065  0.250230  0.287331  1
  Er  Er2  1  0.840207  0.249967  0.787816  1
  Er  Er3  1  0.337919  0.751264  0.712741  1
  Er  Er4  1  0.448479  0.750750  0.997246  1
  Er  Er5  1  0.948882  0.250151  0.503366  1
  Er  Er6  1  0.550609  0.248604  0.003775  1
  Er  Er7  1  0.050996  0.750861  0.496576  1
  Er  Er8  1  0.628120  0.749985  0.304707  1
  Er  Er9  1  0.128395  0.249900  0.195504  1
  Er  Er10  1  0.370102  0.249032  0.695002  1
  Er  Er11  1  0.873407  0.750010  0.804757  1
  Er  Er12  1  0.823692  0.962030  0.070252  1
  Er  Er13  1  0.323353  0.037268  0.429623  1
  Er  Er14  1  0.176103  0.461578  0.929619  1
  Er  Er15  1  0.677893  0.537605  0.568165  1
  Er  Er16  1  0.176926  0.039011  0.932492  1
  Er  Er17  1  0.675442  0.961088  0.567739  1
  Er  Er18  1  0.824563  0.538875  0.068121  1
  Er  Er19  1  0.323692  0.460609  0.432842  1
  Sn  Sn20  1  0.928823  0.995108  0.331148  1
  Sn  Sn21  1  0.429520  0.005102  0.169800  1
  Sn  Sn22  1  0.070581  0.495199  0.669342  1
  Sb  Sb23  1  0.568613  0.506305  0.829693  1
  Sb  Sb24  1  0.066811  0.006571  0.671748  1
  Sb  Sb25  1  0.567841  0.993348  0.827949  1
  Sb  Sb26  1  0.933010  0.506480  0.328267  1
  Sb  Sb27  1  0.433696  0.493815  0.170826  1
  Os  Os28  1  0.426818  0.748861  0.491558  1
  Os  Os29  1  0.926512  0.250553  0.009005  1
  Os  Os30  1  0.573085  0.249607  0.509143  1
  Os  Os31  1  0.074455  0.749793  0.990821  1
