# generated using pymatgen
data_Y3Cd3IrPd2
_symmetry_space_group_name_H-M   'P 1'
_cell_length_a   7.61697200
_cell_length_b   7.61696992
_cell_length_c   3.94612400
_cell_angle_alpha   90.00000000
_cell_angle_beta   90.00000000
_cell_angle_gamma   119.99999168
_symmetry_Int_Tables_number   1
_chemical_formula_structural   Y3Cd3IrPd2
_chemical_formula_sum   'Y3 Cd3 Ir1 Pd2'
_cell_volume   198.27410383
_cell_formula_units_Z   1
loop_
 _symmetry_equiv_pos_site_id
 _symmetry_equiv_pos_as_xyz
  1  'x, y, z'
loop_
 _atom_site_type_symbol
 _atom_site_label
 _atom_site_symmetry_multiplicity
 _atom_site_fract_x
 _atom_site_fract_y
 _atom_site_fract_z
 _atom_site_occupancy
  Y  Y0  1  0.583533  0.981009  0.000000  1
  Y  Y1  1  0.018991  0.602524  0.000000  1
  Y  Y2  1  0.397476  0.416467  0.000000  1
  Cd  Cd3  1  0.261107  0.006248  0.500000  1
  Cd  Cd4  1  0.993752  0.254859  0.500000  1
  Cd  Cd5  1  0.745141  0.738893  0.500000  1
  Ir  Ir6  1  0.333333  0.666667  0.500000  1
  Pd  Pd7  1  0.666667  0.333333  0.500000  1
  Pd  Pd8  1  0.000000  0.000000  0.000000  1
