# generated using pymatgen
data_Tm12Si12Ru3Au
_symmetry_space_group_name_H-M   'P 1'
_cell_length_a   4.19072600
_cell_length_b   10.64544923
_cell_length_c   12.20153564
_cell_angle_alpha   89.91943958
_cell_angle_beta   90.00000000
_cell_angle_gamma   90.00000000
_symmetry_Int_Tables_number   1
_chemical_formula_structural   Tm12Si12Ru3Au
_chemical_formula_sum   'Tm12 Si12 Ru3 Au1'
_cell_volume   544.33633266
_cell_formula_units_Z   1
loop_
 _symmetry_equiv_pos_site_id
 _symmetry_equiv_pos_as_xyz
  1  'x, y, z'
loop_
 _atom_site_type_symbol
 _atom_site_label
 _atom_site_symmetry_multiplicity
 _atom_site_fract_x
 _atom_site_fract_y
 _atom_site_fract_z
 _atom_site_occupancy
  Tm  Tm0  1  0.250000  0.880906  0.022298  1
  Tm  Tm1  1  0.250000  0.625256  0.516790  1
  Tm  Tm2  1  0.750000  0.121622  0.981649  1
  Tm  Tm3  1  0.750000  0.379391  0.477091  1
  Tm  Tm4  1  0.250000  0.921766  0.602520  1
  Tm  Tm5  1  0.250000  0.577907  0.104117  1
  Tm  Tm6  1  0.750000  0.078934  0.394472  1
  Tm  Tm7  1  0.750000  0.420529  0.895726  1
  Tm  Tm8  1  0.250000  0.667831  0.802805  1
  Tm  Tm9  1  0.250000  0.839542  0.299275  1
  Tm  Tm10  1  0.750000  0.338628  0.201391  1
  Tm  Tm11  1  0.750000  0.156644  0.701331  1
  Si  Si12  1  0.250000  0.008755  0.821191  1
  Si  Si13  1  0.250000  0.487485  0.322650  1
  Si  Si14  1  0.750000  0.986767  0.178756  1
  Si  Si15  1  0.750000  0.526981  0.674818  1
  Si  Si16  1  0.250000  0.242341  0.849447  1
  Si  Si17  1  0.250000  0.249608  0.340059  1
  Si  Si18  1  0.750000  0.749011  0.159346  1
  Si  Si19  1  0.750000  0.753374  0.659032  1
  Si  Si20  1  0.250000  0.186987  0.537369  1
  Si  Si21  1  0.250000  0.300939  0.046484  1
  Si  Si22  1  0.750000  0.800688  0.454983  1
  Si  Si23  1  0.750000  0.702184  0.958409  1
  Ru  Ru24  1  0.250000  0.108192  0.180008  1
  Ru  Ru25  1  0.750000  0.607577  0.319090  1
  Ru  Ru26  1  0.750000  0.891138  0.819612  1
  Au  Au27  1  0.250000  0.389017  0.679280  1
