# generated using pymatgen
data_YbDyGa9Ru5
_symmetry_space_group_name_H-M   'P 1'
_cell_length_a   8.02502892
_cell_length_b   8.02502890
_cell_length_c   8.02502786
_cell_angle_alpha   134.44834744
_cell_angle_beta   134.97666294
_cell_angle_gamma   65.97816323
_symmetry_Int_Tables_number   1
_chemical_formula_structural   YbDyGa9Ru5
_chemical_formula_sum   'Yb1 Dy1 Ga9 Ru5'
_cell_volume   257.01060000
_cell_formula_units_Z   1
loop_
 _symmetry_equiv_pos_site_id
 _symmetry_equiv_pos_as_xyz
  1  'x, y, z'
loop_
 _atom_site_type_symbol
 _atom_site_label
 _atom_site_symmetry_multiplicity
 _atom_site_fract_x
 _atom_site_fract_y
 _atom_site_fract_z
 _atom_site_occupancy
  Yb  Yb0  1  0.000000  0.500000  0.500000  1
  Dy  Dy1  1  0.500000  0.000000  0.500000  1
  Ga  Ga2  1  0.434044  0.856336  0.996207  1
  Ga  Ga3  1  0.139871  0.143664  0.577709  1
  Ga  Ga4  1  0.860129  0.437837  0.003793  1
  Ga  Ga5  1  0.860129  0.856336  0.422291  1
  Ga  Ga6  1  0.565956  0.143664  0.003793  1
  Ga  Ga7  1  0.139871  0.562163  0.996207  1
  Ga  Ga8  1  0.565956  0.562163  0.422291  1
  Ga  Ga9  1  0.000000  0.000000  0.000000  1
  Ga  Ga10  1  0.434044  0.437837  0.577709  1
  Ru  Ru11  1  0.181957  0.181957  0.000000  1
  Ru  Ru12  1  0.818043  0.818043  0.000000  1
  Ru  Ru13  1  0.251179  0.751179  0.500000  1
  Ru  Ru14  1  0.748821  0.248821  0.500000  1
  Ru  Ru15  1  0.500000  0.500000  0.000000  1
