# generated using pymatgen
data_MgTi5(ZnRh2)6
_symmetry_space_group_name_H-M   'P 1'
_cell_length_a   4.32676600
_cell_length_b   6.12031000
_cell_length_c   12.93848600
_cell_angle_alpha   90.00000000
_cell_angle_beta   90.00070738
_cell_angle_gamma   90.00000000
_symmetry_Int_Tables_number   1
_chemical_formula_structural   MgTi5(ZnRh2)6
_chemical_formula_sum   'Mg1 Ti5 Zn6 Rh12'
_cell_volume   342.62597840
_cell_formula_units_Z   1
loop_
 _symmetry_equiv_pos_site_id
 _symmetry_equiv_pos_as_xyz
  1  'x, y, z'
loop_
 _atom_site_type_symbol
 _atom_site_label
 _atom_site_symmetry_multiplicity
 _atom_site_fract_x
 _atom_site_fract_y
 _atom_site_fract_z
 _atom_site_occupancy
  Mg  Mg0  1  0.000000  0.000000  0.000000  1
  Ti  Ti1  1  0.499857  0.500000  0.164343  1
  Ti  Ti2  1  0.999843  0.000000  0.332134  1
  Ti  Ti3  1  0.500000  0.500000  0.500000  1
  Ti  Ti4  1  0.000157  0.000000  0.667867  1
  Ti  Ti5  1  0.500143  0.500000  0.835657  1
  Zn  Zn6  1  0.000000  0.500000  0.000000  1
  Zn  Zn7  1  0.499767  0.000000  0.165770  1
  Zn  Zn8  1  0.999768  0.500000  0.332569  1
  Zn  Zn9  1  0.500000  0.000000  0.500000  1
  Zn  Zn10  1  0.000232  0.500000  0.667432  1
  Zn  Zn11  1  0.500233  0.000000  0.834229  1
  Rh  Rh12  1  0.500000  0.255336  0.000000  1
  Rh  Rh13  1  0.500000  0.744664  0.000000  1
  Rh  Rh14  1  0.999796  0.251568  0.168952  1
  Rh  Rh15  1  0.999796  0.748433  0.168952  1
  Rh  Rh16  1  0.499806  0.249276  0.333956  1
  Rh  Rh17  1  0.499806  0.750723  0.333956  1
  Rh  Rh18  1  0.000000  0.250894  0.500000  1
  Rh  Rh19  1  0.000000  0.749107  0.500000  1
  Rh  Rh20  1  0.500194  0.249276  0.666045  1
  Rh  Rh21  1  0.500194  0.750723  0.666045  1
  Rh  Rh22  1  0.000204  0.251568  0.831047  1
  Rh  Rh23  1  0.000204  0.748433  0.831047  1
