# generated using pymatgen
data_Sc6MnZn22As
_symmetry_space_group_name_H-M   'P 1'
_cell_length_a   8.81219995
_cell_length_b   8.81219985
_cell_length_c   8.81220000
_cell_angle_alpha   59.99999945
_cell_angle_beta   59.99999979
_cell_angle_gamma   59.99999952
_symmetry_Int_Tables_number   1
_chemical_formula_structural   Sc6MnZn22As
_chemical_formula_sum   'Sc6 Mn1 Zn22 As1'
_cell_volume   483.88039227
_cell_formula_units_Z   1
loop_
 _symmetry_equiv_pos_site_id
 _symmetry_equiv_pos_as_xyz
  1  'x, y, z'
loop_
 _atom_site_type_symbol
 _atom_site_label
 _atom_site_symmetry_multiplicity
 _atom_site_fract_x
 _atom_site_fract_y
 _atom_site_fract_z
 _atom_site_occupancy
  Sc  Sc0  1  0.712274  0.287726  0.287726  1
  Sc  Sc1  1  0.712274  0.287726  0.712274  1
  Sc  Sc2  1  0.712274  0.712274  0.287726  1
  Sc  Sc3  1  0.287726  0.712274  0.712274  1
  Sc  Sc4  1  0.287726  0.712274  0.287726  1
  Sc  Sc5  1  0.287726  0.287726  0.712274  1
  Mn  Mn6  1  0.000000  0.000000  0.000000  1
  Zn  Zn7  1  0.639248  0.120251  0.120251  1
  Zn  Zn8  1  0.120251  0.639248  0.120251  1
  Zn  Zn9  1  0.120251  0.120251  0.639248  1
  Zn  Zn10  1  0.120251  0.120251  0.120251  1
  Zn  Zn11  1  0.360752  0.879749  0.879749  1
  Zn  Zn12  1  0.879749  0.360752  0.879749  1
  Zn  Zn13  1  0.879749  0.879749  0.360752  1
  Zn  Zn14  1  0.879749  0.879749  0.879749  1
  Zn  Zn15  1  0.500000  0.000000  0.000000  1
  Zn  Zn16  1  0.500000  0.000000  0.500000  1
  Zn  Zn17  1  0.500000  0.500000  0.000000  1
  Zn  Zn18  1  0.000000  0.500000  0.500000  1
  Zn  Zn19  1  0.000000  0.500000  0.000000  1
  Zn  Zn20  1  0.000000  0.000000  0.500000  1
  Zn  Zn21  1  0.002681  0.332439  0.332439  1
  Zn  Zn22  1  0.332439  0.002681  0.332439  1
  Zn  Zn23  1  0.332439  0.332439  0.002681  1
  Zn  Zn24  1  0.332439  0.332439  0.332439  1
  Zn  Zn25  1  0.997319  0.667561  0.667561  1
  Zn  Zn26  1  0.667561  0.997319  0.667561  1
  Zn  Zn27  1  0.667561  0.667561  0.997319  1
  Zn  Zn28  1  0.667561  0.667561  0.667561  1
  As  As29  1  0.500000  0.500000  0.500000  1
