# generated using pymatgen
data_Rb5(TiS3)2
_symmetry_space_group_name_H-M   'P 1'
_cell_length_a   7.80425443
_cell_length_b   8.47385169
_cell_length_c   17.51783500
_cell_angle_alpha   89.99635556
_cell_angle_beta   100.10854940
_cell_angle_gamma   122.87521914
_symmetry_Int_Tables_number   1
_chemical_formula_structural   Rb5(TiS3)2
_chemical_formula_sum   'Rb10 Ti4 S12'
_cell_volume   951.48944433
_cell_formula_units_Z   2
loop_
 _symmetry_equiv_pos_site_id
 _symmetry_equiv_pos_as_xyz
  1  'x, y, z'
loop_
 _atom_site_type_symbol
 _atom_site_label
 _atom_site_symmetry_multiplicity
 _atom_site_fract_x
 _atom_site_fract_y
 _atom_site_fract_z
 _atom_site_occupancy
  Rb  Rb0  1  0.121878  0.801103  0.997431  1
  Rb  Rb1  1  0.878120  0.679205  0.502577  1
  Rb  Rb2  1  0.878122  0.198897  0.002569  1
  Rb  Rb3  1  0.121880  0.320795  0.497423  1
  Rb  Rb4  1  0.314639  0.075312  0.720764  1
  Rb  Rb5  1  0.685375  0.760725  0.779239  1
  Rb  Rb6  1  0.685361  0.924688  0.279236  1
  Rb  Rb7  1  0.314625  0.239275  0.220761  1
  Rb  Rb8  1  0.000017  0.381662  0.750003  1
  Rb  Rb9  1  0.999983  0.618338  0.249997  1
  Ti  Ti10  1  0.545072  0.916598  0.571168  1
  Ti  Ti11  1  0.454945  0.371540  0.928831  1
  Ti  Ti12  1  0.454928  0.083402  0.428832  1
  Ti  Ti13  1  0.545055  0.628460  0.071169  1
  S  S14  1  0.870297  0.995690  0.626111  1
  S  S15  1  0.129711  0.125494  0.873875  1
  S  S16  1  0.129703  0.004310  0.373889  1
  S  S17  1  0.870289  0.874506  0.126125  1
  S  S18  1  0.298690  0.707163  0.636352  1
  S  S19  1  0.701263  0.408405  0.863620  1
  S  S20  1  0.701310  0.292837  0.363648  1
  S  S21  1  0.298737  0.591595  0.136380  1
  S  S22  1  0.545890  0.196017  0.562350  1
  S  S23  1  0.454151  0.650149  0.937641  1
  S  S24  1  0.454110  0.803983  0.437650  1
  S  S25  1  0.545849  0.349851  0.062359  1
