# generated using pymatgen
data_YEr5(CI5)2
_symmetry_space_group_name_H-M   'P 1'
_cell_length_a   7.61880221
_cell_length_b   9.49142293
_cell_length_c   9.54653321
_cell_angle_alpha   106.83899839
_cell_angle_beta   96.28796622
_cell_angle_gamma   104.30628802
_symmetry_Int_Tables_number   1
_chemical_formula_structural   YEr5(CI5)2
_chemical_formula_sum   'Y1 Er5 C2 I10'
_cell_volume   627.92449545
_cell_formula_units_Z   1
loop_
 _symmetry_equiv_pos_site_id
 _symmetry_equiv_pos_as_xyz
  1  'x, y, z'
loop_
 _atom_site_type_symbol
 _atom_site_label
 _atom_site_symmetry_multiplicity
 _atom_site_fract_x
 _atom_site_fract_y
 _atom_site_fract_z
 _atom_site_occupancy
  Y  Y0  1  0.104258  0.038385  0.782567  1
  Er  Er1  1  0.372720  0.130812  0.176182  1
  Er  Er2  1  0.897361  0.962084  0.215843  1
  Er  Er3  1  0.028752  0.747227  0.926729  1
  Er  Er4  1  0.971499  0.252597  0.072739  1
  Er  Er5  1  0.627089  0.869062  0.823828  1
  C  C6  1  0.906697  0.969621  0.959767  1
  C  C7  1  0.091976  0.029753  0.042793  1
  I  I8  1  0.194574  0.736359  0.652301  1
  I  I9  1  0.085928  0.364352  0.824919  1
  I  I10  1  0.456544  0.811699  0.093305  1
  I  I11  1  0.253291  0.083653  0.454609  1
  I  I12  1  0.545751  0.189174  0.907735  1
  I  I13  1  0.806278  0.260691  0.346988  1
  I  I14  1  0.342389  0.448848  0.270787  1
  I  I15  1  0.913681  0.639294  0.176305  1
  I  I16  1  0.657649  0.551101  0.729235  1
  I  I17  1  0.743562  0.915289  0.543366  1
