# generated using pymatgen
data_Ca7HfMn2N9
_symmetry_space_group_name_H-M   'P 1'
_cell_length_a   10.02232400
_cell_length_b   6.11248566
_cell_length_c   9.05551879
_cell_angle_alpha   88.07996071
_cell_angle_beta   90.00000000
_cell_angle_gamma   90.00000000
_symmetry_Int_Tables_number   1
_chemical_formula_structural   Ca7HfMn2N9
_chemical_formula_sum   'Ca14 Hf2 Mn4 N18'
_cell_volume   554.44149849
_cell_formula_units_Z   2
loop_
 _symmetry_equiv_pos_site_id
 _symmetry_equiv_pos_as_xyz
  1  'x, y, z'
loop_
 _atom_site_type_symbol
 _atom_site_label
 _atom_site_symmetry_multiplicity
 _atom_site_fract_x
 _atom_site_fract_y
 _atom_site_fract_z
 _atom_site_occupancy
  Ca  Ca0  1  0.931131  0.429593  0.166288  1
  Ca  Ca1  1  0.081044  0.246724  0.496380  1
  Ca  Ca2  1  0.250000  0.090285  0.797545  1
  Ca  Ca3  1  0.431131  0.570407  0.833712  1
  Ca  Ca4  1  0.581044  0.753276  0.503620  1
  Ca  Ca5  1  0.578562  0.063908  0.825959  1
  Ca  Ca6  1  0.921438  0.063908  0.825959  1
  Ca  Ca7  1  0.421438  0.936092  0.174041  1
  Ca  Ca8  1  0.418956  0.246724  0.496380  1
  Ca  Ca9  1  0.078562  0.936092  0.174041  1
  Ca  Ca10  1  0.918956  0.753276  0.503620  1
  Ca  Ca11  1  0.068869  0.570407  0.833712  1
  Ca  Ca12  1  0.750000  0.909715  0.202455  1
  Ca  Ca13  1  0.568869  0.429593  0.166288  1
  Hf  Hf14  1  0.750000  0.275239  0.443975  1
  Hf  Hf15  1  0.250000  0.724761  0.556025  1
  Mn  Mn16  1  0.250000  0.322899  0.067544  1
  Mn  Mn17  1  0.750000  0.463144  0.729175  1
  Mn  Mn18  1  0.750000  0.677101  0.932456  1
  Mn  Mn19  1  0.250000  0.536856  0.270825  1
  N  N20  1  0.400441  0.230267  0.983632  1
  N  N21  1  0.250000  0.232044  0.267256  1
  N  N22  1  0.908152  0.110137  0.339282  1
  N  N23  1  0.608196  0.370645  0.636067  1
  N  N24  1  0.750000  0.562402  0.331325  1
  N  N25  1  0.250000  0.630134  0.074050  1
  N  N26  1  0.891804  0.370645  0.636067  1
  N  N27  1  0.391804  0.629355  0.363933  1
  N  N28  1  0.750000  0.369866  0.925950  1
  N  N29  1  0.091848  0.889863  0.660718  1
  N  N30  1  0.750000  0.767956  0.732744  1
  N  N31  1  0.108196  0.629355  0.363933  1
  N  N32  1  0.599559  0.769733  0.016368  1
  N  N33  1  0.250000  0.437598  0.668675  1
  N  N34  1  0.408152  0.889863  0.660718  1
  N  N35  1  0.591848  0.110137  0.339282  1
  N  N36  1  0.099559  0.230267  0.983632  1
  N  N37  1  0.900441  0.769733  0.016368  1
