# generated using pymatgen
data_Pr3Nd(AgAs2)4
_symmetry_space_group_name_H-M   'P 1'
_cell_length_a   4.07792100
_cell_length_b   4.11434521
_cell_length_c   21.43085608
_cell_angle_alpha   89.96358199
_cell_angle_beta   90.00000000
_cell_angle_gamma   90.00000000
_symmetry_Int_Tables_number   1
_chemical_formula_structural   Pr3Nd(AgAs2)4
_chemical_formula_sum   'Pr3 Nd1 Ag4 As8'
_cell_volume   359.56628903
_cell_formula_units_Z   1
loop_
 _symmetry_equiv_pos_site_id
 _symmetry_equiv_pos_as_xyz
  1  'x, y, z'
loop_
 _atom_site_type_symbol
 _atom_site_label
 _atom_site_symmetry_multiplicity
 _atom_site_fract_x
 _atom_site_fract_y
 _atom_site_fract_z
 _atom_site_occupancy
  Pr  Pr0  1  0.250000  0.727636  0.115644  1
  Pr  Pr1  1  0.750000  0.227531  0.384269  1
  Pr  Pr2  1  0.250000  0.772462  0.615719  1
  Nd  Nd3  1  0.750000  0.271888  0.884362  1
  Ag  Ag4  1  0.750000  0.726100  0.249851  1
  Ag  Ag5  1  0.250000  0.226128  0.250161  1
  Ag  Ag6  1  0.750000  0.773902  0.750038  1
  Ag  Ag7  1  0.250000  0.273935  0.750340  1
  As  As8  1  0.750000  0.226451  0.161335  1
  As  As9  1  0.250000  0.726464  0.338617  1
  As  As10  1  0.750000  0.273469  0.661348  1
  As  As11  1  0.250000  0.773420  0.839434  1
  As  As12  1  0.250000  0.201642  0.001087  1
  As  As13  1  0.750000  0.701091  0.498399  1
  As  As14  1  0.250000  0.298904  0.501563  1
  As  As15  1  0.750000  0.798975  0.997833  1
