# generated using pymatgen
data_Ho2Th(ZnPt)4
_symmetry_space_group_name_H-M   'P 1'
_cell_length_a   8.24222542
_cell_length_b   8.24222552
_cell_length_c   8.24222490
_cell_angle_alpha   151.49243228
_cell_angle_beta   126.20508082
_cell_angle_gamma   62.00260604
_symmetry_Int_Tables_number   1
_chemical_formula_structural   Ho2Th(ZnPt)4
_chemical_formula_sum   'Ho2 Th1 Zn4 Pt4'
_cell_volume   213.84033097
_cell_formula_units_Z   1
loop_
 _symmetry_equiv_pos_site_id
 _symmetry_equiv_pos_as_xyz
  1  'x, y, z'
loop_
 _atom_site_type_symbol
 _atom_site_label
 _atom_site_symmetry_multiplicity
 _atom_site_fract_x
 _atom_site_fract_y
 _atom_site_fract_z
 _atom_site_occupancy
  Ho  Ho0  1  0.874464  0.874464  0.000000  1
  Ho  Ho1  1  0.125536  0.125536  0.000000  1
  Th  Th2  1  0.500000  0.000000  0.500000  1
  Zn  Zn3  1  0.477549  0.675043  0.802506  1
  Zn  Zn4  1  0.872538  0.675043  0.197494  1
  Zn  Zn5  1  0.127462  0.324957  0.802506  1
  Zn  Zn6  1  0.522451  0.324957  0.197494  1
  Pt  Pt7  1  0.278696  0.778696  0.500000  1
  Pt  Pt8  1  0.721304  0.221304  0.500000  1
  Pt  Pt9  1  0.802551  0.500000  0.302551  1
  Pt  Pt10  1  0.197449  0.500000  0.697449  1
