# generated using pymatgen
data_Sm5Dy2FeI12
_symmetry_space_group_name_H-M   'P 1'
_cell_length_a   9.89038913
_cell_length_b   9.89087364
_cell_length_c   9.83546170
_cell_angle_alpha   106.98549319
_cell_angle_beta   106.81939206
_cell_angle_gamma   107.05170366
_symmetry_Int_Tables_number   1
_chemical_formula_structural   Sm5Dy2FeI12
_chemical_formula_sum   'Sm5 Dy2 Fe1 I12'
_cell_volume   802.32763066
_cell_formula_units_Z   1
loop_
 _symmetry_equiv_pos_site_id
 _symmetry_equiv_pos_as_xyz
  1  'x, y, z'
loop_
 _atom_site_type_symbol
 _atom_site_label
 _atom_site_symmetry_multiplicity
 _atom_site_fract_x
 _atom_site_fract_y
 _atom_site_fract_z
 _atom_site_occupancy
  Sm  Sm0  1  0.021846  0.091655  0.282299  1
  Sm  Sm1  1  0.296755  0.023187  0.094589  1
  Sm  Sm2  1  0.904399  0.702186  0.977817  1
  Sm  Sm3  1  0.978978  0.910956  0.718074  1
  Sm  Sm4  1  0.703781  0.978118  0.905551  1
  Dy  Dy5  1  0.500001  0.500358  0.499747  1
  Dy  Dy6  1  0.093442  0.291253  0.021634  1
  Fe  Fe7  1  0.000026  0.000603  0.000275  1
  I  I8  1  0.461614  0.388344  0.162536  1
  I  I9  1  0.164753  0.462958  0.384379  1
  I  I10  1  0.385931  0.165479  0.464562  1
  I  I11  1  0.534353  0.611602  0.835635  1
  I  I12  1  0.834884  0.536731  0.611481  1
  I  I13  1  0.614199  0.835000  0.535620  1
  I  I14  1  0.778003  0.321122  0.928609  1
  I  I15  1  0.928460  0.775449  0.320582  1
  I  I16  1  0.318728  0.926223  0.771043  1
  I  I17  1  0.225894  0.676992  0.072101  1
  I  I18  1  0.072583  0.227851  0.684426  1
  I  I19  1  0.681370  0.073932  0.229040  1
