# generated using pymatgen
data_Er8Si8Pt5Au3
_symmetry_space_group_name_H-M   'P 1'
_cell_length_a   4.29856900
_cell_length_b   7.49036728
_cell_length_c   14.08448142
_cell_angle_alpha   89.94130522
_cell_angle_beta   90.00000000
_cell_angle_gamma   90.00000000
_symmetry_Int_Tables_number   1
_chemical_formula_structural   Er8Si8Pt5Au3
_chemical_formula_sum   'Er8 Si8 Pt5 Au3'
_cell_volume   453.48993135
_cell_formula_units_Z   1
loop_
 _symmetry_equiv_pos_site_id
 _symmetry_equiv_pos_as_xyz
  1  'x, y, z'
loop_
 _atom_site_type_symbol
 _atom_site_label
 _atom_site_symmetry_multiplicity
 _atom_site_fract_x
 _atom_site_fract_y
 _atom_site_fract_z
 _atom_site_occupancy
  Er  Er0  1  0.000000  0.298555  0.002386  1
  Er  Er1  1  0.500000  0.705369  0.499575  1
  Er  Er2  1  0.000000  0.289880  0.498002  1
  Er  Er3  1  0.500000  0.706906  0.003571  1
  Er  Er4  1  0.000000  0.203710  0.247298  1
  Er  Er5  1  0.500000  0.795524  0.246655  1
  Er  Er6  1  0.000000  0.202883  0.748915  1
  Er  Er7  1  0.500000  0.798572  0.752562  1
  Si  Si8  1  0.000000  0.914535  0.591078  1
  Si  Si9  1  0.500000  0.084915  0.910711  1
  Si  Si10  1  0.000000  0.916642  0.408212  1
  Si  Si11  1  0.500000  0.092244  0.093829  1
  Si  Si12  1  0.000000  0.591303  0.145342  1
  Si  Si13  1  0.500000  0.399155  0.349197  1
  Si  Si14  1  0.000000  0.604306  0.858718  1
  Si  Si15  1  0.500000  0.397005  0.639690  1
  Pt  Pt16  1  0.500000  0.070385  0.608959  1
  Pt  Pt17  1  0.000000  0.929911  0.891714  1
  Pt  Pt18  1  0.500000  0.072250  0.390580  1
  Pt  Pt19  1  0.000000  0.924333  0.109037  1
  Pt  Pt20  1  0.500000  0.415937  0.154331  1
  Au  Au21  1  0.000000  0.584980  0.349154  1
  Au  Au22  1  0.500000  0.416785  0.845708  1
  Au  Au23  1  0.000000  0.583913  0.654774  1
