# generated using pymatgen
data_Er4Tm4Lu4Co5Sb
_symmetry_space_group_name_H-M   'P 1'
_cell_length_a   8.14434620
_cell_length_b   8.14434419
_cell_length_c   8.14434499
_cell_angle_alpha   110.76413262
_cell_angle_beta   111.06325899
_cell_angle_gamma   106.62341033
_symmetry_Int_Tables_number   1
_chemical_formula_structural   Er4Tm4Lu4Co5Sb
_chemical_formula_sum   'Er4 Tm4 Lu4 Co5 Sb1'
_cell_volume   415.09081182
_cell_formula_units_Z   1
loop_
 _symmetry_equiv_pos_site_id
 _symmetry_equiv_pos_as_xyz
  1  'x, y, z'
loop_
 _atom_site_type_symbol
 _atom_site_label
 _atom_site_symmetry_multiplicity
 _atom_site_fract_x
 _atom_site_fract_y
 _atom_site_fract_z
 _atom_site_occupancy
  Er  Er0  1  0.212706  0.407473  0.194767  1
  Er  Er1  1  0.787294  0.592527  0.805233  1
  Er  Er2  1  0.212706  0.017940  0.805233  1
  Er  Er3  1  0.787294  0.982060  0.194767  1
  Tm  Tm4  1  0.286783  0.184047  0.470830  1
  Tm  Tm5  1  0.713217  0.815953  0.529170  1
  Tm  Tm6  1  0.286783  0.815953  0.102736  1
  Tm  Tm7  1  0.713217  0.184047  0.897264  1
  Lu  Lu8  1  0.622810  0.313901  0.308909  1
  Lu  Lu9  1  0.377190  0.686099  0.691091  1
  Lu  Lu10  1  0.004994  0.313901  0.691091  1
  Lu  Lu11  1  0.995006  0.686099  0.308909  1
  Co  Co12  1  0.000000  0.372855  0.372855  1
  Co  Co13  1  0.000000  0.627145  0.627145  1
  Co  Co14  1  0.387060  0.887060  0.500000  1
  Co  Co15  1  0.612940  0.112940  0.500000  1
  Co  Co16  1  0.000000  0.000000  0.000000  1
  Sb  Sb17  1  0.500000  0.500000  0.000000  1
