# generated using pymatgen
data_La15Nd(DySn4)4
_symmetry_space_group_name_H-M   'P 1'
_cell_length_a   8.41440038
_cell_length_b   8.52722221
_cell_length_c   16.19520449
_cell_angle_alpha   90.03994019
_cell_angle_beta   89.95094437
_cell_angle_gamma   90.09072369
_symmetry_Int_Tables_number   1
_chemical_formula_structural   La15Nd(DySn4)4
_chemical_formula_sum   'La15 Nd1 Dy4 Sn16'
_cell_volume   1162.02743171
_cell_formula_units_Z   1
loop_
 _symmetry_equiv_pos_site_id
 _symmetry_equiv_pos_as_xyz
  1  'x, y, z'
loop_
 _atom_site_type_symbol
 _atom_site_label
 _atom_site_symmetry_multiplicity
 _atom_site_fract_x
 _atom_site_fract_y
 _atom_site_fract_z
 _atom_site_occupancy
  La  La0  1  0.868228  0.661436  0.620061  1
  La  La1  1  0.631759  0.161429  0.380077  1
  La  La2  1  0.131871  0.338392  0.119795  1
  La  La3  1  0.631897  0.161575  0.119957  1
  La  La4  1  0.131762  0.338452  0.380068  1
  La  La5  1  0.368373  0.838537  0.620082  1
  La  La6  1  0.868382  0.661586  0.879968  1
  La  La7  1  0.520294  0.318924  0.901726  1
  La  La8  1  0.020390  0.181010  0.598317  1
  La  La9  1  0.479635  0.680971  0.401795  1
  La  La10  1  0.979660  0.818920  0.098190  1
  La  La11  1  0.479657  0.680934  0.098128  1
  La  La12  1  0.979635  0.818985  0.401797  1
  La  La13  1  0.520317  0.319020  0.598343  1
  La  La14  1  0.020422  0.180921  0.901747  1
  Nd  Nd15  1  0.367299  0.839041  0.879496  1
  Dy  Dy16  1  0.201071  0.501531  0.750278  1
  Dy  Dy17  1  0.700357  0.998733  0.750166  1
  Dy  Dy18  1  0.799193  0.498966  0.250012  1
  Dy  Dy19  1  0.299093  0.000955  0.249971  1
  Sn  Sn20  1  0.290997  0.032160  0.044185  1
  Sn  Sn21  1  0.790877  0.467118  0.454851  1
  Sn  Sn22  1  0.709352  0.967099  0.545260  1
  Sn  Sn23  1  0.210457  0.534630  0.954628  1
  Sn  Sn24  1  0.707210  0.966307  0.954497  1
  Sn  Sn25  1  0.209238  0.532848  0.545185  1
  Sn  Sn26  1  0.290759  0.032869  0.454829  1
  Sn  Sn27  1  0.791045  0.467100  0.045212  1
  Sn  Sn28  1  0.564285  0.615878  0.750388  1
  Sn  Sn29  1  0.066035  0.885098  0.750523  1
  Sn  Sn30  1  0.435205  0.384904  0.249996  1
  Sn  Sn31  1  0.935260  0.115103  0.249989  1
  Sn  Sn32  1  0.325301  0.146524  0.750463  1
  Sn  Sn33  1  0.825435  0.352003  0.750062  1
  Sn  Sn34  1  0.674661  0.852035  0.249973  1
  Sn  Sn35  1  0.174590  0.648007  0.249983  1
