# generated using pymatgen
data_Er18Tm2IrRh11
_symmetry_space_group_name_H-M   'P 1'
_cell_length_a   10.81785301
_cell_length_b   10.81785197
_cell_length_c   6.31837300
_cell_angle_alpha   90.00289714
_cell_angle_beta   90.00289714
_cell_angle_gamma   90.09839661
_symmetry_Int_Tables_number   1
_chemical_formula_structural   Er18Tm2IrRh11
_chemical_formula_sum   'Er18 Tm2 Ir1 Rh11'
_cell_volume   739.41239993
_cell_formula_units_Z   1
loop_
 _symmetry_equiv_pos_site_id
 _symmetry_equiv_pos_as_xyz
  1  'x, y, z'
loop_
 _atom_site_type_symbol
 _atom_site_label
 _atom_site_symmetry_multiplicity
 _atom_site_fract_x
 _atom_site_fract_y
 _atom_site_fract_z
 _atom_site_occupancy
  Er  Er0  1  0.290869  0.088437  0.379807  1
  Er  Er1  1  0.291291  0.909442  0.879806  1
  Er  Er2  1  0.708559  0.088202  0.879366  1
  Er  Er3  1  0.708150  0.910991  0.378998  1
  Er  Er4  1  0.586337  0.789880  0.879299  1
  Er  Er5  1  0.588551  0.209180  0.380039  1
  Er  Er6  1  0.410850  0.790038  0.380732  1
  Er  Er7  1  0.411005  0.208683  0.878995  1
  Er  Er8  1  0.210120  0.413663  0.620701  1
  Er  Er9  1  0.209962  0.589150  0.119268  1
  Er  Er10  1  0.790820  0.411449  0.119961  1
  Er  Er11  1  0.791317  0.588995  0.621005  1
  Er  Er12  1  0.911563  0.709131  0.120193  1
  Er  Er13  1  0.911798  0.291441  0.620634  1
  Er  Er14  1  0.090558  0.708709  0.620194  1
  Er  Er15  1  0.089009  0.291850  0.121002  1
  Er  Er16  1  0.999192  0.999899  0.500183  1
  Er  Er17  1  0.000101  0.000808  0.999817  1
  Tm  Tm18  1  0.499784  0.499402  0.000138  1
  Tm  Tm19  1  0.500598  0.500216  0.499862  1
  Ir  Ir20  1  0.347157  0.652843  0.750000  1
  Rh  Rh21  1  0.845809  0.154191  0.250000  1
  Rh  Rh22  1  0.845092  0.846209  0.750671  1
  Rh  Rh23  1  0.153791  0.154908  0.749329  1
  Rh  Rh24  1  0.153098  0.846902  0.250000  1
  Rh  Rh25  1  0.653468  0.346532  0.750000  1
  Rh  Rh26  1  0.654671  0.652852  0.249543  1
  Rh  Rh27  1  0.347148  0.345329  0.250457  1
  Rh  Rh28  1  0.499910  0.000345  0.127458  1
  Rh  Rh29  1  0.500097  0.000329  0.626620  1
  Rh  Rh30  1  0.999671  0.499903  0.873380  1
  Rh  Rh31  1  0.999655  0.500090  0.372542  1
