# generated using pymatgen
data_Er5Tm2P12Ir17
_symmetry_space_group_name_H-M   'P 1'
_cell_length_a   12.69558000
_cell_length_b   12.98150297
_cell_length_c   3.96957100
_cell_angle_alpha   90.00000000
_cell_angle_beta   90.00000000
_cell_angle_gamma   119.27404102
_symmetry_Int_Tables_number   1
_chemical_formula_structural   Er5Tm2P12Ir17
_chemical_formula_sum   'Er5 Tm2 P12 Ir17'
_cell_volume   570.66658438
_cell_formula_units_Z   1
loop_
 _symmetry_equiv_pos_site_id
 _symmetry_equiv_pos_as_xyz
  1  'x, y, z'
loop_
 _atom_site_type_symbol
 _atom_site_label
 _atom_site_symmetry_multiplicity
 _atom_site_fract_x
 _atom_site_fract_y
 _atom_site_fract_z
 _atom_site_occupancy
  Er  Er0  1  0.329960  0.661878  0.500000  1
  Er  Er1  1  0.668084  0.338122  0.500000  1
  Er  Er2  1  0.002401  0.816508  0.000000  1
  Er  Er3  1  0.185893  0.183492  0.000000  1
  Er  Er4  1  0.810706  0.000000  0.000000  1
  Tm  Tm5  1  0.995974  0.443911  0.500000  1
  Tm  Tm6  1  0.552062  0.556089  0.500000  1
  P  P7  1  0.009704  0.658406  0.500000  1
  P  P8  1  0.351299  0.341594  0.500000  1
  P  P9  1  0.644718  0.000000  0.500000  1
  P  P10  1  0.516068  0.690533  0.000000  1
  P  P11  1  0.309274  0.824127  0.000000  1
  P  P12  1  0.166856  0.480977  0.000000  1
  P  P13  1  0.485146  0.175873  0.000000  1
  P  P14  1  0.685880  0.519023  0.000000  1
  P  P15  1  0.825535  0.309467  0.000000  1
  P  P16  1  0.999400  0.174306  0.500000  1
  P  P17  1  0.825094  0.825694  0.500000  1
  P  P18  1  0.181374  0.000000  0.500000  1
  Ir  Ir19  1  0.503990  0.865528  0.000000  1
  Ir  Ir20  1  0.122111  0.645294  0.000000  1
  Ir  Ir21  1  0.357662  0.501971  0.000000  1
  Ir  Ir22  1  0.476818  0.354706  0.000000  1
  Ir  Ir23  1  0.855692  0.498029  0.000000  1
  Ir  Ir24  1  0.638462  0.134472  0.000000  1
  Ir  Ir25  1  0.465140  0.000000  0.500000  1
  Ir  Ir26  1  0.996432  0.271866  0.000000  1
  Ir  Ir27  1  0.724566  0.728134  0.000000  1
  Ir  Ir28  1  0.286729  0.000000  0.000000  1
  Ir  Ir29  1  0.624302  0.810980  0.500000  1
  Ir  Ir30  1  0.208445  0.828356  0.500000  1
  Ir  Ir31  1  0.180632  0.363958  0.500000  1
  Ir  Ir32  1  0.380089  0.171644  0.500000  1
  Ir  Ir33  1  0.816674  0.636042  0.500000  1
  Ir  Ir34  1  0.813321  0.189020  0.500000  1
  Ir  Ir35  1  0.003506  0.000000  0.500000  1
