# generated using pymatgen
data_Sc2MoP7Ir2Ru9
_symmetry_space_group_name_H-M   'P 1'
_cell_length_a   9.34131183
_cell_length_b   9.46884744
_cell_length_c   3.92470000
_cell_angle_alpha   90.00000000
_cell_angle_beta   90.00000000
_cell_angle_gamma   120.10338932
_symmetry_Int_Tables_number   1
_chemical_formula_structural   Sc2MoP7Ir2Ru9
_chemical_formula_sum   'Sc2 Mo1 P7 Ir2 Ru9'
_cell_volume   300.32306418
_cell_formula_units_Z   1
loop_
 _symmetry_equiv_pos_site_id
 _symmetry_equiv_pos_as_xyz
  1  'x, y, z'
loop_
 _atom_site_type_symbol
 _atom_site_label
 _atom_site_symmetry_multiplicity
 _atom_site_fract_x
 _atom_site_fract_y
 _atom_site_fract_z
 _atom_site_occupancy
  Sc  Sc0  1  0.666767  0.330338  0.500000  1
  Sc  Sc1  1  0.329982  0.663917  0.000000  1
  Mo  Mo2  1  0.905404  0.119612  0.500000  1
  P  P3  1  0.596492  0.715513  0.500000  1
  P  P4  1  0.001053  0.003117  0.000000  1
  P  P5  1  0.276076  0.877737  0.500000  1
  P  P6  1  0.116004  0.404757  0.500000  1
  P  P7  1  0.883390  0.577058  0.000000  1
  P  P8  1  0.428765  0.302344  0.000000  1
  P  P9  1  0.703798  0.123629  0.000000  1
  Ir  Ir10  1  0.544994  0.934839  0.500000  1
  Ir  Ir11  1  0.390809  0.449688  0.500000  1
  Ru  Ru12  1  0.216762  0.090419  0.500000  1
  Ru  Ru13  1  0.873315  0.789166  0.500000  1
  Ru  Ru14  1  0.723780  0.888167  0.000000  1
  Ru  Ru15  1  0.110478  0.840410  0.000000  1
  Ru  Ru16  1  0.169138  0.274212  0.000000  1
  Ru  Ru17  1  0.435165  0.067300  0.000000  1
  Ru  Ru18  1  0.938505  0.368329  0.000000  1
  Ru  Ru19  1  0.637663  0.568039  0.000000  1
  Ru  Ru20  1  0.051658  0.611410  0.500000  1
