# generated using pymatgen
data_HgPt4PbSe6
_symmetry_space_group_name_H-M   'P 1'
_cell_length_a   7.56892000
_cell_length_b   7.56891963
_cell_length_c   5.73067200
_cell_angle_alpha   90.00000000
_cell_angle_beta   90.00000000
_cell_angle_gamma   120.00001034
_symmetry_Int_Tables_number   1
_chemical_formula_structural   HgPt4PbSe6
_chemical_formula_sum   'Hg1 Pt4 Pb1 Se6'
_cell_volume   284.31773283
_cell_formula_units_Z   1
loop_
 _symmetry_equiv_pos_site_id
 _symmetry_equiv_pos_as_xyz
  1  'x, y, z'
loop_
 _atom_site_type_symbol
 _atom_site_label
 _atom_site_symmetry_multiplicity
 _atom_site_fract_x
 _atom_site_fract_y
 _atom_site_fract_z
 _atom_site_occupancy
  Hg  Hg0  1  0.666667  0.333333  0.357997  1
  Pt  Pt1  1  0.000000  0.000000  0.999781  1
  Pt  Pt2  1  0.502311  0.497689  0.996716  1
  Pt  Pt3  1  0.995378  0.497689  0.996716  1
  Pt  Pt4  1  0.502311  0.004622  0.996716  1
  Pb  Pb5  1  0.333333  0.666667  0.679556  1
  Se  Se6  1  0.830802  0.661605  0.776443  1
  Se  Se7  1  0.830802  0.169198  0.776443  1
  Se  Se8  1  0.338395  0.169198  0.776443  1
  Se  Se9  1  0.171101  0.342203  0.214397  1
  Se  Se10  1  0.171101  0.828899  0.214397  1
  Se  Se11  1  0.657797  0.828899  0.214397  1
