# generated using pymatgen
data_V17Si13Os2
_symmetry_space_group_name_H-M   'P 1'
_cell_length_a   7.04219139
_cell_length_b   7.04219176
_cell_length_c   13.26381400
_cell_angle_alpha   90.00000000
_cell_angle_beta   90.00000000
_cell_angle_gamma   140.59554563
_symmetry_Int_Tables_number   1
_chemical_formula_structural   V17Si13Os2
_chemical_formula_sum   'V17 Si13 Os2'
_cell_volume   417.55584863
_cell_formula_units_Z   1
loop_
 _symmetry_equiv_pos_site_id
 _symmetry_equiv_pos_as_xyz
  1  'x, y, z'
loop_
 _atom_site_type_symbol
 _atom_site_label
 _atom_site_symmetry_multiplicity
 _atom_site_fract_x
 _atom_site_fract_y
 _atom_site_fract_z
 _atom_site_occupancy
  V  V0  1  0.069585  0.419750  0.399812  1
  V  V1  1  0.582142  0.935097  0.898966  1
  V  V2  1  0.419750  0.069585  0.600188  1
  V  V3  1  0.935097  0.582142  0.101034  1
  V  V4  1  0.851487  0.649798  0.675113  1
  V  V5  1  0.347330  0.145299  0.176194  1
  V  V6  1  0.649798  0.851487  0.324887  1
  V  V7  1  0.145299  0.347330  0.823806  1
  V  V8  1  0.649798  0.851487  0.675113  1
  V  V9  1  0.145299  0.347330  0.176194  1
  V  V10  1  0.851487  0.649798  0.324887  1
  V  V11  1  0.347330  0.145299  0.823806  1
  V  V12  1  0.419750  0.069585  0.399812  1
  V  V13  1  0.935097  0.582142  0.898966  1
  V  V14  1  0.069585  0.419750  0.600188  1
  V  V15  1  0.582142  0.935097  0.101034  1
  V  V16  1  0.998054  0.998054  0.500000  1
  Si  Si17  1  0.001935  0.001935  0.000000  1
  Si  Si18  1  0.251428  0.748677  0.749556  1
  Si  Si19  1  0.748677  0.251428  0.250444  1
  Si  Si20  1  0.748677  0.251428  0.749556  1
  Si  Si21  1  0.251428  0.748677  0.250444  1
  Si  Si22  1  0.240729  0.240729  0.667774  1
  Si  Si23  1  0.754544  0.754544  0.167776  1
  Si  Si24  1  0.240729  0.240729  0.332226  1
  Si  Si25  1  0.754544  0.754544  0.832224  1
  Si  Si26  1  0.584089  0.919125  0.500000  1
  Si  Si27  1  0.085761  0.420501  0.000000  1
  Si  Si28  1  0.919125  0.584089  0.500000  1
  Si  Si29  1  0.420501  0.085761  0.000000  1
  Os  Os30  1  0.501901  0.501901  0.000000  1
  Os  Os31  1  0.496901  0.496901  0.500000  1
