# generated using pymatgen
data_Tb2Sm2TmSn4
_symmetry_space_group_name_H-M   'P 1'
_cell_length_a   8.07218800
_cell_length_b   8.23403100
_cell_length_c   15.57762500
_cell_angle_alpha   90.00000000
_cell_angle_beta   90.00000000
_cell_angle_gamma   90.00000000
_symmetry_Int_Tables_number   1
_chemical_formula_structural   Tb2Sm2TmSn4
_chemical_formula_sum   'Tb8 Sm8 Tm4 Sn16'
_cell_volume   1035.39248998
_cell_formula_units_Z   4
loop_
 _symmetry_equiv_pos_site_id
 _symmetry_equiv_pos_as_xyz
  1  'x, y, z'
loop_
 _atom_site_type_symbol
 _atom_site_label
 _atom_site_symmetry_multiplicity
 _atom_site_fract_x
 _atom_site_fract_y
 _atom_site_fract_z
 _atom_site_occupancy
  Tb  Tb0  1  0.365889  0.835632  0.877808  1
  Tb  Tb1  1  0.865889  0.664368  0.622192  1
  Tb  Tb2  1  0.634111  0.164368  0.377808  1
  Tb  Tb3  1  0.134111  0.335632  0.122192  1
  Tb  Tb4  1  0.634111  0.164368  0.122192  1
  Tb  Tb5  1  0.134111  0.335632  0.377808  1
  Tb  Tb6  1  0.365889  0.835632  0.622192  1
  Tb  Tb7  1  0.865889  0.664368  0.877808  1
  Sm  Sm8  1  0.519034  0.320815  0.902323  1
  Sm  Sm9  1  0.019034  0.179185  0.597677  1
  Sm  Sm10  1  0.480966  0.679185  0.402323  1
  Sm  Sm11  1  0.980966  0.820815  0.097677  1
  Sm  Sm12  1  0.480966  0.679185  0.097677  1
  Sm  Sm13  1  0.980966  0.820815  0.402323  1
  Sm  Sm14  1  0.519034  0.320815  0.597677  1
  Sm  Sm15  1  0.019034  0.179185  0.902323  1
  Tm  Tm16  1  0.197780  0.503316  0.750000  1
  Tm  Tm17  1  0.697780  0.996684  0.750000  1
  Tm  Tm18  1  0.802220  0.496684  0.250000  1
  Tm  Tm19  1  0.302220  0.003316  0.250000  1
  Sn  Sn20  1  0.296622  0.037428  0.042179  1
  Sn  Sn21  1  0.796622  0.462572  0.457821  1
  Sn  Sn22  1  0.703378  0.962572  0.542179  1
  Sn  Sn23  1  0.203378  0.537428  0.957821  1
  Sn  Sn24  1  0.703378  0.962572  0.957821  1
  Sn  Sn25  1  0.203378  0.537428  0.542179  1
  Sn  Sn26  1  0.296622  0.037428  0.457821  1
  Sn  Sn27  1  0.796622  0.462572  0.042179  1
  Sn  Sn28  1  0.563779  0.621336  0.750000  1
  Sn  Sn29  1  0.063779  0.878664  0.750000  1
  Sn  Sn30  1  0.436221  0.378664  0.250000  1
  Sn  Sn31  1  0.936221  0.121336  0.250000  1
  Sn  Sn32  1  0.327329  0.145257  0.750000  1
  Sn  Sn33  1  0.827329  0.354743  0.750000  1
  Sn  Sn34  1  0.672671  0.854743  0.250000  1
  Sn  Sn35  1  0.172671  0.645257  0.250000  1
