# generated using pymatgen
data_Sm2Bi2Os2O11
_symmetry_space_group_name_H-M   'P 1'
_cell_length_a   6.63409777
_cell_length_b   7.58353979
_cell_length_c   9.82131120
_cell_angle_alpha   101.14611391
_cell_angle_beta   91.53548911
_cell_angle_gamma   89.99429844
_symmetry_Int_Tables_number   1
_chemical_formula_structural   Sm2Bi2Os2O11
_chemical_formula_sum   'Sm4 Bi4 Os4 O22'
_cell_volume   484.60884653
_cell_formula_units_Z   2
loop_
 _symmetry_equiv_pos_site_id
 _symmetry_equiv_pos_as_xyz
  1  'x, y, z'
loop_
 _atom_site_type_symbol
 _atom_site_label
 _atom_site_symmetry_multiplicity
 _atom_site_fract_x
 _atom_site_fract_y
 _atom_site_fract_z
 _atom_site_occupancy
  Sm  Sm0  1  0.748413  0.369098  0.481629  1
  Sm  Sm1  1  0.251587  0.630902  0.518371  1
  Sm  Sm2  1  0.756020  0.872315  0.486526  1
  Sm  Sm3  1  0.243980  0.127685  0.513474  1
  Bi  Bi4  1  0.460381  0.955528  0.820252  1
  Bi  Bi5  1  0.539619  0.044472  0.179748  1
  Bi  Bi6  1  0.410736  0.455313  0.825231  1
  Bi  Bi7  1  0.589264  0.544687  0.174769  1
  Os  Os8  1  0.932518  0.701786  0.809698  1
  Os  Os9  1  0.067482  0.298214  0.190302  1
  Os  Os10  1  0.933324  0.202443  0.809585  1
  Os  Os11  1  0.066676  0.797557  0.190415  1
  O  O12  1  0.226530  0.718150  0.763052  1
  O  O13  1  0.773470  0.281850  0.236948  1
  O  O14  1  0.637266  0.680375  0.834286  1
  O  O15  1  0.362734  0.319625  0.165714  1
  O  O16  1  0.637946  0.236437  0.834733  1
  O  O17  1  0.362054  0.763563  0.165267  1
  O  O18  1  0.895750  0.157936  0.597742  1
  O  O19  1  0.104250  0.842064  0.402258  1
  O  O20  1  0.225615  0.161697  0.760713  1
  O  O21  1  0.774385  0.838303  0.239287  1
  O  O22  1  0.898451  0.640695  0.599724  1
  O  O23  1  0.101549  0.359305  0.400276  1
  O  O24  1  0.025260  0.547204  0.187883  1
  O  O25  1  0.974740  0.452796  0.812117  1
  O  O26  1  0.998793  0.769189  0.000506  1
  O  O27  1  0.001207  0.230811  0.999494  1
  O  O28  1  0.567116  0.599771  0.394749  1
  O  O29  1  0.432884  0.400229  0.605251  1
  O  O30  1  0.136324  0.053274  0.212119  1
  O  O31  1  0.863676  0.946726  0.787881  1
  O  O32  1  0.544789  0.099703  0.399012  1
  O  O33  1  0.455211  0.900297  0.600988  1
