# generated using pymatgen
data_Nd2Tm3(Ni2Sn5)2
_symmetry_space_group_name_H-M   'P 1'
_cell_length_a   13.84641000
_cell_length_b   13.84641000
_cell_length_c   4.47031300
_cell_angle_alpha   90.00000000
_cell_angle_beta   90.00000000
_cell_angle_gamma   90.00000000
_symmetry_Int_Tables_number   1
_chemical_formula_structural   Nd2Tm3(Ni2Sn5)2
_chemical_formula_sum   'Nd4 Tm6 Ni8 Sn20'
_cell_volume   857.06213172
_cell_formula_units_Z   2
loop_
 _symmetry_equiv_pos_site_id
 _symmetry_equiv_pos_as_xyz
  1  'x, y, z'
loop_
 _atom_site_type_symbol
 _atom_site_label
 _atom_site_symmetry_multiplicity
 _atom_site_fract_x
 _atom_site_fract_y
 _atom_site_fract_z
 _atom_site_occupancy
  Nd  Nd0  1  0.891339  0.608661  0.500000  1
  Nd  Nd1  1  0.108661  0.391339  0.500000  1
  Nd  Nd2  1  0.391339  0.891339  0.500000  1
  Nd  Nd3  1  0.608661  0.108661  0.500000  1
  Tm  Tm4  1  0.000000  0.000000  0.000000  1
  Tm  Tm5  1  0.500000  0.500000  0.000000  1
  Tm  Tm6  1  0.180145  0.680145  0.500000  1
  Tm  Tm7  1  0.819855  0.319855  0.500000  1
  Tm  Tm8  1  0.680145  0.819855  0.500000  1
  Tm  Tm9  1  0.319855  0.180145  0.500000  1
  Ni  Ni10  1  0.256977  0.535189  0.000000  1
  Ni  Ni11  1  0.743023  0.464811  0.000000  1
  Ni  Ni12  1  0.756977  0.964811  0.000000  1
  Ni  Ni13  1  0.243023  0.035189  0.000000  1
  Ni  Ni14  1  0.464811  0.256977  0.000000  1
  Ni  Ni15  1  0.535189  0.743023  0.000000  1
  Ni  Ni16  1  0.035189  0.756977  0.000000  1
  Ni  Ni17  1  0.964811  0.243023  0.000000  1
  Sn  Sn18  1  0.350299  0.700390  0.000000  1
  Sn  Sn19  1  0.649701  0.299610  0.000000  1
  Sn  Sn20  1  0.850299  0.799610  0.000000  1
  Sn  Sn21  1  0.149701  0.200390  0.000000  1
  Sn  Sn22  1  0.299610  0.350299  0.000000  1
  Sn  Sn23  1  0.700390  0.649701  0.000000  1
  Sn  Sn24  1  0.200390  0.850299  0.000000  1
  Sn  Sn25  1  0.799610  0.149701  0.000000  1
  Sn  Sn26  1  0.336926  0.511219  0.500000  1
  Sn  Sn27  1  0.663074  0.488781  0.500000  1
  Sn  Sn28  1  0.836926  0.988781  0.500000  1
  Sn  Sn29  1  0.163074  0.011219  0.500000  1
  Sn  Sn30  1  0.488781  0.336926  0.500000  1
  Sn  Sn31  1  0.511219  0.663074  0.500000  1
  Sn  Sn32  1  0.011219  0.836926  0.500000  1
  Sn  Sn33  1  0.988781  0.163074  0.500000  1
  Sn  Sn34  1  0.073076  0.573076  0.000000  1
  Sn  Sn35  1  0.926924  0.426924  0.000000  1
  Sn  Sn36  1  0.573076  0.926924  0.000000  1
  Sn  Sn37  1  0.426924  0.073076  0.000000  1
