# generated using pymatgen
data_Ac2Tm(MgPt)3
_symmetry_space_group_name_H-M   'P 1'
_cell_length_a   7.77018600
_cell_length_b   7.66080367
_cell_length_c   4.23316900
_cell_angle_alpha   90.00000000
_cell_angle_beta   90.00000000
_cell_angle_gamma   119.53541664
_symmetry_Int_Tables_number   1
_chemical_formula_structural   Ac2Tm(MgPt)3
_chemical_formula_sum   'Ac2 Tm1 Mg3 Pt3'
_cell_volume   219.23815420
_cell_formula_units_Z   1
loop_
 _symmetry_equiv_pos_site_id
 _symmetry_equiv_pos_as_xyz
  1  'x, y, z'
loop_
 _atom_site_type_symbol
 _atom_site_label
 _atom_site_symmetry_multiplicity
 _atom_site_fract_x
 _atom_site_fract_y
 _atom_site_fract_z
 _atom_site_occupancy
  Ac  Ac0  1  0.582493  0.584038  0.000000  1
  Ac  Ac1  1  0.417507  0.001545  0.000000  1
  Tm  Tm2  1  0.000000  0.403306  0.000000  1
  Mg  Mg3  1  0.000000  0.755273  0.500000  1
  Mg  Mg4  1  0.224839  0.238410  0.500000  1
  Mg  Mg5  1  0.775161  0.013571  0.500000  1
  Pt  Pt6  1  0.000000  0.014045  0.000000  1
  Pt  Pt7  1  0.307214  0.648513  0.500000  1
  Pt  Pt8  1  0.692786  0.341298  0.500000  1
