# generated using pymatgen
data_Sc4Al6ReRh
_symmetry_space_group_name_H-M   'P 1'
_cell_length_a   5.30186200
_cell_length_b   5.30186234
_cell_length_c   8.61297400
_cell_angle_alpha   90.00000000
_cell_angle_beta   90.00000000
_cell_angle_gamma   120.00001033
_symmetry_Int_Tables_number   1
_chemical_formula_structural   Sc4Al6ReRh
_chemical_formula_sum   'Sc4 Al6 Re1 Rh1'
_cell_volume   209.67207341
_cell_formula_units_Z   1
loop_
 _symmetry_equiv_pos_site_id
 _symmetry_equiv_pos_as_xyz
  1  'x, y, z'
loop_
 _atom_site_type_symbol
 _atom_site_label
 _atom_site_symmetry_multiplicity
 _atom_site_fract_x
 _atom_site_fract_y
 _atom_site_fract_z
 _atom_site_occupancy
  Sc  Sc0  1  0.333333  0.666667  0.056681  1
  Sc  Sc1  1  0.666667  0.333333  0.552683  1
  Sc  Sc2  1  0.333333  0.666667  0.447317  1
  Sc  Sc3  1  0.666667  0.333333  0.943319  1
  Al  Al4  1  0.834620  0.669238  0.252499  1
  Al  Al5  1  0.165380  0.834620  0.747501  1
  Al  Al6  1  0.669238  0.834620  0.747501  1
  Al  Al7  1  0.330762  0.165380  0.252499  1
  Al  Al8  1  0.834620  0.165380  0.252499  1
  Al  Al9  1  0.165380  0.330762  0.747501  1
  Re  Re10  1  0.000000  0.000000  0.000000  1
  Rh  Rh11  1  0.000000  0.000000  0.500000  1
