# generated using pymatgen
data_Ac11SmNi12
_symmetry_space_group_name_H-M   'P 1'
_cell_length_a   4.09521900
_cell_length_b   12.13385500
_cell_length_c   12.28742111
_cell_angle_alpha   89.32999634
_cell_angle_beta   90.00000000
_cell_angle_gamma   90.00000000
_symmetry_Int_Tables_number   1
_chemical_formula_structural   Ac11SmNi12
_chemical_formula_sum   'Ac11 Sm1 Ni12'
_cell_volume   610.52995977
_cell_formula_units_Z   1
loop_
 _symmetry_equiv_pos_site_id
 _symmetry_equiv_pos_as_xyz
  1  'x, y, z'
loop_
 _atom_site_type_symbol
 _atom_site_label
 _atom_site_symmetry_multiplicity
 _atom_site_fract_x
 _atom_site_fract_y
 _atom_site_fract_z
 _atom_site_occupancy
  Ac  Ac0  1  0.250000  0.371137  0.563696  1
  Ac  Ac1  1  0.750000  0.561213  0.120666  1
  Ac  Ac2  1  0.750000  0.186068  0.789146  1
  Ac  Ac3  1  0.250000  0.684827  0.705468  1
  Ac  Ac4  1  0.750000  0.629192  0.429404  1
  Ac  Ac5  1  0.750000  0.870239  0.928154  1
  Ac  Ac6  1  0.250000  0.823563  0.207198  1
  Ac  Ac7  1  0.250000  0.438859  0.883309  1
  Ac  Ac8  1  0.750000  0.300918  0.292621  1
  Ac  Ac9  1  0.250000  0.127970  0.069797  1
  Ac  Ac10  1  0.750000  0.938844  0.615624  1
  Sm  Sm11  1  0.250000  0.055445  0.388723  1
  Ni  Ni12  1  0.250000  0.484685  0.310139  1
  Ni  Ni13  1  0.250000  0.817879  0.466180  1
  Ni  Ni14  1  0.250000  0.685470  0.969173  1
  Ni  Ni15  1  0.750000  0.010069  0.212404  1
  Ni  Ni16  1  0.750000  0.505224  0.692836  1
  Ni  Ni17  1  0.250000  0.006950  0.801535  1
  Ni  Ni18  1  0.750000  0.180024  0.525048  1
  Ni  Ni19  1  0.750000  0.314233  0.033315  1
  Ni  Ni20  1  0.250000  0.124313  0.619307  1
  Ni  Ni21  1  0.750000  0.883178  0.374502  1
  Ni  Ni22  1  0.250000  0.374398  0.128585  1
  Ni  Ni23  1  0.750000  0.625299  0.873168  1
