# generated using pymatgen
data_LuZn2InIr2
_symmetry_space_group_name_H-M   'P 1'
_cell_length_a   5.22244767
_cell_length_b   5.22244771
_cell_length_c   5.11499400
_cell_angle_alpha   60.67831223
_cell_angle_beta   60.67831201
_cell_angle_gamma   65.52314304
_symmetry_Int_Tables_number   1
_chemical_formula_structural   LuZn2InIr2
_chemical_formula_sum   'Lu1 Zn2 In1 Ir2'
_cell_volume   103.21789112
_cell_formula_units_Z   1
loop_
 _symmetry_equiv_pos_site_id
 _symmetry_equiv_pos_as_xyz
  1  'x, y, z'
loop_
 _atom_site_type_symbol
 _atom_site_label
 _atom_site_symmetry_multiplicity
 _atom_site_fract_x
 _atom_site_fract_y
 _atom_site_fract_z
 _atom_site_occupancy
  Lu  Lu0  1  0.243404  0.243404  0.256596  1
  Zn  Zn1  1  0.625532  0.625532  0.620398  1
  Zn  Zn2  1  0.625532  0.625532  0.128539  1
  In  In3  1  0.003928  0.003928  0.996072  1
  Ir  Ir4  1  0.630617  0.120988  0.624197  1
  Ir  Ir5  1  0.120988  0.630617  0.624197  1
