# generated using pymatgen
data_NaLi3Ni9MoP7
_symmetry_space_group_name_H-M   'P 1'
_cell_length_a   9.12657640
_cell_length_b   9.08880437
_cell_length_c   3.63682600
_cell_angle_alpha   90.00000000
_cell_angle_beta   90.00000000
_cell_angle_gamma   119.78245080
_symmetry_Int_Tables_number   1
_chemical_formula_structural   NaLi3Ni9MoP7
_chemical_formula_sum   'Na1 Li3 Ni9 Mo1 P7'
_cell_volume   261.82775600
_cell_formula_units_Z   1
loop_
 _symmetry_equiv_pos_site_id
 _symmetry_equiv_pos_as_xyz
  1  'x, y, z'
loop_
 _atom_site_type_symbol
 _atom_site_label
 _atom_site_symmetry_multiplicity
 _atom_site_fract_x
 _atom_site_fract_y
 _atom_site_fract_z
 _atom_site_occupancy
  Na  Na0  1  0.333876  0.665494  0.000000  1
  Li  Li1  1  0.895625  0.119573  0.500000  1
  Li  Li2  1  0.220333  0.102370  0.500000  1
  Li  Li3  1  0.663395  0.331810  0.500000  1
  Ni  Ni4  1  0.715366  0.883852  0.000000  1
  Ni  Ni5  1  0.163184  0.280661  0.000000  1
  Ni  Ni6  1  0.125067  0.835999  0.000000  1
  Ni  Ni7  1  0.628192  0.566786  0.000000  1
  Ni  Ni8  1  0.938996  0.370139  0.000000  1
  Ni  Ni9  1  0.429985  0.058937  0.000000  1
  Ni  Ni10  1  0.566235  0.957261  0.500000  1
  Ni  Ni11  1  0.391026  0.434257  0.500000  1
  Ni  Ni12  1  0.048985  0.609020  0.500000  1
  Mo  Mo13  1  0.880577  0.785638  0.500000  1
  P  P14  1  0.590956  0.712005  0.500000  1
  P  P15  1  0.122925  0.409581  0.500000  1
  P  P16  1  0.289322  0.877326  0.500000  1
  P  P17  1  0.000255  0.997069  0.000000  1
  P  P18  1  0.879545  0.578835  0.000000  1
  P  P19  1  0.695770  0.123381  0.000000  1
  P  P20  1  0.420389  0.300006  0.000000  1
