# generated using pymatgen
data_Ta7Ti17P8H
_symmetry_space_group_name_H-M   'P 1'
_cell_length_a   5.05043467
_cell_length_b   9.97541052
_cell_length_c   9.96923651
_cell_angle_alpha   90.01181654
_cell_angle_beta   90.05767933
_cell_angle_gamma   90.01666398
_symmetry_Int_Tables_number   1
_chemical_formula_structural   Ta7Ti17P8H
_chemical_formula_sum   'Ta7 Ti17 P8 H1'
_cell_volume   502.25143588
_cell_formula_units_Z   1
loop_
 _symmetry_equiv_pos_site_id
 _symmetry_equiv_pos_as_xyz
  1  'x, y, z'
loop_
 _atom_site_type_symbol
 _atom_site_label
 _atom_site_symmetry_multiplicity
 _atom_site_fract_x
 _atom_site_fract_y
 _atom_site_fract_z
 _atom_site_occupancy
  Ta  Ta0  1  0.786523  0.394290  0.914205  1
  Ta  Ta1  1  0.786859  0.605845  0.086048  1
  Ta  Ta2  1  0.286941  0.586147  0.894912  1
  Ta  Ta3  1  0.286836  0.413606  0.105355  1
  Ta  Ta4  1  0.225581  0.109675  0.587610  1
  Ta  Ta5  1  0.227936  0.890244  0.413532  1
  Ta  Ta6  1  0.707611  0.911071  0.607750  1
  Ti  Ti7  1  0.707168  0.089640  0.390589  1
  Ti  Ti8  1  0.977559  0.027924  0.859088  1
  Ti  Ti9  1  0.978041  0.971567  0.141060  1
  Ti  Ti10  1  0.478336  0.642195  0.527619  1
  Ti  Ti11  1  0.476099  0.357853  0.472083  1
  Ti  Ti12  1  0.027182  0.472568  0.641623  1
  Ti  Ti13  1  0.027672  0.527431  0.358604  1
  Ti  Ti14  1  0.527016  0.858710  0.972108  1
  Ti  Ti15  1  0.527359  0.141375  0.028226  1
  Ti  Ti16  1  0.267392  0.283596  0.819644  1
  Ti  Ti17  1  0.268105  0.716283  0.180499  1
  Ti  Ti18  1  0.764446  0.680935  0.784733  1
  Ti  Ti19  1  0.765572  0.319420  0.215340  1
  Ti  Ti20  1  0.740907  0.216982  0.683519  1
  Ti  Ti21  1  0.742090  0.782983  0.317144  1
  Ti  Ti22  1  0.234691  0.817211  0.718512  1
  Ti  Ti23  1  0.237832  0.181888  0.282402  1
  P  P24  1  0.470906  0.039106  0.797583  1
  P  P25  1  0.472699  0.961583  0.203666  1
  P  P26  1  0.969925  0.703302  0.539019  1
  P  P27  1  0.966357  0.294952  0.459946  1
  P  P28  1  0.534314  0.461261  0.703324  1
  P  P29  1  0.534661  0.538653  0.296716  1
  P  P30  1  0.034540  0.796891  0.962006  1
  P  P31  1  0.034297  0.202585  0.039159  1
  H  H32  1  0.962145  0.002229  0.496373  1
