# generated using pymatgen
data_RbPr4Nd2IrBr12
_symmetry_space_group_name_H-M   'P 1'
_cell_length_a   9.71767330
_cell_length_b   9.57585397
_cell_length_c   9.59956601
_cell_angle_alpha   104.50190379
_cell_angle_beta   104.39979429
_cell_angle_gamma   104.65384862
_symmetry_Int_Tables_number   1
_chemical_formula_structural   RbPr4Nd2IrBr12
_chemical_formula_sum   'Rb1 Pr4 Nd2 Ir1 Br12'
_cell_volume   788.90136629
_cell_formula_units_Z   1
loop_
 _symmetry_equiv_pos_site_id
 _symmetry_equiv_pos_as_xyz
  1  'x, y, z'
loop_
 _atom_site_type_symbol
 _atom_site_label
 _atom_site_symmetry_multiplicity
 _atom_site_fract_x
 _atom_site_fract_y
 _atom_site_fract_z
 _atom_site_occupancy
  Rb  Rb0  1  0.500004  0.499952  0.499900  1
  Pr  Pr1  1  0.009904  0.100476  0.303865  1
  Pr  Pr2  1  0.990523  0.900177  0.696465  1
  Pr  Pr3  1  0.684515  0.990327  0.894909  1
  Pr  Pr4  1  0.899849  0.694813  0.989831  1
  Nd  Nd5  1  0.100621  0.303977  0.010861  1
  Nd  Nd6  1  0.313918  0.010232  0.104590  1
  Ir  Ir7  1  0.000495  0.000498  0.000342  1
  Br  Br8  1  0.214727  0.673243  0.074721  1
  Br  Br9  1  0.422307  0.332602  0.112602  1
  Br  Br10  1  0.672771  0.075161  0.215788  1
  Br  Br11  1  0.924907  0.783956  0.327320  1
  Br  Br12  1  0.115165  0.428187  0.333713  1
  Br  Br13  1  0.332848  0.113162  0.424658  1
  Br  Br14  1  0.667435  0.885907  0.573106  1
  Br  Br15  1  0.884901  0.571734  0.664225  1
  Br  Br16  1  0.075512  0.217202  0.674790  1
  Br  Br17  1  0.325981  0.924920  0.785855  1
  Br  Br18  1  0.575505  0.665636  0.886690  1
  Br  Br19  1  0.788117  0.327841  0.925774  1
