# generated using pymatgen
data_CaNp3F15
_symmetry_space_group_name_H-M   'P 1'
_cell_length_a   8.63539916
_cell_length_b   8.63539864
_cell_length_c   8.73463033
_cell_angle_alpha   79.23810827
_cell_angle_beta   79.23811048
_cell_angle_gamma   99.67549297
_symmetry_Int_Tables_number   1
_chemical_formula_structural   CaNp3F15
_chemical_formula_sum   'Ca2 Np6 F30'
_cell_volume   614.57819438
_cell_formula_units_Z   2
loop_
 _symmetry_equiv_pos_site_id
 _symmetry_equiv_pos_as_xyz
  1  'x, y, z'
loop_
 _atom_site_type_symbol
 _atom_site_label
 _atom_site_symmetry_multiplicity
 _atom_site_fract_x
 _atom_site_fract_y
 _atom_site_fract_z
 _atom_site_occupancy
  Ca  Ca0  1  0.174338  0.825662  0.250000  1
  Ca  Ca1  1  0.825662  0.174338  0.750000  1
  Np  Np2  1  0.749969  0.250031  0.250000  1
  Np  Np3  1  0.250031  0.749969  0.750000  1
  Np  Np4  1  0.755676  0.676615  0.674297  1
  Np  Np5  1  0.323385  0.244324  0.825703  1
  Np  Np6  1  0.244324  0.323385  0.325703  1
  Np  Np7  1  0.676615  0.755676  0.174297  1
  F  F8  1  0.472520  0.527480  0.250000  1
  F  F9  1  0.747865  0.960404  0.974219  1
  F  F10  1  0.039596  0.252135  0.525781  1
  F  F11  1  0.252135  0.039596  0.025781  1
  F  F12  1  0.960404  0.747865  0.474219  1
  F  F13  1  0.527480  0.472520  0.750000  1
  F  F14  1  0.774160  0.279176  0.005504  1
  F  F15  1  0.009083  0.279099  0.216834  1
  F  F16  1  0.780385  0.505607  0.221497  1
  F  F17  1  0.505607  0.780385  0.721497  1
  F  F18  1  0.279099  0.009083  0.716834  1
  F  F19  1  0.279176  0.774160  0.505504  1
  F  F20  1  0.225840  0.720824  0.994496  1
  F  F21  1  0.990917  0.720901  0.783166  1
  F  F22  1  0.219615  0.494393  0.778503  1
  F  F23  1  0.494393  0.219615  0.278503  1
  F  F24  1  0.720901  0.990917  0.283166  1
  F  F25  1  0.720824  0.225840  0.494496  1
  F  F26  1  0.315077  0.343208  0.055726  1
  F  F27  1  0.931615  0.806913  0.156038  1
  F  F28  1  0.835016  0.453922  0.687175  1
  F  F29  1  0.453922  0.835016  0.187175  1
  F  F30  1  0.806913  0.931615  0.656038  1
  F  F31  1  0.343208  0.315077  0.555726  1
  F  F32  1  0.684923  0.656792  0.944274  1
  F  F33  1  0.068385  0.193087  0.843962  1
  F  F34  1  0.164984  0.546078  0.312825  1
  F  F35  1  0.546078  0.164984  0.812825  1
  F  F36  1  0.193087  0.068385  0.343962  1
  F  F37  1  0.656792  0.684923  0.444274  1
