# generated using pymatgen
data_Tb3Zr5Ti3Si16Mo9
_symmetry_space_group_name_H-M   'P 1'
_cell_length_a   6.80532623
_cell_length_b   6.80872629
_cell_length_c   12.69686533
_cell_angle_alpha   89.79615027
_cell_angle_beta   90.23391515
_cell_angle_gamma   89.39590668
_symmetry_Int_Tables_number   1
_chemical_formula_structural   Tb3Zr5Ti3Si16Mo9
_chemical_formula_sum   'Tb3 Zr5 Ti3 Si16 Mo9'
_cell_volume   588.27550287
_cell_formula_units_Z   1
loop_
 _symmetry_equiv_pos_site_id
 _symmetry_equiv_pos_as_xyz
  1  'x, y, z'
loop_
 _atom_site_type_symbol
 _atom_site_label
 _atom_site_symmetry_multiplicity
 _atom_site_fract_x
 _atom_site_fract_y
 _atom_site_fract_z
 _atom_site_occupancy
  Tb  Tb0  1  0.659262  0.998839  0.968767  1
  Tb  Tb1  1  0.003977  0.337387  0.529618  1
  Tb  Tb2  1  0.999119  0.658327  0.031585  1
  Zr  Zr3  1  0.344185  0.995334  0.467495  1
  Zr  Zr4  1  0.502403  0.836958  0.718403  1
  Zr  Zr5  1  0.492606  0.163495  0.219020  1
  Zr  Zr6  1  0.837533  0.501842  0.283227  1
  Zr  Zr7  1  0.163576  0.491623  0.780784  1
  Ti  Ti8  1  0.167730  0.836764  0.248829  1
  Ti  Ti9  1  0.836407  0.167519  0.751146  1
  Ti  Ti10  1  0.664977  0.671384  0.499923  1
  Si  Si11  1  0.211465  0.125995  0.678671  1
  Si  Si12  1  0.373589  0.694460  0.929959  1
  Si  Si13  1  0.626142  0.294452  0.428495  1
  Si  Si14  1  0.695138  0.373826  0.070411  1
  Si  Si15  1  0.296054  0.635169  0.571165  1
  Si  Si16  1  0.789866  0.874661  0.185529  1
  Si  Si17  1  0.131156  0.206186  0.321230  1
  Si  Si18  1  0.875044  0.789562  0.814553  1
  Si  Si19  1  0.280549  0.969468  0.060072  1
  Si  Si20  1  0.539147  0.794115  0.314957  1
  Si  Si21  1  0.459433  0.209455  0.812776  1
  Si  Si22  1  0.793383  0.539238  0.685429  1
  Si  Si23  1  0.209400  0.459174  0.187875  1
  Si  Si24  1  0.703654  0.042574  0.564854  1
  Si  Si25  1  0.970241  0.279636  0.939867  1
  Si  Si26  1  0.042853  0.712249  0.435107  1
  Mo  Mo27  1  0.331858  0.331095  0.000462  1
  Mo  Mo28  1  0.165690  0.992422  0.862973  1
  Mo  Mo29  1  0.493370  0.670463  0.128174  1
  Mo  Mo30  1  0.501761  0.343317  0.622911  1
  Mo  Mo31  1  0.669742  0.492900  0.872286  1
  Mo  Mo32  1  0.341608  0.506295  0.377061  1
  Mo  Mo33  1  0.839257  0.996858  0.375278  1
  Mo  Mo34  1  0.994080  0.164157  0.137176  1
  Mo  Mo35  1  0.993749  0.842803  0.623929  1
