# generated using pymatgen
data_Ca8Cu3Hg4N5
_symmetry_space_group_name_H-M   'P 1'
_cell_length_a   10.73823884
_cell_length_b   10.73823870
_cell_length_c   10.73822629
_cell_angle_alpha   160.15180425
_cell_angle_beta   111.10124464
_cell_angle_gamma   72.50569276
_symmetry_Int_Tables_number   1
_chemical_formula_structural   Ca8Cu3Hg4N5
_chemical_formula_sum   'Ca8 Cu3 Hg4 N5'
_cell_volume   389.38682440
_cell_formula_units_Z   1
loop_
 _symmetry_equiv_pos_site_id
 _symmetry_equiv_pos_as_xyz
  1  'x, y, z'
loop_
 _atom_site_type_symbol
 _atom_site_label
 _atom_site_symmetry_multiplicity
 _atom_site_fract_x
 _atom_site_fract_y
 _atom_site_fract_z
 _atom_site_occupancy
  Ca  Ca0  1  0.556886  0.709941  0.846956  1
  Ca  Ca1  1  0.751540  0.901562  0.849981  1
  Ca  Ca2  1  0.443114  0.290059  0.153044  1
  Ca  Ca3  1  0.862986  0.709930  0.153044  1
  Ca  Ca4  1  0.137014  0.290070  0.846956  1
  Ca  Ca5  1  0.248460  0.098438  0.150019  1
  Ca  Ca6  1  0.051581  0.901560  0.150019  1
  Ca  Ca7  1  0.948419  0.098440  0.849981  1
  Cu  Cu8  1  0.192256  0.692256  0.500000  1
  Cu  Cu9  1  0.807744  0.307744  0.500000  1
  Cu  Cu10  1  0.000000  0.500000  0.500000  1
  Hg  Hg11  1  0.669668  0.500006  0.169674  1
  Hg  Hg12  1  0.330332  0.499994  0.830326  1
  Hg  Hg13  1  0.412617  0.912617  0.500000  1
  Hg  Hg14  1  0.587383  0.087383  0.500000  1
  N  N15  1  0.349462  0.694406  0.655060  1
  N  N16  1  0.960655  0.305598  0.655060  1
  N  N17  1  0.039345  0.694402  0.344940  1
  N  N18  1  0.000000  0.000000  0.000000  1
  N  N19  1  0.650538  0.305594  0.344940  1
