# generated using pymatgen
data_Yb8Tl3Ag6Pt2Pb
_symmetry_space_group_name_H-M   'P 1'
_cell_length_a   7.99281371
_cell_length_b   7.99687959
_cell_length_c   7.65733911
_cell_angle_alpha   89.98716442
_cell_angle_beta   89.80193624
_cell_angle_gamma   90.04188754
_symmetry_Int_Tables_number   1
_chemical_formula_structural   Yb8Tl3Ag6Pt2Pb
_chemical_formula_sum   'Yb8 Tl3 Ag6 Pt2 Pb1'
_cell_volume   489.43543191
_cell_formula_units_Z   1
loop_
 _symmetry_equiv_pos_site_id
 _symmetry_equiv_pos_as_xyz
  1  'x, y, z'
loop_
 _atom_site_type_symbol
 _atom_site_label
 _atom_site_symmetry_multiplicity
 _atom_site_fract_x
 _atom_site_fract_y
 _atom_site_fract_z
 _atom_site_occupancy
  Yb  Yb0  1  0.679443  0.694713  0.002527  1
  Yb  Yb1  1  0.332902  0.349486  0.509032  1
  Yb  Yb2  1  0.814397  0.167398  0.491798  1
  Yb  Yb3  1  0.663914  0.680226  0.497548  1
  Yb  Yb4  1  0.314937  0.332358  0.992491  1
  Yb  Yb5  1  0.180070  0.805874  0.501724  1
  Yb  Yb6  1  0.832808  0.150346  0.010364  1
  Yb  Yb7  1  0.164428  0.820409  0.998841  1
  Tl  Tl8  1  0.493449  0.999939  0.751040  1
  Tl  Tl9  1  0.497520  0.004326  0.250533  1
  Tl  Tl10  1  0.998491  0.495436  0.750370  1
  Ag  Ag11  1  0.878386  0.874931  0.732737  1
  Ag  Ag12  1  0.125675  0.121916  0.732588  1
  Ag  Ag13  1  0.631283  0.376257  0.769307  1
  Ag  Ag14  1  0.622562  0.376475  0.232329  1
  Ag  Ag15  1  0.380767  0.626106  0.232484  1
  Ag  Ag16  1  0.132241  0.121569  0.269509  1
  Pt  Pt17  1  0.881793  0.875934  0.262039  1
  Pt  Pt18  1  0.381529  0.626346  0.761671  1
  Pb  Pb19  1  0.993407  0.499956  0.251068  1
