# generated using pymatgen
data_Zr3Ti9As7
_symmetry_space_group_name_H-M   'P 1'
_cell_length_a   3.61465200
_cell_length_b   10.19292959
_cell_length_c   10.19293000
_cell_angle_alpha   119.99998835
_cell_angle_beta   90.00000000
_cell_angle_gamma   90.00000000
_symmetry_Int_Tables_number   1
_chemical_formula_structural   Zr3Ti9As7
_chemical_formula_sum   'Zr3 Ti9 As7'
_cell_volume   325.23347588
_cell_formula_units_Z   1
loop_
 _symmetry_equiv_pos_site_id
 _symmetry_equiv_pos_as_xyz
  1  'x, y, z'
loop_
 _atom_site_type_symbol
 _atom_site_label
 _atom_site_symmetry_multiplicity
 _atom_site_fract_x
 _atom_site_fract_y
 _atom_site_fract_z
 _atom_site_occupancy
  Zr  Zr0  1  0.243594  0.009606  0.214763  1
  Zr  Zr1  1  0.243594  0.785237  0.794842  1
  Zr  Zr2  1  0.243594  0.205158  0.990394  1
  Ti  Ti3  1  0.743828  0.988210  0.729436  1
  Ti  Ti4  1  0.743828  0.270564  0.258776  1
  Ti  Ti5  1  0.743828  0.741224  0.011790  1
  Ti  Ti6  1  0.743959  0.507176  0.129723  1
  Ti  Ti7  1  0.743959  0.870277  0.377453  1
  Ti  Ti8  1  0.743959  0.622547  0.492824  1
  Ti  Ti9  1  0.243962  0.486971  0.872621  1
  Ti  Ti10  1  0.243962  0.127379  0.614352  1
  Ti  Ti11  1  0.243962  0.385648  0.513029  1
  As  As12  1  0.743507  0.000000  0.000000  1
  As  As13  1  0.743861  0.283712  0.832156  1
  As  As14  1  0.743861  0.167844  0.451556  1
  As  As15  1  0.743861  0.548444  0.716288  1
  As  As16  1  0.243962  0.710299  0.171515  1
  As  As17  1  0.243962  0.828485  0.538784  1
  As  As18  1  0.243962  0.461216  0.289701  1
