# generated using pymatgen
data_CaLa4ZnPd4
_symmetry_space_group_name_H-M   'P 1'
_cell_length_a   8.09386100
_cell_length_b   8.09386100
_cell_length_c   3.94758500
_cell_angle_alpha   90.00000000
_cell_angle_beta   90.00000000
_cell_angle_gamma   90.00000000
_symmetry_Int_Tables_number   1
_chemical_formula_structural   CaLa4ZnPd4
_chemical_formula_sum   'Ca1 La4 Zn1 Pd4'
_cell_volume   258.60860619
_cell_formula_units_Z   1
loop_
 _symmetry_equiv_pos_site_id
 _symmetry_equiv_pos_as_xyz
  1  'x, y, z'
loop_
 _atom_site_type_symbol
 _atom_site_label
 _atom_site_symmetry_multiplicity
 _atom_site_fract_x
 _atom_site_fract_y
 _atom_site_fract_z
 _atom_site_occupancy
  Ca  Ca0  1  0.000000  0.000000  0.000000  1
  La  La1  1  0.356527  0.805460  0.500000  1
  La  La2  1  0.805460  0.643473  0.500000  1
  La  La3  1  0.194540  0.356527  0.500000  1
  La  La4  1  0.643473  0.194540  0.500000  1
  Zn  Zn5  1  0.500000  0.500000  0.000000  1
  Pd  Pd6  1  0.363845  0.125494  0.000000  1
  Pd  Pd7  1  0.874506  0.363845  0.000000  1
  Pd  Pd8  1  0.125494  0.636155  0.000000  1
  Pd  Pd9  1  0.636155  0.874506  0.000000  1
