# generated using pymatgen
data_Rb6ScTe4Br
_symmetry_space_group_name_H-M   'P 1'
_cell_length_a   11.82636700
_cell_length_b   11.82636703
_cell_length_c   8.72604700
_cell_angle_alpha   90.00000000
_cell_angle_beta   90.00000000
_cell_angle_gamma   120.00000272
_symmetry_Int_Tables_number   1
_chemical_formula_structural   Rb6ScTe4Br
_chemical_formula_sum   'Rb12 Sc2 Te8 Br2'
_cell_volume   1056.94131088
_cell_formula_units_Z   2
loop_
 _symmetry_equiv_pos_site_id
 _symmetry_equiv_pos_as_xyz
  1  'x, y, z'
loop_
 _atom_site_type_symbol
 _atom_site_label
 _atom_site_symmetry_multiplicity
 _atom_site_fract_x
 _atom_site_fract_y
 _atom_site_fract_z
 _atom_site_occupancy
  Rb  Rb0  1  0.129153  0.870847  0.510868  1
  Rb  Rb1  1  0.741692  0.870847  0.510868  1
  Rb  Rb2  1  0.945206  0.472603  0.320047  1
  Rb  Rb3  1  0.527397  0.472603  0.320047  1
  Rb  Rb4  1  0.870847  0.741692  0.010868  1
  Rb  Rb5  1  0.258308  0.129153  0.010868  1
  Rb  Rb6  1  0.527397  0.054794  0.320047  1
  Rb  Rb7  1  0.129153  0.258308  0.510868  1
  Rb  Rb8  1  0.870847  0.129153  0.010868  1
  Rb  Rb9  1  0.054794  0.527397  0.820047  1
  Rb  Rb10  1  0.472603  0.945206  0.820047  1
  Rb  Rb11  1  0.472603  0.527397  0.820047  1
  Sc  Sc12  1  0.666667  0.333333  0.713835  1
  Sc  Sc13  1  0.333333  0.666667  0.213835  1
  Te  Te14  1  0.408420  0.204210  0.609127  1
  Te  Te15  1  0.591580  0.795790  0.109127  1
  Te  Te16  1  0.666667  0.333333  0.036544  1
  Te  Te17  1  0.795790  0.591580  0.609127  1
  Te  Te18  1  0.204210  0.408420  0.109127  1
  Te  Te19  1  0.333333  0.666667  0.536544  1
  Te  Te20  1  0.204210  0.795790  0.109127  1
  Te  Te21  1  0.795790  0.204210  0.609127  1
  Br  Br22  1  0.000000  0.000000  0.270097  1
  Br  Br23  1  0.000000  0.000000  0.770097  1
