# generated using pymatgen
data_CeDy7Al4(SnRh2)4
_symmetry_space_group_name_H-M   'P 1'
_cell_length_a   4.14588600
_cell_length_b   7.32167924
_cell_length_c   16.17926653
_cell_angle_alpha   90.37498184
_cell_angle_beta   90.00000000
_cell_angle_gamma   90.00000000
_symmetry_Int_Tables_number   1
_chemical_formula_structural   CeDy7Al4(SnRh2)4
_chemical_formula_sum   'Ce1 Dy7 Al4 Sn4 Rh8'
_cell_volume   491.10864982
_cell_formula_units_Z   1
loop_
 _symmetry_equiv_pos_site_id
 _symmetry_equiv_pos_as_xyz
  1  'x, y, z'
loop_
 _atom_site_type_symbol
 _atom_site_label
 _atom_site_symmetry_multiplicity
 _atom_site_fract_x
 _atom_site_fract_y
 _atom_site_fract_z
 _atom_site_occupancy
  Ce  Ce0  1  0.750000  0.449609  0.284221  1
  Dy  Dy1  1  0.250000  0.171495  0.560483  1
  Dy  Dy2  1  0.750000  0.829414  0.441191  1
  Dy  Dy3  1  0.250000  0.670801  0.939065  1
  Dy  Dy4  1  0.750000  0.331146  0.058636  1
  Dy  Dy5  1  0.250000  0.049527  0.783340  1
  Dy  Dy6  1  0.750000  0.951407  0.214905  1
  Dy  Dy7  1  0.250000  0.549793  0.716292  1
  Al  Al8  1  0.250000  0.003063  0.062292  1
  Al  Al9  1  0.750000  0.997786  0.937213  1
  Al  Al10  1  0.250000  0.502727  0.440972  1
  Al  Al11  1  0.750000  0.497562  0.562493  1
  Sn  Sn12  1  0.250000  0.112259  0.349748  1
  Sn  Sn13  1  0.750000  0.882097  0.650951  1
  Sn  Sn14  1  0.250000  0.624249  0.149119  1
  Sn  Sn15  1  0.750000  0.378602  0.849661  1
  Rh  Rh16  1  0.750000  0.282985  0.433802  1
  Rh  Rh17  1  0.250000  0.722566  0.564899  1
  Rh  Rh18  1  0.750000  0.779239  0.061633  1
  Rh  Rh19  1  0.250000  0.218474  0.937209  1
  Rh  Rh20  1  0.750000  0.758359  0.818649  1
  Rh  Rh21  1  0.250000  0.244942  0.182353  1
  Rh  Rh22  1  0.750000  0.262160  0.681492  1
  Rh  Rh23  1  0.250000  0.729739  0.319384  1
