# generated using pymatgen
data_Tb5Y3Tc2(B12Os)2
_symmetry_space_group_name_H-M   'P 1'
_cell_length_a   3.68159800
_cell_length_b   9.18334217
_cell_length_c   11.57936201
_cell_angle_alpha   89.92145710
_cell_angle_beta   90.00000000
_cell_angle_gamma   90.00000000
_symmetry_Int_Tables_number   1
_chemical_formula_structural   Tb5Y3Tc2(B12Os)2
_chemical_formula_sum   'Tb5 Y3 Tc2 B24 Os2'
_cell_volume   391.49061474
_cell_formula_units_Z   1
loop_
 _symmetry_equiv_pos_site_id
 _symmetry_equiv_pos_as_xyz
  1  'x, y, z'
loop_
 _atom_site_type_symbol
 _atom_site_label
 _atom_site_symmetry_multiplicity
 _atom_site_fract_x
 _atom_site_fract_y
 _atom_site_fract_z
 _atom_site_occupancy
  Tb  Tb0  1  0.000000  0.325147  0.415267  1
  Tb  Tb1  1  0.000000  0.674819  0.584854  1
  Tb  Tb2  1  0.000000  0.821494  0.087245  1
  Tb  Tb3  1  0.000000  0.178512  0.912630  1
  Tb  Tb4  1  0.000000  0.941494  0.371006  1
  Y  Y5  1  0.000000  0.058444  0.629021  1
  Y  Y6  1  0.000000  0.443722  0.129693  1
  Y  Y7  1  0.000000  0.556319  0.870246  1
  Tc  Tc8  1  0.000000  0.638203  0.320393  1
  Tc  Tc9  1  0.000000  0.361555  0.679695  1
  B  B10  1  0.500000  0.552856  0.432747  1
  B  B11  1  0.500000  0.446922  0.567314  1
  B  B12  1  0.500000  0.053818  0.067219  1
  B  B13  1  0.500000  0.946272  0.932663  1
  B  B14  1  0.500000  0.747470  0.418617  1
  B  B15  1  0.500000  0.252239  0.581365  1
  B  B16  1  0.500000  0.248368  0.081464  1
  B  B17  1  0.500000  0.751716  0.918479  1
  B  B18  1  0.500000  0.790569  0.265666  1
  B  B19  1  0.500000  0.209079  0.734371  1
  B  B20  1  0.500000  0.290480  0.233915  1
  B  B21  1  0.500000  0.709720  0.766007  1
  B  B22  1  0.500000  0.631359  0.185559  1
  B  B23  1  0.500000  0.368502  0.814400  1
  B  B24  1  0.500000  0.131220  0.313477  1
  B  B25  1  0.500000  0.868986  0.686416  1
  B  B26  1  0.500000  0.983509  0.211836  1
  B  B27  1  0.500000  0.016749  0.788022  1
  B  B28  1  0.500000  0.482944  0.287598  1
  B  B29  1  0.500000  0.516986  0.712365  1
  B  B30  1  0.500000  0.604108  0.028669  1
  B  B31  1  0.500000  0.395877  0.971281  1
  B  B32  1  0.500000  0.104646  0.471078  1
  B  B33  1  0.500000  0.895721  0.529468  1
  Os  Os34  1  0.000000  0.137599  0.178001  1
  Os  Os35  1  0.000000  0.862574  0.821951  1
