# generated using pymatgen
data_PdRhI18
_symmetry_space_group_name_H-M   'P 1'
_cell_length_a   10.01902997
_cell_length_b   10.01902813
_cell_length_c   10.01902913
_cell_angle_alpha   94.42940098
_cell_angle_beta   94.42939919
_cell_angle_gamma   94.42939856
_symmetry_Int_Tables_number   1
_chemical_formula_structural   PdRhI18
_chemical_formula_sum   'Pd1 Rh1 I18'
_cell_volume   996.21335724
_cell_formula_units_Z   1
loop_
 _symmetry_equiv_pos_site_id
 _symmetry_equiv_pos_as_xyz
  1  'x, y, z'
loop_
 _atom_site_type_symbol
 _atom_site_label
 _atom_site_symmetry_multiplicity
 _atom_site_fract_x
 _atom_site_fract_y
 _atom_site_fract_z
 _atom_site_occupancy
  Pd  Pd0  1  0.500000  0.500000  0.500000  1
  Rh  Rh1  1  0.000000  0.000000  0.000000  1
  I  I2  1  0.270008  0.010731  0.027611  1
  I  I3  1  0.027611  0.270008  0.010731  1
  I  I4  1  0.010731  0.027611  0.270008  1
  I  I5  1  0.729992  0.989269  0.972389  1
  I  I6  1  0.972389  0.729992  0.989269  1
  I  I7  1  0.989269  0.972389  0.729992  1
  I  I8  1  0.631865  0.227290  0.114135  1
  I  I9  1  0.114135  0.631865  0.227290  1
  I  I10  1  0.227290  0.114135  0.631865  1
  I  I11  1  0.368135  0.772710  0.885865  1
  I  I12  1  0.885865  0.368135  0.772710  1
  I  I13  1  0.772710  0.885865  0.368135  1
  I  I14  1  0.468841  0.223642  0.518716  1
  I  I15  1  0.518716  0.468841  0.223642  1
  I  I16  1  0.223642  0.518716  0.468841  1
  I  I17  1  0.531159  0.776358  0.481284  1
  I  I18  1  0.481284  0.531159  0.776358  1
  I  I19  1  0.776358  0.481284  0.531159  1
