# generated using pymatgen
data_Sr3Mn2Br2O5
_symmetry_space_group_name_H-M   'P 1'
_cell_length_a   4.01024808
_cell_length_b   4.01024837
_cell_length_c   13.65876300
_cell_angle_alpha   98.44160715
_cell_angle_beta   98.44160776
_cell_angle_gamma   89.99999978
_symmetry_Int_Tables_number   1
_chemical_formula_structural   Sr3Mn2Br2O5
_chemical_formula_sum   'Sr3 Mn2 Br2 O5'
_cell_volume   214.87548145
_cell_formula_units_Z   1
loop_
 _symmetry_equiv_pos_site_id
 _symmetry_equiv_pos_as_xyz
  1  'x, y, z'
loop_
 _atom_site_type_symbol
 _atom_site_label
 _atom_site_symmetry_multiplicity
 _atom_site_fract_x
 _atom_site_fract_y
 _atom_site_fract_z
 _atom_site_occupancy
  Sr  Sr0  1  0.859002  0.859002  0.718002  1
  Sr  Sr1  1  0.140997  0.140993  0.282003  1
  Sr  Sr2  1  0.000005  0.000001  0.000014  1
  Mn  Mn3  1  0.426662  0.426675  0.853412  1
  Mn  Mn4  1  0.573324  0.573346  0.146527  1
  Br  Br5  1  0.305977  0.305974  0.611639  1
  Br  Br6  1  0.694025  0.694021  0.388370  1
  O  O7  1  0.081353  0.581334  0.162662  1
  O  O8  1  0.918651  0.418662  0.837354  1
  O  O9  1  0.418665  0.918646  0.837354  1
  O  O10  1  0.499997  0.499994  0.000000  1
  O  O11  1  0.581339  0.081349  0.162662  1
