# generated using pymatgen
data_Nd7SmSc11Si16W
_symmetry_space_group_name_H-M   'P 1'
_cell_length_a   7.21260134
_cell_length_b   7.45207533
_cell_length_c   14.09232453
_cell_angle_alpha   90.17994389
_cell_angle_beta   89.72163113
_cell_angle_gamma   89.62610509
_symmetry_Int_Tables_number   1
_chemical_formula_structural   Nd7SmSc11Si16W
_chemical_formula_sum   'Nd7 Sm1 Sc11 Si16 W1'
_cell_volume   757.41733776
_cell_formula_units_Z   1
loop_
 _symmetry_equiv_pos_site_id
 _symmetry_equiv_pos_as_xyz
  1  'x, y, z'
loop_
 _atom_site_type_symbol
 _atom_site_label
 _atom_site_symmetry_multiplicity
 _atom_site_fract_x
 _atom_site_fract_y
 _atom_site_fract_z
 _atom_site_occupancy
  Nd  Nd0  1  0.011792  0.171390  0.097209  1
  Nd  Nd1  1  0.989271  0.828191  0.898076  1
  Nd  Nd2  1  0.486741  0.674061  0.898209  1
  Nd  Nd3  1  0.992792  0.831105  0.595812  1
  Nd  Nd4  1  0.513517  0.326486  0.097033  1
  Nd  Nd5  1  0.011437  0.173128  0.403654  1
  Nd  Nd6  1  0.507619  0.327459  0.409204  1
  Sm  Sm7  1  0.487157  0.674164  0.597751  1
  Sc  Sc8  1  0.163027  0.490105  0.744287  1
  Sc  Sc9  1  0.838678  0.500189  0.252194  1
  Sc  Sc10  1  0.338455  0.000255  0.251613  1
  Sc  Sc11  1  0.656514  0.003697  0.747279  1
  Sc  Sc12  1  0.665461  0.826273  0.378854  1
  Sc  Sc13  1  0.168960  0.676254  0.378042  1
  Sc  Sc14  1  0.669489  0.824369  0.124769  1
  Sc  Sc15  1  0.832181  0.325406  0.624013  1
  Sc  Sc16  1  0.332620  0.176926  0.874878  1
  Sc  Sc17  1  0.828883  0.323680  0.870590  1
  Sc  Sc18  1  0.170592  0.675917  0.125908  1
  Si  Si19  1  0.044443  0.126245  0.744381  1
  Si  Si20  1  0.963231  0.878035  0.251831  1
  Si  Si21  1  0.466098  0.624657  0.251188  1
  Si  Si22  1  0.529293  0.367980  0.744588  1
  Si  Si23  1  0.289757  0.889966  0.745563  1
  Si  Si24  1  0.710495  0.119262  0.251081  1
  Si  Si25  1  0.213726  0.380310  0.250904  1
  Si  Si26  1  0.785519  0.618592  0.746199  1
  Si  Si27  1  0.173406  0.449180  0.543366  1
  Si  Si28  1  0.846085  0.534606  0.460168  1
  Si  Si29  1  0.339219  0.968467  0.471576  1
  Si  Si30  1  0.848926  0.536921  0.038792  1
  Si  Si31  1  0.640701  0.037412  0.546754  1
  Si  Si32  1  0.149352  0.464781  0.958630  1
  Si  Si33  1  0.656010  0.037351  0.957826  1
  Si  Si34  1  0.346522  0.961774  0.038945  1
  W  W35  1  0.332031  0.175405  0.628832  1
