# generated using pymatgen
data_Ho2TmAl5Ni
_symmetry_space_group_name_H-M   'P 1'
_cell_length_a   6.91425577
_cell_length_b   6.91425546
_cell_length_c   4.27750100
_cell_angle_alpha   90.00000000
_cell_angle_beta   90.00000000
_cell_angle_gamma   119.73539808
_symmetry_Int_Tables_number   1
_chemical_formula_structural   Ho2TmAl5Ni
_chemical_formula_sum   'Ho2 Tm1 Al5 Ni1'
_cell_volume   177.56747159
_cell_formula_units_Z   1
loop_
 _symmetry_equiv_pos_site_id
 _symmetry_equiv_pos_as_xyz
  1  'x, y, z'
loop_
 _atom_site_type_symbol
 _atom_site_label
 _atom_site_symmetry_multiplicity
 _atom_site_fract_x
 _atom_site_fract_y
 _atom_site_fract_z
 _atom_site_occupancy
  Ho  Ho0  1  0.594934  0.999187  0.000000  1
  Ho  Ho1  1  0.999187  0.594934  0.000000  1
  Tm  Tm2  1  0.403050  0.403050  0.000000  1
  Al  Al3  1  0.230847  0.000699  0.500000  1
  Al  Al4  1  0.000699  0.230847  0.500000  1
  Al  Al5  1  0.769059  0.769059  0.500000  1
  Al  Al6  1  0.334204  0.666128  0.500000  1
  Al  Al7  1  0.666128  0.334204  0.500000  1
  Ni  Ni8  1  0.001892  0.001892  0.000000  1
