# generated using pymatgen
data_Gd5PuH18
_symmetry_space_group_name_H-M   'P 1'
_cell_length_a   6.43835200
_cell_length_b   6.43445769
_cell_length_c   6.67914597
_cell_angle_alpha   90.44786967
_cell_angle_beta   90.00000000
_cell_angle_gamma   120.02002278
_symmetry_Int_Tables_number   1
_chemical_formula_structural   Gd5PuH18
_chemical_formula_sum   'Gd5 Pu1 H18'
_cell_volume   239.57024384
_cell_formula_units_Z   1
loop_
 _symmetry_equiv_pos_site_id
 _symmetry_equiv_pos_as_xyz
  1  'x, y, z'
loop_
 _atom_site_type_symbol
 _atom_site_label
 _atom_site_symmetry_multiplicity
 _atom_site_fract_x
 _atom_site_fract_y
 _atom_site_fract_z
 _atom_site_occupancy
  Gd  Gd0  1  0.000107  0.335436  0.249798  1
  Gd  Gd1  1  0.664671  0.664564  0.250202  1
  Gd  Gd2  1  0.664888  0.000000  0.750000  1
  Gd  Gd3  1  0.999455  0.664404  0.749279  1
  Gd  Gd4  1  0.335051  0.335596  0.750721  1
  Pu  Pu5  1  0.334347  0.000000  0.250000  1
  H  H6  1  0.998720  0.000000  0.250000  1
  H  H7  1  0.000853  0.000000  0.750000  1
  H  H8  1  0.333070  0.665911  0.190258  1
  H  H9  1  0.667159  0.334089  0.309742  1
  H  H10  1  0.666737  0.333918  0.806076  1
  H  H11  1  0.332818  0.666082  0.693924  1
  H  H12  1  0.344950  0.319697  0.091871  1
  H  H13  1  0.669771  0.022997  0.094414  1
  H  H14  1  0.991193  0.669094  0.097010  1
  H  H15  1  0.025253  0.680303  0.408129  1
  H  H16  1  0.646774  0.977003  0.405586  1
  H  H17  1  0.322099  0.330906  0.402990  1
  H  H18  1  0.655865  0.676424  0.907549  1
  H  H19  1  0.325180  0.978481  0.909257  1
  H  H20  1  0.020145  0.345391  0.907243  1
  H  H21  1  0.979441  0.323576  0.592451  1
  H  H22  1  0.346699  0.021519  0.590743  1
  H  H23  1  0.674754  0.654609  0.592757  1
