# generated using pymatgen
data_YLuB6Rh
_symmetry_space_group_name_H-M   'P 1'
_cell_length_a   3.62681000
_cell_length_b   9.11488200
_cell_length_c   11.46679400
_cell_angle_alpha   90.00000000
_cell_angle_beta   90.00000000
_cell_angle_gamma   90.00000000
_symmetry_Int_Tables_number   1
_chemical_formula_structural   YLuB6Rh
_chemical_formula_sum   'Y4 Lu4 B24 Rh4'
_cell_volume   379.06864752
_cell_formula_units_Z   4
loop_
 _symmetry_equiv_pos_site_id
 _symmetry_equiv_pos_as_xyz
  1  'x, y, z'
loop_
 _atom_site_type_symbol
 _atom_site_label
 _atom_site_symmetry_multiplicity
 _atom_site_fract_x
 _atom_site_fract_y
 _atom_site_fract_z
 _atom_site_occupancy
  Y  Y0  1  0.000000  0.321014  0.413798  1
  Y  Y1  1  0.000000  0.678986  0.586202  1
  Y  Y2  1  0.000000  0.821014  0.086202  1
  Y  Y3  1  0.000000  0.178986  0.913798  1
  Lu  Lu4  1  0.000000  0.943814  0.373078  1
  Lu  Lu5  1  0.000000  0.056186  0.626922  1
  Lu  Lu6  1  0.000000  0.443814  0.126922  1
  Lu  Lu7  1  0.000000  0.556186  0.873078  1
  B  B8  1  0.500000  0.554202  0.434230  1
  B  B9  1  0.500000  0.445798  0.565770  1
  B  B10  1  0.500000  0.054202  0.065770  1
  B  B11  1  0.500000  0.945798  0.934230  1
  B  B12  1  0.500000  0.750982  0.419918  1
  B  B13  1  0.500000  0.249018  0.580082  1
  B  B14  1  0.500000  0.250982  0.080082  1
  B  B15  1  0.500000  0.749018  0.919918  1
  B  B16  1  0.500000  0.793970  0.264439  1
  B  B17  1  0.500000  0.206030  0.735560  1
  B  B18  1  0.500000  0.293970  0.235561  1
  B  B19  1  0.500000  0.706030  0.764440  1
  B  B20  1  0.500000  0.631105  0.183297  1
  B  B21  1  0.500000  0.368895  0.816703  1
  B  B22  1  0.500000  0.131105  0.316703  1
  B  B23  1  0.500000  0.868895  0.683297  1
  B  B24  1  0.500000  0.981973  0.214098  1
  B  B25  1  0.500000  0.018027  0.785902  1
  B  B26  1  0.500000  0.481973  0.285902  1
  B  B27  1  0.500000  0.518027  0.714098  1
  B  B28  1  0.500000  0.605113  0.028498  1
  B  B29  1  0.500000  0.394887  0.971502  1
  B  B30  1  0.500000  0.105113  0.471502  1
  B  B31  1  0.500000  0.894887  0.528498  1
  Rh  Rh32  1  0.000000  0.639713  0.320026  1
  Rh  Rh33  1  0.000000  0.360287  0.679974  1
  Rh  Rh34  1  0.000000  0.139713  0.179974  1
  Rh  Rh35  1  0.000000  0.860287  0.820026  1
