# generated using pymatgen
data_Dy3Tm5Sc12GaSi15
_symmetry_space_group_name_H-M   'P 1'
_cell_length_a   7.06918609
_cell_length_b   7.36757151
_cell_length_c   13.96448756
_cell_angle_alpha   89.98258514
_cell_angle_beta   90.01714819
_cell_angle_gamma   90.01257255
_symmetry_Int_Tables_number   1
_chemical_formula_structural   Dy3Tm5Sc12GaSi15
_chemical_formula_sum   'Dy3 Tm5 Sc12 Ga1 Si15'
_cell_volume   727.30860870
_cell_formula_units_Z   1
loop_
 _symmetry_equiv_pos_site_id
 _symmetry_equiv_pos_as_xyz
  1  'x, y, z'
loop_
 _atom_site_type_symbol
 _atom_site_label
 _atom_site_symmetry_multiplicity
 _atom_site_fract_x
 _atom_site_fract_y
 _atom_site_fract_z
 _atom_site_occupancy
  Dy  Dy0  1  0.011836  0.176054  0.096709  1
  Dy  Dy1  1  0.988048  0.824421  0.903881  1
  Dy  Dy2  1  0.488006  0.676576  0.903845  1
  Tm  Tm3  1  0.987488  0.825681  0.597328  1
  Tm  Tm4  1  0.512038  0.323133  0.096837  1
  Tm  Tm5  1  0.011016  0.174870  0.401782  1
  Tm  Tm6  1  0.512838  0.322665  0.401937  1
  Tm  Tm7  1  0.489855  0.679042  0.597331  1
  Sc  Sc8  1  0.161104  0.503224  0.751308  1
  Sc  Sc9  1  0.838597  0.496677  0.250042  1
  Sc  Sc10  1  0.338903  0.003717  0.249722  1
  Sc  Sc11  1  0.661734  0.995632  0.749960  1
  Sc  Sc12  1  0.332612  0.173872  0.626017  1
  Sc  Sc13  1  0.668395  0.824053  0.374331  1
  Sc  Sc14  1  0.169912  0.677649  0.373473  1
  Sc  Sc15  1  0.669434  0.823565  0.125464  1
  Sc  Sc16  1  0.828476  0.323201  0.625416  1
  Sc  Sc17  1  0.330398  0.176089  0.874845  1
  Sc  Sc18  1  0.830442  0.323073  0.874850  1
  Sc  Sc19  1  0.169266  0.676505  0.125550  1
  Ga  Ga20  1  0.161236  0.463087  0.539299  1
  Si  Si21  1  0.033384  0.116144  0.750373  1
  Si  Si22  1  0.966802  0.884947  0.249962  1
  Si  Si23  1  0.467969  0.613853  0.250030  1
  Si  Si24  1  0.531810  0.386254  0.749547  1
  Si  Si25  1  0.284463  0.871439  0.749708  1
  Si  Si26  1  0.714321  0.129225  0.249869  1
  Si  Si27  1  0.215075  0.370993  0.249713  1
  Si  Si28  1  0.785591  0.628501  0.750111  1
  Si  Si29  1  0.840328  0.535245  0.460282  1
  Si  Si30  1  0.340418  0.965023  0.460257  1
  Si  Si31  1  0.840608  0.534883  0.038794  1
  Si  Si32  1  0.658891  0.035002  0.539046  1
  Si  Si33  1  0.158728  0.464356  0.961788  1
  Si  Si34  1  0.657754  0.035783  0.960926  1
  Si  Si35  1  0.342224  0.965565  0.039672  1
