# generated using pymatgen
data_TmZr3(Ta3Si4)2
_symmetry_space_group_name_H-M   'P 1'
_cell_length_a   6.89992351
_cell_length_b   6.90213551
_cell_length_c   12.80678600
_cell_angle_alpha   90.00000000
_cell_angle_beta   90.00000000
_cell_angle_gamma   89.92414007
_symmetry_Int_Tables_number   1
_chemical_formula_structural   TmZr3(Ta3Si4)2
_chemical_formula_sum   'Tm2 Zr6 Ta12 Si16'
_cell_volume   609.91249422
_cell_formula_units_Z   2
loop_
 _symmetry_equiv_pos_site_id
 _symmetry_equiv_pos_as_xyz
  1  'x, y, z'
loop_
 _atom_site_type_symbol
 _atom_site_label
 _atom_site_symmetry_multiplicity
 _atom_site_fract_x
 _atom_site_fract_y
 _atom_site_fract_z
 _atom_site_occupancy
  Tm  Tm0  1  0.998298  0.661679  0.030812  1
  Tm  Tm1  1  0.001702  0.338321  0.530812  1
  Zr  Zr2  1  0.657472  0.004094  0.968507  1
  Zr  Zr3  1  0.160880  0.498082  0.781779  1
  Zr  Zr4  1  0.839120  0.501918  0.281779  1
  Zr  Zr5  1  0.498053  0.160458  0.219390  1
  Zr  Zr6  1  0.501947  0.839542  0.719390  1
  Zr  Zr7  1  0.342528  0.995906  0.468507  1
  Ta  Ta8  1  0.347038  0.506662  0.375326  1
  Ta  Ta9  1  0.844982  0.996223  0.373102  1
  Ta  Ta10  1  0.006290  0.152837  0.126264  1
  Ta  Ta11  1  0.993710  0.847163  0.626264  1
  Ta  Ta12  1  0.652962  0.493338  0.875326  1
  Ta  Ta13  1  0.503910  0.347222  0.624075  1
  Ta  Ta14  1  0.496090  0.652778  0.124075  1
  Ta  Ta15  1  0.155018  0.003777  0.873102  1
  Ta  Ta16  1  0.668186  0.671541  0.500358  1
  Ta  Ta17  1  0.829350  0.169403  0.750266  1
  Ta  Ta18  1  0.170650  0.830597  0.250266  1
  Ta  Ta19  1  0.331814  0.328459  0.000358  1
  Si  Si20  1  0.044150  0.704263  0.436456  1
  Si  Si21  1  0.955850  0.295737  0.936456  1
  Si  Si22  1  0.700284  0.044196  0.563441  1
  Si  Si23  1  0.202344  0.455382  0.187057  1
  Si  Si24  1  0.797656  0.544618  0.687057  1
  Si  Si25  1  0.455635  0.201566  0.813126  1
  Si  Si26  1  0.544365  0.798434  0.313126  1
  Si  Si27  1  0.299716  0.955804  0.063441  1
  Si  Si28  1  0.864174  0.794077  0.821157  1
  Si  Si29  1  0.135826  0.205923  0.321157  1
  Si  Si30  1  0.790903  0.867417  0.179308  1
  Si  Si31  1  0.293766  0.637381  0.572511  1
  Si  Si32  1  0.706234  0.362619  0.072511  1
  Si  Si33  1  0.632815  0.292852  0.427064  1
  Si  Si34  1  0.367185  0.707148  0.927064  1
  Si  Si35  1  0.209097  0.132583  0.679308  1
