# generated using pymatgen
data_Zr7ScTi9Si16Mo3
_symmetry_space_group_name_H-M   'P 1'
_cell_length_a   6.61981313
_cell_length_b   6.78945433
_cell_length_c   12.96220070
_cell_angle_alpha   90.00854076
_cell_angle_beta   89.93882189
_cell_angle_gamma   90.00780154
_symmetry_Int_Tables_number   1
_chemical_formula_structural   Zr7ScTi9Si16Mo3
_chemical_formula_sum   'Zr7 Sc1 Ti9 Si16 Mo3'
_cell_volume   582.58471522
_cell_formula_units_Z   1
loop_
 _symmetry_equiv_pos_site_id
 _symmetry_equiv_pos_as_xyz
  1  'x, y, z'
loop_
 _atom_site_type_symbol
 _atom_site_label
 _atom_site_symmetry_multiplicity
 _atom_site_fract_x
 _atom_site_fract_y
 _atom_site_fract_z
 _atom_site_occupancy
  Zr  Zr0  1  0.498272  0.327739  0.095194  1
  Zr  Zr1  1  0.999227  0.173023  0.405789  1
  Zr  Zr2  1  0.501736  0.672738  0.594959  1
  Zr  Zr3  1  0.000419  0.824914  0.905258  1
  Zr  Zr4  1  0.500987  0.672767  0.904852  1
  Zr  Zr5  1  0.001215  0.825879  0.594545  1
  Zr  Zr6  1  0.496787  0.327131  0.404793  1
  Sc  Sc7  1  0.999113  0.172306  0.094044  1
  Ti  Ti8  1  0.834330  0.329450  0.625100  1
  Ti  Ti9  1  0.333764  0.171844  0.875053  1
  Ti  Ti10  1  0.167718  0.670202  0.125302  1
  Ti  Ti11  1  0.665612  0.829844  0.374608  1
  Ti  Ti12  1  0.165695  0.669643  0.375226  1
  Ti  Ti13  1  0.665807  0.829005  0.125007  1
  Ti  Ti14  1  0.833549  0.330080  0.874875  1
  Ti  Ti15  1  0.334039  0.171810  0.624988  1
  Ti  Ti16  1  0.661662  0.006810  0.749799  1
  Si  Si17  1  0.668910  0.038870  0.539176  1
  Si  Si18  1  0.168658  0.460491  0.960549  1
  Si  Si19  1  0.331213  0.962549  0.039983  1
  Si  Si20  1  0.830834  0.538522  0.460585  1
  Si  Si21  1  0.331520  0.960666  0.460524  1
  Si  Si22  1  0.832425  0.537187  0.040081  1
  Si  Si23  1  0.666517  0.037735  0.960361  1
  Si  Si24  1  0.169030  0.460987  0.539850  1
  Si  Si25  1  0.535940  0.380703  0.750127  1
  Si  Si26  1  0.034895  0.118350  0.750191  1
  Si  Si27  1  0.464903  0.618559  0.250319  1
  Si  Si28  1  0.966201  0.882766  0.249389  1
  Si  Si29  1  0.794857  0.636299  0.750019  1
  Si  Si30  1  0.296166  0.865634  0.750009  1
  Si  Si31  1  0.201937  0.362642  0.248935  1
  Si  Si32  1  0.706052  0.137013  0.249114  1
  Mo  Mo33  1  0.161109  0.494073  0.750164  1
  Mo  Mo34  1  0.339805  0.992809  0.250382  1
  Mo  Mo35  1  0.839096  0.508961  0.250849  1
