# generated using pymatgen
data_Er2Sc2MnCrB12
_symmetry_space_group_name_H-M   'P 1'
_cell_length_a   3.42986200
_cell_length_b   8.94976401
_cell_length_c   11.30841427
_cell_angle_alpha   89.94566761
_cell_angle_beta   90.00000000
_cell_angle_gamma   90.00000000
_symmetry_Int_Tables_number   1
_chemical_formula_structural   Er2Sc2MnCrB12
_chemical_formula_sum   'Er4 Sc4 Mn2 Cr2 B24'
_cell_volume   347.12807907
_cell_formula_units_Z   2
loop_
 _symmetry_equiv_pos_site_id
 _symmetry_equiv_pos_as_xyz
  1  'x, y, z'
loop_
 _atom_site_type_symbol
 _atom_site_label
 _atom_site_symmetry_multiplicity
 _atom_site_fract_x
 _atom_site_fract_y
 _atom_site_fract_z
 _atom_site_occupancy
  Er  Er0  1  0.000000  0.822261  0.085089  1
  Er  Er1  1  0.000000  0.177739  0.914911  1
  Er  Er2  1  0.000000  0.322381  0.414495  1
  Er  Er3  1  0.000000  0.677619  0.585505  1
  Sc  Sc4  1  0.000000  0.443200  0.130113  1
  Sc  Sc5  1  0.000000  0.556800  0.869887  1
  Sc  Sc6  1  0.000000  0.943880  0.369414  1
  Sc  Sc7  1  0.000000  0.056120  0.630586  1
  Mn  Mn8  1  0.000000  0.140989  0.181682  1
  Mn  Mn9  1  0.000000  0.859011  0.818318  1
  Cr  Cr10  1  0.000000  0.641206  0.318034  1
  Cr  Cr11  1  0.000000  0.358794  0.681966  1
  B  B12  1  0.500000  0.055239  0.067895  1
  B  B13  1  0.500000  0.944761  0.932105  1
  B  B14  1  0.500000  0.554707  0.432716  1
  B  B15  1  0.500000  0.445293  0.567284  1
  B  B16  1  0.500000  0.252431  0.082523  1
  B  B17  1  0.500000  0.747569  0.917477  1
  B  B18  1  0.500000  0.752895  0.417897  1
  B  B19  1  0.500000  0.247105  0.582103  1
  B  B20  1  0.500000  0.293727  0.235480  1
  B  B21  1  0.500000  0.706273  0.764520  1
  B  B22  1  0.500000  0.794906  0.264233  1
  B  B23  1  0.500000  0.205094  0.735767  1
  B  B24  1  0.500000  0.129871  0.316329  1
  B  B25  1  0.500000  0.870129  0.683671  1
  B  B26  1  0.500000  0.629958  0.183091  1
  B  B27  1  0.500000  0.370042  0.816909  1
  B  B28  1  0.500000  0.482184  0.286561  1
  B  B29  1  0.500000  0.517816  0.713439  1
  B  B30  1  0.500000  0.983190  0.213135  1
  B  B31  1  0.500000  0.016810  0.786865  1
  B  B32  1  0.500000  0.096854  0.473716  1
  B  B33  1  0.500000  0.903146  0.526284  1
  B  B34  1  0.500000  0.597357  0.026295  1
  B  B35  1  0.500000  0.402643  0.973705  1
