# generated using pymatgen
data_Er9Lu(GaSb)4
_symmetry_space_group_name_H-M   'P 1'
_cell_length_a   8.56143799
_cell_length_b   8.56143837
_cell_length_c   7.84646704
_cell_angle_alpha   90.00539665
_cell_angle_beta   90.00539628
_cell_angle_gamma   125.45967601
_symmetry_Int_Tables_number   1
_chemical_formula_structural   Er9Lu(GaSb)4
_chemical_formula_sum   'Er9 Lu1 Ga4 Sb4'
_cell_volume   468.45889019
_cell_formula_units_Z   1
loop_
 _symmetry_equiv_pos_site_id
 _symmetry_equiv_pos_as_xyz
  1  'x, y, z'
loop_
 _atom_site_type_symbol
 _atom_site_label
 _atom_site_symmetry_multiplicity
 _atom_site_fract_x
 _atom_site_fract_y
 _atom_site_fract_z
 _atom_site_occupancy
  Er  Er0  1  0.038852  0.298040  0.332788  1
  Er  Er1  1  0.961148  0.701960  0.667212  1
  Er  Er2  1  0.460820  0.201534  0.833057  1
  Er  Er3  1  0.798466  0.539180  0.166943  1
  Er  Er4  1  0.539180  0.798466  0.166943  1
  Er  Er5  1  0.201534  0.460820  0.833057  1
  Er  Er6  1  0.701960  0.961148  0.667212  1
  Er  Er7  1  0.298040  0.038852  0.332788  1
  Er  Er8  1  0.500000  0.500000  0.500000  1
  Lu  Lu9  1  0.000000  0.000000  0.000000  1
  Ga  Ga10  1  0.373224  0.373224  0.125996  1
  Ga  Ga11  1  0.626776  0.626776  0.874004  1
  Ga  Ga12  1  0.126254  0.126254  0.626526  1
  Ga  Ga13  1  0.873746  0.873746  0.373474  1
  Sb  Sb14  1  0.794656  0.205344  0.000000  1
  Sb  Sb15  1  0.205344  0.794656  0.000000  1
  Sb  Sb16  1  0.705690  0.294310  0.500000  1
  Sb  Sb17  1  0.294310  0.705690  0.500000  1
