# generated using pymatgen
data_Rb2Li3FeO4
_symmetry_space_group_name_H-M   'P 1'
_cell_length_a   8.02467153
_cell_length_b   8.02467103
_cell_length_c   8.02467165
_cell_angle_alpha   143.77509568
_cell_angle_beta   103.81572626
_cell_angle_gamma   87.39193177
_symmetry_Int_Tables_number   1
_chemical_formula_structural   Rb2Li3FeO4
_chemical_formula_sum   'Rb4 Li6 Fe2 O8'
_cell_volume   286.62951614
_cell_formula_units_Z   2
loop_
 _symmetry_equiv_pos_site_id
 _symmetry_equiv_pos_as_xyz
  1  'x, y, z'
loop_
 _atom_site_type_symbol
 _atom_site_label
 _atom_site_symmetry_multiplicity
 _atom_site_fract_x
 _atom_site_fract_y
 _atom_site_fract_z
 _atom_site_occupancy
  Rb  Rb0  1  0.128775  0.236067  0.364842  1
  Rb  Rb1  1  0.871225  0.763933  0.635158  1
  Rb  Rb2  1  0.628775  0.263933  0.892708  1
  Rb  Rb3  1  0.371225  0.736067  0.107292  1
  Li  Li4  1  0.490403  0.250000  0.240403  1
  Li  Li5  1  0.509597  0.750000  0.759597  1
  Li  Li6  1  0.009597  0.250000  0.759597  1
  Li  Li7  1  0.990403  0.750000  0.240403  1
  Li  Li8  1  0.250000  0.250000  0.000000  1
  Li  Li9  1  0.750000  0.750000  0.000000  1
  Fe  Fe10  1  0.250000  0.750000  0.500000  1
  Fe  Fe11  1  0.750000  0.250000  0.500000  1
  O  O12  1  0.449324  0.591109  0.381924  1
  O  O13  1  0.550676  0.408891  0.618076  1
  O  O14  1  0.209184  0.067401  0.618076  1
  O  O15  1  0.290816  0.908891  0.858215  1
  O  O16  1  0.790816  0.932599  0.381924  1
  O  O17  1  0.709184  0.091109  0.141785  1
  O  O18  1  0.050676  0.432599  0.141785  1
  O  O19  1  0.949324  0.567401  0.858215  1
