# generated using pymatgen
data_Pr3Th5(Si3Os)4
_symmetry_space_group_name_H-M   'P 1'
_cell_length_a   8.26685400
_cell_length_b   8.31719911
_cell_length_c   8.36782700
_cell_angle_alpha   90.00000000
_cell_angle_beta   90.00000000
_cell_angle_gamma   119.79997310
_symmetry_Int_Tables_number   1
_chemical_formula_structural   Pr3Th5(Si3Os)4
_chemical_formula_sum   'Pr3 Th5 Si12 Os4'
_cell_volume   499.26662156
_cell_formula_units_Z   1
loop_
 _symmetry_equiv_pos_site_id
 _symmetry_equiv_pos_as_xyz
  1  'x, y, z'
loop_
 _atom_site_type_symbol
 _atom_site_label
 _atom_site_symmetry_multiplicity
 _atom_site_fract_x
 _atom_site_fract_y
 _atom_site_fract_z
 _atom_site_occupancy
  Pr  Pr0  1  0.500453  0.000906  0.250000  1
  Pr  Pr1  1  0.999904  0.999809  0.750000  1
  Pr  Pr2  1  0.000021  0.000041  0.250000  1
  Th  Th3  1  0.499707  0.500402  0.750000  1
  Th  Th4  1  0.500264  0.499698  0.250000  1
  Th  Th5  1  0.000695  0.500402  0.750000  1
  Th  Th6  1  0.999434  0.499698  0.250000  1
  Th  Th7  1  0.499653  0.999305  0.750000  1
  Si  Si8  1  0.832191  0.165788  0.000468  1
  Si  Si9  1  0.167780  0.834222  0.999820  1
  Si  Si10  1  0.333597  0.165788  0.000468  1
  Si  Si11  1  0.167780  0.834222  0.500180  1
  Si  Si12  1  0.666442  0.834222  0.999820  1
  Si  Si13  1  0.832191  0.165788  0.499532  1
  Si  Si14  1  0.835644  0.671289  0.999768  1
  Si  Si15  1  0.666442  0.834222  0.500180  1
  Si  Si16  1  0.164318  0.328635  0.998877  1
  Si  Si17  1  0.333597  0.165788  0.499532  1
  Si  Si18  1  0.164318  0.328635  0.501123  1
  Si  Si19  1  0.835644  0.671289  0.500232  1
  Os  Os20  1  0.669659  0.339316  0.994957  1
  Os  Os21  1  0.330304  0.660611  0.997942  1
  Os  Os22  1  0.330304  0.660611  0.502058  1
  Os  Os23  1  0.669659  0.339316  0.505043  1
