# generated using pymatgen
data_TbHo10In9CoNi3
_symmetry_space_group_name_H-M   'P 1'
_cell_length_a   3.62408500
_cell_length_b   12.99942707
_cell_length_c   12.97130423
_cell_angle_alpha   112.36089248
_cell_angle_beta   90.00000000
_cell_angle_gamma   90.00000000
_symmetry_Int_Tables_number   1
_chemical_formula_structural   TbHo10In9CoNi3
_chemical_formula_sum   'Tb1 Ho10 In9 Co1 Ni3'
_cell_volume   565.14102323
_cell_formula_units_Z   1
loop_
 _symmetry_equiv_pos_site_id
 _symmetry_equiv_pos_as_xyz
  1  'x, y, z'
loop_
 _atom_site_type_symbol
 _atom_site_label
 _atom_site_symmetry_multiplicity
 _atom_site_fract_x
 _atom_site_fract_y
 _atom_site_fract_z
 _atom_site_occupancy
  Tb  Tb0  1  0.000000  0.999892  0.999424  1
  Ho  Ho1  1  0.000000  0.917623  0.582031  1
  Ho  Ho2  1  0.000000  0.080850  0.417746  1
  Ho  Ho3  1  0.000000  0.582463  0.918241  1
  Ho  Ho4  1  0.000000  0.417761  0.081131  1
  Ho  Ho5  1  0.000000  0.160155  0.839790  1
  Ho  Ho6  1  0.000000  0.840272  0.161346  1
  Ho  Ho7  1  0.000000  0.374773  0.626182  1
  Ho  Ho8  1  0.000000  0.628680  0.378489  1
  Ho  Ho9  1  0.000000  0.688700  0.683632  1
  Ho  Ho10  1  0.000000  0.312833  0.312644  1
  In  In11  1  0.500000  0.157716  0.632542  1
  In  In12  1  0.500000  0.840202  0.368768  1
  In  In13  1  0.500000  0.631627  0.157422  1
  In  In14  1  0.500000  0.368168  0.842930  1
  In  In15  1  0.500000  0.920819  0.778761  1
  In  In16  1  0.500000  0.076808  0.219402  1
  In  In17  1  0.500000  0.780450  0.923097  1
  In  In18  1  0.500000  0.219485  0.076626  1
  In  In19  1  0.500000  0.500230  0.499938  1
  Co  Co20  1  0.500000  0.754982  0.550637  1
  Ni  Ni21  1  0.500000  0.247607  0.449987  1
  Ni  Ni22  1  0.500000  0.549145  0.751319  1
  Ni  Ni23  1  0.500000  0.448755  0.247916  1
