# generated using pymatgen
data_Dy5Co9(Si6Ir5)2
_symmetry_space_group_name_H-M   'P 1'
_cell_length_a   12.60103500
_cell_length_b   12.60103438
_cell_length_c   3.83376900
_cell_angle_alpha   90.00000000
_cell_angle_beta   90.00000000
_cell_angle_gamma   119.99999900
_symmetry_Int_Tables_number   1
_chemical_formula_structural   Dy5Co9(Si6Ir5)2
_chemical_formula_sum   'Dy5 Co9 Si12 Ir10'
_cell_volume   527.19221913
_cell_formula_units_Z   1
loop_
 _symmetry_equiv_pos_site_id
 _symmetry_equiv_pos_as_xyz
  1  'x, y, z'
loop_
 _atom_site_type_symbol
 _atom_site_label
 _atom_site_symmetry_multiplicity
 _atom_site_fract_x
 _atom_site_fract_y
 _atom_site_fract_z
 _atom_site_occupancy
  Dy  Dy0  1  0.333333  0.666667  0.500000  1
  Dy  Dy1  1  0.666667  0.333333  0.500000  1
  Dy  Dy2  1  0.000000  0.812722  0.000000  1
  Dy  Dy3  1  0.187278  0.187278  0.000000  1
  Dy  Dy4  1  0.812722  0.000000  0.000000  1
  Co  Co5  1  0.516966  0.878010  0.000000  1
  Co  Co6  1  0.121990  0.638957  0.000000  1
  Co  Co7  1  0.361043  0.483034  0.000000  1
  Co  Co8  1  0.483034  0.361043  0.000000  1
  Co  Co9  1  0.878010  0.516966  0.000000  1
  Co  Co10  1  0.638957  0.121990  0.000000  1
  Co  Co11  1  0.000000  0.285322  0.000000  1
  Co  Co12  1  0.714678  0.714678  0.000000  1
  Co  Co13  1  0.285322  0.000000  0.000000  1
  Si  Si14  1  0.000000  0.630459  0.500000  1
  Si  Si15  1  0.369541  0.369541  0.500000  1
  Si  Si16  1  0.630459  0.000000  0.500000  1
  Si  Si17  1  0.518187  0.680515  0.000000  1
  Si  Si18  1  0.319485  0.837673  0.000000  1
  Si  Si19  1  0.162327  0.481813  0.000000  1
  Si  Si20  1  0.481813  0.162327  0.000000  1
  Si  Si21  1  0.680515  0.518187  0.000000  1
  Si  Si22  1  0.837673  0.319485  0.000000  1
  Si  Si23  1  0.000000  0.186461  0.500000  1
  Si  Si24  1  0.813539  0.813539  0.500000  1
  Si  Si25  1  0.186461  0.000000  0.500000  1
  Ir  Ir26  1  0.000000  0.445916  0.500000  1
  Ir  Ir27  1  0.554084  0.554084  0.500000  1
  Ir  Ir28  1  0.445916  0.000000  0.500000  1
  Ir  Ir29  1  0.620804  0.804740  0.500000  1
  Ir  Ir30  1  0.195260  0.816063  0.500000  1
  Ir  Ir31  1  0.183937  0.379196  0.500000  1
  Ir  Ir32  1  0.379196  0.183937  0.500000  1
  Ir  Ir33  1  0.804740  0.620804  0.500000  1
  Ir  Ir34  1  0.816063  0.195260  0.500000  1
  Ir  Ir35  1  0.000000  0.000000  0.500000  1
