# generated using pymatgen
data_Nb6V4Ge6B
_symmetry_space_group_name_H-M   'P 1'
_cell_length_a   7.59337100
_cell_length_b   7.59337109
_cell_length_c   5.12343800
_cell_angle_alpha   90.00000000
_cell_angle_beta   90.00000000
_cell_angle_gamma   120.00000397
_symmetry_Int_Tables_number   1
_chemical_formula_structural   Nb6V4Ge6B
_chemical_formula_sum   'Nb6 V4 Ge6 B1'
_cell_volume   255.83581554
_cell_formula_units_Z   1
loop_
 _symmetry_equiv_pos_site_id
 _symmetry_equiv_pos_as_xyz
  1  'x, y, z'
loop_
 _atom_site_type_symbol
 _atom_site_label
 _atom_site_symmetry_multiplicity
 _atom_site_fract_x
 _atom_site_fract_y
 _atom_site_fract_z
 _atom_site_occupancy
  Nb  Nb0  1  0.000000  0.756953  0.246295  1
  Nb  Nb1  1  0.243047  0.243047  0.246295  1
  Nb  Nb2  1  0.756953  0.000000  0.246295  1
  Nb  Nb3  1  0.000000  0.243047  0.753705  1
  Nb  Nb4  1  0.756953  0.756953  0.753705  1
  Nb  Nb5  1  0.243047  0.000000  0.753705  1
  V  V6  1  0.333333  0.666667  0.500000  1
  V  V7  1  0.666667  0.333333  0.500000  1
  V  V8  1  0.666667  0.333333  0.000000  1
  V  V9  1  0.333333  0.666667  0.000000  1
  Ge  Ge10  1  0.000000  0.402724  0.247788  1
  Ge  Ge11  1  0.597276  0.597276  0.247788  1
  Ge  Ge12  1  0.402724  0.000000  0.247788  1
  Ge  Ge13  1  0.000000  0.597276  0.752212  1
  Ge  Ge14  1  0.402724  0.402724  0.752212  1
  Ge  Ge15  1  0.597276  0.000000  0.752212  1
  B  B16  1  0.000000  0.000000  0.500000  1
