# generated using pymatgen
data_Tb5Dy5(GaSb)3
_symmetry_space_group_name_H-M   'P 1'
_cell_length_a   8.81184314
_cell_length_b   8.81251953
_cell_length_c   6.48760700
_cell_angle_alpha   90.00000000
_cell_angle_beta   90.00000000
_cell_angle_gamma   120.01809765
_symmetry_Int_Tables_number   1
_chemical_formula_structural   Tb5Dy5(GaSb)3
_chemical_formula_sum   'Tb5 Dy5 Ga3 Sb3'
_cell_volume   436.21720151
_cell_formula_units_Z   1
loop_
 _symmetry_equiv_pos_site_id
 _symmetry_equiv_pos_as_xyz
  1  'x, y, z'
loop_
 _atom_site_type_symbol
 _atom_site_label
 _atom_site_symmetry_multiplicity
 _atom_site_fract_x
 _atom_site_fract_y
 _atom_site_fract_z
 _atom_site_occupancy
  Tb  Tb0  1  0.011984  0.248921  0.250000  1
  Tb  Tb1  1  0.763144  0.751118  0.250000  1
  Tb  Tb2  1  0.754615  0.999979  0.750000  1
  Tb  Tb3  1  0.242632  0.232224  0.750000  1
  Tb  Tb4  1  0.235802  0.999967  0.250000  1
  Dy  Dy5  1  0.010388  0.767662  0.750000  1
  Dy  Dy6  1  0.327317  0.666750  0.497564  1
  Dy  Dy7  1  0.660634  0.333294  0.002448  1
  Dy  Dy8  1  0.660634  0.333294  0.497552  1
  Dy  Dy9  1  0.327317  0.666750  0.002436  1
  Ga  Ga10  1  0.397798  0.999918  0.750000  1
  Ga  Ga11  1  0.395734  0.396338  0.250000  1
  Ga  Ga12  1  0.999380  0.603622  0.250000  1
  Sb  Sb13  1  0.997596  0.392770  0.750000  1
  Sb  Sb14  1  0.605068  0.607384  0.750000  1
  Sb  Sb15  1  0.609957  0.000007  0.250000  1
