# generated using pymatgen
data_TbPrU4O12
_symmetry_space_group_name_H-M   'P 1'
_cell_length_a   6.67112274
_cell_length_b   6.67112261
_cell_length_c   6.64352667
_cell_angle_alpha   80.35528383
_cell_angle_beta   80.35528059
_cell_angle_gamma   120.16503520
_symmetry_Int_Tables_number   1
_chemical_formula_structural   TbPrU4O12
_chemical_formula_sum   'Tb1 Pr1 U4 O12'
_cell_volume   240.77080051
_cell_formula_units_Z   1
loop_
 _symmetry_equiv_pos_site_id
 _symmetry_equiv_pos_as_xyz
  1  'x, y, z'
loop_
 _atom_site_type_symbol
 _atom_site_label
 _atom_site_symmetry_multiplicity
 _atom_site_fract_x
 _atom_site_fract_y
 _atom_site_fract_z
 _atom_site_occupancy
  Tb  Tb0  1  0.833600  0.166400  0.500000  1
  Pr  Pr1  1  0.499855  0.500145  0.500000  1
  U  U2  1  0.167051  0.832949  0.500000  1
  U  U3  1  0.668957  0.331043  0.000000  1
  U  U4  1  0.999882  0.000118  0.000000  1
  U  U5  1  0.330942  0.669058  0.000000  1
  O  O6  1  0.110871  0.104547  0.640438  1
  O  O7  1  0.703010  0.041491  0.885309  1
  O  O8  1  0.958509  0.296990  0.114691  1
  O  O9  1  0.366288  0.364499  0.893764  1
  O  O10  1  0.042981  0.706755  0.882892  1
  O  O11  1  0.534780  0.195309  0.362905  1
  O  O12  1  0.895453  0.889129  0.359562  1
  O  O13  1  0.446956  0.792574  0.639020  1
  O  O14  1  0.635501  0.633712  0.106236  1
  O  O15  1  0.293245  0.957019  0.117108  1
  O  O16  1  0.804691  0.465220  0.637095  1
  O  O17  1  0.207426  0.553044  0.360980  1
