# generated using pymatgen
data_Ba3NaCa2(ReN4)2
_symmetry_space_group_name_H-M   'P 1'
_cell_length_a   10.79764643
_cell_length_b   10.45566363
_cell_length_c   8.06350406
_cell_angle_alpha   69.97074688
_cell_angle_beta   65.47240324
_cell_angle_gamma   44.55684357
_symmetry_Int_Tables_number   1
_chemical_formula_structural   Ba3NaCa2(ReN4)2
_chemical_formula_sum   'Ba6 Na2 Ca4 Re4 N16'
_cell_volume   579.51754758
_cell_formula_units_Z   2
loop_
 _symmetry_equiv_pos_site_id
 _symmetry_equiv_pos_as_xyz
  1  'x, y, z'
loop_
 _atom_site_type_symbol
 _atom_site_label
 _atom_site_symmetry_multiplicity
 _atom_site_fract_x
 _atom_site_fract_y
 _atom_site_fract_z
 _atom_site_occupancy
  Ba  Ba0  1  0.322856  0.677144  0.677144  1
  Ba  Ba1  1  0.111676  0.111676  0.888324  1
  Ba  Ba2  1  0.136122  0.136122  0.363878  1
  Ba  Ba3  1  0.363878  0.363878  0.136122  1
  Ba  Ba4  1  0.677144  0.322856  0.322856  1
  Ba  Ba5  1  0.888324  0.888324  0.111676  1
  Na  Na6  1  0.536247  0.963753  0.963753  1
  Na  Na7  1  0.963753  0.536247  0.536247  1
  Ca  Ca8  1  0.335543  0.335543  0.664457  1
  Ca  Ca9  1  0.902005  0.902005  0.597995  1
  Ca  Ca10  1  0.664457  0.664457  0.335543  1
  Ca  Ca11  1  0.597995  0.597995  0.902005  1
  Re  Re12  1  0.491252  0.008748  0.491252  1
  Re  Re13  1  0.008748  0.491252  0.008748  1
  Re  Re14  1  0.755529  0.244471  0.755529  1
  Re  Re15  1  0.244471  0.755529  0.244471  1
  N  N16  1  0.027564  0.643254  0.823361  1
  N  N17  1  0.708167  0.285346  0.991012  1
  N  N18  1  0.643254  0.027564  0.505821  1
  N  N19  1  0.505821  0.823361  0.643254  1
  N  N20  1  0.249521  0.583087  0.417243  1
  N  N21  1  0.750149  0.417243  0.583087  1
  N  N22  1  0.991012  0.015475  0.708167  1
  N  N23  1  0.549685  0.971263  0.252274  1
  N  N24  1  0.417243  0.750149  0.249521  1
  N  N25  1  0.971263  0.549685  0.226778  1
  N  N26  1  0.285346  0.708167  0.015475  1
  N  N27  1  0.823361  0.505821  0.027564  1
  N  N28  1  0.226778  0.252274  0.971263  1
  N  N29  1  0.583087  0.249521  0.750149  1
  N  N30  1  0.252274  0.226778  0.549685  1
  N  N31  1  0.015475  0.991012  0.285346  1
