# generated using pymatgen
data_Lu3Sc5In3Fe
_symmetry_space_group_name_H-M   'P 1'
_cell_length_a   9.86475900
_cell_length_b   9.86336610
_cell_length_c   6.74702500
_cell_angle_alpha   90.00000000
_cell_angle_beta   90.00000000
_cell_angle_gamma   120.01346944
_symmetry_Int_Tables_number   1
_chemical_formula_structural   Lu3Sc5In3Fe
_chemical_formula_sum   'Lu6 Sc10 In6 Fe2'
_cell_volume   568.45438681
_cell_formula_units_Z   2
loop_
 _symmetry_equiv_pos_site_id
 _symmetry_equiv_pos_as_xyz
  1  'x, y, z'
loop_
 _atom_site_type_symbol
 _atom_site_label
 _atom_site_symmetry_multiplicity
 _atom_site_fract_x
 _atom_site_fract_y
 _atom_site_fract_z
 _atom_site_occupancy
  Lu  Lu0  1  0.533853  0.067646  0.519798  1
  Lu  Lu1  1  0.932116  0.466059  0.519680  1
  Lu  Lu2  1  0.533890  0.466178  0.519795  1
  Lu  Lu3  1  0.466147  0.932354  0.019798  1
  Lu  Lu4  1  0.067884  0.533941  0.019680  1
  Lu  Lu5  1  0.466110  0.533822  0.019795  1
  Sc  Sc6  1  0.178578  0.357191  0.725709  1
  Sc  Sc7  1  0.642628  0.821322  0.725657  1
  Sc  Sc8  1  0.178575  0.821387  0.725752  1
  Sc  Sc9  1  0.821422  0.642809  0.225709  1
  Sc  Sc10  1  0.357372  0.178678  0.225657  1
  Sc  Sc11  1  0.821425  0.178613  0.225752  1
  Sc  Sc12  1  0.666712  0.333317  0.919156  1
  Sc  Sc13  1  0.333288  0.666683  0.419156  1
  Sc  Sc14  1  0.000038  0.000009  0.511706  1
  Sc  Sc15  1  0.999962  0.999991  0.011706  1
  In  In16  1  0.838956  0.677975  0.775909  1
  In  In17  1  0.322079  0.161049  0.775993  1
  In  In18  1  0.838970  0.161016  0.775965  1
  In  In19  1  0.161044  0.322025  0.275909  1
  In  In20  1  0.677921  0.838951  0.275993  1
  In  In21  1  0.161030  0.838984  0.275965  1
  Fe  Fe22  1  0.666674  0.333241  0.282720  1
  Fe  Fe23  1  0.333326  0.666759  0.782720  1
