# generated using pymatgen
data_Tb7Y(TmSn4)2
_symmetry_space_group_name_H-M   'P 1'
_cell_length_a   8.02582500
_cell_length_b   8.19172600
_cell_length_c   15.49169200
_cell_angle_alpha   90.00000000
_cell_angle_beta   90.00000000
_cell_angle_gamma   90.00000000
_symmetry_Int_Tables_number   1
_chemical_formula_structural   Tb7Y(TmSn4)2
_chemical_formula_sum   'Tb14 Y2 Tm4 Sn16'
_cell_volume   1018.50685708
_cell_formula_units_Z   2
loop_
 _symmetry_equiv_pos_site_id
 _symmetry_equiv_pos_as_xyz
  1  'x, y, z'
loop_
 _atom_site_type_symbol
 _atom_site_label
 _atom_site_symmetry_multiplicity
 _atom_site_fract_x
 _atom_site_fract_y
 _atom_site_fract_z
 _atom_site_occupancy
  Tb  Tb0  1  0.633048  0.162874  0.377967  1
  Tb  Tb1  1  0.133048  0.337126  0.122033  1
  Tb  Tb2  1  0.633048  0.162874  0.122033  1
  Tb  Tb3  1  0.133048  0.337126  0.377967  1
  Tb  Tb4  1  0.366952  0.837126  0.622033  1
  Tb  Tb5  1  0.866952  0.662874  0.877967  1
  Tb  Tb6  1  0.519859  0.320448  0.902611  1
  Tb  Tb7  1  0.019859  0.179552  0.597389  1
  Tb  Tb8  1  0.480141  0.679552  0.402611  1
  Tb  Tb9  1  0.980141  0.820448  0.097389  1
  Tb  Tb10  1  0.480141  0.679552  0.097389  1
  Tb  Tb11  1  0.980141  0.820448  0.402611  1
  Tb  Tb12  1  0.519859  0.320448  0.597389  1
  Tb  Tb13  1  0.019859  0.179552  0.902611  1
  Y  Y14  1  0.366952  0.837126  0.877967  1
  Y  Y15  1  0.866952  0.662874  0.622033  1
  Tm  Tm16  1  0.198340  0.502626  0.750000  1
  Tm  Tm17  1  0.698340  0.997374  0.750000  1
  Tm  Tm18  1  0.801660  0.497374  0.250000  1
  Tm  Tm19  1  0.301660  0.002626  0.250000  1
  Sn  Sn20  1  0.293056  0.035809  0.042584  1
  Sn  Sn21  1  0.793056  0.464191  0.457416  1
  Sn  Sn22  1  0.706944  0.964191  0.542584  1
  Sn  Sn23  1  0.206944  0.535809  0.957416  1
  Sn  Sn24  1  0.706944  0.964191  0.957416  1
  Sn  Sn25  1  0.206944  0.535809  0.542584  1
  Sn  Sn26  1  0.293056  0.035809  0.457416  1
  Sn  Sn27  1  0.793056  0.464191  0.042584  1
  Sn  Sn28  1  0.563822  0.618266  0.750000  1
  Sn  Sn29  1  0.063822  0.881734  0.750000  1
  Sn  Sn30  1  0.436178  0.381734  0.250000  1
  Sn  Sn31  1  0.936178  0.118266  0.250000  1
  Sn  Sn32  1  0.328894  0.148340  0.750000  1
  Sn  Sn33  1  0.828894  0.351660  0.750000  1
  Sn  Sn34  1  0.671106  0.851660  0.250000  1
  Sn  Sn35  1  0.171106  0.648340  0.250000  1
