# generated using pymatgen
data_Y(TmSe2)2
_symmetry_space_group_name_H-M   'P 1'
_cell_length_a   4.03800700
_cell_length_b   6.94906501
_cell_length_c   7.01057976
_cell_angle_alpha   71.81858994
_cell_angle_beta   90.00000000
_cell_angle_gamma   90.00000000
_symmetry_Int_Tables_number   1
_chemical_formula_structural   Y(TmSe2)2
_chemical_formula_sum   'Y1 Tm2 Se4'
_cell_volume   186.89793710
_cell_formula_units_Z   1
loop_
 _symmetry_equiv_pos_site_id
 _symmetry_equiv_pos_as_xyz
  1  'x, y, z'
loop_
 _atom_site_type_symbol
 _atom_site_label
 _atom_site_symmetry_multiplicity
 _atom_site_fract_x
 _atom_site_fract_y
 _atom_site_fract_z
 _atom_site_occupancy
  Y  Y0  1  0.000000  0.500000  0.500000  1
  Tm  Tm1  1  0.000000  0.000000  0.000000  1
  Tm  Tm2  1  0.500000  0.500000  0.000000  1
  Se  Se3  1  0.500000  0.757040  0.249340  1
  Se  Se4  1  0.000000  0.255053  0.241096  1
  Se  Se5  1  0.500000  0.242960  0.750660  1
  Se  Se6  1  0.000000  0.744947  0.758904  1
