# generated using pymatgen
data_Nd5Y(SbO7)2
_symmetry_space_group_name_H-M   'P 1'
_cell_length_a   6.67267200
_cell_length_b   6.64582742
_cell_length_c   7.69506900
_cell_angle_alpha   90.00000000
_cell_angle_beta   90.00000000
_cell_angle_gamma   108.67311904
_symmetry_Int_Tables_number   1
_chemical_formula_structural   Nd5Y(SbO7)2
_chemical_formula_sum   'Nd5 Y1 Sb2 O14'
_cell_volume   323.27838674
_cell_formula_units_Z   1
loop_
 _symmetry_equiv_pos_site_id
 _symmetry_equiv_pos_as_xyz
  1  'x, y, z'
loop_
 _atom_site_type_symbol
 _atom_site_label
 _atom_site_symmetry_multiplicity
 _atom_site_fract_x
 _atom_site_fract_y
 _atom_site_fract_z
 _atom_site_occupancy
  Nd  Nd0  1  0.524278  0.519865  0.498947  1
  Nd  Nd1  1  0.524278  0.519865  0.001053  1
  Nd  Nd2  1  0.007015  0.463147  0.750000  1
  Nd  Nd3  1  0.528850  0.004133  0.750000  1
  Nd  Nd4  1  0.463173  0.003784  0.250000  1
  Y  Y5  1  0.004233  0.526922  0.250000  1
  Sb  Sb6  1  0.997604  0.998194  0.497905  1
  Sb  Sb7  1  0.997604  0.998194  0.002095  1
  O  O8  1  0.934717  0.060001  0.750000  1
  O  O9  1  0.060637  0.928681  0.250000  1
  O  O10  1  0.356490  0.634661  0.250000  1
  O  O11  1  0.641844  0.370064  0.750000  1
  O  O12  1  0.372838  0.632684  0.750000  1
  O  O13  1  0.644725  0.376346  0.250000  1
  O  O14  1  0.310633  0.072421  0.971935  1
  O  O15  1  0.680377  0.920060  0.471623  1
  O  O16  1  0.310633  0.072421  0.528065  1
  O  O17  1  0.680377  0.920060  0.028377  1
  O  O18  1  0.046268  0.306415  0.464238  1
  O  O19  1  0.933580  0.682835  0.975295  1
  O  O20  1  0.933580  0.682835  0.524705  1
  O  O21  1  0.046268  0.306415  0.035762  1
