# generated using pymatgen
data_Ho2Tm2ZnCo
_symmetry_space_group_name_H-M   'P 1'
_cell_length_a   9.25338361
_cell_length_b   9.25338356
_cell_length_c   9.25438300
_cell_angle_alpha   59.99643064
_cell_angle_beta   59.99643080
_cell_angle_gamma   60.00713729
_symmetry_Int_Tables_number   1
_chemical_formula_structural   Ho2Tm2ZnCo
_chemical_formula_sum   'Ho8 Tm8 Zn4 Co4'
_cell_volume   560.31672765
_cell_formula_units_Z   4
loop_
 _symmetry_equiv_pos_site_id
 _symmetry_equiv_pos_as_xyz
  1  'x, y, z'
loop_
 _atom_site_type_symbol
 _atom_site_label
 _atom_site_symmetry_multiplicity
 _atom_site_fract_x
 _atom_site_fract_y
 _atom_site_fract_z
 _atom_site_occupancy
  Ho  Ho0  1  0.189394  0.189394  0.810606  1
  Ho  Ho1  1  0.810606  0.810606  0.189394  1
  Ho  Ho2  1  0.938553  0.561447  0.561447  1
  Ho  Ho3  1  0.561447  0.938553  0.938553  1
  Ho  Ho4  1  0.561447  0.938553  0.561447  1
  Ho  Ho5  1  0.938553  0.561447  0.938553  1
  Ho  Ho6  1  0.561535  0.561535  0.938465  1
  Ho  Ho7  1  0.938465  0.938465  0.561535  1
  Tm  Tm8  1  0.350057  0.350057  0.348969  1
  Tm  Tm9  1  0.350057  0.350057  0.950917  1
  Tm  Tm10  1  0.348969  0.950917  0.350057  1
  Tm  Tm11  1  0.950917  0.348969  0.350057  1
  Tm  Tm12  1  0.809784  0.190216  0.190216  1
  Tm  Tm13  1  0.190216  0.809784  0.809784  1
  Tm  Tm14  1  0.190216  0.809784  0.190216  1
  Tm  Tm15  1  0.809784  0.190216  0.809784  1
  Zn  Zn16  1  0.577065  0.577065  0.577759  1
  Zn  Zn17  1  0.577065  0.577065  0.268111  1
  Zn  Zn18  1  0.577759  0.268111  0.577065  1
  Zn  Zn19  1  0.268111  0.577759  0.577065  1
  Co  Co20  1  0.141979  0.141979  0.142339  1
  Co  Co21  1  0.141979  0.141979  0.573703  1
  Co  Co22  1  0.142339  0.573703  0.141979  1
  Co  Co23  1  0.573703  0.142339  0.141979  1
