# generated using pymatgen
data_Ce3U5(B6W)4
_symmetry_space_group_name_H-M   'P 1'
_cell_length_a   3.72331000
_cell_length_b   9.34002826
_cell_length_c   11.44767603
_cell_angle_alpha   90.00958442
_cell_angle_beta   90.00000000
_cell_angle_gamma   90.00000000
_symmetry_Int_Tables_number   1
_chemical_formula_structural   Ce3U5(B6W)4
_chemical_formula_sum   'Ce3 U5 B24 W4'
_cell_volume   398.10232228
_cell_formula_units_Z   1
loop_
 _symmetry_equiv_pos_site_id
 _symmetry_equiv_pos_as_xyz
  1  'x, y, z'
loop_
 _atom_site_type_symbol
 _atom_site_label
 _atom_site_symmetry_multiplicity
 _atom_site_fract_x
 _atom_site_fract_y
 _atom_site_fract_z
 _atom_site_occupancy
  Ce  Ce0  1  0.000000  0.335045  0.408054  1
  Ce  Ce1  1  0.000000  0.664771  0.592420  1
  Ce  Ce2  1  0.000000  0.834864  0.091761  1
  U  U3  1  0.000000  0.164870  0.907660  1
  U  U4  1  0.000000  0.956426  0.395042  1
  U  U5  1  0.000000  0.043457  0.605269  1
  U  U6  1  0.000000  0.456371  0.104402  1
  U  U7  1  0.000000  0.542924  0.895436  1
  B  B8  1  0.500000  0.552723  0.431087  1
  B  B9  1  0.500000  0.446493  0.570152  1
  B  B10  1  0.500000  0.053722  0.066379  1
  B  B11  1  0.500000  0.951372  0.930856  1
  B  B12  1  0.500000  0.745249  0.422994  1
  B  B13  1  0.500000  0.254579  0.577801  1
  B  B14  1  0.500000  0.243986  0.075207  1
  B  B15  1  0.500000  0.755293  0.922572  1
  B  B16  1  0.500000  0.803517  0.274222  1
  B  B17  1  0.500000  0.195489  0.727945  1
  B  B18  1  0.500000  0.303148  0.224870  1
  B  B19  1  0.500000  0.697194  0.774620  1
  B  B20  1  0.500000  0.643213  0.187338  1
  B  B21  1  0.500000  0.354148  0.813436  1
  B  B22  1  0.500000  0.143784  0.311726  1
  B  B23  1  0.500000  0.857041  0.688107  1
  B  B24  1  0.500000  0.989279  0.219747  1
  B  B25  1  0.500000  0.014274  0.781681  1
  B  B26  1  0.500000  0.488466  0.279602  1
  B  B27  1  0.500000  0.510811  0.720783  1
  B  B28  1  0.500000  0.637492  0.037586  1
  B  B29  1  0.500000  0.357799  0.960749  1
  B  B30  1  0.500000  0.137589  0.461774  1
  B  B31  1  0.500000  0.863040  0.538258  1
  W  W32  1  0.000000  0.646769  0.318483  1
  W  W33  1  0.000000  0.350920  0.684080  1
  W  W34  1  0.000000  0.147034  0.178352  1
  W  W35  1  0.000000  0.856848  0.819551  1
