# generated using pymatgen
data_LaSc2U(ReB6)2
_symmetry_space_group_name_H-M   'P 1'
_cell_length_a   3.64538400
_cell_length_b   9.04650501
_cell_length_c   11.46737252
_cell_angle_alpha   89.86829760
_cell_angle_beta   90.00000000
_cell_angle_gamma   90.00000000
_symmetry_Int_Tables_number   1
_chemical_formula_structural   LaSc2U(ReB6)2
_chemical_formula_sum   'La2 Sc4 U2 Re4 B24'
_cell_volume   378.16983582
_cell_formula_units_Z   2
loop_
 _symmetry_equiv_pos_site_id
 _symmetry_equiv_pos_as_xyz
  1  'x, y, z'
loop_
 _atom_site_type_symbol
 _atom_site_label
 _atom_site_symmetry_multiplicity
 _atom_site_fract_x
 _atom_site_fract_y
 _atom_site_fract_z
 _atom_site_occupancy
  La  La0  1  0.000000  0.321816  0.414172  1
  La  La1  1  0.000000  0.678184  0.585828  1
  Sc  Sc2  1  0.000000  0.945226  0.371661  1
  Sc  Sc3  1  0.000000  0.054774  0.628339  1
  Sc  Sc4  1  0.000000  0.446097  0.124933  1
  Sc  Sc5  1  0.000000  0.553903  0.875067  1
  U  U6  1  0.000000  0.821563  0.085098  1
  U  U7  1  0.000000  0.178437  0.914902  1
  Re  Re8  1  0.000000  0.646560  0.310647  1
  Re  Re9  1  0.000000  0.353440  0.689353  1
  Re  Re10  1  0.000000  0.136308  0.174883  1
  Re  Re11  1  0.000000  0.863692  0.825117  1
  B  B12  1  0.500000  0.558405  0.425925  1
  B  B13  1  0.500000  0.441595  0.574075  1
  B  B14  1  0.500000  0.054075  0.065215  1
  B  B15  1  0.500000  0.945925  0.934785  1
  B  B16  1  0.500000  0.755093  0.413443  1
  B  B17  1  0.500000  0.244907  0.586557  1
  B  B18  1  0.500000  0.252450  0.079129  1
  B  B19  1  0.500000  0.747550  0.920871  1
  B  B20  1  0.500000  0.796368  0.260845  1
  B  B21  1  0.500000  0.203632  0.739155  1
  B  B22  1  0.500000  0.293019  0.230793  1
  B  B23  1  0.500000  0.706981  0.769207  1
  B  B24  1  0.500000  0.632278  0.179438  1
  B  B25  1  0.500000  0.367722  0.820562  1
  B  B26  1  0.500000  0.127326  0.313290  1
  B  B27  1  0.500000  0.872674  0.686710  1
  B  B28  1  0.500000  0.981460  0.211342  1
  B  B29  1  0.500000  0.018540  0.788658  1
  B  B30  1  0.500000  0.484343  0.281117  1
  B  B31  1  0.500000  0.515657  0.718883  1
  B  B32  1  0.500000  0.601974  0.026753  1
  B  B33  1  0.500000  0.398026  0.973247  1
  B  B34  1  0.500000  0.094460  0.474174  1
  B  B35  1  0.500000  0.905540  0.525826  1
