# generated using pymatgen
data_Pr4Sn10PdRh5
_symmetry_space_group_name_H-M   'P 1'
_cell_length_a   13.69607187
_cell_length_b   13.69607121
_cell_length_c   7.37282201
_cell_angle_alpha   90.14964019
_cell_angle_beta   89.85036041
_cell_angle_gamma   160.98362590
_symmetry_Int_Tables_number   1
_chemical_formula_structural   Pr4Sn10PdRh5
_chemical_formula_sum   'Pr4 Sn10 Pd1 Rh5'
_cell_volume   450.63659922
_cell_formula_units_Z   1
loop_
 _symmetry_equiv_pos_site_id
 _symmetry_equiv_pos_as_xyz
  1  'x, y, z'
loop_
 _atom_site_type_symbol
 _atom_site_label
 _atom_site_symmetry_multiplicity
 _atom_site_fract_x
 _atom_site_fract_y
 _atom_site_fract_z
 _atom_site_occupancy
  Pr  Pr0  1  0.174496  0.825504  0.752154  1
  Pr  Pr1  1  0.826318  0.173682  0.249464  1
  Pr  Pr2  1  0.475055  0.524945  0.742608  1
  Pr  Pr3  1  0.523237  0.476763  0.237534  1
  Sn  Sn4  1  0.879062  0.120938  0.731917  1
  Sn  Sn5  1  0.121843  0.878157  0.226407  1
  Sn  Sn6  1  0.705143  0.294857  0.047840  1
  Sn  Sn7  1  0.295817  0.704183  0.548715  1
  Sn  Sn8  1  0.597514  0.402486  0.620239  1
  Sn  Sn9  1  0.403250  0.596750  0.114770  1
  Sn  Sn10  1  0.949368  0.050632  0.399603  1
  Sn  Sn11  1  0.048523  0.951477  0.906141  1
  Sn  Sn12  1  0.289843  0.710157  0.971644  1
  Sn  Sn13  1  0.710882  0.289118  0.471288  1
  Pd  Pd14  1  0.050973  0.949027  0.522243  1
  Rh  Rh15  1  0.948609  0.051391  0.021612  1
  Rh  Rh16  1  0.777175  0.222825  0.761538  1
  Rh  Rh17  1  0.222730  0.777270  0.261708  1
  Rh  Rh18  1  0.393485  0.606515  0.482835  1
  Rh  Rh19  1  0.606678  0.393322  0.985736  1
