# generated using pymatgen
data_Eu2As3PPd7
_symmetry_space_group_name_H-M   'P 1'
_cell_length_a   4.12991600
_cell_length_b   10.15277200
_cell_length_c   11.39784500
_cell_angle_alpha   90.00000000
_cell_angle_beta   90.00000000
_cell_angle_gamma   90.00000000
_symmetry_Int_Tables_number   1
_chemical_formula_structural   Eu2As3PPd7
_chemical_formula_sum   'Eu4 As6 P2 Pd14'
_cell_volume   477.91272965
_cell_formula_units_Z   2
loop_
 _symmetry_equiv_pos_site_id
 _symmetry_equiv_pos_as_xyz
  1  'x, y, z'
loop_
 _atom_site_type_symbol
 _atom_site_label
 _atom_site_symmetry_multiplicity
 _atom_site_fract_x
 _atom_site_fract_y
 _atom_site_fract_z
 _atom_site_occupancy
  Eu  Eu0  1  0.000000  0.438821  0.515848  1
  Eu  Eu1  1  0.500000  0.561179  0.015848  1
  Eu  Eu2  1  0.000000  0.063003  0.732988  1
  Eu  Eu3  1  0.500000  0.936997  0.232988  1
  As  As4  1  0.000000  0.694075  0.194659  1
  As  As5  1  0.500000  0.305925  0.694659  1
  As  As6  1  0.000000  0.019220  0.454556  1
  As  As7  1  0.500000  0.980780  0.954556  1
  As  As8  1  0.000000  0.323650  0.023998  1
  As  As9  1  0.500000  0.676350  0.523998  1
  P  P10  1  0.000000  0.654579  0.835440  1
  P  P11  1  0.500000  0.345421  0.335440  1
  Pd  Pd12  1  0.000000  0.772150  0.401979  1
  Pd  Pd13  1  0.500000  0.227850  0.901979  1
  Pd  Pd14  1  0.000000  0.748939  0.649832  1
  Pd  Pd15  1  0.500000  0.251061  0.149832  1
  Pd  Pd16  1  0.000000  0.810494  0.995580  1
  Pd  Pd17  1  0.500000  0.189506  0.495580  1
  Pd  Pd18  1  0.000000  0.447097  0.213261  1
  Pd  Pd19  1  0.500000  0.552903  0.713261  1
  Pd  Pd20  1  0.000000  0.413457  0.821466  1
  Pd  Pd21  1  0.500000  0.586543  0.321466  1
  Pd  Pd22  1  0.000000  0.200054  0.315150  1
  Pd  Pd23  1  0.500000  0.799946  0.815150  1
  Pd  Pd24  1  0.000000  0.084145  0.050043  1
  Pd  Pd25  1  0.500000  0.915855  0.550043  1
