# generated using pymatgen
data_Eu8Si12AgRh3
_symmetry_space_group_name_H-M   'P 1'
_cell_length_a   8.32168500
_cell_length_b   8.32168422
_cell_length_c   8.60180700
_cell_angle_alpha   90.00000000
_cell_angle_beta   90.00000000
_cell_angle_gamma   119.99999913
_symmetry_Int_Tables_number   1
_chemical_formula_structural   Eu8Si12AgRh3
_chemical_formula_sum   'Eu8 Si12 Ag1 Rh3'
_cell_volume   515.87304223
_cell_formula_units_Z   1
loop_
 _symmetry_equiv_pos_site_id
 _symmetry_equiv_pos_as_xyz
  1  'x, y, z'
loop_
 _atom_site_type_symbol
 _atom_site_label
 _atom_site_symmetry_multiplicity
 _atom_site_fract_x
 _atom_site_fract_y
 _atom_site_fract_z
 _atom_site_occupancy
  Eu  Eu0  1  0.000000  0.000000  0.749099  1
  Eu  Eu1  1  0.000000  0.000000  0.251318  1
  Eu  Eu2  1  0.495325  0.504675  0.744930  1
  Eu  Eu3  1  0.495325  0.990651  0.744930  1
  Eu  Eu4  1  0.009349  0.504675  0.744930  1
  Eu  Eu5  1  0.497938  0.502062  0.254879  1
  Eu  Eu6  1  0.004125  0.502062  0.254879  1
  Eu  Eu7  1  0.497938  0.995875  0.254879  1
  Si  Si8  1  0.840869  0.159131  0.000306  1
  Si  Si9  1  0.840869  0.681738  0.000306  1
  Si  Si10  1  0.318262  0.159131  0.000306  1
  Si  Si11  1  0.832814  0.167186  0.500348  1
  Si  Si12  1  0.832814  0.665630  0.500348  1
  Si  Si13  1  0.334370  0.167186  0.500348  1
  Si  Si14  1  0.165800  0.834200  0.499822  1
  Si  Si15  1  0.668402  0.834200  0.499822  1
  Si  Si16  1  0.165800  0.331598  0.499822  1
  Si  Si17  1  0.168071  0.831929  0.000102  1
  Si  Si18  1  0.663856  0.831929  0.000102  1
  Si  Si19  1  0.168071  0.336144  0.000102  1
  Ag  Ag20  1  0.666667  0.333333  0.995088  1
  Rh  Rh21  1  0.666667  0.333333  0.503779  1
  Rh  Rh22  1  0.333333  0.666667  0.495615  1
  Rh  Rh23  1  0.333333  0.666667  0.003939  1
