# generated using pymatgen
data_ErSc9Tl7InPt4
_symmetry_space_group_name_H-M   'P 1'
_cell_length_a   3.47201500
_cell_length_b   7.89170805
_cell_length_c   17.75068489
_cell_angle_alpha   89.74180969
_cell_angle_beta   90.00000000
_cell_angle_gamma   90.00000000
_symmetry_Int_Tables_number   1
_chemical_formula_structural   ErSc9Tl7InPt4
_chemical_formula_sum   'Er1 Sc9 Tl7 In1 Pt4'
_cell_volume   486.36611271
_cell_formula_units_Z   1
loop_
 _symmetry_equiv_pos_site_id
 _symmetry_equiv_pos_as_xyz
  1  'x, y, z'
loop_
 _atom_site_type_symbol
 _atom_site_label
 _atom_site_symmetry_multiplicity
 _atom_site_fract_x
 _atom_site_fract_y
 _atom_site_fract_z
 _atom_site_occupancy
  Er  Er0  1  0.000000  0.746977  0.280338  1
  Sc  Sc1  1  0.000000  0.120719  0.416085  1
  Sc  Sc2  1  0.000000  0.883698  0.586561  1
  Sc  Sc3  1  0.000000  0.380984  0.911952  1
  Sc  Sc4  1  0.000000  0.616373  0.085190  1
  Sc  Sc5  1  0.000000  0.249926  0.223006  1
  Sc  Sc6  1  0.000000  0.747714  0.777003  1
  Sc  Sc7  1  0.000000  0.249550  0.721405  1
  Sc  Sc8  1  0.000000  0.998069  0.998566  1
  Sc  Sc9  1  0.000000  0.504106  0.500311  1
  Tl  Tl10  1  0.500000  0.423195  0.356642  1
  Tl  Tl11  1  0.500000  0.577664  0.644988  1
  Tl  Tl12  1  0.500000  0.075171  0.853937  1
  Tl  Tl13  1  0.500000  0.927245  0.144233  1
  Tl  Tl14  1  0.500000  0.293877  0.060234  1
  Tl  Tl15  1  0.500000  0.702449  0.936747  1
  Tl  Tl16  1  0.500000  0.205671  0.562658  1
  In  In17  1  0.500000  0.802033  0.440282  1
  Pt  Pt18  1  0.500000  0.037189  0.307040  1
  Pt  Pt19  1  0.500000  0.966733  0.696050  1
  Pt  Pt20  1  0.500000  0.465593  0.803237  1
  Pt  Pt21  1  0.500000  0.525064  0.193535  1
