# generated using pymatgen
data_Dy7Y5Tc4
_symmetry_space_group_name_H-M   'P 1'
_cell_length_a   6.27665940
_cell_length_b   7.44307636
_cell_length_c   9.19206951
_cell_angle_alpha   89.99611178
_cell_angle_beta   90.05352342
_cell_angle_gamma   90.03224755
_symmetry_Int_Tables_number   1
_chemical_formula_structural   Dy7Y5Tc4
_chemical_formula_sum   'Dy7 Y5 Tc4'
_cell_volume   429.43167786
_cell_formula_units_Z   1
loop_
 _symmetry_equiv_pos_site_id
 _symmetry_equiv_pos_as_xyz
  1  'x, y, z'
loop_
 _atom_site_type_symbol
 _atom_site_label
 _atom_site_symmetry_multiplicity
 _atom_site_fract_x
 _atom_site_fract_y
 _atom_site_fract_z
 _atom_site_occupancy
  Dy  Dy0  1  0.160205  0.174822  0.437231  1
  Dy  Dy1  1  0.660441  0.325066  0.562544  1
  Dy  Dy2  1  0.839272  0.825672  0.937203  1
  Dy  Dy3  1  0.661047  0.325278  0.937136  1
  Dy  Dy4  1  0.839644  0.825560  0.562726  1
  Dy  Dy5  1  0.339472  0.674619  0.437314  1
  Dy  Dy6  1  0.160855  0.174513  0.062586  1
  Y  Y7  1  0.339705  0.674829  0.062377  1
  Y  Y8  1  0.871926  0.540839  0.250245  1
  Y  Y9  1  0.627465  0.040701  0.249993  1
  Y  Y10  1  0.128052  0.459363  0.749482  1
  Y  Y11  1  0.372529  0.959347  0.749602  1
  Tc  Tc12  1  0.044200  0.886602  0.250577  1
  Tc  Tc13  1  0.454607  0.385180  0.251247  1
  Tc  Tc14  1  0.954147  0.113865  0.750136  1
  Tc  Tc15  1  0.546433  0.613742  0.749603  1
