# generated using pymatgen
data_Hf8ZnIn4Ni7
_symmetry_space_group_name_H-M   'P 1'
_cell_length_a   7.17583121
_cell_length_b   7.17583176
_cell_length_c   6.66784727
_cell_angle_alpha   90.12418813
_cell_angle_beta   90.12419036
_cell_angle_gamma   89.75137850
_symmetry_Int_Tables_number   1
_chemical_formula_structural   Hf8ZnIn4Ni7
_chemical_formula_sum   'Hf8 Zn1 In4 Ni7'
_cell_volume   343.33967067
_cell_formula_units_Z   1
loop_
 _symmetry_equiv_pos_site_id
 _symmetry_equiv_pos_as_xyz
  1  'x, y, z'
loop_
 _atom_site_type_symbol
 _atom_site_label
 _atom_site_symmetry_multiplicity
 _atom_site_fract_x
 _atom_site_fract_y
 _atom_site_fract_z
 _atom_site_occupancy
  Hf  Hf0  1  0.144884  0.144884  0.993393  1
  Hf  Hf1  1  0.843545  0.843545  0.001663  1
  Hf  Hf2  1  0.659465  0.349529  0.508441  1
  Hf  Hf3  1  0.349529  0.659465  0.508441  1
  Hf  Hf4  1  0.693766  0.316731  0.992375  1
  Hf  Hf5  1  0.316731  0.693766  0.992375  1
  Hf  Hf6  1  0.818734  0.818734  0.498522  1
  Hf  Hf7  1  0.174710  0.174710  0.505042  1
  Zn  Zn8  1  0.374935  0.374935  0.208942  1
  In  In9  1  0.500809  0.998263  0.250694  1
  In  In10  1  0.501220  0.004652  0.748581  1
  In  In11  1  0.998263  0.500809  0.250694  1
  In  In12  1  0.004652  0.501220  0.748581  1
  Ni  Ni13  1  0.626163  0.626163  0.784370  1
  Ni  Ni14  1  0.621422  0.621422  0.219214  1
  Ni  Ni15  1  0.873381  0.123939  0.715730  1
  Ni  Ni16  1  0.873078  0.125726  0.284239  1
  Ni  Ni17  1  0.375047  0.375047  0.788736  1
  Ni  Ni18  1  0.125726  0.873078  0.284239  1
  Ni  Ni19  1  0.123939  0.873381  0.715730  1
