# generated using pymatgen
data_Dy3Er4Tm5Ni4
_symmetry_space_group_name_H-M   'P 1'
_cell_length_a   6.29030731
_cell_length_b   6.76124358
_cell_length_c   9.43729241
_cell_angle_alpha   89.99742423
_cell_angle_beta   89.96614681
_cell_angle_gamma   90.04491061
_symmetry_Int_Tables_number   1
_chemical_formula_structural   Dy3Er4Tm5Ni4
_chemical_formula_sum   'Dy3 Er4 Tm5 Ni4'
_cell_volume   401.37068256
_cell_formula_units_Z   1
loop_
 _symmetry_equiv_pos_site_id
 _symmetry_equiv_pos_as_xyz
  1  'x, y, z'
loop_
 _atom_site_type_symbol
 _atom_site_label
 _atom_site_symmetry_multiplicity
 _atom_site_fract_x
 _atom_site_fract_y
 _atom_site_fract_z
 _atom_site_occupancy
  Dy  Dy0  1  0.862588  0.529546  0.249613  1
  Dy  Dy1  1  0.637071  0.030418  0.249984  1
  Dy  Dy2  1  0.137786  0.470036  0.750179  1
  Er  Er3  1  0.819680  0.823182  0.566358  1
  Er  Er4  1  0.319963  0.677565  0.433847  1
  Er  Er5  1  0.180201  0.176874  0.065671  1
  Er  Er6  1  0.363014  0.968626  0.750209  1
  Tm  Tm7  1  0.320301  0.677669  0.065646  1
  Tm  Tm8  1  0.179960  0.176793  0.434475  1
  Tm  Tm9  1  0.679631  0.322650  0.566772  1
  Tm  Tm10  1  0.819481  0.823076  0.933875  1
  Tm  Tm11  1  0.679422  0.322834  0.933046  1
  Ni  Ni12  1  0.054288  0.891607  0.249776  1
  Ni  Ni13  1  0.444505  0.391668  0.249961  1
  Ni  Ni14  1  0.947220  0.108433  0.750062  1
  Ni  Ni15  1  0.554890  0.609023  0.750527  1
