# generated using pymatgen
data_Cs2Cd5Sb4
_symmetry_space_group_name_H-M   'P 1'
_cell_length_a   7.93508072
_cell_length_b   7.93508016
_cell_length_c   13.64349000
_cell_angle_alpha   90.00000000
_cell_angle_beta   90.00000000
_cell_angle_gamma   117.51338818
_symmetry_Int_Tables_number   1
_chemical_formula_structural   Cs2Cd5Sb4
_chemical_formula_sum   'Cs4 Cd10 Sb8'
_cell_volume   761.91096807
_cell_formula_units_Z   2
loop_
 _symmetry_equiv_pos_site_id
 _symmetry_equiv_pos_as_xyz
  1  'x, y, z'
loop_
 _atom_site_type_symbol
 _atom_site_label
 _atom_site_symmetry_multiplicity
 _atom_site_fract_x
 _atom_site_fract_y
 _atom_site_fract_z
 _atom_site_occupancy
  Cs  Cs0  1  0.212007  0.787993  0.500000  1
  Cs  Cs1  1  0.212007  0.787993  0.000000  1
  Cs  Cs2  1  0.787993  0.212007  0.500000  1
  Cs  Cs3  1  0.787993  0.212007  0.000000  1
  Cd  Cd4  1  0.529172  0.238386  0.250000  1
  Cd  Cd5  1  0.761614  0.470828  0.750000  1
  Cd  Cd6  1  0.470828  0.761614  0.750000  1
  Cd  Cd7  1  0.238386  0.529172  0.250000  1
  Cd  Cd8  1  0.648491  0.648491  0.392559  1
  Cd  Cd9  1  0.351509  0.351509  0.607441  1
  Cd  Cd10  1  0.648491  0.648491  0.107441  1
  Cd  Cd11  1  0.351509  0.351509  0.892559  1
  Cd  Cd12  1  0.006500  0.006500  0.250000  1
  Cd  Cd13  1  0.993500  0.993500  0.750000  1
  Sb  Sb14  1  0.597237  0.910780  0.250000  1
  Sb  Sb15  1  0.089220  0.402763  0.750000  1
  Sb  Sb16  1  0.402763  0.089220  0.750000  1
  Sb  Sb17  1  0.910780  0.597237  0.250000  1
  Sb  Sb18  1  0.280125  0.280125  0.400620  1
  Sb  Sb19  1  0.719875  0.719875  0.599380  1
  Sb  Sb20  1  0.280125  0.280125  0.099380  1
  Sb  Sb21  1  0.719875  0.719875  0.900620  1
