# generated using pymatgen
data_Dy2Al20FeRuRh2
_symmetry_space_group_name_H-M   'P 1'
_cell_length_a   6.80622569
_cell_length_b   6.82232790
_cell_length_c   9.11326101
_cell_angle_alpha   90.36655926
_cell_angle_beta   90.17222949
_cell_angle_gamma   97.17193214
_symmetry_Int_Tables_number   1
_chemical_formula_structural   Dy2Al20FeRuRh2
_chemical_formula_sum   'Dy2 Al20 Fe1 Ru1 Rh2'
_cell_volume   419.84537319
_cell_formula_units_Z   1
loop_
 _symmetry_equiv_pos_site_id
 _symmetry_equiv_pos_as_xyz
  1  'x, y, z'
loop_
 _atom_site_type_symbol
 _atom_site_label
 _atom_site_symmetry_multiplicity
 _atom_site_fract_x
 _atom_site_fract_y
 _atom_site_fract_z
 _atom_site_occupancy
  Dy  Dy0  1  0.871569  0.127976  0.748817  1
  Dy  Dy1  1  0.128431  0.872024  0.251183  1
  Al  Al2  1  0.619813  0.371723  0.548127  1
  Al  Al3  1  0.380187  0.628277  0.451873  1
  Al  Al4  1  0.376771  0.622295  0.050401  1
  Al  Al5  1  0.623229  0.377705  0.949599  1
  Al  Al6  1  0.228087  0.219705  0.497592  1
  Al  Al7  1  0.771913  0.780295  0.502408  1
  Al  Al8  1  0.776423  0.776097  0.001805  1
  Al  Al9  1  0.223577  0.223903  0.998195  1
  Al  Al10  1  0.845620  0.156324  0.102097  1
  Al  Al11  1  0.154380  0.843676  0.897903  1
  Al  Al12  1  0.160332  0.848125  0.599775  1
  Al  Al13  1  0.839668  0.151875  0.400225  1
  Al  Al14  1  0.858201  0.588765  0.749748  1
  Al  Al15  1  0.141799  0.411235  0.250252  1
  Al  Al16  1  0.413597  0.139543  0.745666  1
  Al  Al17  1  0.586403  0.860457  0.254334  1
  Al  Al18  1  0.224409  0.479198  0.751072  1
  Al  Al19  1  0.775591  0.520802  0.248928  1
  Al  Al20  1  0.519127  0.778155  0.743947  1
  Al  Al21  1  0.480873  0.221845  0.256053  1
  Fe  Fe22  1  0.500000  0.000000  0.500000  1
  Ru  Ru23  1  0.000000  0.500000  0.000000  1
  Rh  Rh24  1  0.000000  0.500000  0.500000  1
  Rh  Rh25  1  0.500000  0.000000  0.000000  1
