# generated using pymatgen
data_Ho7ZrAlPd24
_symmetry_space_group_name_H-M   'P 1'
_cell_length_a   8.30626563
_cell_length_b   8.30626563
_cell_length_c   8.30626563
_cell_angle_alpha   89.84271678
_cell_angle_beta   89.84271678
_cell_angle_gamma   89.84271678
_symmetry_Int_Tables_number   1
_chemical_formula_structural   Ho7ZrAlPd24
_chemical_formula_sum   'Ho7 Zr1 Al1 Pd24'
_cell_volume   573.07642889
_cell_formula_units_Z   1
loop_
 _symmetry_equiv_pos_site_id
 _symmetry_equiv_pos_as_xyz
  1  'x, y, z'
loop_
 _atom_site_type_symbol
 _atom_site_label
 _atom_site_symmetry_multiplicity
 _atom_site_fract_x
 _atom_site_fract_y
 _atom_site_fract_z
 _atom_site_occupancy
  Ho  Ho0  1  0.747544  0.747544  0.747544  1
  Ho  Ho1  1  0.748026  0.748026  0.252008  1
  Ho  Ho2  1  0.748026  0.252008  0.748026  1
  Ho  Ho3  1  0.252231  0.252231  0.748245  1
  Ho  Ho4  1  0.252231  0.748245  0.252231  1
  Ho  Ho5  1  0.252008  0.748026  0.748026  1
  Ho  Ho6  1  0.748245  0.252231  0.252231  1
  Zr  Zr7  1  0.253989  0.253989  0.253989  1
  Al  Al8  1  0.999318  0.999318  0.999318  1
  Pd  Pd9  1  0.259351  0.496741  0.004548  1
  Pd  Pd10  1  0.740576  0.499100  0.000443  1
  Pd  Pd11  1  0.004548  0.259351  0.496741  1
  Pd  Pd12  1  0.496741  0.259351  0.004548  1
  Pd  Pd13  1  0.000443  0.740576  0.499100  1
  Pd  Pd14  1  0.499100  0.740576  0.000443  1
  Pd  Pd15  1  0.496741  0.004548  0.259351  1
  Pd  Pd16  1  0.259351  0.004548  0.496741  1
  Pd  Pd17  1  0.499100  0.000443  0.740576  1
  Pd  Pd18  1  0.740576  0.000443  0.499100  1
  Pd  Pd19  1  0.004548  0.496741  0.259351  1
  Pd  Pd20  1  0.000443  0.499100  0.740576  1
  Pd  Pd21  1  0.252994  0.496251  0.496251  1
  Pd  Pd22  1  0.747228  0.499351  0.499351  1
  Pd  Pd23  1  0.496251  0.252994  0.496251  1
  Pd  Pd24  1  0.499351  0.747228  0.499351  1
  Pd  Pd25  1  0.496251  0.496251  0.252994  1
  Pd  Pd26  1  0.499351  0.499351  0.747228  1
  Pd  Pd27  1  0.287386  0.003365  0.003365  1
  Pd  Pd28  1  0.711087  0.000116  0.000116  1
  Pd  Pd29  1  0.003365  0.287386  0.003365  1
  Pd  Pd30  1  0.000116  0.711087  0.000116  1
  Pd  Pd31  1  0.003365  0.003365  0.287386  1
  Pd  Pd32  1  0.000116  0.000116  0.711087  1
