# generated using pymatgen
data_ErCoNiB2
_symmetry_space_group_name_H-M   'P 1'
_cell_length_a   4.89062834
_cell_length_b   4.89062860
_cell_length_c   6.96094383
_cell_angle_alpha   58.87853918
_cell_angle_beta   58.87853604
_cell_angle_gamma   62.16253942
_symmetry_Int_Tables_number   1
_chemical_formula_structural   ErCoNiB2
_chemical_formula_sum   'Er2 Co2 Ni2 B4'
_cell_volume   117.39341498
_cell_formula_units_Z   2
loop_
 _symmetry_equiv_pos_site_id
 _symmetry_equiv_pos_as_xyz
  1  'x, y, z'
loop_
 _atom_site_type_symbol
 _atom_site_label
 _atom_site_symmetry_multiplicity
 _atom_site_fract_x
 _atom_site_fract_y
 _atom_site_fract_z
 _atom_site_occupancy
  Er  Er0  1  0.124721  0.875279  0.750000  1
  Er  Er1  1  0.873607  0.126393  0.250000  1
  Co  Co2  1  0.466822  0.270857  0.702810  1
  Co  Co3  1  0.729143  0.533178  0.797190  1
  Ni  Ni4  1  0.530720  0.730086  0.294954  1
  Ni  Ni5  1  0.269914  0.469280  0.205046  1
  B  B6  1  0.161845  0.496650  0.524112  1
  B  B7  1  0.503350  0.838155  0.975888  1
  B  B8  1  0.831735  0.491855  0.485983  1
  B  B9  1  0.508145  0.168265  0.014017  1
