# generated using pymatgen
data_ErCu3AgPt
_symmetry_space_group_name_H-M   'P 1'
_cell_length_a   5.07248846
_cell_length_b   5.07248787
_cell_length_c   5.16015221
_cell_angle_alpha   60.56040739
_cell_angle_beta   60.56041317
_cell_angle_gamma   60.00000189
_symmetry_Int_Tables_number   1
_chemical_formula_structural   ErCu3AgPt
_chemical_formula_sum   'Er1 Cu3 Ag1 Pt1'
_cell_volume   94.67097871
_cell_formula_units_Z   1
loop_
 _symmetry_equiv_pos_site_id
 _symmetry_equiv_pos_as_xyz
  1  'x, y, z'
loop_
 _atom_site_type_symbol
 _atom_site_label
 _atom_site_symmetry_multiplicity
 _atom_site_fract_x
 _atom_site_fract_y
 _atom_site_fract_z
 _atom_site_occupancy
  Er  Er0  1  0.997630  0.997630  0.007111  1
  Cu  Cu1  1  0.626114  0.128667  0.619104  1
  Cu  Cu2  1  0.128667  0.626114  0.619104  1
  Cu  Cu3  1  0.626114  0.626114  0.619104  1
  Ag  Ag4  1  0.244718  0.244718  0.265846  1
  Pt  Pt5  1  0.626757  0.626757  0.119729  1
