# generated using pymatgen
data_Dy3Ho(Si4Tc3)2
_symmetry_space_group_name_H-M   'P 1'
_cell_length_a   6.79448508
_cell_length_b   6.79122422
_cell_length_c   6.78197018
_cell_angle_alpha   69.78030218
_cell_angle_beta   89.98432524
_cell_angle_gamma   90.00274063
_symmetry_Int_Tables_number   1
_chemical_formula_structural   Dy3Ho(Si4Tc3)2
_chemical_formula_sum   'Dy3 Ho1 Si8 Tc6'
_cell_volume   293.65443091
_cell_formula_units_Z   1
loop_
 _symmetry_equiv_pos_site_id
 _symmetry_equiv_pos_as_xyz
  1  'x, y, z'
loop_
 _atom_site_type_symbol
 _atom_site_label
 _atom_site_symmetry_multiplicity
 _atom_site_fract_x
 _atom_site_fract_y
 _atom_site_fract_z
 _atom_site_occupancy
  Dy  Dy0  1  0.167444  0.057842  0.808788  1
  Dy  Dy1  1  0.332593  0.557834  0.808814  1
  Dy  Dy2  1  0.832508  0.942149  0.191211  1
  Ho  Ho3  1  0.667601  0.442151  0.191404  1
  Si  Si4  1  0.448202  0.121735  0.103393  1
  Si  Si5  1  0.948010  0.378407  0.896769  1
  Si  Si6  1  0.551919  0.878253  0.896738  1
  Si  Si7  1  0.051671  0.621540  0.103372  1
  Si  Si8  1  0.857871  0.131451  0.513070  1
  Si  Si9  1  0.358146  0.368803  0.486596  1
  Si  Si10  1  0.142006  0.868732  0.486749  1
  Si  Si11  1  0.642017  0.631151  0.513108  1
  Tc  Tc12  1  0.500054  0.000154  0.499921  1
  Tc  Tc13  1  0.999910  0.499964  0.499933  1
  Tc  Tc14  1  0.149913  0.242445  0.240220  1
  Tc  Tc15  1  0.649956  0.257553  0.759886  1
  Tc  Tc16  1  0.849997  0.757506  0.759891  1
  Tc  Tc17  1  0.350180  0.742329  0.240139  1
