# generated using pymatgen
data_Ho2Cu2SiPd12
_symmetry_space_group_name_H-M   'P 1'
_cell_length_a   8.82452800
_cell_length_b   8.82452800
_cell_length_c   7.01590600
_cell_angle_alpha   90.00000000
_cell_angle_beta   90.00000000
_cell_angle_gamma   90.00000000
_symmetry_Int_Tables_number   1
_chemical_formula_structural   Ho2Cu2SiPd12
_chemical_formula_sum   'Ho4 Cu4 Si2 Pd24'
_cell_volume   546.34469767
_cell_formula_units_Z   2
loop_
 _symmetry_equiv_pos_site_id
 _symmetry_equiv_pos_as_xyz
  1  'x, y, z'
loop_
 _atom_site_type_symbol
 _atom_site_label
 _atom_site_symmetry_multiplicity
 _atom_site_fract_x
 _atom_site_fract_y
 _atom_site_fract_z
 _atom_site_occupancy
  Ho  Ho0  1  0.500000  0.000000  0.928817  1
  Ho  Ho1  1  0.000000  0.500000  0.071183  1
  Ho  Ho2  1  0.000000  0.000000  0.500000  1
  Ho  Ho3  1  0.500000  0.500000  0.500000  1
  Cu  Cu4  1  0.250000  0.750000  0.000000  1
  Cu  Cu5  1  0.250000  0.250000  0.000000  1
  Cu  Cu6  1  0.750000  0.750000  0.000000  1
  Cu  Cu7  1  0.750000  0.250000  0.000000  1
  Si  Si8  1  0.500000  0.000000  0.440987  1
  Si  Si9  1  0.000000  0.500000  0.559013  1
  Pd  Pd10  1  0.333753  0.833753  0.618663  1
  Pd  Pd11  1  0.333753  0.166247  0.618663  1
  Pd  Pd12  1  0.666247  0.833753  0.618663  1
  Pd  Pd13  1  0.666247  0.166247  0.618663  1
  Pd  Pd14  1  0.166247  0.666247  0.381337  1
  Pd  Pd15  1  0.166247  0.333753  0.381337  1
  Pd  Pd16  1  0.833753  0.666247  0.381337  1
  Pd  Pd17  1  0.833753  0.333753  0.381337  1
  Pd  Pd18  1  0.500000  0.767215  0.250834  1
  Pd  Pd19  1  0.500000  0.232785  0.250834  1
  Pd  Pd20  1  0.267215  0.000000  0.250834  1
  Pd  Pd21  1  0.732785  0.000000  0.250834  1
  Pd  Pd22  1  0.000000  0.732785  0.749166  1
  Pd  Pd23  1  0.000000  0.267215  0.749166  1
  Pd  Pd24  1  0.232785  0.500000  0.749166  1
  Pd  Pd25  1  0.767215  0.500000  0.749166  1
  Pd  Pd26  1  0.500000  0.341611  0.863462  1
  Pd  Pd27  1  0.500000  0.658389  0.863462  1
  Pd  Pd28  1  0.841611  0.000000  0.863462  1
  Pd  Pd29  1  0.158389  0.000000  0.863462  1
  Pd  Pd30  1  0.000000  0.158389  0.136538  1
  Pd  Pd31  1  0.000000  0.841611  0.136538  1
  Pd  Pd32  1  0.658389  0.500000  0.136538  1
  Pd  Pd33  1  0.341611  0.500000  0.136538  1
