# generated using pymatgen
data_TbEuSe2(O3F)2
_symmetry_space_group_name_H-M   'P 1'
_cell_length_a   4.46363003
_cell_length_b   6.66864082
_cell_length_c   7.10043410
_cell_angle_alpha   92.53490267
_cell_angle_beta   94.92203662
_cell_angle_gamma   97.30013367
_symmetry_Int_Tables_number   1
_chemical_formula_structural   TbEuSe2(O3F)2
_chemical_formula_sum   'Tb1 Eu1 Se2 O6 F2'
_cell_volume   208.54242582
_cell_formula_units_Z   1
loop_
 _symmetry_equiv_pos_site_id
 _symmetry_equiv_pos_as_xyz
  1  'x, y, z'
loop_
 _atom_site_type_symbol
 _atom_site_label
 _atom_site_symmetry_multiplicity
 _atom_site_fract_x
 _atom_site_fract_y
 _atom_site_fract_z
 _atom_site_occupancy
  Tb  Tb0  1  0.537450  0.639086  0.757103  1
  Eu  Eu1  1  0.459871  0.358429  0.240793  1
  Se  Se2  1  0.679816  0.854155  0.278453  1
  Se  Se3  1  0.322681  0.146430  0.720359  1
  O  O4  1  0.617138  0.679563  0.084322  1
  O  O5  1  0.409400  0.008709  0.234967  1
  O  O6  1  0.512798  0.683362  0.430611  1
  O  O7  1  0.495130  0.320874  0.572692  1
  O  O8  1  0.586706  0.989014  0.767244  1
  O  O9  1  0.381851  0.326303  0.911178  1
  F  F10  1  0.958030  0.332273  0.257485  1
  F  F11  1  0.039133  0.661805  0.744793  1
