# generated using pymatgen
data_Sc3Co(BRh2)2
_symmetry_space_group_name_H-M   'P 1'
_cell_length_a   3.07976600
_cell_length_b   9.39421800
_cell_length_c   9.39421800
_cell_angle_alpha   90.00000000
_cell_angle_beta   90.00000000
_cell_angle_gamma   90.00000000
_symmetry_Int_Tables_number   1
_chemical_formula_structural   Sc3Co(BRh2)2
_chemical_formula_sum   'Sc6 Co2 B4 Rh8'
_cell_volume   271.79345123
_cell_formula_units_Z   2
loop_
 _symmetry_equiv_pos_site_id
 _symmetry_equiv_pos_as_xyz
  1  'x, y, z'
loop_
 _atom_site_type_symbol
 _atom_site_label
 _atom_site_symmetry_multiplicity
 _atom_site_fract_x
 _atom_site_fract_y
 _atom_site_fract_z
 _atom_site_occupancy
  Sc  Sc0  1  0.000000  0.174809  0.674809  1
  Sc  Sc1  1  0.000000  0.825191  0.325191  1
  Sc  Sc2  1  0.000000  0.325191  0.174809  1
  Sc  Sc3  1  0.000000  0.674809  0.825191  1
  Sc  Sc4  1  0.000000  0.000000  0.000000  1
  Sc  Sc5  1  0.000000  0.500000  0.500000  1
  Co  Co6  1  0.500000  0.000000  0.500000  1
  Co  Co7  1  0.500000  0.500000  0.000000  1
  B  B8  1  0.000000  0.609862  0.109862  1
  B  B9  1  0.000000  0.390138  0.890138  1
  B  B10  1  0.000000  0.890138  0.609862  1
  B  B11  1  0.000000  0.109862  0.390138  1
  Rh  Rh12  1  0.500000  0.065524  0.228387  1
  Rh  Rh13  1  0.500000  0.934476  0.771613  1
  Rh  Rh14  1  0.500000  0.771613  0.065524  1
  Rh  Rh15  1  0.500000  0.434476  0.728387  1
  Rh  Rh16  1  0.500000  0.228387  0.934476  1
  Rh  Rh17  1  0.500000  0.565524  0.271613  1
  Rh  Rh18  1  0.500000  0.728387  0.565524  1
  Rh  Rh19  1  0.500000  0.271613  0.434476  1
