# generated using pymatgen
data_Tb3Sm(SiPd14)2
_symmetry_space_group_name_H-M   'P 1'
_cell_length_a   8.94342000
_cell_length_b   8.94342000
_cell_length_c   7.12321200
_cell_angle_alpha   90.00000000
_cell_angle_beta   90.00000000
_cell_angle_gamma   90.00000000
_symmetry_Int_Tables_number   1
_chemical_formula_structural   Tb3Sm(SiPd14)2
_chemical_formula_sum   'Tb3 Sm1 Si2 Pd28'
_cell_volume   569.74841148
_cell_formula_units_Z   1
loop_
 _symmetry_equiv_pos_site_id
 _symmetry_equiv_pos_as_xyz
  1  'x, y, z'
loop_
 _atom_site_type_symbol
 _atom_site_label
 _atom_site_symmetry_multiplicity
 _atom_site_fract_x
 _atom_site_fract_y
 _atom_site_fract_z
 _atom_site_occupancy
  Tb  Tb0  1  0.000000  0.500000  0.064402  1
  Tb  Tb1  1  0.000000  0.000000  0.500040  1
  Tb  Tb2  1  0.500000  0.500000  0.500040  1
  Sm  Sm3  1  0.500000  0.000000  0.936011  1
  Si  Si4  1  0.500000  0.000000  0.448676  1
  Si  Si5  1  0.000000  0.500000  0.551303  1
  Pd  Pd6  1  0.334297  0.834297  0.615598  1
  Pd  Pd7  1  0.334297  0.165703  0.615598  1
  Pd  Pd8  1  0.665703  0.834297  0.615598  1
  Pd  Pd9  1  0.665703  0.165703  0.615598  1
  Pd  Pd10  1  0.165321  0.665321  0.383762  1
  Pd  Pd11  1  0.165321  0.334679  0.383762  1
  Pd  Pd12  1  0.834679  0.665321  0.383762  1
  Pd  Pd13  1  0.834679  0.334679  0.383762  1
  Pd  Pd14  1  0.500000  0.769718  0.257356  1
  Pd  Pd15  1  0.500000  0.230282  0.257356  1
  Pd  Pd16  1  0.269718  0.000000  0.257356  1
  Pd  Pd17  1  0.730282  0.000000  0.257356  1
  Pd  Pd18  1  0.000000  0.729743  0.743353  1
  Pd  Pd19  1  0.000000  0.270257  0.743353  1
  Pd  Pd20  1  0.229743  0.500000  0.743353  1
  Pd  Pd21  1  0.770257  0.500000  0.743353  1
  Pd  Pd22  1  0.500000  0.349266  0.853349  1
  Pd  Pd23  1  0.500000  0.650734  0.853349  1
  Pd  Pd24  1  0.849266  0.000000  0.853349  1
  Pd  Pd25  1  0.150734  0.000000  0.853349  1
  Pd  Pd26  1  0.000000  0.151064  0.146455  1
  Pd  Pd27  1  0.000000  0.848936  0.146455  1
  Pd  Pd28  1  0.651064  0.500000  0.146455  1
  Pd  Pd29  1  0.348936  0.500000  0.146455  1
  Pd  Pd30  1  0.249620  0.749620  0.000009  1
  Pd  Pd31  1  0.249620  0.250380  0.000009  1
  Pd  Pd32  1  0.750380  0.749620  0.000009  1
  Pd  Pd33  1  0.750380  0.250380  0.000009  1
