# generated using pymatgen
data_Ti3Mn2VB4
_symmetry_space_group_name_H-M   'P 1'
_cell_length_a   5.71055081
_cell_length_b   5.71055180
_cell_length_c   3.10944500
_cell_angle_alpha   90.00000000
_cell_angle_beta   90.00000000
_cell_angle_gamma   89.35918400
_symmetry_Int_Tables_number   1
_chemical_formula_structural   Ti3Mn2VB4
_chemical_formula_sum   'Ti3 Mn2 V1 B4'
_cell_volume   101.39389142
_cell_formula_units_Z   1
loop_
 _symmetry_equiv_pos_site_id
 _symmetry_equiv_pos_as_xyz
  1  'x, y, z'
loop_
 _atom_site_type_symbol
 _atom_site_label
 _atom_site_symmetry_multiplicity
 _atom_site_fract_x
 _atom_site_fract_y
 _atom_site_fract_z
 _atom_site_occupancy
  Ti  Ti0  1  0.319918  0.817242  0.500000  1
  Ti  Ti1  1  0.180019  0.319981  0.500000  1
  Ti  Ti2  1  0.682758  0.180082  0.500000  1
  Mn  Mn3  1  0.502222  0.501241  0.000000  1
  Mn  Mn4  1  0.998759  0.997778  0.000000  1
  V  V5  1  0.820916  0.679084  0.500000  1
  B  B6  1  0.103792  0.614864  0.000000  1
  B  B7  1  0.615946  0.884054  0.000000  1
  B  B8  1  0.390534  0.109466  0.000000  1
  B  B9  1  0.885136  0.396208  0.000000  1
