# generated using pymatgen
data_Pr6Cd4Pd9Pt4
_symmetry_space_group_name_H-M   'P 1'
_cell_length_a   8.55724858
_cell_length_b   8.55724937
_cell_length_c   8.56723200
_cell_angle_alpha   109.49485371
_cell_angle_beta   109.49485558
_cell_angle_gamma   109.44758017
_symmetry_Int_Tables_number   1
_chemical_formula_structural   Pr6Cd4Pd9Pt4
_chemical_formula_sum   'Pr6 Cd4 Pd9 Pt4'
_cell_volume   482.79214544
_cell_formula_units_Z   1
loop_
 _symmetry_equiv_pos_site_id
 _symmetry_equiv_pos_as_xyz
  1  'x, y, z'
loop_
 _atom_site_type_symbol
 _atom_site_label
 _atom_site_symmetry_multiplicity
 _atom_site_fract_x
 _atom_site_fract_y
 _atom_site_fract_z
 _atom_site_occupancy
  Pr  Pr0  1  0.702403  0.702403  0.002412  1
  Pr  Pr1  1  0.297597  0.000000  0.300009  1
  Pr  Pr2  1  0.000000  0.297597  0.300009  1
  Pr  Pr3  1  0.299733  0.299733  0.999429  1
  Pr  Pr4  1  0.700267  0.000000  0.699697  1
  Pr  Pr5  1  0.000000  0.700267  0.699697  1
  Cd  Cd6  1  0.000000  0.000000  0.502310  1
  Cd  Cd7  1  0.000000  0.498758  0.998426  1
  Cd  Cd8  1  0.498758  0.000000  0.998426  1
  Cd  Cd9  1  0.501242  0.501242  0.499668  1
  Pd  Pd10  1  0.659198  0.342483  0.000569  1
  Pd  Pd11  1  0.340802  0.683286  0.341371  1
  Pd  Pd12  1  0.000000  0.341246  0.658250  1
  Pd  Pd13  1  0.342483  0.659198  0.000569  1
  Pd  Pd14  1  0.341246  0.000000  0.658250  1
  Pd  Pd15  1  0.683286  0.340802  0.341371  1
  Pd  Pd16  1  0.658754  0.658754  0.317001  1
  Pd  Pd17  1  0.657517  0.316714  0.658086  1
  Pd  Pd18  1  0.316714  0.657517  0.658086  1
  Pt  Pt19  1  0.343493  0.343493  0.684944  1
  Pt  Pt20  1  0.656507  0.000000  0.341449  1
  Pt  Pt21  1  0.000000  0.656507  0.341449  1
  Pt  Pt22  1  0.000000  0.000000  0.998524  1
