# generated using pymatgen
data_LiCa6(P3Rh5)4
_symmetry_space_group_name_H-M   'P 1'
_cell_length_a   13.43913900
_cell_length_b   13.43913808
_cell_length_c   3.90628100
_cell_angle_alpha   90.00000000
_cell_angle_beta   90.00000000
_cell_angle_gamma   119.99999981
_symmetry_Int_Tables_number   1
_chemical_formula_structural   LiCa6(P3Rh5)4
_chemical_formula_sum   'Li1 Ca6 P12 Rh20'
_cell_volume   610.99404231
_cell_formula_units_Z   1
loop_
 _symmetry_equiv_pos_site_id
 _symmetry_equiv_pos_as_xyz
  1  'x, y, z'
loop_
 _atom_site_type_symbol
 _atom_site_label
 _atom_site_symmetry_multiplicity
 _atom_site_fract_x
 _atom_site_fract_y
 _atom_site_fract_z
 _atom_site_occupancy
  Li  Li0  1  0.000000  0.000000  0.000000  1
  Ca  Ca1  1  0.528144  0.718544  0.250866  1
  Ca  Ca2  1  0.281456  0.809600  0.250866  1
  Ca  Ca3  1  0.190400  0.471856  0.250866  1
  Ca  Ca4  1  0.471856  0.281456  0.749134  1
  Ca  Ca5  1  0.718544  0.190400  0.749134  1
  Ca  Ca6  1  0.809600  0.528144  0.749134  1
  P  P7  1  0.525485  0.136848  0.250559  1
  P  P8  1  0.863152  0.388638  0.250559  1
  P  P9  1  0.611362  0.474515  0.250559  1
  P  P10  1  0.951955  0.723434  0.249484  1
  P  P11  1  0.276566  0.228522  0.249484  1
  P  P12  1  0.771478  0.048045  0.249484  1
  P  P13  1  0.388638  0.525485  0.749441  1
  P  P14  1  0.474515  0.863152  0.749441  1
  P  P15  1  0.136848  0.611362  0.749441  1
  P  P16  1  0.723434  0.771478  0.750516  1
  P  P17  1  0.228522  0.951955  0.750516  1
  P  P18  1  0.048045  0.276566  0.750516  1
  Rh  Rh19  1  0.333333  0.666667  0.748477  1
  Rh  Rh20  1  0.919249  0.250505  0.248625  1
  Rh  Rh21  1  0.749495  0.668744  0.248625  1
  Rh  Rh22  1  0.331256  0.080751  0.248625  1
  Rh  Rh23  1  0.440288  0.023750  0.749885  1
  Rh  Rh24  1  0.976250  0.416539  0.749885  1
  Rh  Rh25  1  0.583461  0.559712  0.749885  1
  Rh  Rh26  1  0.666667  0.333333  0.251523  1
  Rh  Rh27  1  0.092283  0.199206  0.249872  1
  Rh  Rh28  1  0.800794  0.893077  0.249872  1
  Rh  Rh29  1  0.106923  0.907717  0.249872  1
  Rh  Rh30  1  0.023750  0.583461  0.250115  1
  Rh  Rh31  1  0.416539  0.440288  0.250115  1
  Rh  Rh32  1  0.559712  0.976250  0.250115  1
  Rh  Rh33  1  0.668744  0.919249  0.751375  1
  Rh  Rh34  1  0.080751  0.749495  0.751375  1
  Rh  Rh35  1  0.250505  0.331256  0.751375  1
  Rh  Rh36  1  0.907717  0.800794  0.750128  1
  Rh  Rh37  1  0.199206  0.106923  0.750128  1
  Rh  Rh38  1  0.893077  0.092283  0.750128  1
