# generated using pymatgen
data_Cr(FeW)6
_symmetry_space_group_name_H-M   'P 1'
_cell_length_a   9.06144825
_cell_length_b   9.06144847
_cell_length_c   9.06144781
_cell_angle_alpha   30.56022745
_cell_angle_beta   30.56022743
_cell_angle_gamma   30.56022797
_symmetry_Int_Tables_number   1
_chemical_formula_structural   Cr(FeW)6
_chemical_formula_sum   'Cr1 Fe6 W6'
_cell_volume   170.51767738
_cell_formula_units_Z   1
loop_
 _symmetry_equiv_pos_site_id
 _symmetry_equiv_pos_as_xyz
  1  'x, y, z'
loop_
 _atom_site_type_symbol
 _atom_site_label
 _atom_site_symmetry_multiplicity
 _atom_site_fract_x
 _atom_site_fract_y
 _atom_site_fract_z
 _atom_site_occupancy
  Cr  Cr0  1  0.000000  0.000000  0.000000  1
  Fe  Fe1  1  0.585625  0.093533  0.093533  1
  Fe  Fe2  1  0.093533  0.093533  0.585625  1
  Fe  Fe3  1  0.093533  0.585625  0.093533  1
  Fe  Fe4  1  0.906467  0.414375  0.906467  1
  Fe  Fe5  1  0.414375  0.906467  0.906467  1
  Fe  Fe6  1  0.906467  0.906467  0.414375  1
  W  W7  1  0.165728  0.165728  0.165728  1
  W  W8  1  0.834272  0.834272  0.834272  1
  W  W9  1  0.348234  0.348234  0.348234  1
  W  W10  1  0.651766  0.651766  0.651766  1
  W  W11  1  0.450592  0.450592  0.450592  1
  W  W12  1  0.549408  0.549408  0.549408  1
