# generated using pymatgen
data_Y3Lu5Mn2(B12Ru)2
_symmetry_space_group_name_H-M   'P 1'
_cell_length_a   3.56944700
_cell_length_b   9.04435521
_cell_length_c   11.43216406
_cell_angle_alpha   89.99350531
_cell_angle_beta   90.00000000
_cell_angle_gamma   90.00000000
_symmetry_Int_Tables_number   1
_chemical_formula_structural   Y3Lu5Mn2(B12Ru)2
_chemical_formula_sum   'Y3 Lu5 Mn2 B24 Ru2'
_cell_volume   369.06851209
_cell_formula_units_Z   1
loop_
 _symmetry_equiv_pos_site_id
 _symmetry_equiv_pos_as_xyz
  1  'x, y, z'
loop_
 _atom_site_type_symbol
 _atom_site_label
 _atom_site_symmetry_multiplicity
 _atom_site_fract_x
 _atom_site_fract_y
 _atom_site_fract_z
 _atom_site_occupancy
  Y  Y0  1  0.000000  0.325823  0.416249  1
  Y  Y1  1  0.000000  0.674117  0.583941  1
  Y  Y2  1  0.000000  0.820025  0.087456  1
  Lu  Lu3  1  0.000000  0.180229  0.912336  1
  Lu  Lu4  1  0.000000  0.940304  0.370775  1
  Lu  Lu5  1  0.000000  0.059985  0.629405  1
  Lu  Lu6  1  0.000000  0.445050  0.130841  1
  Lu  Lu7  1  0.000000  0.554238  0.868800  1
  Mn  Mn8  1  0.000000  0.638670  0.319423  1
  Mn  Mn9  1  0.000000  0.360757  0.681251  1
  B  B10  1  0.500000  0.554437  0.431705  1
  B  B11  1  0.500000  0.445294  0.568580  1
  B  B12  1  0.500000  0.054538  0.066251  1
  B  B13  1  0.500000  0.947290  0.932748  1
  B  B14  1  0.500000  0.747710  0.417371  1
  B  B15  1  0.500000  0.252302  0.583138  1
  B  B16  1  0.500000  0.250209  0.080176  1
  B  B17  1  0.500000  0.749835  0.918318  1
  B  B18  1  0.500000  0.790104  0.266055  1
  B  B19  1  0.500000  0.209394  0.734971  1
  B  B20  1  0.500000  0.292378  0.234652  1
  B  B21  1  0.500000  0.707755  0.764988  1
  B  B22  1  0.500000  0.630281  0.186197  1
  B  B23  1  0.500000  0.368612  0.814543  1
  B  B24  1  0.500000  0.130319  0.315253  1
  B  B25  1  0.500000  0.870205  0.684787  1
  B  B26  1  0.500000  0.982039  0.212916  1
  B  B27  1  0.500000  0.019555  0.787466  1
  B  B28  1  0.500000  0.484616  0.287911  1
  B  B29  1  0.500000  0.514733  0.712267  1
  B  B30  1  0.500000  0.600980  0.027749  1
  B  B31  1  0.500000  0.397225  0.971613  1
  B  B32  1  0.500000  0.101500  0.472207  1
  B  B33  1  0.500000  0.898704  0.527973  1
  Ru  Ru34  1  0.000000  0.138667  0.179057  1
  Ru  Ru35  1  0.000000  0.862122  0.820629  1
