# generated using pymatgen
data_LaY11(TcPt)2
_symmetry_space_group_name_H-M   'P 1'
_cell_length_a   6.52859622
_cell_length_b   7.29982151
_cell_length_c   9.33884300
_cell_angle_alpha   90.00000000
_cell_angle_beta   90.00000000
_cell_angle_gamma   89.70545073
_symmetry_Int_Tables_number   1
_chemical_formula_structural   LaY11(TcPt)2
_chemical_formula_sum   'La1 Y11 Tc2 Pt2'
_cell_volume   445.06084248
_cell_formula_units_Z   1
loop_
 _symmetry_equiv_pos_site_id
 _symmetry_equiv_pos_as_xyz
  1  'x, y, z'
loop_
 _atom_site_type_symbol
 _atom_site_label
 _atom_site_symmetry_multiplicity
 _atom_site_fract_x
 _atom_site_fract_y
 _atom_site_fract_z
 _atom_site_occupancy
  La  La0  1  0.120435  0.050956  0.250000  1
  Y  Y1  1  0.625358  0.461089  0.750000  1
  Y  Y2  1  0.373757  0.534107  0.250000  1
  Y  Y3  1  0.870001  0.964869  0.750000  1
  Y  Y4  1  0.667886  0.181735  0.057335  1
  Y  Y5  1  0.175692  0.321285  0.938674  1
  Y  Y6  1  0.824602  0.672873  0.435779  1
  Y  Y7  1  0.327354  0.823800  0.566393  1
  Y  Y8  1  0.327354  0.823800  0.933607  1
  Y  Y9  1  0.824602  0.672873  0.064221  1
  Y  Y10  1  0.175692  0.321285  0.561326  1
  Y  Y11  1  0.667886  0.181735  0.442665  1
  Tc  Tc12  1  0.967359  0.382533  0.250000  1
  Tc  Tc13  1  0.462749  0.110660  0.750000  1
  Pt  Pt14  1  0.548299  0.885526  0.250000  1
  Pt  Pt15  1  0.040976  0.610874  0.750000  1
