# generated using pymatgen
data_Tb5CeFeRu
_symmetry_space_group_name_H-M   'P 1'
_cell_length_a   6.36979100
_cell_length_b   7.06577500
_cell_length_c   9.47861800
_cell_angle_alpha   90.00000000
_cell_angle_beta   90.00000000
_cell_angle_gamma   90.00000000
_symmetry_Int_Tables_number   1
_chemical_formula_structural   Tb5CeFeRu
_chemical_formula_sum   'Tb10 Ce2 Fe2 Ru2'
_cell_volume   426.60899445
_cell_formula_units_Z   2
loop_
 _symmetry_equiv_pos_site_id
 _symmetry_equiv_pos_as_xyz
  1  'x, y, z'
loop_
 _atom_site_type_symbol
 _atom_site_label
 _atom_site_symmetry_multiplicity
 _atom_site_fract_x
 _atom_site_fract_y
 _atom_site_fract_z
 _atom_site_occupancy
  Tb  Tb0  1  0.333056  0.672827  0.066179  1
  Tb  Tb1  1  0.166944  0.172827  0.433821  1
  Tb  Tb2  1  0.674758  0.326021  0.565782  1
  Tb  Tb3  1  0.825242  0.826021  0.934218  1
  Tb  Tb4  1  0.674758  0.326021  0.934218  1
  Tb  Tb5  1  0.825242  0.826021  0.565782  1
  Tb  Tb6  1  0.333056  0.672827  0.433821  1
  Tb  Tb7  1  0.166944  0.172827  0.066179  1
  Tb  Tb8  1  0.140618  0.460883  0.750000  1
  Tb  Tb9  1  0.359382  0.960883  0.750000  1
  Ce  Ce10  1  0.865956  0.577541  0.250000  1
  Ce  Ce11  1  0.634044  0.077541  0.250000  1
  Fe  Fe12  1  0.006442  0.850128  0.250000  1
  Fe  Fe13  1  0.493558  0.350128  0.250000  1
  Ru  Ru14  1  0.955747  0.113751  0.750000  1
  Ru  Ru15  1  0.544253  0.613751  0.750000  1
