# generated using pymatgen
data_Sm2YEr3NiI10
_symmetry_space_group_name_H-M   'P 1'
_cell_length_a   7.72856809
_cell_length_b   9.70006290
_cell_length_c   9.79463944
_cell_angle_alpha   107.16962077
_cell_angle_beta   96.69994269
_cell_angle_gamma   104.97203601
_symmetry_Int_Tables_number   1
_chemical_formula_structural   Sm2YEr3NiI10
_chemical_formula_sum   'Sm2 Y1 Er3 Ni1 I10'
_cell_volume   662.76916271
_cell_formula_units_Z   1
loop_
 _symmetry_equiv_pos_site_id
 _symmetry_equiv_pos_as_xyz
  1  'x, y, z'
loop_
 _atom_site_type_symbol
 _atom_site_label
 _atom_site_symmetry_multiplicity
 _atom_site_fract_x
 _atom_site_fract_y
 _atom_site_fract_z
 _atom_site_occupancy
  Sm  Sm0  1  0.884099  0.957761  0.238129  1
  Sm  Sm1  1  0.114140  0.041318  0.760975  1
  Y  Y2  1  0.341294  0.121708  0.160398  1
  Er  Er3  1  0.028431  0.722801  0.916344  1
  Er  Er4  1  0.970726  0.276951  0.082955  1
  Er  Er5  1  0.663107  0.879543  0.841297  1
  Ni  Ni6  1  0.999038  0.999749  0.999628  1
  I  I7  1  0.649936  0.551127  0.729605  1
  I  I8  1  0.348446  0.450782  0.270463  1
  I  I9  1  0.733150  0.910122  0.540441  1
  I  I10  1  0.264937  0.089279  0.460584  1
  I  I11  1  0.082802  0.377218  0.824463  1
  I  I12  1  0.917115  0.622836  0.175531  1
  I  I13  1  0.448805  0.813140  0.088302  1
  I  I14  1  0.551291  0.184527  0.909191  1
  I  I15  1  0.227482  0.739540  0.659157  1
  I  I16  1  0.775202  0.261598  0.342537  1
