# generated using pymatgen
data_Tb2Ho2Cd2CoCu3
_symmetry_space_group_name_H-M   'P 1'
_cell_length_a   7.51368044
_cell_length_b   7.51368032
_cell_length_c   3.67210000
_cell_angle_alpha   90.00000000
_cell_angle_beta   90.00000000
_cell_angle_gamma   90.43280331
_symmetry_Int_Tables_number   1
_chemical_formula_structural   Tb2Ho2Cd2CoCu3
_chemical_formula_sum   'Tb2 Ho2 Cd2 Co1 Cu3'
_cell_volume   207.30393367
_cell_formula_units_Z   1
loop_
 _symmetry_equiv_pos_site_id
 _symmetry_equiv_pos_as_xyz
  1  'x, y, z'
loop_
 _atom_site_type_symbol
 _atom_site_label
 _atom_site_symmetry_multiplicity
 _atom_site_fract_x
 _atom_site_fract_y
 _atom_site_fract_z
 _atom_site_occupancy
  Tb  Tb0  1  0.671557  0.171557  0.500000  1
  Tb  Tb1  1  0.310382  0.810382  0.500000  1
  Ho  Ho2  1  0.181017  0.344694  0.500000  1
  Ho  Ho3  1  0.844694  0.681017  0.500000  1
  Cd  Cd4  1  0.000888  0.005618  0.000000  1
  Cd  Cd5  1  0.505618  0.500888  0.000000  1
  Co  Co6  1  0.114750  0.614750  0.000000  1
  Cu  Cu7  1  0.881273  0.381273  0.000000  1
  Cu  Cu8  1  0.615324  0.874495  0.000000  1
  Cu  Cu9  1  0.374495  0.115324  0.000000  1
