# generated using pymatgen
data_Ac4YUS10
_symmetry_space_group_name_H-M   'P 1'
_cell_length_a   7.73452600
_cell_length_b   8.22716600
_cell_length_c   12.23451900
_cell_angle_alpha   90.00000000
_cell_angle_beta   90.00000000
_cell_angle_gamma   90.00000000
_symmetry_Int_Tables_number   1
_chemical_formula_structural   Ac4YUS10
_chemical_formula_sum   'Ac8 Y2 U2 S20'
_cell_volume   778.52195331
_cell_formula_units_Z   2
loop_
 _symmetry_equiv_pos_site_id
 _symmetry_equiv_pos_as_xyz
  1  'x, y, z'
loop_
 _atom_site_type_symbol
 _atom_site_label
 _atom_site_symmetry_multiplicity
 _atom_site_fract_x
 _atom_site_fract_y
 _atom_site_fract_z
 _atom_site_occupancy
  Ac  Ac0  1  0.534503  0.503200  0.325115  1
  Ac  Ac1  1  0.965497  0.996800  0.825115  1
  Ac  Ac2  1  0.469499  0.000046  0.674803  1
  Ac  Ac3  1  0.030501  0.499954  0.174803  1
  Ac  Ac4  1  0.469499  0.499954  0.674803  1
  Ac  Ac5  1  0.030501  0.000046  0.174803  1
  Ac  Ac6  1  0.534503  0.996800  0.325115  1
  Ac  Ac7  1  0.965497  0.503200  0.825115  1
  Y  Y8  1  0.067847  0.750000  0.494510  1
  Y  Y9  1  0.432153  0.750000  0.994510  1
  U  U10  1  0.948324  0.250000  0.504714  1
  U  U11  1  0.551676  0.250000  0.004714  1
  S  S12  1  0.837818  0.972818  0.588693  1
  S  S13  1  0.662182  0.527182  0.088693  1
  S  S14  1  0.162459  0.455405  0.411642  1
  S  S15  1  0.337541  0.044595  0.911642  1
  S  S16  1  0.162459  0.044595  0.411642  1
  S  S17  1  0.337541  0.455405  0.911642  1
  S  S18  1  0.837818  0.527182  0.588693  1
  S  S19  1  0.662182  0.972818  0.088693  1
  S  S20  1  0.838002  0.750000  0.313368  1
  S  S21  1  0.661998  0.750000  0.813368  1
  S  S22  1  0.158593  0.250000  0.681928  1
  S  S23  1  0.341407  0.250000  0.181928  1
  S  S24  1  0.446769  0.750000  0.495942  1
  S  S25  1  0.053231  0.750000  0.995942  1
  S  S26  1  0.556262  0.250000  0.502820  1
  S  S27  1  0.943738  0.250000  0.002820  1
  S  S28  1  0.186124  0.750000  0.710313  1
  S  S29  1  0.313876  0.750000  0.210313  1
  S  S30  1  0.818875  0.250000  0.295896  1
  S  S31  1  0.681125  0.250000  0.795896  1
