# generated using pymatgen
data_K3Sc7S12
_symmetry_space_group_name_H-M   'P 1'
_cell_length_a   3.79419600
_cell_length_b   11.53918600
_cell_length_c   23.78118800
_cell_angle_alpha   90.00000000
_cell_angle_beta   90.00000000
_cell_angle_gamma   90.00000000
_symmetry_Int_Tables_number   1
_chemical_formula_structural   K3Sc7S12
_chemical_formula_sum   'K6 Sc14 S24'
_cell_volume   1041.18638834
_cell_formula_units_Z   2
loop_
 _symmetry_equiv_pos_site_id
 _symmetry_equiv_pos_as_xyz
  1  'x, y, z'
loop_
 _atom_site_type_symbol
 _atom_site_label
 _atom_site_symmetry_multiplicity
 _atom_site_fract_x
 _atom_site_fract_y
 _atom_site_fract_z
 _atom_site_occupancy
  K  K0  1  0.500000  0.536317  0.130597  1
  K  K1  1  0.500000  0.953209  0.863370  1
  K  K2  1  0.000000  0.046791  0.363370  1
  K  K3  1  0.000000  0.463683  0.630597  1
  K  K4  1  0.500000  0.807097  0.473524  1
  K  K5  1  0.000000  0.192903  0.973524  1
  Sc  Sc6  1  0.500000  0.654960  0.788863  1
  Sc  Sc7  1  0.500000  0.844702  0.210905  1
  Sc  Sc8  1  0.000000  0.155298  0.710905  1
  Sc  Sc9  1  0.000000  0.345040  0.288863  1
  Sc  Sc10  1  0.500000  0.324039  0.817495  1
  Sc  Sc11  1  0.500000  0.178826  0.181356  1
  Sc  Sc12  1  0.000000  0.821174  0.681356  1
  Sc  Sc13  1  0.000000  0.675961  0.317495  1
  Sc  Sc14  1  0.500000  0.471238  0.418393  1
  Sc  Sc15  1  0.500000  0.028658  0.583826  1
  Sc  Sc16  1  0.000000  0.971342  0.083826  1
  Sc  Sc17  1  0.000000  0.528762  0.918393  1
  Sc  Sc18  1  0.000000  0.248706  0.499759  1
  Sc  Sc19  1  0.500000  0.751294  0.999759  1
  S  S20  1  0.500000  0.376214  0.922543  1
  S  S21  1  0.500000  0.124416  0.076832  1
  S  S22  1  0.000000  0.875584  0.576832  1
  S  S23  1  0.000000  0.623786  0.422543  1
  S  S24  1  0.500000  0.508142  0.305127  1
  S  S25  1  0.500000  0.991663  0.695380  1
  S  S26  1  0.000000  0.008337  0.195380  1
  S  S27  1  0.000000  0.491858  0.805127  1
  S  S28  1  0.500000  0.398203  0.518884  1
  S  S29  1  0.500000  0.094067  0.480485  1
  S  S30  1  0.000000  0.905933  0.980485  1
  S  S31  1  0.000000  0.601797  0.018884  1
  S  S32  1  0.500000  0.301000  0.711710  1
  S  S33  1  0.500000  0.199329  0.287771  1
  S  S34  1  0.000000  0.800671  0.787771  1
  S  S35  1  0.000000  0.699000  0.211710  1
  S  S36  1  0.500000  0.672667  0.680153  1
  S  S37  1  0.500000  0.827139  0.321629  1
  S  S38  1  0.000000  0.172861  0.821629  1
  S  S39  1  0.000000  0.327333  0.180153  1
  S  S40  1  0.500000  0.676656  0.897680  1
  S  S41  1  0.500000  0.822537  0.102617  1
  S  S42  1  0.000000  0.177463  0.602617  1
  S  S43  1  0.000000  0.323344  0.397680  1
