# generated using pymatgen
data_AcCe3F15
_symmetry_space_group_name_H-M   'P 1'
_cell_length_a   7.99415252
_cell_length_b   7.99415166
_cell_length_c   7.99415188
_cell_angle_alpha   112.73539155
_cell_angle_beta   112.73539143
_cell_angle_gamma   112.73540274
_symmetry_Int_Tables_number   1
_chemical_formula_structural   AcCe3F15
_chemical_formula_sum   'Ac1 Ce3 F15'
_cell_volume   337.51151774
_cell_formula_units_Z   1
loop_
 _symmetry_equiv_pos_site_id
 _symmetry_equiv_pos_as_xyz
  1  'x, y, z'
loop_
 _atom_site_type_symbol
 _atom_site_label
 _atom_site_symmetry_multiplicity
 _atom_site_fract_x
 _atom_site_fract_y
 _atom_site_fract_z
 _atom_site_occupancy
  Ac  Ac0  1  0.495988  0.495988  0.495988  1
  Ce  Ce1  1  0.856568  0.288319  0.856568  1
  Ce  Ce2  1  0.288319  0.856568  0.856568  1
  Ce  Ce3  1  0.856568  0.856568  0.288319  1
  F  F4  1  0.598605  0.928667  0.141338  1
  F  F5  1  0.928667  0.141338  0.598605  1
  F  F6  1  0.141338  0.598605  0.928667  1
  F  F7  1  0.928667  0.598605  0.141338  1
  F  F8  1  0.597385  0.597385  0.259134  1
  F  F9  1  0.259134  0.597385  0.597385  1
  F  F10  1  0.597385  0.259134  0.597385  1
  F  F11  1  0.137654  0.137654  0.358546  1
  F  F12  1  0.358546  0.137654  0.137654  1
  F  F13  1  0.137654  0.358546  0.137654  1
  F  F14  1  0.676429  0.676429  0.911887  1
  F  F15  1  0.911887  0.676429  0.676429  1
  F  F16  1  0.676429  0.911887  0.676429  1
  F  F17  1  0.141338  0.928667  0.598605  1
  F  F18  1  0.598605  0.141338  0.928667  1
