# generated using pymatgen
data_Pr5NdAl21Si3Os8
_symmetry_space_group_name_H-M   'P 1'
_cell_length_a   8.85482517
_cell_length_b   8.85482727
_cell_length_c   9.74283300
_cell_angle_alpha   89.99741499
_cell_angle_beta   90.00257569
_cell_angle_gamma   120.02260449
_symmetry_Int_Tables_number   1
_chemical_formula_structural   Pr5NdAl21Si3Os8
_chemical_formula_sum   'Pr5 Nd1 Al21 Si3 Os8'
_cell_volume   661.41951903
_cell_formula_units_Z   1
loop_
 _symmetry_equiv_pos_site_id
 _symmetry_equiv_pos_as_xyz
  1  'x, y, z'
loop_
 _atom_site_type_symbol
 _atom_site_label
 _atom_site_symmetry_multiplicity
 _atom_site_fract_x
 _atom_site_fract_y
 _atom_site_fract_z
 _atom_site_occupancy
  Pr  Pr0  1  0.192708  0.385320  0.247392  1
  Pr  Pr1  1  0.806215  0.612428  0.752908  1
  Pr  Pr2  1  0.614680  0.807292  0.247392  1
  Pr  Pr3  1  0.387572  0.193785  0.752908  1
  Pr  Pr4  1  0.192684  0.807317  0.247401  1
  Nd  Nd5  1  0.805935  0.194065  0.752940  1
  Al  Al6  1  0.333362  0.666638  0.489201  1
  Al  Al7  1  0.163223  0.327026  0.571638  1
  Al  Al8  1  0.835782  0.671475  0.426118  1
  Al  Al9  1  0.672974  0.836777  0.571638  1
  Al  Al10  1  0.835615  0.671174  0.074258  1
  Al  Al11  1  0.328525  0.164218  0.426118  1
  Al  Al12  1  0.164057  0.328697  0.925855  1
  Al  Al13  1  0.163551  0.836449  0.571557  1
  Al  Al14  1  0.328826  0.164385  0.074258  1
  Al  Al15  1  0.835770  0.164232  0.426433  1
  Al  Al16  1  0.671303  0.835943  0.925855  1
  Al  Al17  1  0.835618  0.164382  0.073909  1
  Al  Al18  1  0.164410  0.835590  0.925957  1
  Al  Al19  1  0.564704  0.129317  0.248699  1
  Al  Al20  1  0.436402  0.872303  0.748502  1
  Al  Al21  1  0.870683  0.435296  0.248699  1
  Al  Al22  1  0.127697  0.563598  0.748502  1
  Al  Al23  1  0.564678  0.435322  0.248705  1
  Al  Al24  1  0.435962  0.564038  0.748497  1
  Al  Al25  1  0.000029  0.999971  0.249377  1
  Al  Al26  1  0.999628  0.000372  0.749561  1
  Si  Si27  1  0.333360  0.666640  0.024601  1
  Si  Si28  1  0.666918  0.333082  0.973926  1
  Si  Si29  1  0.666879  0.333121  0.527755  1
  Os  Os30  1  0.499614  0.998870  0.998947  1
  Os  Os31  1  0.001130  0.500386  0.998947  1
  Os  Os32  1  0.504564  0.008744  0.501250  1
  Os  Os33  1  0.499390  0.500610  0.999063  1
  Os  Os34  1  0.991255  0.495435  0.501250  1
  Os  Os35  1  0.504379  0.495622  0.501121  1
  Os  Os36  1  0.999952  0.000048  0.999388  1
  Os  Os37  1  0.999967  0.000033  0.499466  1
