# generated using pymatgen
data_Th4Ga5Rh9
_symmetry_space_group_name_H-M   'P 1'
_cell_length_a   12.36645011
_cell_length_b   12.36644958
_cell_length_c   12.36645055
_cell_angle_alpha   26.19897545
_cell_angle_beta   26.19898112
_cell_angle_gamma   26.19897642
_symmetry_Int_Tables_number   1
_chemical_formula_structural   Th4Ga5Rh9
_chemical_formula_sum   'Th4 Ga5 Rh9'
_cell_volume   324.79017301
_cell_formula_units_Z   1
loop_
 _symmetry_equiv_pos_site_id
 _symmetry_equiv_pos_as_xyz
  1  'x, y, z'
loop_
 _atom_site_type_symbol
 _atom_site_label
 _atom_site_symmetry_multiplicity
 _atom_site_fract_x
 _atom_site_fract_y
 _atom_site_fract_z
 _atom_site_occupancy
  Th  Th0  1  0.952631  0.952631  0.952631  1
  Th  Th1  1  0.854874  0.854874  0.854874  1
  Th  Th2  1  0.145326  0.145326  0.145326  1
  Th  Th3  1  0.047896  0.047896  0.047896  1
  Ga  Ga4  1  0.277677  0.277677  0.277677  1
  Ga  Ga5  1  0.499921  0.499921  0.499921  1
  Ga  Ga6  1  0.389161  0.389161  0.389161  1
  Ga  Ga7  1  0.722231  0.722231  0.722231  1
  Ga  Ga8  1  0.610735  0.610735  0.610735  1
  Rh  Rh9  1  0.613242  0.613242  0.107321  1
  Rh  Rh10  1  0.892426  0.386681  0.386681  1
  Rh  Rh11  1  0.499946  0.000063  0.499946  1
  Rh  Rh12  1  0.386681  0.892426  0.386681  1
  Rh  Rh13  1  0.499946  0.499946  0.000063  1
  Rh  Rh14  1  0.107321  0.613242  0.613242  1
  Rh  Rh15  1  0.000063  0.499946  0.499946  1
  Rh  Rh16  1  0.386681  0.386681  0.892426  1
  Rh  Rh17  1  0.613242  0.107321  0.613242  1
