# generated using pymatgen
data_BeCr21WC6
_symmetry_space_group_name_H-M   'P 1'
_cell_length_a   7.46929369
_cell_length_b   7.46929333
_cell_length_c   7.46929300
_cell_angle_alpha   59.99999704
_cell_angle_beta   59.99999865
_cell_angle_gamma   59.99999238
_symmetry_Int_Tables_number   1
_chemical_formula_structural   BeCr21WC6
_chemical_formula_sum   'Be1 Cr21 W1 C6'
_cell_volume   294.66157817
_cell_formula_units_Z   1
loop_
 _symmetry_equiv_pos_site_id
 _symmetry_equiv_pos_as_xyz
  1  'x, y, z'
loop_
 _atom_site_type_symbol
 _atom_site_label
 _atom_site_symmetry_multiplicity
 _atom_site_fract_x
 _atom_site_fract_y
 _atom_site_fract_z
 _atom_site_occupancy
  Be  Be0  1  0.000000  0.000000  0.000000  1
  Cr  Cr1  1  0.250000  0.250000  0.250000  1
  Cr  Cr2  1  0.613681  0.613681  0.158955  1
  Cr  Cr3  1  0.613681  0.158955  0.613681  1
  Cr  Cr4  1  0.158955  0.613681  0.613681  1
  Cr  Cr5  1  0.613681  0.613681  0.613681  1
  Cr  Cr6  1  0.378387  0.378387  0.864841  1
  Cr  Cr7  1  0.378387  0.864841  0.378387  1
  Cr  Cr8  1  0.864841  0.378387  0.378387  1
  Cr  Cr9  1  0.378387  0.378387  0.378387  1
  Cr  Cr10  1  0.000129  0.000129  0.336957  1
  Cr  Cr11  1  0.662784  0.000129  0.336957  1
  Cr  Cr12  1  0.000129  0.662784  0.336957  1
  Cr  Cr13  1  0.662784  0.336957  0.000129  1
  Cr  Cr14  1  0.000129  0.336957  0.000129  1
  Cr  Cr15  1  0.000129  0.336957  0.662784  1
  Cr  Cr16  1  0.336957  0.662784  0.000129  1
  Cr  Cr17  1  0.336957  0.000129  0.662784  1
  Cr  Cr18  1  0.336957  0.000129  0.000129  1
  Cr  Cr19  1  0.000129  0.000129  0.662784  1
  Cr  Cr20  1  0.000129  0.662784  0.000129  1
  Cr  Cr21  1  0.662784  0.000129  0.000129  1
  W  W22  1  0.750000  0.750000  0.750000  1
  C  C23  1  0.722495  0.722495  0.277505  1
  C  C24  1  0.277505  0.722495  0.277505  1
  C  C25  1  0.722495  0.277505  0.277505  1
  C  C26  1  0.277505  0.277505  0.722495  1
  C  C27  1  0.722495  0.277505  0.722495  1
  C  C28  1  0.277505  0.722495  0.722495  1
