# generated using pymatgen
data_Nd6Dy7Ho3(CdPt)4
_symmetry_space_group_name_H-M   'P 1'
_cell_length_a   9.79585340
_cell_length_b   9.79522591
_cell_length_c   9.79188801
_cell_angle_alpha   60.01551737
_cell_angle_beta   60.01736616
_cell_angle_gamma   59.97533416
_symmetry_Int_Tables_number   1
_chemical_formula_structural   Nd6Dy7Ho3(CdPt)4
_chemical_formula_sum   'Nd6 Dy7 Ho3 Cd4 Pt4'
_cell_volume   664.40821743
_cell_formula_units_Z   1
loop_
 _symmetry_equiv_pos_site_id
 _symmetry_equiv_pos_as_xyz
  1  'x, y, z'
loop_
 _atom_site_type_symbol
 _atom_site_label
 _atom_site_symmetry_multiplicity
 _atom_site_fract_x
 _atom_site_fract_y
 _atom_site_fract_z
 _atom_site_occupancy
  Nd  Nd0  1  0.938611  0.561386  0.561417  1
  Nd  Nd1  1  0.561417  0.938586  0.938611  1
  Nd  Nd2  1  0.561422  0.938578  0.561422  1
  Nd  Nd3  1  0.938597  0.561403  0.938597  1
  Nd  Nd4  1  0.561469  0.561440  0.938581  1
  Nd  Nd5  1  0.938581  0.938510  0.561469  1
  Dy  Dy6  1  0.350754  0.350727  0.350921  1
  Dy  Dy7  1  0.350940  0.350750  0.947417  1
  Dy  Dy8  1  0.350921  0.947597  0.350754  1
  Dy  Dy9  1  0.947417  0.350893  0.350940  1
  Dy  Dy10  1  0.811945  0.188107  0.187972  1
  Dy  Dy11  1  0.187972  0.811976  0.811945  1
  Dy  Dy12  1  0.188078  0.811922  0.188078  1
  Ho  Ho13  1  0.811955  0.188045  0.811955  1
  Ho  Ho14  1  0.188125  0.188260  0.811787  1
  Ho  Ho15  1  0.811787  0.811827  0.188125  1
  Cd  Cd16  1  0.579825  0.579764  0.579668  1
  Cd  Cd17  1  0.579820  0.579808  0.260701  1
  Cd  Cd18  1  0.579668  0.260745  0.579825  1
  Cd  Cd19  1  0.260701  0.579673  0.579820  1
  Pt  Pt20  1  0.142909  0.142920  0.142769  1
  Pt  Pt21  1  0.142662  0.142903  0.571658  1
  Pt  Pt22  1  0.142769  0.571404  0.142909  1
  Pt  Pt23  1  0.571658  0.142778  0.142662  1
