# generated using pymatgen
data_Tm5Tl3S
_symmetry_space_group_name_H-M   'P 1'
_cell_length_a   8.98461700
_cell_length_b   8.98461713
_cell_length_c   6.63719300
_cell_angle_alpha   90.00000000
_cell_angle_beta   90.00000000
_cell_angle_gamma   119.99999585
_symmetry_Int_Tables_number   1
_chemical_formula_structural   Tm5Tl3S
_chemical_formula_sum   'Tm10 Tl6 S2'
_cell_volume   463.99600313
_cell_formula_units_Z   2
loop_
 _symmetry_equiv_pos_site_id
 _symmetry_equiv_pos_as_xyz
  1  'x, y, z'
loop_
 _atom_site_type_symbol
 _atom_site_label
 _atom_site_symmetry_multiplicity
 _atom_site_fract_x
 _atom_site_fract_y
 _atom_site_fract_z
 _atom_site_occupancy
  Tm  Tm0  1  0.666667  0.333333  0.000000  1
  Tm  Tm1  1  0.333333  0.666667  0.000000  1
  Tm  Tm2  1  0.333333  0.666667  0.500000  1
  Tm  Tm3  1  0.666667  0.333333  0.500000  1
  Tm  Tm4  1  0.757681  0.757681  0.750000  1
  Tm  Tm5  1  0.242319  0.000000  0.750000  1
  Tm  Tm6  1  0.000000  0.242319  0.750000  1
  Tm  Tm7  1  0.242319  0.242319  0.250000  1
  Tm  Tm8  1  0.757681  0.000000  0.250000  1
  Tm  Tm9  1  0.000000  0.757681  0.250000  1
  Tl  Tl10  1  0.400379  0.400379  0.750000  1
  Tl  Tl11  1  0.599621  0.000000  0.750000  1
  Tl  Tl12  1  0.000000  0.599621  0.750000  1
  Tl  Tl13  1  0.599621  0.599621  0.250000  1
  Tl  Tl14  1  0.400379  0.000000  0.250000  1
  Tl  Tl15  1  0.000000  0.400379  0.250000  1
  S  S16  1  0.000000  0.000000  0.000000  1
  S  S17  1  0.000000  0.000000  0.500000  1
