# generated using pymatgen
data_Dy19YSi15Rh
_symmetry_space_group_name_H-M   'P 1'
_cell_length_a   7.44841357
_cell_length_b   7.67826289
_cell_length_c   14.58737201
_cell_angle_alpha   89.70358882
_cell_angle_beta   89.66498738
_cell_angle_gamma   90.18432743
_symmetry_Int_Tables_number   1
_chemical_formula_structural   Dy19YSi15Rh
_chemical_formula_sum   'Dy19 Y1 Si15 Rh1'
_cell_volume   834.23478300
_cell_formula_units_Z   1
loop_
 _symmetry_equiv_pos_site_id
 _symmetry_equiv_pos_as_xyz
  1  'x, y, z'
loop_
 _atom_site_type_symbol
 _atom_site_label
 _atom_site_symmetry_multiplicity
 _atom_site_fract_x
 _atom_site_fract_y
 _atom_site_fract_z
 _atom_site_occupancy
  Dy  Dy0  1  0.147917  0.510561  0.247596  1
  Dy  Dy1  1  0.847779  0.488408  0.757970  1
  Dy  Dy2  1  0.352348  0.010408  0.752092  1
  Dy  Dy3  1  0.973746  0.816451  0.097750  1
  Dy  Dy4  1  0.470865  0.682821  0.401241  1
  Dy  Dy5  1  0.528937  0.321796  0.900630  1
  Dy  Dy6  1  0.029666  0.184287  0.599613  1
  Dy  Dy7  1  0.028334  0.185050  0.901960  1
  Dy  Dy8  1  0.529967  0.317537  0.598927  1
  Dy  Dy9  1  0.473603  0.682175  0.099216  1
  Dy  Dy10  1  0.969917  0.817167  0.400542  1
  Dy  Dy11  1  0.683435  0.812081  0.882361  1
  Dy  Dy12  1  0.179215  0.681466  0.621928  1
  Dy  Dy13  1  0.817613  0.333488  0.118080  1
  Dy  Dy14  1  0.316047  0.178184  0.376336  1
  Dy  Dy15  1  0.320942  0.179161  0.123329  1
  Dy  Dy16  1  0.819337  0.319179  0.377415  1
  Dy  Dy17  1  0.176322  0.675846  0.878453  1
  Dy  Dy18  1  0.683007  0.818960  0.622471  1
  Y  Y19  1  0.648644  0.992575  0.248662  1
  Si  Si20  1  0.764382  0.628554  0.251783  1
  Si  Si21  1  0.265371  0.872592  0.250782  1
  Si  Si22  1  0.733290  0.123709  0.748560  1
  Si  Si23  1  0.235178  0.373342  0.746696  1
  Si  Si24  1  0.020523  0.106078  0.248983  1
  Si  Si25  1  0.523261  0.396641  0.251467  1
  Si  Si26  1  0.472397  0.605690  0.746703  1
  Si  Si27  1  0.976771  0.897394  0.748517  1
  Si  Si28  1  0.354624  0.971889  0.539929  1
  Si  Si29  1  0.646449  0.027410  0.041767  1
  Si  Si30  1  0.146938  0.470544  0.459943  1
  Si  Si31  1  0.155167  0.472227  0.041274  1
  Si  Si32  1  0.643758  0.028274  0.459550  1
  Si  Si33  1  0.353200  0.969376  0.961052  1
  Si  Si34  1  0.855161  0.528587  0.538850  1
  Rh  Rh35  1  0.855887  0.520088  0.957575  1
