# generated using pymatgen
data_In4NiIr
_symmetry_space_group_name_H-M   'P 1'
_cell_length_a   10.28369870
_cell_length_b   9.49257361
_cell_length_c   5.51565413
_cell_angle_alpha   81.88762043
_cell_angle_beta   66.04053815
_cell_angle_gamma   32.07183418
_symmetry_Int_Tables_number   1
_chemical_formula_structural   In4NiIr
_chemical_formula_sum   'In8 Ni2 Ir2'
_cell_volume   237.30021747
_cell_formula_units_Z   2
loop_
 _symmetry_equiv_pos_site_id
 _symmetry_equiv_pos_as_xyz
  1  'x, y, z'
loop_
 _atom_site_type_symbol
 _atom_site_label
 _atom_site_symmetry_multiplicity
 _atom_site_fract_x
 _atom_site_fract_y
 _atom_site_fract_z
 _atom_site_occupancy
  In  In0  1  0.586406  0.914193  0.593737  1
  In  In1  1  0.914193  0.586406  0.905664  1
  In  In2  1  0.914920  0.914920  0.085080  1
  In  In3  1  0.344336  0.656263  0.335807  1
  In  In4  1  0.084948  0.084948  0.915052  1
  In  In5  1  0.164920  0.164920  0.335080  1
  In  In6  1  0.656263  0.344336  0.663594  1
  In  In7  1  0.334948  0.334948  0.165052  1
  Ni  Ni8  1  0.620931  0.620931  0.879069  1
  Ni  Ni9  1  0.370931  0.370931  0.629069  1
  Ir  Ir10  1  0.878603  0.878603  0.621397  1
  Ir  Ir11  1  0.628603  0.628603  0.371397  1
