# generated using pymatgen
data_TbEr(SiTc2)4
_symmetry_space_group_name_H-M   'P 1'
_cell_length_a   7.35899679
_cell_length_b   7.35899679
_cell_length_c   4.13899900
_cell_angle_alpha   90.00000000
_cell_angle_beta   90.00000000
_cell_angle_gamma   88.94684484
_symmetry_Int_Tables_number   1
_chemical_formula_structural   TbEr(SiTc2)4
_chemical_formula_sum   'Tb1 Er1 Si4 Tc8'
_cell_volume   224.10893838
_cell_formula_units_Z   1
loop_
 _symmetry_equiv_pos_site_id
 _symmetry_equiv_pos_as_xyz
  1  'x, y, z'
loop_
 _atom_site_type_symbol
 _atom_site_label
 _atom_site_symmetry_multiplicity
 _atom_site_fract_x
 _atom_site_fract_y
 _atom_site_fract_z
 _atom_site_occupancy
  Tb  Tb0  1  0.500000  0.500000  0.500000  1
  Er  Er1  1  0.000000  0.000000  0.000000  1
  Si  Si2  1  0.289799  0.289799  0.000000  1
  Si  Si3  1  0.710201  0.710201  0.000000  1
  Si  Si4  1  0.793633  0.206367  0.500000  1
  Si  Si5  1  0.206367  0.793633  0.500000  1
  Tc  Tc6  1  0.597600  0.152259  0.000000  1
  Tc  Tc7  1  0.402400  0.847741  0.000000  1
  Tc  Tc8  1  0.659082  0.909184  0.500000  1
  Tc  Tc9  1  0.090816  0.340918  0.500000  1
  Tc  Tc10  1  0.340918  0.090816  0.500000  1
  Tc  Tc11  1  0.909184  0.659082  0.500000  1
  Tc  Tc12  1  0.152259  0.597600  0.000000  1
  Tc  Tc13  1  0.847741  0.402400  0.000000  1
