# generated using pymatgen
data_Sm2Fe2CoB8Os5
_symmetry_space_group_name_H-M   'P 1'
_cell_length_a   7.39681633
_cell_length_b   7.32137128
_cell_length_c   3.96413843
_cell_angle_alpha   90.10377253
_cell_angle_beta   90.28196168
_cell_angle_gamma   91.04287107
_symmetry_Int_Tables_number   1
_chemical_formula_structural   Sm2Fe2CoB8Os5
_chemical_formula_sum   'Sm2 Fe2 Co1 B8 Os5'
_cell_volume   214.63873013
_cell_formula_units_Z   1
loop_
 _symmetry_equiv_pos_site_id
 _symmetry_equiv_pos_as_xyz
  1  'x, y, z'
loop_
 _atom_site_type_symbol
 _atom_site_label
 _atom_site_symmetry_multiplicity
 _atom_site_fract_x
 _atom_site_fract_y
 _atom_site_fract_z
 _atom_site_occupancy
  Sm  Sm0  1  0.998419  0.001313  0.927893  1
  Sm  Sm1  1  0.507839  0.499716  0.402507  1
  Fe  Fe2  1  0.879215  0.624379  0.625146  1
  Fe  Fe3  1  0.115880  0.622032  0.124417  1
  Co  Co4  1  0.869699  0.389058  0.123778  1
  B  B5  1  0.816938  0.664560  0.121253  1
  B  B6  1  0.200044  0.337316  0.120359  1
  B  B7  1  0.836940  0.316057  0.620229  1
  B  B8  1  0.154088  0.687804  0.624048  1
  B  B9  1  0.729341  0.825066  0.402499  1
  B  B10  1  0.274752  0.166480  0.397455  1
  B  B11  1  0.673460  0.229382  0.901741  1
  B  B12  1  0.322308  0.771976  0.900249  1
  Os  Os13  1  0.397421  0.151365  0.896638  1
  Os  Os14  1  0.607242  0.841602  0.896873  1
  Os  Os15  1  0.343814  0.886708  0.395928  1
  Os  Os16  1  0.657136  0.106065  0.397081  1
  Os  Os17  1  0.115465  0.379122  0.621903  1
