# generated using pymatgen
data_TbYb3(SiPd14)2
_symmetry_space_group_name_H-M   'P 1'
_cell_length_a   8.93663200
_cell_length_b   8.93663200
_cell_length_c   7.02934400
_cell_angle_alpha   90.00000000
_cell_angle_beta   90.00000000
_cell_angle_gamma   90.00000000
_symmetry_Int_Tables_number   1
_chemical_formula_structural   TbYb3(SiPd14)2
_chemical_formula_sum   'Tb1 Yb3 Si2 Pd28'
_cell_volume   561.38725188
_cell_formula_units_Z   1
loop_
 _symmetry_equiv_pos_site_id
 _symmetry_equiv_pos_as_xyz
  1  'x, y, z'
loop_
 _atom_site_type_symbol
 _atom_site_label
 _atom_site_symmetry_multiplicity
 _atom_site_fract_x
 _atom_site_fract_y
 _atom_site_fract_z
 _atom_site_occupancy
  Tb  Tb0  1  0.500000  0.000000  0.938987  1
  Yb  Yb1  1  0.000000  0.500000  0.061083  1
  Yb  Yb2  1  0.000000  0.000000  0.500036  1
  Yb  Yb3  1  0.500000  0.500000  0.500036  1
  Si  Si4  1  0.500000  0.000000  0.447622  1
  Si  Si5  1  0.000000  0.500000  0.552456  1
  Pd  Pd6  1  0.334002  0.834002  0.617093  1
  Pd  Pd7  1  0.334002  0.165998  0.617093  1
  Pd  Pd8  1  0.665998  0.834002  0.617093  1
  Pd  Pd9  1  0.665998  0.165998  0.617093  1
  Pd  Pd10  1  0.165979  0.665979  0.382733  1
  Pd  Pd11  1  0.165979  0.334021  0.382733  1
  Pd  Pd12  1  0.834021  0.665979  0.382733  1
  Pd  Pd13  1  0.834021  0.334021  0.382733  1
  Pd  Pd14  1  0.500000  0.769401  0.257779  1
  Pd  Pd15  1  0.500000  0.230599  0.257779  1
  Pd  Pd16  1  0.269401  0.000000  0.257779  1
  Pd  Pd17  1  0.730599  0.000000  0.257779  1
  Pd  Pd18  1  0.000000  0.730669  0.742251  1
  Pd  Pd19  1  0.000000  0.269331  0.742251  1
  Pd  Pd20  1  0.230669  0.500000  0.742251  1
  Pd  Pd21  1  0.769331  0.500000  0.742251  1
  Pd  Pd22  1  0.500000  0.348934  0.854096  1
  Pd  Pd23  1  0.500000  0.651066  0.854096  1
  Pd  Pd24  1  0.848934  0.000000  0.854096  1
  Pd  Pd25  1  0.151066  0.000000  0.854096  1
  Pd  Pd26  1  0.000000  0.151088  0.145988  1
  Pd  Pd27  1  0.000000  0.848912  0.145988  1
  Pd  Pd28  1  0.651088  0.500000  0.145988  1
  Pd  Pd29  1  0.348912  0.500000  0.145988  1
  Pd  Pd30  1  0.250065  0.750065  0.000004  1
  Pd  Pd31  1  0.250065  0.249935  0.000004  1
  Pd  Pd32  1  0.749935  0.750065  0.000004  1
  Pd  Pd33  1  0.749935  0.249935  0.000004  1
