# generated using pymatgen
data_K2U(SiO3)4
_symmetry_space_group_name_H-M   'P 1'
_cell_length_a   6.78098502
_cell_length_b   8.18519887
_cell_length_c   11.22188100
_cell_angle_alpha   72.58932900
_cell_angle_beta   88.97030816
_cell_angle_gamma   78.78417246
_symmetry_Int_Tables_number   1
_chemical_formula_structural   K2U(SiO3)4
_chemical_formula_sum   'K4 U2 Si8 O24'
_cell_volume   582.43027350
_cell_formula_units_Z   2
loop_
 _symmetry_equiv_pos_site_id
 _symmetry_equiv_pos_as_xyz
  1  'x, y, z'
loop_
 _atom_site_type_symbol
 _atom_site_label
 _atom_site_symmetry_multiplicity
 _atom_site_fract_x
 _atom_site_fract_y
 _atom_site_fract_z
 _atom_site_occupancy
  K  K0  1  0.800867  0.308637  0.003223  1
  K  K1  1  0.174073  0.739023  0.346361  1
  K  K2  1  0.825926  0.260978  0.653639  1
  K  K3  1  0.199133  0.691364  0.996777  1
  U  U4  1  0.675939  0.713005  0.171433  1
  U  U5  1  0.324060  0.286994  0.828567  1
  Si  Si6  1  0.382571  0.128028  0.169770  1
  Si  Si7  1  0.037389  0.327608  0.284743  1
  Si  Si8  1  0.681294  0.136187  0.381095  1
  Si  Si9  1  0.699881  0.749809  0.484379  1
  Si  Si10  1  0.300118  0.250192  0.515621  1
  Si  Si11  1  0.318706  0.863813  0.618906  1
  Si  Si12  1  0.962611  0.672392  0.715256  1
  Si  Si13  1  0.617429  0.871971  0.830230  1
  O  O14  1  0.382441  0.257698  0.029483  1
  O  O15  1  0.857152  0.863468  0.138039  1
  O  O16  1  0.950504  0.497878  0.169923  1
  O  O17  1  0.417809  0.923065  0.179511  1
  O  O18  1  0.488061  0.570640  0.201671  1
  O  O19  1  0.166015  0.170600  0.235571  1
  O  O20  1  0.560622  0.166958  0.250815  1
  O  O21  1  0.854814  0.249466  0.364288  1
  O  O22  1  0.727665  0.649907  0.380916  1
  O  O23  1  0.176191  0.373757  0.384870  1
  O  O24  1  0.791548  0.930520  0.438472  1
  O  O25  1  0.538538  0.193500  0.487146  1
  O  O26  1  0.461461  0.806499  0.512854  1
  O  O27  1  0.208453  0.069479  0.561528  1
  O  O28  1  0.823810  0.626242  0.615131  1
  O  O29  1  0.272336  0.350093  0.619083  1
  O  O30  1  0.145185  0.750535  0.635712  1
  O  O31  1  0.439377  0.833043  0.749185  1
  O  O32  1  0.833985  0.829399  0.764429  1
  O  O33  1  0.511939  0.429359  0.798330  1
  O  O34  1  0.582191  0.076934  0.820489  1
  O  O35  1  0.049497  0.502122  0.830077  1
  O  O36  1  0.142848  0.136532  0.861961  1
  O  O37  1  0.617561  0.742301  0.970517  1
