# generated using pymatgen
data_YEr3Al16(SiRh3)2
_symmetry_space_group_name_H-M   'P 1'
_cell_length_a   7.53698200
_cell_length_b   7.53549710
_cell_length_c   9.33196200
_cell_angle_alpha   90.00000000
_cell_angle_beta   90.00000000
_cell_angle_gamma   119.65490086
_symmetry_Int_Tables_number   1
_chemical_formula_structural   YEr3Al16(SiRh3)2
_chemical_formula_sum   'Y1 Er3 Al16 Si2 Rh6'
_cell_volume   460.58812410
_cell_formula_units_Z   1
loop_
 _symmetry_equiv_pos_site_id
 _symmetry_equiv_pos_as_xyz
  1  'x, y, z'
loop_
 _atom_site_type_symbol
 _atom_site_label
 _atom_site_symmetry_multiplicity
 _atom_site_fract_x
 _atom_site_fract_y
 _atom_site_fract_z
 _atom_site_occupancy
  Y  Y0  1  0.325020  0.005189  0.750000  1
  Er  Er1  1  0.994642  0.675350  0.250000  1
  Er  Er2  1  0.004853  0.324268  0.750000  1
  Er  Er3  1  0.675692  0.994861  0.250000  1
  Al  Al4  1  0.000858  0.336349  0.077224  1
  Al  Al5  1  0.998583  0.663154  0.923709  1
  Al  Al6  1  0.998583  0.663154  0.576291  1
  Al  Al7  1  0.336361  0.000866  0.422187  1
  Al  Al8  1  0.000858  0.336349  0.422776  1
  Al  Al9  1  0.664088  0.998947  0.576298  1
  Al  Al10  1  0.664088  0.998947  0.923702  1
  Al  Al11  1  0.336361  0.000866  0.077813  1
  Al  Al12  1  0.335145  0.335638  0.556237  1
  Al  Al13  1  0.664784  0.664817  0.442555  1
  Al  Al14  1  0.664784  0.664817  0.057445  1
  Al  Al15  1  0.335145  0.335638  0.943763  1
  Al  Al16  1  0.335428  0.549781  0.250000  1
  Al  Al17  1  0.665352  0.451176  0.750000  1
  Al  Al18  1  0.549861  0.335657  0.250000  1
  Al  Al19  1  0.450358  0.664102  0.750000  1
  Si  Si20  1  0.128303  0.128403  0.250000  1
  Si  Si21  1  0.870958  0.871404  0.750000  1
  Rh  Rh22  1  0.671940  0.328147  0.000088  1
  Rh  Rh23  1  0.327963  0.671724  0.000070  1
  Rh  Rh24  1  0.327963  0.671724  0.499930  1
  Rh  Rh25  1  0.671940  0.328147  0.499912  1
  Rh  Rh26  1  0.000046  0.000262  0.999886  1
  Rh  Rh27  1  0.000046  0.000262  0.500114  1
