# generated using pymatgen
data_CuAg3(NO3)8
_symmetry_space_group_name_H-M   'P 1'
_cell_length_a   7.87156997
_cell_length_b   7.87156965
_cell_length_c   7.87157000
_cell_angle_alpha   91.51234426
_cell_angle_beta   88.48765580
_cell_angle_gamma   88.48765050
_symmetry_Int_Tables_number   1
_chemical_formula_structural   CuAg3(NO3)8
_chemical_formula_sum   'Cu1 Ag3 N8 O24'
_cell_volume   487.21631512
_cell_formula_units_Z   1
loop_
 _symmetry_equiv_pos_site_id
 _symmetry_equiv_pos_as_xyz
  1  'x, y, z'
loop_
 _atom_site_type_symbol
 _atom_site_label
 _atom_site_symmetry_multiplicity
 _atom_site_fract_x
 _atom_site_fract_y
 _atom_site_fract_z
 _atom_site_occupancy
  Cu  Cu0  1  0.000000  0.000000  0.500000  1
  Ag  Ag1  1  0.500000  0.500000  0.500000  1
  Ag  Ag2  1  0.500000  0.000000  0.000000  1
  Ag  Ag3  1  0.000000  0.500000  0.000000  1
  N  N4  1  0.690309  0.149201  0.329956  1
  N  N5  1  0.667082  0.332918  0.832918  1
  N  N6  1  0.850799  0.829956  0.809691  1
  N  N7  1  0.829956  0.690309  0.350799  1
  N  N8  1  0.149201  0.170044  0.190309  1
  N  N9  1  0.170044  0.309691  0.649201  1
  N  N10  1  0.332918  0.667082  0.167082  1
  N  N11  1  0.309691  0.850799  0.670044  1
  O  O12  1  0.547527  0.230404  0.815991  1
  O  O13  1  0.576491  0.262521  0.315577  1
  O  O14  1  0.684009  0.452473  0.730404  1
  O  O15  1  0.705954  0.028158  0.223291  1
  O  O16  1  0.723291  0.705954  0.471842  1
  O  O17  1  0.737479  0.815577  0.923509  1
  O  O18  1  0.769596  0.315991  0.952473  1
  O  O19  1  0.790185  0.159568  0.454937  1
  O  O20  1  0.840432  0.954937  0.709815  1
  O  O21  1  0.815577  0.576491  0.237479  1
  O  O22  1  0.971842  0.723291  0.794046  1
  O  O23  1  0.954937  0.790185  0.340432  1
  O  O24  1  0.045063  0.209815  0.659568  1
  O  O25  1  0.028158  0.276709  0.205954  1
  O  O26  1  0.184423  0.423509  0.762521  1
  O  O27  1  0.159568  0.045063  0.290185  1
  O  O28  1  0.230404  0.684009  0.047527  1
  O  O29  1  0.209815  0.840432  0.545063  1
  O  O30  1  0.262521  0.184423  0.076491  1
  O  O31  1  0.276709  0.294046  0.528158  1
  O  O32  1  0.315991  0.547527  0.269596  1
  O  O33  1  0.294046  0.971842  0.776709  1
  O  O34  1  0.423509  0.737479  0.684423  1
  O  O35  1  0.452473  0.769596  0.184009  1
