# generated using pymatgen
data_Pa3(Si2Mo)2
_symmetry_space_group_name_H-M   'P 1'
_cell_length_a   10.47503806
_cell_length_b   10.47503837
_cell_length_c   14.28507286
_cell_angle_alpha   56.31934832
_cell_angle_beta   56.31933968
_cell_angle_gamma   31.68807452
_symmetry_Int_Tables_number   1
_chemical_formula_structural   Pa3(Si2Mo)2
_chemical_formula_sum   'Pa12 Si16 Mo8'
_cell_volume   672.79642130
_cell_formula_units_Z   4
loop_
 _symmetry_equiv_pos_site_id
 _symmetry_equiv_pos_as_xyz
  1  'x, y, z'
loop_
 _atom_site_type_symbol
 _atom_site_label
 _atom_site_symmetry_multiplicity
 _atom_site_fract_x
 _atom_site_fract_y
 _atom_site_fract_z
 _atom_site_occupancy
  Pa  Pa0  1  0.746609  0.472499  0.051826  1
  Pa  Pa1  1  0.531674  0.313583  0.158871  1
  Pa  Pa2  1  0.527501  0.253391  0.448174  1
  Pa  Pa3  1  0.468326  0.686417  0.841129  1
  Pa  Pa4  1  0.287265  0.047708  0.134571  1
  Pa  Pa5  1  0.952292  0.712735  0.365429  1
  Pa  Pa6  1  0.712735  0.952292  0.865429  1
  Pa  Pa7  1  0.047708  0.287265  0.634571  1
  Pa  Pa8  1  0.253391  0.527501  0.948174  1
  Pa  Pa9  1  0.472499  0.746609  0.551826  1
  Pa  Pa10  1  0.313583  0.531674  0.658871  1
  Pa  Pa11  1  0.686417  0.468326  0.341129  1
  Si  Si12  1  0.915363  0.084637  0.250000  1
  Si  Si13  1  0.084637  0.915363  0.750000  1
  Si  Si14  1  0.340830  0.659170  0.250000  1
  Si  Si15  1  0.659170  0.340830  0.750000  1
  Si  Si16  1  0.019394  0.216913  0.871085  1
  Si  Si17  1  0.783087  0.980606  0.628915  1
  Si  Si18  1  0.980606  0.783087  0.128915  1
  Si  Si19  1  0.216913  0.019394  0.371085  1
  Si  Si20  1  0.601902  0.046933  0.076515  1
  Si  Si21  1  0.953067  0.398098  0.423485  1
  Si  Si22  1  0.398098  0.953067  0.923485  1
  Si  Si23  1  0.046933  0.601902  0.576515  1
  Si  Si24  1  0.379455  0.160067  0.388727  1
  Si  Si25  1  0.839933  0.620545  0.111273  1
  Si  Si26  1  0.620545  0.839933  0.611273  1
  Si  Si27  1  0.160067  0.379455  0.888727  1
  Mo  Mo28  1  0.636033  0.828290  0.286176  1
  Mo  Mo29  1  0.828290  0.636033  0.786176  1
  Mo  Mo30  1  0.363967  0.171710  0.713824  1
  Mo  Mo31  1  0.171710  0.363967  0.213824  1
  Mo  Mo32  1  0.150177  0.900451  0.072045  1
  Mo  Mo33  1  0.099549  0.849823  0.427955  1
  Mo  Mo34  1  0.849823  0.099549  0.927955  1
  Mo  Mo35  1  0.900451  0.150177  0.572045  1
