# generated using pymatgen
data_Dy2Hf3Sc(SnRh)6
_symmetry_space_group_name_H-M   'P 1'
_cell_length_a   7.45008908
_cell_length_b   7.46162181
_cell_length_c   7.44680100
_cell_angle_alpha   90.00000000
_cell_angle_beta   90.00000000
_cell_angle_gamma   119.93230058
_symmetry_Int_Tables_number   1
_chemical_formula_structural   Dy2Hf3Sc(SnRh)6
_chemical_formula_sum   'Dy2 Hf3 Sc1 Sn6 Rh6'
_cell_volume   358.74920209
_cell_formula_units_Z   1
loop_
 _symmetry_equiv_pos_site_id
 _symmetry_equiv_pos_as_xyz
  1  'x, y, z'
loop_
 _atom_site_type_symbol
 _atom_site_label
 _atom_site_symmetry_multiplicity
 _atom_site_fract_x
 _atom_site_fract_y
 _atom_site_fract_z
 _atom_site_occupancy
  Dy  Dy0  1  0.002188  0.407715  0.250000  1
  Dy  Dy1  1  0.595005  0.591883  0.250000  1
  Hf  Hf2  1  0.996166  0.389889  0.750000  1
  Hf  Hf3  1  0.605822  0.610865  0.750000  1
  Hf  Hf4  1  0.395774  0.999737  0.750000  1
  Sc  Sc5  1  0.400253  0.998006  0.250000  1
  Sn  Sn6  1  0.268343  0.265946  0.507278  1
  Sn  Sn7  1  0.001696  0.734051  0.507764  1
  Sn  Sn8  1  0.001696  0.734051  0.992236  1
  Sn  Sn9  1  0.730176  0.000355  0.496834  1
  Sn  Sn10  1  0.730176  0.000355  0.003166  1
  Sn  Sn11  1  0.268343  0.265946  0.992722  1
  Rh  Rh12  1  0.333946  0.668185  0.535888  1
  Rh  Rh13  1  0.666193  0.332228  0.537127  1
  Rh  Rh14  1  0.333946  0.668185  0.964112  1
  Rh  Rh15  1  0.995635  0.000535  0.750000  1
  Rh  Rh16  1  0.008449  0.999838  0.250000  1
  Rh  Rh17  1  0.666193  0.332228  0.962873  1
