# generated using pymatgen
data_Tb8Ti5Si16Mo3W4
_symmetry_space_group_name_H-M   'P 1'
_cell_length_a   6.95233839
_cell_length_b   6.94637202
_cell_length_c   12.87483689
_cell_angle_alpha   89.87311008
_cell_angle_beta   90.01460494
_cell_angle_gamma   90.02964460
_symmetry_Int_Tables_number   1
_chemical_formula_structural   Tb8Ti5Si16Mo3W4
_chemical_formula_sum   'Tb8 Ti5 Si16 Mo3 W4'
_cell_volume   621.76967911
_cell_formula_units_Z   1
loop_
 _symmetry_equiv_pos_site_id
 _symmetry_equiv_pos_as_xyz
  1  'x, y, z'
loop_
 _atom_site_type_symbol
 _atom_site_label
 _atom_site_symmetry_multiplicity
 _atom_site_fract_x
 _atom_site_fract_y
 _atom_site_fract_z
 _atom_site_occupancy
  Tb  Tb0  1  0.340295  0.003655  0.467412  1
  Tb  Tb1  1  0.497207  0.839992  0.718862  1
  Tb  Tb2  1  0.502476  0.160447  0.218530  1
  Tb  Tb3  1  0.839375  0.496380  0.280846  1
  Tb  Tb4  1  0.160514  0.502256  0.782623  1
  Tb  Tb5  1  0.659970  0.997111  0.968560  1
  Tb  Tb6  1  0.002974  0.339560  0.531703  1
  Tb  Tb7  1  0.996339  0.661443  0.031131  1
  Ti  Ti8  1  0.329784  0.329983  0.999474  1
  Ti  Ti9  1  0.169425  0.829272  0.250045  1
  Ti  Ti10  1  0.827896  0.172089  0.750565  1
  Ti  Ti11  1  0.669586  0.667975  0.498912  1
  Ti  Ti12  1  0.993902  0.840741  0.625749  1
  Si  Si13  1  0.202292  0.128570  0.684264  1
  Si  Si14  1  0.371860  0.701375  0.934178  1
  Si  Si15  1  0.629685  0.299095  0.433939  1
  Si  Si16  1  0.699812  0.371532  0.066091  1
  Si  Si17  1  0.300753  0.628363  0.564913  1
  Si  Si18  1  0.799313  0.871896  0.183935  1
  Si  Si19  1  0.127108  0.200727  0.316265  1
  Si  Si20  1  0.872660  0.799580  0.815729  1
  Si  Si21  1  0.288914  0.959413  0.062997  1
  Si  Si22  1  0.540714  0.788929  0.312808  1
  Si  Si23  1  0.458374  0.210835  0.812786  1
  Si  Si24  1  0.789216  0.542267  0.687467  1
  Si  Si25  1  0.211112  0.458608  0.186640  1
  Si  Si26  1  0.711093  0.042199  0.563508  1
  Si  Si27  1  0.958771  0.289020  0.937392  1
  Si  Si28  1  0.042872  0.710564  0.437056  1
  Mo  Mo29  1  0.160212  0.008787  0.875321  1
  Mo  Mo30  1  0.492451  0.659675  0.124559  1
  Mo  Mo31  1  0.507455  0.340529  0.623580  1
  W  W32  1  0.658059  0.491375  0.877554  1
  W  W33  1  0.341783  0.504759  0.374530  1
  W  W34  1  0.839186  0.991186  0.373752  1
  W  W35  1  0.006559  0.159815  0.126322  1
