# generated using pymatgen
data_CaLuRh2O7
_symmetry_space_group_name_H-M   'P 1'
_cell_length_a   7.19750603
_cell_length_b   7.19750653
_cell_length_c   7.19396100
_cell_angle_alpha   60.01629852
_cell_angle_beta   60.01629623
_cell_angle_gamma   59.82890904
_symmetry_Int_Tables_number   1
_chemical_formula_structural   CaLuRh2O7
_chemical_formula_sum   'Ca2 Lu2 Rh4 O14'
_cell_volume   263.24440515
_cell_formula_units_Z   2
loop_
 _symmetry_equiv_pos_site_id
 _symmetry_equiv_pos_as_xyz
  1  'x, y, z'
loop_
 _atom_site_type_symbol
 _atom_site_label
 _atom_site_symmetry_multiplicity
 _atom_site_fract_x
 _atom_site_fract_y
 _atom_site_fract_z
 _atom_site_occupancy
  Ca  Ca0  1  0.125000  0.625000  0.125000  1
  Ca  Ca1  1  0.625000  0.125000  0.125000  1
  Lu  Lu2  1  0.125000  0.125000  0.125000  1
  Lu  Lu3  1  0.125000  0.125000  0.625000  1
  Rh  Rh4  1  0.625000  0.625000  0.625000  1
  Rh  Rh5  1  0.625000  0.625000  0.125000  1
  Rh  Rh6  1  0.125000  0.625000  0.625000  1
  Rh  Rh7  1  0.625000  0.125000  0.625000  1
  O  O8  1  0.239443  0.239443  0.260557  1
  O  O9  1  0.291728  0.719020  0.294054  1
  O  O10  1  0.958182  0.958182  0.541818  1
  O  O11  1  0.530980  0.958272  0.554801  1
  O  O12  1  0.703016  0.703016  0.296984  1
  O  O13  1  0.958272  0.530980  0.554801  1
  O  O14  1  0.719020  0.291728  0.695199  1
  O  O15  1  0.291818  0.291818  0.708182  1
  O  O16  1  0.719020  0.291728  0.294054  1
  O  O17  1  0.291728  0.719020  0.695199  1
  O  O18  1  0.958272  0.530980  0.955946  1
  O  O19  1  0.546984  0.546984  0.953016  1
  O  O20  1  0.010557  0.010557  0.989443  1
  O  O21  1  0.530980  0.958272  0.955946  1
