# generated using pymatgen
data_Tb2Er2Al4Pd3Rh
_symmetry_space_group_name_H-M   'P 1'
_cell_length_a   4.41336100
_cell_length_b   6.82099920
_cell_length_c   7.83856288
_cell_angle_alpha   89.85987154
_cell_angle_beta   90.00000000
_cell_angle_gamma   90.00000000
_symmetry_Int_Tables_number   1
_chemical_formula_structural   Tb2Er2Al4Pd3Rh
_chemical_formula_sum   'Tb2 Er2 Al4 Pd3 Rh1'
_cell_volume   235.96772164
_cell_formula_units_Z   1
loop_
 _symmetry_equiv_pos_site_id
 _symmetry_equiv_pos_as_xyz
  1  'x, y, z'
loop_
 _atom_site_type_symbol
 _atom_site_label
 _atom_site_symmetry_multiplicity
 _atom_site_fract_x
 _atom_site_fract_y
 _atom_site_fract_z
 _atom_site_occupancy
  Tb  Tb0  1  0.250000  0.037023  0.323987  1
  Tb  Tb1  1  0.250000  0.534958  0.178923  1
  Er  Er2  1  0.750000  0.972347  0.679812  1
  Er  Er3  1  0.750000  0.462511  0.816885  1
  Al  Al4  1  0.250000  0.143969  0.936946  1
  Al  Al5  1  0.250000  0.635351  0.562376  1
  Al  Al6  1  0.750000  0.858280  0.058728  1
  Al  Al7  1  0.750000  0.357305  0.442587  1
  Pd  Pd8  1  0.250000  0.770922  0.877598  1
  Pd  Pd9  1  0.750000  0.731741  0.380344  1
  Pd  Pd10  1  0.750000  0.231786  0.121051  1
  Rh  Rh11  1  0.250000  0.263808  0.620763  1
