# generated using pymatgen
data_Ho10In8NiIr2Rh
_symmetry_space_group_name_H-M   'P 1'
_cell_length_a   8.07196949
_cell_length_b   18.17918919
_cell_length_c   3.60605600
_cell_angle_alpha   90.00000000
_cell_angle_beta   90.00000000
_cell_angle_gamma   90.14003488
_symmetry_Int_Tables_number   1
_chemical_formula_structural   Ho10In8NiIr2Rh
_chemical_formula_sum   'Ho10 In8 Ni1 Ir2 Rh1'
_cell_volume   529.15778630
_cell_formula_units_Z   1
loop_
 _symmetry_equiv_pos_site_id
 _symmetry_equiv_pos_as_xyz
  1  'x, y, z'
loop_
 _atom_site_type_symbol
 _atom_site_label
 _atom_site_symmetry_multiplicity
 _atom_site_fract_x
 _atom_site_fract_y
 _atom_site_fract_z
 _atom_site_occupancy
  Ho  Ho0  1  0.500889  0.499464  0.000000  1
  Ho  Ho1  1  0.000411  0.001389  0.000000  1
  Ho  Ho2  1  0.739338  0.278700  0.000000  1
  Ho  Ho3  1  0.258027  0.722025  0.000000  1
  Ho  Ho4  1  0.752340  0.777706  0.000000  1
  Ho  Ho5  1  0.250879  0.222006  0.000000  1
  Ho  Ho6  1  0.617062  0.088631  0.000000  1
  Ho  Ho7  1  0.382720  0.911165  0.000000  1
  Ho  Ho8  1  0.884084  0.588336  0.000000  1
  Ho  Ho9  1  0.115321  0.409421  0.000000  1
  In  In10  1  0.707202  0.932465  0.500000  1
  In  In11  1  0.293715  0.068667  0.500000  1
  In  In12  1  0.795541  0.431080  0.500000  1
  In  In13  1  0.206310  0.566601  0.500000  1
  In  In14  1  0.570948  0.648101  0.500000  1
  In  In15  1  0.426200  0.351090  0.500000  1
  In  In16  1  0.928618  0.153025  0.500000  1
  In  In17  1  0.068200  0.850629  0.500000  1
  Ni  Ni18  1  0.018327  0.304796  0.500000  1
  Ir  Ir19  1  0.521407  0.196688  0.500000  1
  Ir  Ir20  1  0.480794  0.803717  0.500000  1
  Rh  Rh21  1  0.981668  0.694301  0.500000  1
