# generated using pymatgen
data_Eu3HfSb5
_symmetry_space_group_name_H-M   'P 1'
_cell_length_a   9.53004133
_cell_length_b   9.55763997
_cell_length_c   6.38907600
_cell_angle_alpha   90.00000000
_cell_angle_beta   90.00000000
_cell_angle_gamma   120.09584543
_symmetry_Int_Tables_number   1
_chemical_formula_structural   Eu3HfSb5
_chemical_formula_sum   'Eu6 Hf2 Sb10'
_cell_volume   503.49351783
_cell_formula_units_Z   2
loop_
 _symmetry_equiv_pos_site_id
 _symmetry_equiv_pos_as_xyz
  1  'x, y, z'
loop_
 _atom_site_type_symbol
 _atom_site_label
 _atom_site_symmetry_multiplicity
 _atom_site_fract_x
 _atom_site_fract_y
 _atom_site_fract_z
 _atom_site_occupancy
  Eu  Eu0  1  0.613290  0.999778  0.250000  1
  Eu  Eu1  1  0.613290  0.613512  0.750000  1
  Eu  Eu2  1  0.386710  0.000222  0.750000  1
  Eu  Eu3  1  0.386710  0.386488  0.250000  1
  Eu  Eu4  1  0.000000  0.613873  0.250000  1
  Eu  Eu5  1  0.000000  0.386127  0.750000  1
  Hf  Hf6  1  0.000000  0.000000  0.000000  1
  Hf  Hf7  1  0.000000  0.000000  0.500000  1
  Sb  Sb8  1  0.333467  0.666734  0.500000  1
  Sb  Sb9  1  0.666533  0.333266  0.000000  1
  Sb  Sb10  1  0.666533  0.333266  0.500000  1
  Sb  Sb11  1  0.333467  0.666734  0.000000  1
  Sb  Sb12  1  0.740852  0.999638  0.750000  1
  Sb  Sb13  1  0.740852  0.741214  0.250000  1
  Sb  Sb14  1  0.000000  0.258653  0.250000  1
  Sb  Sb15  1  0.000000  0.741347  0.750000  1
  Sb  Sb16  1  0.259148  0.000362  0.250000  1
  Sb  Sb17  1  0.259148  0.258786  0.750000  1
