# generated using pymatgen
data_Tb2Sc2B12MoIr
_symmetry_space_group_name_H-M   'P 1'
_cell_length_a   3.57661300
_cell_length_b   9.04115424
_cell_length_c   11.46808261
_cell_angle_alpha   90.16343742
_cell_angle_beta   90.00000000
_cell_angle_gamma   90.00000000
_symmetry_Int_Tables_number   1
_chemical_formula_structural   Tb2Sc2B12MoIr
_chemical_formula_sum   'Tb4 Sc4 B24 Mo2 Ir2'
_cell_volume   370.83855041
_cell_formula_units_Z   2
loop_
 _symmetry_equiv_pos_site_id
 _symmetry_equiv_pos_as_xyz
  1  'x, y, z'
loop_
 _atom_site_type_symbol
 _atom_site_label
 _atom_site_symmetry_multiplicity
 _atom_site_fract_x
 _atom_site_fract_y
 _atom_site_fract_z
 _atom_site_occupancy
  Tb  Tb0  1  0.500000  0.318114  0.412631  1
  Tb  Tb1  1  0.500000  0.681886  0.587369  1
  Tb  Tb2  1  0.500000  0.177458  0.915649  1
  Tb  Tb3  1  0.500000  0.822542  0.084351  1
  Sc  Sc4  1  0.500000  0.443257  0.125368  1
  Sc  Sc5  1  0.500000  0.556743  0.874632  1
  Sc  Sc6  1  0.500000  0.051996  0.626660  1
  Sc  Sc7  1  0.500000  0.948004  0.373340  1
  B  B8  1  0.000000  0.099390  0.474345  1
  B  B9  1  0.000000  0.900610  0.525655  1
  B  B10  1  0.000000  0.401809  0.972587  1
  B  B11  1  0.000000  0.598191  0.027413  1
  B  B12  1  0.000000  0.129709  0.319158  1
  B  B13  1  0.000000  0.870291  0.680842  1
  B  B14  1  0.000000  0.370836  0.817574  1
  B  B15  1  0.000000  0.629164  0.182426  1
  B  B16  1  0.000000  0.053350  0.066587  1
  B  B17  1  0.000000  0.946650  0.933413  1
  B  B18  1  0.000000  0.444610  0.567148  1
  B  B19  1  0.000000  0.555390  0.432852  1
  B  B20  1  0.000000  0.482583  0.285831  1
  B  B21  1  0.000000  0.517417  0.714169  1
  B  B22  1  0.000000  0.020557  0.784116  1
  B  B23  1  0.000000  0.979443  0.215884  1
  B  B24  1  0.000000  0.255012  0.080075  1
  B  B25  1  0.000000  0.744988  0.919925  1
  B  B26  1  0.000000  0.245416  0.580940  1
  B  B27  1  0.000000  0.754584  0.419060  1
  B  B28  1  0.000000  0.298140  0.235381  1
  B  B29  1  0.000000  0.701860  0.764619  1
  B  B30  1  0.000000  0.206315  0.734544  1
  B  B31  1  0.000000  0.793685  0.265456  1
  Mo  Mo32  1  0.500000  0.141571  0.182971  1
  Mo  Mo33  1  0.500000  0.858429  0.817029  1
  Ir  Ir34  1  0.500000  0.359615  0.680792  1
  Ir  Ir35  1  0.500000  0.640385  0.319208  1
