# generated using pymatgen
data_Cs4Na2ScGaSb4
_symmetry_space_group_name_H-M   'P 1'
_cell_length_a   10.23226100
_cell_length_b   10.23226068
_cell_length_c   10.23225998
_cell_angle_alpha   136.88030214
_cell_angle_beta   61.17630495
_cell_angle_gamma   138.78032446
_symmetry_Int_Tables_number   1
_chemical_formula_structural   Cs4Na2ScGaSb4
_chemical_formula_sum   'Cs4 Na2 Sc1 Ga1 Sb4'
_cell_volume   477.16850699
_cell_formula_units_Z   1
loop_
 _symmetry_equiv_pos_site_id
 _symmetry_equiv_pos_as_xyz
  1  'x, y, z'
loop_
 _atom_site_type_symbol
 _atom_site_label
 _atom_site_symmetry_multiplicity
 _atom_site_fract_x
 _atom_site_fract_y
 _atom_site_fract_z
 _atom_site_occupancy
  Cs  Cs0  1  0.832194  0.237072  0.064541  1
  Cs  Cs1  1  0.667807  0.732348  0.404879  1
  Cs  Cs2  1  0.327470  0.262929  0.595121  1
  Cs  Cs3  1  0.172530  0.767652  0.935458  1
  Na  Na4  1  0.250000  0.250000  0.000000  1
  Na  Na5  1  0.750000  0.750000  0.000000  1
  Sc  Sc6  1  0.749999  0.250000  0.500000  1
  Ga  Ga7  1  0.250000  0.750000  0.500001  1
  Sb  Sb8  1  0.402462  0.780247  0.199526  1
  Sb  Sb9  1  0.097538  0.297064  0.377785  1
  Sb  Sb10  1  0.919280  0.719755  0.622216  1
  Sb  Sb11  1  0.580720  0.202936  0.800474  1
