# generated using pymatgen
data_Yb3Y(CuH6)2
_symmetry_space_group_name_H-M   'P 1'
_cell_length_a   6.74329982
_cell_length_b   6.74330140
_cell_length_c   5.08810700
_cell_angle_alpha   90.00044596
_cell_angle_beta   90.00044519
_cell_angle_gamma   135.70881245
_symmetry_Int_Tables_number   1
_chemical_formula_structural   Yb3Y(CuH6)2
_chemical_formula_sum   'Yb3 Y1 Cu2 H12'
_cell_volume   161.56472744
_cell_formula_units_Z   1
loop_
 _symmetry_equiv_pos_site_id
 _symmetry_equiv_pos_as_xyz
  1  'x, y, z'
loop_
 _atom_site_type_symbol
 _atom_site_label
 _atom_site_symmetry_multiplicity
 _atom_site_fract_x
 _atom_site_fract_y
 _atom_site_fract_z
 _atom_site_occupancy
  Yb  Yb0  1  0.644105  0.355895  0.000000  1
  Yb  Yb1  1  0.856393  0.143607  0.500000  1
  Yb  Yb2  1  0.355798  0.644202  0.000000  1
  Y  Y3  1  0.148957  0.851043  0.500000  1
  Cu  Cu4  1  0.500454  0.499546  0.500000  1
  Cu  Cu5  1  0.999087  0.000913  0.000000  1
  H  H6  1  0.002035  0.507467  0.745369  1
  H  H7  1  0.492533  0.997965  0.254631  1
  H  H8  1  0.002031  0.507462  0.254629  1
  H  H9  1  0.492538  0.997969  0.745371  1
  H  H10  1  0.368566  0.631434  0.500000  1
  H  H11  1  0.867335  0.132665  0.000000  1
  H  H12  1  0.631854  0.368146  0.500000  1
  H  H13  1  0.131301  0.868699  0.000000  1
  H  H14  1  0.249434  0.245923  0.747541  1
  H  H15  1  0.754077  0.750566  0.252459  1
  H  H16  1  0.249427  0.245924  0.252472  1
  H  H17  1  0.754076  0.750573  0.747528  1
