# generated using pymatgen
data_Lu2Mn7Fe5P7
_symmetry_space_group_name_H-M   'P 1'
_cell_length_a   9.15677374
_cell_length_b   9.13144188
_cell_length_c   3.58008100
_cell_angle_alpha   90.00000000
_cell_angle_beta   90.00000000
_cell_angle_gamma   120.09132600
_symmetry_Int_Tables_number   1
_chemical_formula_structural   Lu2Mn7Fe5P7
_chemical_formula_sum   'Lu2 Mn7 Fe5 P7'
_cell_volume   259.00307860
_cell_formula_units_Z   1
loop_
 _symmetry_equiv_pos_site_id
 _symmetry_equiv_pos_as_xyz
  1  'x, y, z'
loop_
 _atom_site_type_symbol
 _atom_site_label
 _atom_site_symmetry_multiplicity
 _atom_site_fract_x
 _atom_site_fract_y
 _atom_site_fract_z
 _atom_site_occupancy
  Lu  Lu0  1  0.332407  0.665637  0.000000  1
  Lu  Lu1  1  0.002001  0.999866  0.500000  1
  Mn  Mn2  1  0.717781  0.952822  0.000000  1
  Mn  Mn3  1  0.099217  0.380638  0.500000  1
  Mn  Mn4  1  0.278872  0.901516  0.500000  1
  Mn  Mn5  1  0.620381  0.721417  0.500000  1
  Mn  Mn6  1  0.773325  0.206201  0.500000  1
  Mn  Mn7  1  0.434430  0.228025  0.500000  1
  Mn  Mn8  1  0.794105  0.564666  0.500000  1
  Fe  Fe9  1  0.235882  0.281710  0.000000  1
  Fe  Fe10  1  0.046263  0.765162  0.000000  1
  Fe  Fe11  1  0.942522  0.452468  0.000000  1
  Fe  Fe12  1  0.509291  0.058215  0.000000  1
  Fe  Fe13  1  0.548384  0.488760  0.000000  1
  P  P14  1  0.957955  0.211161  0.000000  1
  P  P15  1  0.255344  0.046661  0.000000  1
  P  P16  1  0.790408  0.742208  0.000000  1
  P  P17  1  0.071618  0.620913  0.500000  1
  P  P18  1  0.542046  0.926301  0.500000  1
  P  P19  1  0.380385  0.452151  0.500000  1
  P  P20  1  0.667390  0.333500  0.000000  1
