# generated using pymatgen
data_Hf6TaNb3(Ga2Si)2
_symmetry_space_group_name_H-M   'P 1'
_cell_length_a   7.91580100
_cell_length_b   7.90077096
_cell_length_c   5.42020100
_cell_angle_alpha   90.00255028
_cell_angle_beta   89.99830749
_cell_angle_gamma   119.93717611
_symmetry_Int_Tables_number   1
_chemical_formula_structural   Hf6TaNb3(Ga2Si)2
_chemical_formula_sum   'Hf6 Ta1 Nb3 Ga4 Si2'
_cell_volume   293.75478365
_cell_formula_units_Z   1
loop_
 _symmetry_equiv_pos_site_id
 _symmetry_equiv_pos_as_xyz
  1  'x, y, z'
loop_
 _atom_site_type_symbol
 _atom_site_label
 _atom_site_symmetry_multiplicity
 _atom_site_fract_x
 _atom_site_fract_y
 _atom_site_fract_z
 _atom_site_occupancy
  Hf  Hf0  1  0.747169  0.749646  0.249985  1
  Hf  Hf1  1  0.747171  0.997522  0.750013  1
  Hf  Hf2  1  0.996422  0.245713  0.250026  1
  Hf  Hf3  1  0.251078  0.251809  0.749997  1
  Hf  Hf4  1  0.251077  0.999271  0.250005  1
  Hf  Hf5  1  0.996419  0.750707  0.749977  1
  Ta  Ta6  1  0.665021  0.332511  0.999998  1
  Nb  Nb7  1  0.664998  0.332497  0.500001  1
  Nb  Nb8  1  0.340077  0.670040  0.500001  1
  Nb  Nb9  1  0.340079  0.670040  0.000000  1
  Ga  Ga10  1  0.001575  0.398159  0.750072  1
  Ga  Ga11  1  0.001576  0.603417  0.249929  1
  Ga  Ga12  1  0.393525  0.394124  0.249933  1
  Ga  Ga13  1  0.393527  0.999401  0.750067  1
  Si  Si14  1  0.605143  0.001950  0.249902  1
  Si  Si15  1  0.605143  0.603194  0.750095  1
