# generated using pymatgen
data_Sc2Cd(SeO3)4
_symmetry_space_group_name_H-M   'P 1'
_cell_length_a   8.53193000
_cell_length_b   8.46827252
_cell_length_c   8.82138461
_cell_angle_alpha   88.23299662
_cell_angle_beta   90.00000000
_cell_angle_gamma   90.00000000
_symmetry_Int_Tables_number   1
_chemical_formula_structural   Sc2Cd(SeO3)4
_chemical_formula_sum   'Sc4 Cd2 Se8 O24'
_cell_volume   637.04821638
_cell_formula_units_Z   2
loop_
 _symmetry_equiv_pos_site_id
 _symmetry_equiv_pos_as_xyz
  1  'x, y, z'
loop_
 _atom_site_type_symbol
 _atom_site_label
 _atom_site_symmetry_multiplicity
 _atom_site_fract_x
 _atom_site_fract_y
 _atom_site_fract_z
 _atom_site_occupancy
  Sc  Sc0  1  0.762845  0.755713  0.998892  1
  Sc  Sc1  1  0.744104  0.239981  0.514465  1
  Sc  Sc2  1  0.237155  0.255713  0.998892  1
  Sc  Sc3  1  0.255896  0.739981  0.514465  1
  Cd  Cd4  1  0.610747  0.342263  0.161433  1
  Cd  Cd5  1  0.389253  0.842263  0.161433  1
  Se  Se6  1  0.084954  0.554383  0.192686  1
  Se  Se7  1  0.915046  0.054383  0.192686  1
  Se  Se8  1  0.572730  0.453188  0.819698  1
  Se  Se9  1  0.327920  0.165376  0.405684  1
  Se  Se10  1  0.057850  0.419798  0.682311  1
  Se  Se11  1  0.427270  0.953188  0.819698  1
  Se  Se12  1  0.672080  0.665376  0.405684  1
  Se  Se13  1  0.942150  0.919798  0.682311  1
  O  O14  1  0.966281  0.696044  0.109919  1
  O  O15  1  0.306244  0.013434  0.968736  1
  O  O16  1  0.161880  0.273130  0.780422  1
  O  O17  1  0.683585  0.462034  0.376001  1
  O  O18  1  0.777373  0.174966  0.279893  1
  O  O19  1  0.194427  0.494630  0.041934  1
  O  O20  1  0.209818  0.512140  0.585135  1
  O  O21  1  0.628407  0.732812  0.220136  1
  O  O22  1  0.701566  0.343409  0.721309  1
  O  O23  1  0.316415  0.962034  0.376001  1
  O  O24  1  0.975372  0.311598  0.539802  1
  O  O25  1  0.477684  0.310567  0.933854  1
  O  O26  1  0.838120  0.773130  0.780422  1
  O  O27  1  0.497376  0.685233  0.493592  1
  O  O28  1  0.298434  0.843409  0.721309  1
  O  O29  1  0.222627  0.674966  0.279893  1
  O  O30  1  0.371593  0.232812  0.220136  1
  O  O31  1  0.033719  0.196044  0.109919  1
  O  O32  1  0.024628  0.811598  0.539802  1
  O  O33  1  0.522316  0.810567  0.933854  1
  O  O34  1  0.693756  0.513433  0.968736  1
  O  O35  1  0.790182  0.012140  0.585135  1
  O  O36  1  0.502624  0.185233  0.493592  1
  O  O37  1  0.805573  0.994630  0.041934  1
