# generated using pymatgen
data_Nd4Dy7In9Ir4
_symmetry_space_group_name_H-M   'P 1'
_cell_length_a   13.09999200
_cell_length_b   13.09758908
_cell_length_c   3.80729200
_cell_angle_alpha   90.00000000
_cell_angle_beta   90.00000000
_cell_angle_gamma   112.09843344
_symmetry_Int_Tables_number   1
_chemical_formula_structural   Nd4Dy7In9Ir4
_chemical_formula_sum   'Nd4 Dy7 In9 Ir4'
_cell_volume   605.26037565
_cell_formula_units_Z   1
loop_
 _symmetry_equiv_pos_site_id
 _symmetry_equiv_pos_as_xyz
  1  'x, y, z'
loop_
 _atom_site_type_symbol
 _atom_site_label
 _atom_site_symmetry_multiplicity
 _atom_site_fract_x
 _atom_site_fract_y
 _atom_site_fract_z
 _atom_site_occupancy
  Nd  Nd0  1  0.813735  0.812336  0.500000  1
  Nd  Nd1  1  0.186265  0.187664  0.500000  1
  Nd  Nd2  1  0.577957  0.919410  0.500000  1
  Nd  Nd3  1  0.422043  0.080590  0.500000  1
  Dy  Dy4  1  0.500000  0.500000  0.500000  1
  Dy  Dy5  1  0.920522  0.580239  0.500000  1
  Dy  Dy6  1  0.079478  0.419761  0.500000  1
  Dy  Dy7  1  0.126427  0.871416  0.500000  1
  Dy  Dy8  1  0.873573  0.128584  0.500000  1
  Dy  Dy9  1  0.336753  0.659208  0.500000  1
  Dy  Dy10  1  0.663247  0.340792  0.500000  1
  In  In11  1  0.337928  0.862190  0.000000  1
  In  In12  1  0.662072  0.137810  0.000000  1
  In  In13  1  0.867402  0.345092  0.000000  1
  In  In14  1  0.132598  0.654908  0.000000  1
  In  In15  1  0.572156  0.714753  0.000000  1
  In  In16  1  0.427844  0.285247  0.000000  1
  In  In17  1  0.717953  0.570514  0.000000  1
  In  In18  1  0.282047  0.429486  0.000000  1
  In  In19  1  0.000000  0.000000  0.000000  1
  Ir  Ir20  1  0.752211  0.959045  0.000000  1
  Ir  Ir21  1  0.247789  0.040955  0.000000  1
  Ir  Ir22  1  0.957569  0.745540  0.000000  1
  Ir  Ir23  1  0.042431  0.254460  0.000000  1
