# generated using pymatgen
data_Pr12Ir2PtAuI12
_symmetry_space_group_name_H-M   'P 1'
_cell_length_a   11.04953653
_cell_length_b   11.04953773
_cell_length_c   10.96766900
_cell_angle_alpha   109.68802894
_cell_angle_beta   109.68803645
_cell_angle_gamma   110.04373882
_symmetry_Int_Tables_number   1
_chemical_formula_structural   Pr12Ir2PtAuI12
_chemical_formula_sum   'Pr12 Ir2 Pt1 Au1 I12'
_cell_volume   1017.80404576
_cell_formula_units_Z   1
loop_
 _symmetry_equiv_pos_site_id
 _symmetry_equiv_pos_as_xyz
  1  'x, y, z'
loop_
 _atom_site_type_symbol
 _atom_site_label
 _atom_site_symmetry_multiplicity
 _atom_site_fract_x
 _atom_site_fract_y
 _atom_site_fract_z
 _atom_site_occupancy
  Pr  Pr0  1  0.460370  0.488119  0.223710  1
  Pr  Pr1  1  0.755460  0.231358  0.273352  1
  Pr  Pr2  1  0.755336  0.022967  0.482978  1
  Pr  Pr3  1  0.223365  0.459785  0.488004  1
  Pr  Pr4  1  0.268642  0.744540  0.226648  1
  Pr  Pr5  1  0.040215  0.276635  0.011996  1
  Pr  Pr6  1  0.011881  0.039630  0.276290  1
  Pr  Pr7  1  0.477033  0.744664  0.017022  1
  Pr  Pr8  1  0.486161  0.226931  0.461893  1
  Pr  Pr9  1  0.019850  0.480150  0.750000  1
  Pr  Pr10  1  0.273069  0.013839  0.038107  1
  Pr  Pr11  1  0.228736  0.271264  0.750000  1
  Ir  Ir12  1  0.998939  0.250177  0.501574  1
  Ir  Ir13  1  0.249823  0.501061  0.998426  1
  Pt  Pt14  1  0.501069  0.998931  0.250000  1
  Au  Au15  1  0.250011  0.249989  0.250000  1
  I  I16  1  0.250237  0.760312  0.740478  1
  I  I17  1  0.515720  0.506388  0.756212  1
  I  I18  1  0.985642  0.744372  0.994285  1
  I  I19  1  0.739688  0.249763  0.759522  1
  I  I20  1  0.993612  0.984280  0.743788  1
  I  I21  1  0.250101  0.993559  0.505940  1
  I  I22  1  0.755628  0.514358  0.505715  1
  I  I23  1  0.506441  0.249899  0.994060  1
  I  I24  1  0.759694  0.740306  0.250000  1
  I  I25  1  0.743758  0.993761  0.985321  1
  I  I26  1  0.993281  0.506719  0.250000  1
  I  I27  1  0.506239  0.756242  0.514679  1
