# generated using pymatgen
data_Rb8Cr5W3N16
_symmetry_space_group_name_H-M   'P 1'
_cell_length_a   5.93712717
_cell_length_b   8.38159100
_cell_length_c   11.86164498
_cell_angle_alpha   89.92227530
_cell_angle_beta   90.02074639
_cell_angle_gamma   90.01848819
_symmetry_Int_Tables_number   1
_chemical_formula_structural   Rb8Cr5W3N16
_chemical_formula_sum   'Rb8 Cr5 W3 N16'
_cell_volume   590.26534602
_cell_formula_units_Z   1
loop_
 _symmetry_equiv_pos_site_id
 _symmetry_equiv_pos_as_xyz
  1  'x, y, z'
loop_
 _atom_site_type_symbol
 _atom_site_label
 _atom_site_symmetry_multiplicity
 _atom_site_fract_x
 _atom_site_fract_y
 _atom_site_fract_z
 _atom_site_occupancy
  Rb  Rb0  1  0.749506  0.098530  0.003104  1
  Rb  Rb1  1  0.251187  0.893354  0.513003  1
  Rb  Rb2  1  0.251082  0.860897  0.988868  1
  Rb  Rb3  1  0.750292  0.132583  0.497359  1
  Rb  Rb4  1  0.737152  0.393487  0.231354  1
  Rb  Rb5  1  0.237163  0.635670  0.264653  1
  Rb  Rb6  1  0.262940  0.630941  0.738632  1
  Rb  Rb7  1  0.761669  0.360969  0.762307  1
  Cr  Cr8  1  0.751477  0.644089  0.993247  1
  Cr  Cr9  1  0.251343  0.361774  0.509112  1
  Cr  Cr10  1  0.739374  0.862751  0.246638  1
  Cr  Cr11  1  0.757733  0.886836  0.750980  1
  Cr  Cr12  1  0.257796  0.118592  0.749491  1
  W  W13  1  0.251513  0.386856  0.993627  1
  W  W14  1  0.751440  0.618473  0.504520  1
  W  W15  1  0.239531  0.118559  0.252579  1
  N  N16  1  0.971359  0.001529  0.248451  1
  N  N17  1  0.481189  0.976079  0.248115  1
  N  N18  1  0.013008  0.997135  0.750901  1
  N  N19  1  0.512183  0.006745  0.750907  1
  N  N20  1  0.251818  0.238528  0.385491  1
  N  N21  1  0.750595  0.752990  0.120719  1
  N  N22  1  0.752880  0.771372  0.877583  1
  N  N23  1  0.252659  0.236063  0.625295  1
  N  N24  1  0.751699  0.759125  0.627671  1
  N  N25  1  0.251734  0.250965  0.868950  1
  N  N26  1  0.254278  0.261852  0.128369  1
  N  N27  1  0.751888  0.733316  0.366493  1
  N  N28  1  0.495577  0.487968  0.511149  1
  N  N29  1  0.996497  0.516751  0.989912  1
  N  N30  1  0.505050  0.518207  0.988946  1
  N  N31  1  0.006387  0.487015  0.511575  1
