# generated using pymatgen
data_Ce(ZnAu)3
_symmetry_space_group_name_H-M   'P 1'
_cell_length_a   5.56699376
_cell_length_b   5.56699188
_cell_length_c   5.68349199
_cell_angle_alpha   102.79071211
_cell_angle_beta   102.79070179
_cell_angle_gamma   123.22670455
_symmetry_Int_Tables_number   1
_chemical_formula_structural   Ce(ZnAu)3
_chemical_formula_sum   'Ce1 Zn3 Au3'
_cell_volume   130.39143395
_cell_formula_units_Z   1
loop_
 _symmetry_equiv_pos_site_id
 _symmetry_equiv_pos_as_xyz
  1  'x, y, z'
loop_
 _atom_site_type_symbol
 _atom_site_label
 _atom_site_symmetry_multiplicity
 _atom_site_fract_x
 _atom_site_fract_y
 _atom_site_fract_z
 _atom_site_occupancy
  Ce  Ce0  1  0.003461  0.003461  0.006920  1
  Zn  Zn1  1  0.247900  0.747900  0.495799  1
  Zn  Zn2  1  0.747900  0.247900  0.495799  1
  Zn  Zn3  1  0.306239  0.306239  0.612479  1
  Au  Au4  1  0.707763  0.707763  0.415528  1
  Au  Au5  1  0.680129  0.306608  0.986737  1
  Au  Au6  1  0.306608  0.680129  0.986737  1
