# generated using pymatgen
data_TmPa2Sb4Pt3
_symmetry_space_group_name_H-M   'P 1'
_cell_length_a   8.44187944
_cell_length_b   8.44188015
_cell_length_c   8.44188059
_cell_angle_alpha   109.70553448
_cell_angle_beta   109.70554302
_cell_angle_gamma   109.00359562
_symmetry_Int_Tables_number   1
_chemical_formula_structural   TmPa2Sb4Pt3
_chemical_formula_sum   'Tm2 Pa4 Sb8 Pt6'
_cell_volume   463.09912098
_cell_formula_units_Z   2
loop_
 _symmetry_equiv_pos_site_id
 _symmetry_equiv_pos_as_xyz
  1  'x, y, z'
loop_
 _atom_site_type_symbol
 _atom_site_label
 _atom_site_symmetry_multiplicity
 _atom_site_fract_x
 _atom_site_fract_y
 _atom_site_fract_z
 _atom_site_occupancy
  Tm  Tm0  1  0.125000  0.875000  0.250000  1
  Tm  Tm1  1  0.375000  0.625000  0.750000  1
  Pa  Pa2  1  0.875621  0.250000  0.125621  1
  Pa  Pa3  1  0.624379  0.750000  0.374379  1
  Pa  Pa4  1  0.250000  0.124379  0.874379  1
  Pa  Pa5  1  0.750000  0.375621  0.625621  1
  Sb  Sb6  1  0.676178  0.501181  0.998690  1
  Sb  Sb7  1  0.497508  0.998819  0.674997  1
  Sb  Sb8  1  0.002492  0.677489  0.501310  1
  Sb  Sb9  1  0.823822  0.822511  0.825003  1
  Sb  Sb10  1  0.498819  0.997508  0.174997  1
  Sb  Sb11  1  0.177489  0.502492  0.001310  1
  Sb  Sb12  1  0.001181  0.176178  0.498690  1
  Sb  Sb13  1  0.322511  0.323822  0.325003  1
  Pt  Pt14  1  0.375639  0.250000  0.625639  1
  Pt  Pt15  1  0.124361  0.750000  0.874361  1
  Pt  Pt16  1  0.250000  0.624361  0.374361  1
  Pt  Pt17  1  0.750000  0.875639  0.125639  1
  Pt  Pt18  1  0.625000  0.375000  0.250000  1
  Pt  Pt19  1  0.875000  0.125000  0.750000  1
