# generated using pymatgen
data_Ho16Hf4(Ir3Rh)3
_symmetry_space_group_name_H-M   'P 1'
_cell_length_a   10.78787700
_cell_length_b   10.78787700
_cell_length_c   6.23325700
_cell_angle_alpha   90.00000000
_cell_angle_beta   90.00000000
_cell_angle_gamma   90.00000000
_symmetry_Int_Tables_number   1
_chemical_formula_structural   Ho16Hf4(Ir3Rh)3
_chemical_formula_sum   'Ho16 Hf4 Ir9 Rh3'
_cell_volume   725.41579183
_cell_formula_units_Z   1
loop_
 _symmetry_equiv_pos_site_id
 _symmetry_equiv_pos_as_xyz
  1  'x, y, z'
loop_
 _atom_site_type_symbol
 _atom_site_label
 _atom_site_symmetry_multiplicity
 _atom_site_fract_x
 _atom_site_fract_y
 _atom_site_fract_z
 _atom_site_occupancy
  Ho  Ho0  1  0.288670  0.086236  0.375231  1
  Ho  Ho1  1  0.288672  0.913616  0.875274  1
  Ho  Ho2  1  0.711328  0.086384  0.875274  1
  Ho  Ho3  1  0.711330  0.913764  0.375231  1
  Ho  Ho4  1  0.586384  0.788672  0.875274  1
  Ho  Ho5  1  0.586236  0.211330  0.375231  1
  Ho  Ho6  1  0.413764  0.788670  0.375231  1
  Ho  Ho7  1  0.413616  0.211328  0.875274  1
  Ho  Ho8  1  0.210840  0.413784  0.623998  1
  Ho  Ho9  1  0.211087  0.586383  0.125614  1
  Ho  Ho10  1  0.788913  0.413617  0.125614  1
  Ho  Ho11  1  0.789160  0.586216  0.623998  1
  Ho  Ho12  1  0.913617  0.711087  0.125614  1
  Ho  Ho13  1  0.913784  0.289160  0.623998  1
  Ho  Ho14  1  0.086216  0.710840  0.623998  1
  Ho  Ho15  1  0.086383  0.288913  0.125614  1
  Hf  Hf16  1  0.000000  0.000000  0.500028  1
  Hf  Hf17  1  0.000000  0.000000  0.999941  1
  Hf  Hf18  1  0.500000  0.500000  0.999941  1
  Hf  Hf19  1  0.500000  0.500000  0.500028  1
  Ir  Ir20  1  0.855785  0.143632  0.249755  1
  Ir  Ir21  1  0.855806  0.856243  0.749967  1
  Ir  Ir22  1  0.144194  0.143757  0.749967  1
  Ir  Ir23  1  0.144215  0.856368  0.249755  1
  Ir  Ir24  1  0.643757  0.355806  0.749967  1
  Ir  Ir25  1  0.643632  0.644215  0.249755  1
  Ir  Ir26  1  0.356368  0.355785  0.249755  1
  Ir  Ir27  1  0.356243  0.644194  0.749967  1
  Ir  Ir28  1  0.000000  0.500000  0.377772  1
  Rh  Rh29  1  0.500000  0.000000  0.122315  1
  Rh  Rh30  1  0.500000  0.000000  0.622261  1
  Rh  Rh31  1  0.000000  0.500000  0.878357  1
