# generated using pymatgen
data_Ca3Mn2Si(AsO6)2
_symmetry_space_group_name_H-M   'P 1'
_cell_length_a   10.92202754
_cell_length_b   10.91883214
_cell_length_c   10.92000988
_cell_angle_alpha   109.58178609
_cell_angle_beta   109.37077479
_cell_angle_gamma   109.43790133
_symmetry_Int_Tables_number   1
_chemical_formula_structural   Ca3Mn2Si(AsO6)2
_chemical_formula_sum   'Ca12 Mn8 Si4 As8 O48'
_cell_volume   1002.77552837
_cell_formula_units_Z   4
loop_
 _symmetry_equiv_pos_site_id
 _symmetry_equiv_pos_as_xyz
  1  'x, y, z'
loop_
 _atom_site_type_symbol
 _atom_site_label
 _atom_site_symmetry_multiplicity
 _atom_site_fract_x
 _atom_site_fract_y
 _atom_site_fract_z
 _atom_site_occupancy
  Ca  Ca0  1  0.268476  0.391484  0.140941  1
  Ca  Ca1  1  0.743831  0.114387  0.365320  1
  Ca  Ca2  1  0.383507  0.133190  0.250864  1
  Ca  Ca3  1  0.125708  0.374689  0.750465  1
  Ca  Ca4  1  0.248961  0.867336  0.617444  1
  Ca  Ca5  1  0.124766  0.251510  0.374004  1
  Ca  Ca6  1  0.621400  0.253733  0.882547  1
  Ca  Ca7  1  0.748141  0.631117  0.881199  1
  Ca  Ca8  1  0.863921  0.739896  0.610507  1
  Ca  Ca9  1  0.865027  0.625052  0.252883  1
  Ca  Ca10  1  0.619555  0.866620  0.738682  1
  Ca  Ca11  1  0.385196  0.750622  0.133841  1
  Mn  Mn12  1  0.507639  0.002871  0.009482  1
  Mn  Mn13  1  0.511864  0.509529  0.016861  1
  Mn  Mn14  1  0.994965  0.501391  0.490992  1
  Mn  Mn15  1  0.986988  0.991869  0.487293  1
  Mn  Mn16  1  0.497498  0.504280  0.489122  1
  Mn  Mn17  1  0.008572  0.504998  0.010208  1
  Mn  Mn18  1  0.499329  0.987986  0.496214  1
  Mn  Mn19  1  0.992875  0.996650  0.999983  1
  Si  Si20  1  0.624896  0.373713  0.249460  1
  Si  Si21  1  0.750321  0.874898  0.124224  1
  Si  Si22  1  0.248695  0.624220  0.375338  1
  Si  Si23  1  0.626271  0.751512  0.376815  1
  As  As24  1  0.125395  0.750447  0.875223  1
  As  As25  1  0.874378  0.249407  0.123629  1
  As  As26  1  0.750364  0.375595  0.626172  1
  As  As27  1  0.126668  0.876304  0.250255  1
  As  As28  1  0.248489  0.123983  0.873512  1
  As  As29  1  0.374129  0.623936  0.750440  1
  As  As30  1  0.375231  0.250093  0.624679  1
  As  As31  1  0.875262  0.125808  0.750437  1
  O  O32  1  0.597154  0.893051  0.381469  1
  O  O33  1  0.376704  0.589282  0.894792  1
  O  O34  1  0.287024  0.303346  0.907202  1
  O  O35  1  0.489144  0.610956  0.206073  1
  O  O36  1  0.302894  0.895782  0.017857  1
  O  O37  1  0.125371  0.019718  0.215219  1
  O  O38  1  0.379033  0.287190  0.483300  1
  O  O39  1  0.895820  0.379107  0.592583  1
  O  O40  1  0.196263  0.212844  0.591174  1
  O  O41  1  0.487924  0.377197  0.283990  1
  O  O42  1  0.891320  0.012432  0.295250  1
  O  O43  1  0.608845  0.904494  0.118946  1
  O  O44  1  0.909380  0.124814  0.606066  1
  O  O45  1  0.283786  0.487906  0.380256  1
  O  O46  1  0.594638  0.202269  0.214656  1
  O  O47  1  0.215228  0.594768  0.204519  1
  O  O48  1  0.018013  0.303916  0.896082  1
  O  O49  1  0.907175  0.283752  0.301296  1
  O  O50  1  0.017126  0.214823  0.120150  1
  O  O51  1  0.796905  0.784541  0.406809  1
  O  O52  1  0.194725  0.481937  0.606034  1
  O  O53  1  0.604854  0.196467  0.485525  1
  O  O54  1  0.211217  0.120244  0.015175  1
  O  O55  1  0.122683  0.604662  0.907531  1
  O  O56  1  0.408948  0.104952  0.621840  1
  O  O57  1  0.620525  0.403510  0.108216  1
  O  O58  1  0.716015  0.703405  0.093159  1
  O  O59  1  0.515907  0.395809  0.803756  1
  O  O60  1  0.696778  0.104620  0.980004  1
  O  O61  1  0.878642  0.983407  0.785481  1
  O  O62  1  0.623009  0.717847  0.514229  1
  O  O63  1  0.107851  0.619997  0.405791  1
  O  O64  1  0.876244  0.394459  0.090885  1
  O  O65  1  0.785266  0.879031  0.987282  1
  O  O66  1  0.389154  0.796322  0.512753  1
  O  O67  1  0.697915  0.094112  0.716030  1
  O  O68  1  0.795402  0.510563  0.390657  1
  O  O69  1  0.982003  0.784866  0.877373  1
  O  O70  1  0.092926  0.714535  0.697079  1
  O  O71  1  0.983487  0.698885  0.104378  1
  O  O72  1  0.788693  0.409654  0.805813  1
  O  O73  1  0.407007  0.802354  0.786900  1
  O  O74  1  0.712454  0.517265  0.623741  1
  O  O75  1  0.094818  0.880040  0.396163  1
  O  O76  1  0.392835  0.088382  0.875812  1
  O  O77  1  0.103345  0.983047  0.694291  1
  O  O78  1  0.514599  0.618475  0.712254  1
  O  O79  1  0.304632  0.909839  0.285125  1
