# generated using pymatgen
data_Hf18TiRe7Au2
_symmetry_space_group_name_H-M   'P 1'
_cell_length_a   8.73359900
_cell_length_b   8.73359736
_cell_length_c   8.55188100
_cell_angle_alpha   90.00000000
_cell_angle_beta   90.00000000
_cell_angle_gamma   120.00000241
_symmetry_Int_Tables_number   1
_chemical_formula_structural   Hf18TiRe7Au2
_chemical_formula_sum   'Hf18 Ti1 Re7 Au2'
_cell_volume   564.90924724
_cell_formula_units_Z   1
loop_
 _symmetry_equiv_pos_site_id
 _symmetry_equiv_pos_as_xyz
  1  'x, y, z'
loop_
 _atom_site_type_symbol
 _atom_site_label
 _atom_site_symmetry_multiplicity
 _atom_site_fract_x
 _atom_site_fract_y
 _atom_site_fract_z
 _atom_site_occupancy
  Hf  Hf0  1  0.193471  0.806529  0.452789  1
  Hf  Hf1  1  0.193471  0.386943  0.452789  1
  Hf  Hf2  1  0.613057  0.806529  0.452789  1
  Hf  Hf3  1  0.806529  0.193471  0.547211  1
  Hf  Hf4  1  0.806529  0.613057  0.547211  1
  Hf  Hf5  1  0.386943  0.193471  0.547211  1
  Hf  Hf6  1  0.807598  0.192402  0.951380  1
  Hf  Hf7  1  0.807598  0.615195  0.951380  1
  Hf  Hf8  1  0.384805  0.192402  0.951380  1
  Hf  Hf9  1  0.192402  0.807598  0.048620  1
  Hf  Hf10  1  0.192402  0.384805  0.048620  1
  Hf  Hf11  1  0.615195  0.807598  0.048620  1
  Hf  Hf12  1  0.541588  0.458412  0.249036  1
  Hf  Hf13  1  0.541588  0.083174  0.249036  1
  Hf  Hf14  1  0.916826  0.458412  0.249036  1
  Hf  Hf15  1  0.458412  0.541588  0.750964  1
  Hf  Hf16  1  0.458412  0.916826  0.750964  1
  Hf  Hf17  1  0.083174  0.541588  0.750964  1
  Ti  Ti18  1  0.000000  0.000000  0.500000  1
  Re  Re19  1  0.889202  0.110798  0.251215  1
  Re  Re20  1  0.889202  0.778404  0.251215  1
  Re  Re21  1  0.221596  0.110798  0.251215  1
  Re  Re22  1  0.110798  0.889202  0.748785  1
  Re  Re23  1  0.110798  0.221596  0.748785  1
  Re  Re24  1  0.778404  0.889202  0.748785  1
  Re  Re25  1  0.000000  0.000000  0.000000  1
  Au  Au26  1  0.333333  0.666667  0.248614  1
  Au  Au27  1  0.666667  0.333333  0.751386  1
