# generated using pymatgen
data_HoEr3Al8
_symmetry_space_group_name_H-M   'P 1'
_cell_length_a   9.60976636
_cell_length_b   9.60976649
_cell_length_c   9.60976630
_cell_angle_alpha   33.49573700
_cell_angle_beta   33.49573417
_cell_angle_gamma   33.49573501
_symmetry_Int_Tables_number   1
_chemical_formula_structural   HoEr3Al8
_chemical_formula_sum   'Ho1 Er3 Al8'
_cell_volume   240.72366814
_cell_formula_units_Z   1
loop_
 _symmetry_equiv_pos_site_id
 _symmetry_equiv_pos_as_xyz
  1  'x, y, z'
loop_
 _atom_site_type_symbol
 _atom_site_label
 _atom_site_symmetry_multiplicity
 _atom_site_fract_x
 _atom_site_fract_y
 _atom_site_fract_z
 _atom_site_occupancy
  Ho  Ho0  1  0.687512  0.687512  0.687512  1
  Er  Er1  1  0.187470  0.187470  0.187470  1
  Er  Er2  1  0.812560  0.812560  0.812560  1
  Er  Er3  1  0.312437  0.312437  0.312437  1
  Al  Al4  1  0.999937  0.999937  0.999937  1
  Al  Al5  1  0.500036  0.500036  0.500036  1
  Al  Al6  1  0.750135  0.250151  0.250151  1
  Al  Al7  1  0.249768  0.749922  0.749922  1
  Al  Al8  1  0.250151  0.750135  0.250151  1
  Al  Al9  1  0.749922  0.249768  0.749922  1
  Al  Al10  1  0.250151  0.250151  0.750135  1
  Al  Al11  1  0.749922  0.749922  0.249768  1
