# generated using pymatgen
data_TbYb2Dy(B4Ru)4
_symmetry_space_group_name_H-M   'P 1'
_cell_length_a   3.54811000
_cell_length_b   5.95847404
_cell_length_c   11.52469141
_cell_angle_alpha   90.02195268
_cell_angle_beta   90.00000000
_cell_angle_gamma   90.00000000
_symmetry_Int_Tables_number   1
_chemical_formula_structural   TbYb2Dy(B4Ru)4
_chemical_formula_sum   'Tb1 Yb2 Dy1 B16 Ru4'
_cell_volume   243.64718624
_cell_formula_units_Z   1
loop_
 _symmetry_equiv_pos_site_id
 _symmetry_equiv_pos_as_xyz
  1  'x, y, z'
loop_
 _atom_site_type_symbol
 _atom_site_label
 _atom_site_symmetry_multiplicity
 _atom_site_fract_x
 _atom_site_fract_y
 _atom_site_fract_z
 _atom_site_occupancy
  Tb  Tb0  1  0.000000  0.128682  0.650486  1
  Yb  Yb1  1  0.000000  0.870752  0.350183  1
  Yb  Yb2  1  0.000000  0.629273  0.850289  1
  Dy  Dy3  1  0.000000  0.371348  0.150486  1
  B  B4  1  0.500000  0.475900  0.691851  1
  B  B5  1  0.500000  0.523815  0.308293  1
  B  B6  1  0.500000  0.975980  0.808746  1
  B  B7  1  0.500000  0.024298  0.191925  1
  B  B8  1  0.500000  0.287795  0.815053  1
  B  B9  1  0.500000  0.712365  0.185064  1
  B  B10  1  0.500000  0.787127  0.685092  1
  B  B11  1  0.500000  0.212199  0.314693  1
  B  B12  1  0.500000  0.364048  0.968957  1
  B  B13  1  0.500000  0.635945  0.030456  1
  B  B14  1  0.500000  0.863882  0.530204  1
  B  B15  1  0.500000  0.136142  0.468576  1
  B  B16  1  0.500000  0.389424  0.546158  1
  B  B17  1  0.500000  0.614174  0.452429  1
  B  B18  1  0.500000  0.885813  0.952772  1
  B  B19  1  0.500000  0.111014  0.046535  1
  Ru  Ru20  1  0.000000  0.137869  0.910404  1
  Ru  Ru21  1  0.000000  0.861813  0.090849  1
  Ru  Ru22  1  0.000000  0.638106  0.590701  1
  Ru  Ru23  1  0.000000  0.362238  0.409796  1
