# generated using pymatgen
data_Sr2Ga(SiIr2)3
_symmetry_space_group_name_H-M   'P 1'
_cell_length_a   6.81261860
_cell_length_b   6.78964129
_cell_length_c   6.81261937
_cell_angle_alpha   129.90956616
_cell_angle_beta   115.65883531
_cell_angle_gamma   85.83260758
_symmetry_Int_Tables_number   1
_chemical_formula_structural   Sr2Ga(SiIr2)3
_chemical_formula_sum   'Sr2 Ga1 Si3 Ir6'
_cell_volume   208.06833080
_cell_formula_units_Z   1
loop_
 _symmetry_equiv_pos_site_id
 _symmetry_equiv_pos_as_xyz
  1  'x, y, z'
loop_
 _atom_site_type_symbol
 _atom_site_label
 _atom_site_symmetry_multiplicity
 _atom_site_fract_x
 _atom_site_fract_y
 _atom_site_fract_z
 _atom_site_occupancy
  Sr  Sr0  1  0.248972  0.977508  0.728536  1
  Sr  Sr1  1  0.752224  0.009636  0.257411  1
  Ga  Ga2  1  0.091696  0.309932  0.218236  1
  Si  Si3  1  0.934757  0.730332  0.795575  1
  Si  Si4  1  0.398907  0.621804  0.222897  1
  Si  Si5  1  0.573192  0.365100  0.791908  1
  Ir  Ir6  1  0.531162  0.497792  0.523273  1
  Ir  Ir7  1  0.974519  0.497792  0.966631  1
  Ir  Ir8  1  0.283854  0.996079  0.278319  1
  Ir  Ir9  1  0.717761  0.996079  0.712225  1
  Ir  Ir10  1  0.234213  0.498972  0.740229  1
  Ir  Ir11  1  0.758743  0.498972  0.264759  1
