# generated using pymatgen
data_Sm6Mn(CrC4)3
_symmetry_space_group_name_H-M   'P 1'
_cell_length_a   8.20760700
_cell_length_b   8.20760697
_cell_length_c   5.11324400
_cell_angle_alpha   90.00000000
_cell_angle_beta   90.00000000
_cell_angle_gamma   119.99999500
_symmetry_Int_Tables_number   1
_chemical_formula_structural   Sm6Mn(CrC4)3
_chemical_formula_sum   'Sm6 Mn1 Cr3 C12'
_cell_volume   298.30482355
_cell_formula_units_Z   1
loop_
 _symmetry_equiv_pos_site_id
 _symmetry_equiv_pos_as_xyz
  1  'x, y, z'
loop_
 _atom_site_type_symbol
 _atom_site_label
 _atom_site_symmetry_multiplicity
 _atom_site_fract_x
 _atom_site_fract_y
 _atom_site_fract_z
 _atom_site_occupancy
  Sm  Sm0  1  0.617787  0.686829  0.750000  1
  Sm  Sm1  1  0.930299  0.616012  0.250000  1
  Sm  Sm2  1  0.685712  0.069701  0.250000  1
  Sm  Sm3  1  0.313171  0.930958  0.750000  1
  Sm  Sm4  1  0.069042  0.382213  0.750000  1
  Sm  Sm5  1  0.383988  0.314288  0.250000  1
  Mn  Mn6  1  0.333333  0.666667  0.250000  1
  Cr  Cr7  1  0.000000  0.000000  0.502204  1
  Cr  Cr8  1  0.000000  0.000000  0.997796  1
  Cr  Cr9  1  0.666667  0.333333  0.750000  1
  C  C10  1  0.958591  0.774640  0.750000  1
  C  C11  1  0.188258  0.957765  0.250000  1
  C  C12  1  0.769508  0.811742  0.250000  1
  C  C13  1  0.225360  0.183952  0.750000  1
  C  C14  1  0.816048  0.041409  0.750000  1
  C  C15  1  0.042235  0.230492  0.250000  1
  C  C16  1  0.861388  0.580416  0.750000  1
  C  C17  1  0.282653  0.859520  0.250000  1
  C  C18  1  0.576866  0.717347  0.250000  1
  C  C19  1  0.419584  0.280972  0.750000  1
  C  C20  1  0.140480  0.423134  0.250000  1
  C  C21  1  0.719028  0.138612  0.750000  1
