# generated using pymatgen
data_Tb5Nd4YBi6
_symmetry_space_group_name_H-M   'P 1'
_cell_length_a   6.48463000
_cell_length_b   9.36164378
_cell_length_c   9.31087957
_cell_angle_alpha   120.18060351
_cell_angle_beta   90.00007187
_cell_angle_gamma   90.00008622
_symmetry_Int_Tables_number   1
_chemical_formula_structural   Tb5Nd4YBi6
_chemical_formula_sum   'Tb5 Nd4 Y1 Bi6'
_cell_volume   488.61344120
_cell_formula_units_Z   1
loop_
 _symmetry_equiv_pos_site_id
 _symmetry_equiv_pos_as_xyz
  1  'x, y, z'
loop_
 _atom_site_type_symbol
 _atom_site_label
 _atom_site_symmetry_multiplicity
 _atom_site_fract_x
 _atom_site_fract_y
 _atom_site_fract_z
 _atom_site_occupancy
  Tb  Tb0  1  0.499995  0.332062  0.663737  1
  Tb  Tb1  1  0.499999  0.668324  0.336259  1
  Tb  Tb2  1  0.000000  0.668323  0.336258  1
  Tb  Tb3  1  0.000003  0.332062  0.663738  1
  Tb  Tb4  1  0.749998  0.248863  0.999999  1
  Nd  Nd5  1  0.750003  0.755236  0.757194  1
  Nd  Nd6  1  0.750003  0.998044  0.242813  1
  Nd  Nd7  1  0.249999  0.244514  0.242495  1
  Nd  Nd8  1  0.250000  0.002021  0.757510  1
  Y  Y9  1  0.250000  0.750538  0.999998  1
  Bi  Bi10  1  0.749998  0.603708  0.999999  1
  Bi  Bi11  1  0.749999  0.390266  0.387702  1
  Bi  Bi12  1  0.750000  0.002563  0.612302  1
  Bi  Bi13  1  0.249999  0.396209  0.999995  1
  Bi  Bi14  1  0.250000  0.609761  0.612251  1
  Bi  Bi15  1  0.250000  0.997508  0.387750  1
