# generated using pymatgen
data_Tm6MgCo2(P4Rh5)3
_symmetry_space_group_name_H-M   'P 1'
_cell_length_a   3.85556400
_cell_length_b   11.11696200
_cell_length_c   12.76041700
_cell_angle_alpha   90.00000000
_cell_angle_beta   90.00000000
_cell_angle_gamma   90.00000000
_symmetry_Int_Tables_number   1
_chemical_formula_structural   Tm6MgCo2(P4Rh5)3
_chemical_formula_sum   'Tm6 Mg1 Co2 P12 Rh15'
_cell_volume   546.93901568
_cell_formula_units_Z   1
loop_
 _symmetry_equiv_pos_site_id
 _symmetry_equiv_pos_as_xyz
  1  'x, y, z'
loop_
 _atom_site_type_symbol
 _atom_site_label
 _atom_site_symmetry_multiplicity
 _atom_site_fract_x
 _atom_site_fract_y
 _atom_site_fract_z
 _atom_site_occupancy
  Tm  Tm0  1  0.000000  0.500000  0.521234  1
  Tm  Tm1  1  0.500000  0.000000  0.477385  1
  Tm  Tm2  1  0.500000  0.818056  0.202696  1
  Tm  Tm3  1  0.500000  0.181944  0.202696  1
  Tm  Tm4  1  0.000000  0.682577  0.798672  1
  Tm  Tm5  1  0.000000  0.317423  0.798672  1
  Mg  Mg6  1  0.500000  0.500000  0.157543  1
  Co  Co7  1  0.000000  0.500000  0.984129  1
  Co  Co8  1  0.500000  0.000000  0.021485  1
  P  P9  1  0.500000  0.500000  0.882400  1
  P  P10  1  0.000000  0.000000  0.119477  1
  P  P11  1  0.500000  0.500000  0.357267  1
  P  P12  1  0.000000  0.000000  0.645956  1
  P  P13  1  0.500000  0.316495  0.619891  1
  P  P14  1  0.500000  0.683505  0.619891  1
  P  P15  1  0.000000  0.185423  0.381217  1
  P  P16  1  0.000000  0.814577  0.381217  1
  P  P17  1  0.500000  0.854827  0.893210  1
  P  P18  1  0.500000  0.145173  0.893210  1
  P  P19  1  0.000000  0.657084  0.103766  1
  P  P20  1  0.000000  0.342916  0.103766  1
  Rh  Rh21  1  0.000000  0.000000  0.829596  1
  Rh  Rh22  1  0.500000  0.500000  0.703720  1
  Rh  Rh23  1  0.000000  0.000000  0.297970  1
  Rh  Rh24  1  0.500000  0.333291  0.993040  1
  Rh  Rh25  1  0.500000  0.666709  0.993040  1
  Rh  Rh26  1  0.000000  0.161172  0.004722  1
  Rh  Rh27  1  0.000000  0.838828  0.004722  1
  Rh  Rh28  1  0.500000  0.291802  0.433279  1
  Rh  Rh29  1  0.500000  0.708198  0.433279  1
  Rh  Rh30  1  0.000000  0.204377  0.571425  1
  Rh  Rh31  1  0.000000  0.795623  0.571425  1
  Rh  Rh32  1  0.500000  0.872982  0.711638  1
  Rh  Rh33  1  0.500000  0.127018  0.711638  1
  Rh  Rh34  1  0.000000  0.627359  0.287363  1
  Rh  Rh35  1  0.000000  0.372641  0.287363  1
