# generated using pymatgen
data_Ce5Er2PtF30
_symmetry_space_group_name_H-M   'P 1'
_cell_length_a   8.53157056
_cell_length_b   8.53157230
_cell_length_c   8.56458900
_cell_angle_alpha   79.75364587
_cell_angle_beta   79.75363694
_cell_angle_gamma   100.27267399
_symmetry_Int_Tables_number   1
_chemical_formula_structural   Ce5Er2PtF30
_chemical_formula_sum   'Ce5 Er2 Pt1 F30'
_cell_volume   589.30904716
_cell_formula_units_Z   1
loop_
 _symmetry_equiv_pos_site_id
 _symmetry_equiv_pos_as_xyz
  1  'x, y, z'
loop_
 _atom_site_type_symbol
 _atom_site_label
 _atom_site_symmetry_multiplicity
 _atom_site_fract_x
 _atom_site_fract_y
 _atom_site_fract_z
 _atom_site_occupancy
  Ce  Ce0  1  0.250135  0.749865  0.750000  1
  Ce  Ce1  1  0.755073  0.679404  0.673107  1
  Ce  Ce2  1  0.320596  0.244927  0.826893  1
  Ce  Ce3  1  0.244757  0.320908  0.327867  1
  Ce  Ce4  1  0.679092  0.755243  0.172133  1
  Er  Er5  1  0.179747  0.820253  0.250000  1
  Er  Er6  1  0.822531  0.177469  0.750000  1
  Pt  Pt7  1  0.750463  0.249537  0.250000  1
  F  F8  1  0.311123  0.349911  0.055532  1
  F  F9  1  0.945172  0.808777  0.157079  1
  F  F10  1  0.842820  0.445630  0.689551  1
  F  F11  1  0.449970  0.843655  0.182714  1
  F  F12  1  0.816492  0.947908  0.655736  1
  F  F13  1  0.350554  0.320794  0.552577  1
  F  F14  1  0.679206  0.649446  0.947422  1
  F  F15  1  0.052092  0.183508  0.844264  1
  F  F16  1  0.156345  0.550030  0.317286  1
  F  F17  1  0.554370  0.157180  0.810449  1
  F  F18  1  0.191223  0.054828  0.342921  1
  F  F19  1  0.650089  0.688877  0.444468  1
  F  F20  1  0.773927  0.278289  0.011159  1
  F  F21  1  0.990297  0.274103  0.217543  1
  F  F22  1  0.783103  0.488740  0.224156  1
  F  F23  1  0.511806  0.783369  0.723653  1
  F  F24  1  0.274470  0.013415  0.714074  1
  F  F25  1  0.276056  0.774633  0.489530  1
  F  F26  1  0.225367  0.723944  0.010470  1
  F  F27  1  0.986585  0.725530  0.785926  1
  F  F28  1  0.216631  0.488194  0.776347  1
  F  F29  1  0.511260  0.216897  0.275844  1
  F  F30  1  0.725897  0.009703  0.282457  1
  F  F31  1  0.721711  0.226073  0.488841  1
  F  F32  1  0.468086  0.531914  0.250000  1
  F  F33  1  0.750874  0.964532  0.963651  1
  F  F34  1  0.035468  0.249126  0.536349  1
  F  F35  1  0.250177  0.035311  0.035745  1
  F  F36  1  0.964689  0.749823  0.464255  1
  F  F37  1  0.531744  0.468256  0.750000  1
