# generated using pymatgen
data_Er2Lu3Co19(SiP3)3
_symmetry_space_group_name_H-M   'P 1'
_cell_length_a   12.00374700
_cell_length_b   12.00374602
_cell_length_c   3.66251400
_cell_angle_alpha   90.00000000
_cell_angle_beta   90.00000000
_cell_angle_gamma   119.99999994
_symmetry_Int_Tables_number   1
_chemical_formula_structural   Er2Lu3Co19(SiP3)3
_chemical_formula_sum   'Er2 Lu3 Co19 Si3 P9'
_cell_volume   457.02878769
_cell_formula_units_Z   1
loop_
 _symmetry_equiv_pos_site_id
 _symmetry_equiv_pos_as_xyz
  1  'x, y, z'
loop_
 _atom_site_type_symbol
 _atom_site_label
 _atom_site_symmetry_multiplicity
 _atom_site_fract_x
 _atom_site_fract_y
 _atom_site_fract_z
 _atom_site_occupancy
  Er  Er0  1  0.333333  0.666667  0.500000  1
  Er  Er1  1  0.666667  0.333333  0.500000  1
  Lu  Lu2  1  0.184351  0.000000  0.000000  1
  Lu  Lu3  1  0.000000  0.184351  0.000000  1
  Lu  Lu4  1  0.815649  0.815649  0.000000  1
  Co  Co5  1  0.201471  0.376848  0.500000  1
  Co  Co6  1  0.623152  0.824622  0.500000  1
  Co  Co7  1  0.175378  0.798529  0.500000  1
  Co  Co8  1  0.824622  0.623152  0.500000  1
  Co  Co9  1  0.798529  0.175378  0.500000  1
  Co  Co10  1  0.376848  0.201471  0.500000  1
  Co  Co11  1  0.556194  0.000000  0.500000  1
  Co  Co12  1  0.000000  0.556194  0.500000  1
  Co  Co13  1  0.443806  0.443806  0.500000  1
  Co  Co14  1  0.127569  0.484991  0.000000  1
  Co  Co15  1  0.515009  0.642577  0.000000  1
  Co  Co16  1  0.357423  0.872431  0.000000  1
  Co  Co17  1  0.642577  0.515009  0.000000  1
  Co  Co18  1  0.872431  0.357423  0.000000  1
  Co  Co19  1  0.484991  0.127569  0.000000  1
  Co  Co20  1  0.716316  0.000000  0.000000  1
  Co  Co21  1  0.000000  0.716316  0.000000  1
  Co  Co22  1  0.283684  0.283684  0.000000  1
  Co  Co23  1  0.000000  0.000000  0.500000  1
  Si  Si24  1  0.367600  0.000000  0.500000  1
  Si  Si25  1  0.000000  0.367600  0.500000  1
  Si  Si26  1  0.632400  0.632400  0.500000  1
  P  P27  1  0.314704  0.480223  0.000000  1
  P  P28  1  0.519777  0.834481  0.000000  1
  P  P29  1  0.165519  0.685296  0.000000  1
  P  P30  1  0.834481  0.519777  0.000000  1
  P  P31  1  0.685296  0.165519  0.000000  1
  P  P32  1  0.480223  0.314704  0.000000  1
  P  P33  1  0.819706  0.000000  0.500000  1
  P  P34  1  0.000000  0.819706  0.500000  1
  P  P35  1  0.180294  0.180294  0.500000  1
