# generated using pymatgen
data_TbDy3(TcB4)4
_symmetry_space_group_name_H-M   'P 1'
_cell_length_a   3.60010700
_cell_length_b   5.96837002
_cell_length_c   11.56095767
_cell_angle_alpha   89.98460268
_cell_angle_beta   90.00000190
_cell_angle_gamma   89.99999545
_symmetry_Int_Tables_number   1
_chemical_formula_structural   TbDy3(TcB4)4
_chemical_formula_sum   'Tb1 Dy3 Tc4 B16'
_cell_volume   248.40763719
_cell_formula_units_Z   1
loop_
 _symmetry_equiv_pos_site_id
 _symmetry_equiv_pos_as_xyz
  1  'x, y, z'
loop_
 _atom_site_type_symbol
 _atom_site_label
 _atom_site_symmetry_multiplicity
 _atom_site_fract_x
 _atom_site_fract_y
 _atom_site_fract_z
 _atom_site_occupancy
  Tb  Tb0  1  0.000001  0.627053  0.350005  1
  Dy  Dy1  1  0.000000  0.372830  0.650010  1
  Dy  Dy2  1  0.000000  0.127191  0.149724  1
  Dy  Dy3  1  0.999999  0.872941  0.850154  1
  Tc  Tc4  1  0.000000  0.633576  0.087259  1
  Tc  Tc5  1  0.000000  0.366537  0.912354  1
  Tc  Tc6  1  0.000000  0.133342  0.412575  1
  Tc  Tc7  1  0.000001  0.866591  0.587818  1
  B  B8  1  0.500001  0.787195  0.184817  1
  B  B9  1  0.499999  0.212896  0.814926  1
  B  B10  1  0.500000  0.286634  0.314895  1
  B  B11  1  0.500000  0.712813  0.685183  1
  B  B12  1  0.499999  0.864159  0.031332  1
  B  B13  1  0.499999  0.136057  0.968414  1
  B  B14  1  0.500000  0.363806  0.468723  1
  B  B15  1  0.500001  0.636046  0.531770  1
  B  B16  1  0.500001  0.886949  0.453169  1
  B  B17  1  0.499999  0.113426  0.547362  1
  B  B18  1  0.500000  0.386653  0.046931  1
  B  B19  1  0.499999  0.613454  0.952763  1
  B  B20  1  0.500001  0.976516  0.307766  1
  B  B21  1  0.500000  0.023608  0.692418  1
  B  B22  1  0.500001  0.476079  0.191927  1
  B  B23  1  0.500000  0.523649  0.807706  1
