# generated using pymatgen
data_Ho9Lu(Al2Ru3)2
_symmetry_space_group_name_H-M   'P 1'
_cell_length_a   8.29418453
_cell_length_b   8.29418314
_cell_length_c   8.29418378
_cell_angle_alpha   109.47586983
_cell_angle_beta   109.47586278
_cell_angle_gamma   109.47588313
_symmetry_Int_Tables_number   1
_chemical_formula_structural   Ho9Lu(Al2Ru3)2
_chemical_formula_sum   'Ho9 Lu1 Al4 Ru6'
_cell_volume   439.16150519
_cell_formula_units_Z   1
loop_
 _symmetry_equiv_pos_site_id
 _symmetry_equiv_pos_as_xyz
  1  'x, y, z'
loop_
 _atom_site_type_symbol
 _atom_site_label
 _atom_site_symmetry_multiplicity
 _atom_site_fract_x
 _atom_site_fract_y
 _atom_site_fract_z
 _atom_site_occupancy
  Ho  Ho0  1  0.477753  0.156418  0.225480  1
  Ho  Ho1  1  0.156418  0.225480  0.477753  1
  Ho  Ho2  1  0.225480  0.477753  0.156418  1
  Ho  Ho3  1  0.409244  0.692656  0.906535  1
  Ho  Ho4  1  0.692656  0.906535  0.409244  1
  Ho  Ho5  1  0.906535  0.409244  0.692656  1
  Ho  Ho6  1  0.657703  0.088087  0.838068  1
  Ho  Ho7  1  0.088087  0.838068  0.657703  1
  Ho  Ho8  1  0.838068  0.657703  0.088087  1
  Lu  Lu9  1  0.615088  0.615088  0.615088  1
  Al  Al10  1  0.408797  0.318203  0.910252  1
  Al  Al11  1  0.318203  0.910252  0.408797  1
  Al  Al12  1  0.910252  0.408797  0.318203  1
  Al  Al13  1  0.993857  0.993857  0.993857  1
  Ru  Ru14  1  0.034957  0.158241  0.784369  1
  Ru  Ru15  1  0.158241  0.784369  0.034957  1
  Ru  Ru16  1  0.784369  0.034957  0.158241  1
  Ru  Ru17  1  0.659379  0.531069  0.283845  1
  Ru  Ru18  1  0.531069  0.283845  0.659379  1
  Ru  Ru19  1  0.283845  0.659379  0.531069  1
