# generated using pymatgen
data_Sm6Fe13P12Rh5
_symmetry_space_group_name_H-M   'P 1'
_cell_length_a   3.77623500
_cell_length_b   10.97309550
_cell_length_c   12.40391285
_cell_angle_alpha   89.93867881
_cell_angle_beta   90.00000000
_cell_angle_gamma   90.00000000
_symmetry_Int_Tables_number   1
_chemical_formula_structural   Sm6Fe13P12Rh5
_chemical_formula_sum   'Sm6 Fe13 P12 Rh5'
_cell_volume   513.98048502
_cell_formula_units_Z   1
loop_
 _symmetry_equiv_pos_site_id
 _symmetry_equiv_pos_as_xyz
  1  'x, y, z'
loop_
 _atom_site_type_symbol
 _atom_site_label
 _atom_site_symmetry_multiplicity
 _atom_site_fract_x
 _atom_site_fract_y
 _atom_site_fract_z
 _atom_site_occupancy
  Sm  Sm0  1  0.000000  0.503139  0.521202  1
  Sm  Sm1  1  0.500000  0.000043  0.481334  1
  Sm  Sm2  1  0.500000  0.822441  0.201563  1
  Sm  Sm3  1  0.500000  0.177847  0.200640  1
  Sm  Sm4  1  0.000000  0.681551  0.797639  1
  Sm  Sm5  1  0.000000  0.320619  0.797876  1
  Fe  Fe6  1  0.500000  0.501774  0.151884  1
  Fe  Fe7  1  0.000000  0.994112  0.847680  1
  Fe  Fe8  1  0.000000  0.500704  0.991410  1
  Fe  Fe9  1  0.500000  0.999177  0.007182  1
  Fe  Fe10  1  0.500000  0.334051  0.996689  1
  Fe  Fe11  1  0.500000  0.667998  0.996033  1
  Fe  Fe12  1  0.000000  0.165468  0.001010  1
  Fe  Fe13  1  0.000000  0.833432  0.000781  1
  Fe  Fe14  1  0.500000  0.296521  0.431218  1
  Fe  Fe15  1  0.500000  0.706381  0.432639  1
  Fe  Fe16  1  0.000000  0.204661  0.568984  1
  Fe  Fe17  1  0.000000  0.797997  0.572387  1
  Fe  Fe18  1  0.500000  0.877690  0.714401  1
  P  P19  1  0.500000  0.500966  0.895425  1
  P  P20  1  0.000000  0.999170  0.103199  1
  P  P21  1  0.500000  0.501032  0.342367  1
  P  P22  1  0.000000  0.982154  0.663829  1
  P  P23  1  0.500000  0.304412  0.610377  1
  P  P24  1  0.500000  0.702347  0.614194  1
  P  P25  1  0.000000  0.195095  0.390009  1
  P  P26  1  0.000000  0.806185  0.392216  1
  P  P27  1  0.500000  0.844821  0.897666  1
  P  P28  1  0.500000  0.156808  0.903111  1
  P  P29  1  0.000000  0.658817  0.095191  1
  P  P30  1  0.000000  0.341802  0.094717  1
  Rh  Rh31  1  0.500000  0.500601  0.701504  1
  Rh  Rh32  1  0.000000  0.000397  0.298713  1
  Rh  Rh33  1  0.500000  0.118122  0.714424  1
  Rh  Rh34  1  0.000000  0.625321  0.285828  1
  Rh  Rh35  1  0.000000  0.376343  0.284677  1
