# generated using pymatgen
data_Nd4TmLu3(B6Ru)4
_symmetry_space_group_name_H-M   'P 1'
_cell_length_a   3.68191600
_cell_length_b   9.16310104
_cell_length_c   11.59375706
_cell_angle_alpha   90.01126767
_cell_angle_beta   90.00000000
_cell_angle_gamma   90.00000000
_symmetry_Int_Tables_number   1
_chemical_formula_structural   Nd4TmLu3(B6Ru)4
_chemical_formula_sum   'Nd4 Tm1 Lu3 B24 Ru4'
_cell_volume   391.14748224
_cell_formula_units_Z   1
loop_
 _symmetry_equiv_pos_site_id
 _symmetry_equiv_pos_as_xyz
  1  'x, y, z'
loop_
 _atom_site_type_symbol
 _atom_site_label
 _atom_site_symmetry_multiplicity
 _atom_site_fract_x
 _atom_site_fract_y
 _atom_site_fract_z
 _atom_site_occupancy
  Nd  Nd0  1  0.000000  0.322693  0.414907  1
  Nd  Nd1  1  0.000000  0.677354  0.585404  1
  Nd  Nd2  1  0.000000  0.822490  0.085180  1
  Nd  Nd3  1  0.000000  0.177608  0.914761  1
  Tm  Tm4  1  0.000000  0.944499  0.372180  1
  Lu  Lu5  1  0.000000  0.055586  0.628232  1
  Lu  Lu6  1  0.000000  0.444555  0.127668  1
  Lu  Lu7  1  0.000000  0.555505  0.872125  1
  B  B8  1  0.500000  0.556553  0.429923  1
  B  B9  1  0.500000  0.443063  0.570112  1
  B  B10  1  0.500000  0.057063  0.069881  1
  B  B11  1  0.500000  0.943081  0.929955  1
  B  B12  1  0.500000  0.750600  0.416771  1
  B  B13  1  0.500000  0.248722  0.583332  1
  B  B14  1  0.500000  0.251559  0.083053  1
  B  B15  1  0.500000  0.748606  0.916836  1
  B  B16  1  0.500000  0.791213  0.266003  1
  B  B17  1  0.500000  0.208275  0.733937  1
  B  B18  1  0.500000  0.292143  0.233689  1
  B  B19  1  0.500000  0.708099  0.766227  1
  B  B20  1  0.500000  0.630037  0.183924  1
  B  B21  1  0.500000  0.369833  0.815929  1
  B  B22  1  0.500000  0.130835  0.315646  1
  B  B23  1  0.500000  0.869675  0.684232  1
  B  B24  1  0.500000  0.985858  0.214323  1
  B  B25  1  0.500000  0.014521  0.785387  1
  B  B26  1  0.500000  0.485176  0.285141  1
  B  B27  1  0.500000  0.514654  0.714770  1
  B  B28  1  0.500000  0.600574  0.027060  1
  B  B29  1  0.500000  0.399466  0.972771  1
  B  B30  1  0.500000  0.101366  0.473279  1
  B  B31  1  0.500000  0.899068  0.527794  1
  Ru  Ru32  1  0.000000  0.639587  0.318133  1
  Ru  Ru33  1  0.000000  0.359848  0.681664  1
  Ru  Ru34  1  0.000000  0.140867  0.181394  1
  Ru  Ru35  1  0.000000  0.859366  0.818380  1
