# generated using pymatgen
data_Th4In3Au10
_symmetry_space_group_name_H-M   'P 1'
_cell_length_a   8.83653855
_cell_length_b   8.83653848
_cell_length_c   10.29533700
_cell_angle_alpha   90.00000000
_cell_angle_beta   90.00000000
_cell_angle_gamma   108.73674390
_symmetry_Int_Tables_number   1
_chemical_formula_structural   Th4In3Au10
_chemical_formula_sum   'Th8 In6 Au20'
_cell_volume   761.30195809
_cell_formula_units_Z   2
loop_
 _symmetry_equiv_pos_site_id
 _symmetry_equiv_pos_as_xyz
  1  'x, y, z'
loop_
 _atom_site_type_symbol
 _atom_site_label
 _atom_site_symmetry_multiplicity
 _atom_site_fract_x
 _atom_site_fract_y
 _atom_site_fract_z
 _atom_site_occupancy
  Th  Th0  1  0.702914  0.297086  0.000000  1
  Th  Th1  1  0.202914  0.797086  0.500000  1
  Th  Th2  1  0.801272  0.801272  0.296493  1
  Th  Th3  1  0.301272  0.301272  0.203507  1
  Th  Th4  1  0.797086  0.202914  0.500000  1
  Th  Th5  1  0.297086  0.702914  0.000000  1
  Th  Th6  1  0.698728  0.698728  0.796493  1
  Th  Th7  1  0.198728  0.198728  0.703507  1
  In  In8  1  0.514674  0.014674  0.250000  1
  In  In9  1  0.985326  0.485326  0.750000  1
  In  In10  1  0.000000  0.000000  0.000000  1
  In  In11  1  0.014674  0.514674  0.250000  1
  In  In12  1  0.485326  0.985326  0.750000  1
  In  In13  1  0.500000  0.500000  0.500000  1
  Au  Au14  1  0.153078  0.425515  0.481192  1
  Au  Au15  1  0.903727  0.903727  0.593749  1
  Au  Au16  1  0.574485  0.846922  0.518808  1
  Au  Au17  1  0.889043  0.163625  0.210334  1
  Au  Au18  1  0.389043  0.663625  0.289666  1
  Au  Au19  1  0.663625  0.389043  0.289666  1
  Au  Au20  1  0.403727  0.403727  0.906251  1
  Au  Au21  1  0.925515  0.653078  0.018808  1
  Au  Au22  1  0.336375  0.610957  0.710334  1
  Au  Au23  1  0.346922  0.074485  0.981192  1
  Au  Au24  1  0.596273  0.596273  0.093749  1
  Au  Au25  1  0.653078  0.925515  0.018808  1
  Au  Au26  1  0.096273  0.096273  0.406251  1
  Au  Au27  1  0.610957  0.336375  0.710334  1
  Au  Au28  1  0.110957  0.836375  0.789666  1
  Au  Au29  1  0.074485  0.346922  0.981192  1
  Au  Au30  1  0.846922  0.574485  0.518808  1
  Au  Au31  1  0.163625  0.889043  0.210334  1
  Au  Au32  1  0.425515  0.153078  0.481192  1
  Au  Au33  1  0.836375  0.110957  0.789666  1
