# generated using pymatgen
data_La4NpTaRu6
_symmetry_space_group_name_H-M   'P 1'
_cell_length_a   5.96161600
_cell_length_b   5.96161572
_cell_length_c   8.04773800
_cell_angle_alpha   90.00000000
_cell_angle_beta   90.00000000
_cell_angle_gamma   120.00001267
_symmetry_Int_Tables_number   1
_chemical_formula_structural   La4NpTaRu6
_chemical_formula_sum   'La4 Np1 Ta1 Ru6'
_cell_volume   247.70363650
_cell_formula_units_Z   1
loop_
 _symmetry_equiv_pos_site_id
 _symmetry_equiv_pos_as_xyz
  1  'x, y, z'
loop_
 _atom_site_type_symbol
 _atom_site_label
 _atom_site_symmetry_multiplicity
 _atom_site_fract_x
 _atom_site_fract_y
 _atom_site_fract_z
 _atom_site_occupancy
  La  La0  1  0.333333  0.666667  0.438489  1
  La  La1  1  0.666667  0.333333  0.561511  1
  La  La2  1  0.666667  0.333333  0.945146  1
  La  La3  1  0.333333  0.666667  0.054854  1
  Np  Np4  1  0.000000  0.000000  0.500000  1
  Ta  Ta5  1  0.000000  0.000000  0.000000  1
  Ru  Ru6  1  0.836961  0.163039  0.256795  1
  Ru  Ru7  1  0.836961  0.673922  0.256795  1
  Ru  Ru8  1  0.326078  0.163039  0.256795  1
  Ru  Ru9  1  0.163039  0.836961  0.743205  1
  Ru  Ru10  1  0.163039  0.326078  0.743205  1
  Ru  Ru11  1  0.673922  0.836961  0.743205  1
