# generated using pymatgen
data_Nd6Y10Cd4Os3Pd
_symmetry_space_group_name_H-M   'P 1'
_cell_length_a   9.70250621
_cell_length_b   9.86662690
_cell_length_c   9.86662700
_cell_angle_alpha   60.00000302
_cell_angle_beta   59.43885440
_cell_angle_gamma   59.43885677
_symmetry_Int_Tables_number   1
_chemical_formula_structural   Nd6Y10Cd4Os3Pd
_chemical_formula_sum   'Nd6 Y10 Cd4 Os3 Pd1'
_cell_volume   662.17115008
_cell_formula_units_Z   1
loop_
 _symmetry_equiv_pos_site_id
 _symmetry_equiv_pos_as_xyz
  1  'x, y, z'
loop_
 _atom_site_type_symbol
 _atom_site_label
 _atom_site_symmetry_multiplicity
 _atom_site_fract_x
 _atom_site_fract_y
 _atom_site_fract_z
 _atom_site_occupancy
  Nd  Nd0  1  0.935460  0.561570  0.561570  1
  Nd  Nd1  1  0.553568  0.941356  0.941356  1
  Nd  Nd2  1  0.553568  0.941356  0.563720  1
  Nd  Nd3  1  0.935460  0.561570  0.941399  1
  Nd  Nd4  1  0.553568  0.563720  0.941356  1
  Nd  Nd5  1  0.935460  0.941399  0.561570  1
  Y  Y6  1  0.343635  0.350313  0.350313  1
  Y  Y7  1  0.343635  0.350313  0.955738  1
  Y  Y8  1  0.343635  0.955738  0.350313  1
  Y  Y9  1  0.970254  0.343248  0.343248  1
  Y  Y10  1  0.817704  0.188545  0.188545  1
  Y  Y11  1  0.184927  0.812434  0.812434  1
  Y  Y12  1  0.184927  0.812434  0.190204  1
  Y  Y13  1  0.817704  0.188545  0.805206  1
  Y  Y14  1  0.184927  0.190204  0.812434  1
  Y  Y15  1  0.817704  0.805206  0.188545  1
  Cd  Cd16  1  0.579630  0.578511  0.578511  1
  Cd  Cd17  1  0.579630  0.578511  0.263351  1
  Cd  Cd18  1  0.579630  0.263351  0.578511  1
  Cd  Cd19  1  0.259634  0.580123  0.580123  1
  Os  Os20  1  0.149214  0.136056  0.136056  1
  Os  Os21  1  0.149214  0.136056  0.578674  1
  Os  Os22  1  0.149214  0.578674  0.136056  1
  Pd  Pd23  1  0.577698  0.140767  0.140767  1
