# generated using pymatgen
data_CeTh(SbAs)2
_symmetry_space_group_name_H-M   'P 1'
_cell_length_a   4.25826200
_cell_length_b   4.25826200
_cell_length_c   8.62587000
_cell_angle_alpha   90.00000000
_cell_angle_beta   90.00000000
_cell_angle_gamma   90.00000000
_symmetry_Int_Tables_number   1
_chemical_formula_structural   CeTh(SbAs)2
_chemical_formula_sum   'Ce1 Th1 Sb2 As2'
_cell_volume   156.41113465
_cell_formula_units_Z   1
loop_
 _symmetry_equiv_pos_site_id
 _symmetry_equiv_pos_as_xyz
  1  'x, y, z'
loop_
 _atom_site_type_symbol
 _atom_site_label
 _atom_site_symmetry_multiplicity
 _atom_site_fract_x
 _atom_site_fract_y
 _atom_site_fract_z
 _atom_site_occupancy
  Ce  Ce0  1  0.500000  0.000000  0.301943  1
  Th  Th1  1  0.000000  0.500000  0.696680  1
  Sb  Sb2  1  0.500000  0.500000  0.003517  1
  Sb  Sb3  1  0.000000  0.000000  0.003517  1
  As  As4  1  0.000000  0.500000  0.351578  1
  As  As5  1  0.500000  0.000000  0.642763  1
