# generated using pymatgen
data_Ce6Th8TcOs5
_symmetry_space_group_name_H-M   'P 1'
_cell_length_a   9.94731175
_cell_length_b   9.86002897
_cell_length_c   6.21988850
_cell_angle_alpha   90.18508477
_cell_angle_beta   89.88884995
_cell_angle_gamma   119.29746898
_symmetry_Int_Tables_number   1
_chemical_formula_structural   Ce6Th8TcOs5
_chemical_formula_sum   'Ce6 Th8 Tc1 Os5'
_cell_volume   532.01755894
_cell_formula_units_Z   1
loop_
 _symmetry_equiv_pos_site_id
 _symmetry_equiv_pos_as_xyz
  1  'x, y, z'
loop_
 _atom_site_type_symbol
 _atom_site_label
 _atom_site_symmetry_multiplicity
 _atom_site_fract_x
 _atom_site_fract_y
 _atom_site_fract_z
 _atom_site_occupancy
  Ce  Ce0  1  0.464237  0.540272  0.296378  1
  Ce  Ce1  1  0.075175  0.536684  0.308795  1
  Ce  Ce2  1  0.920210  0.464798  0.809423  1
  Ce  Ce3  1  0.252934  0.127363  0.508857  1
  Ce  Ce4  1  0.537194  0.077246  0.796530  1
  Ce  Ce5  1  0.749885  0.871196  0.008642  1
  Th  Th6  1  0.668199  0.335610  0.284356  1
  Th  Th7  1  0.126220  0.872693  0.008007  1
  Th  Th8  1  0.463798  0.922750  0.292567  1
  Th  Th9  1  0.537151  0.459131  0.792016  1
  Th  Th10  1  0.870301  0.128950  0.513528  1
  Th  Th11  1  0.127464  0.254874  0.012929  1
  Th  Th12  1  0.875053  0.750011  0.508528  1
  Th  Th13  1  0.331131  0.666763  0.784404  1
  Tc  Tc14  1  0.815965  0.631837  0.036033  1
  Os  Os15  1  0.810453  0.180616  0.041104  1
  Os  Os16  1  0.623548  0.808434  0.549653  1
  Os  Os17  1  0.375301  0.184401  0.049372  1
  Os  Os18  1  0.189564  0.371354  0.540985  1
  Os  Os19  1  0.186216  0.815016  0.541892  1
