# generated using pymatgen
data_BeV(BW)3
_symmetry_space_group_name_H-M   'P 1'
_cell_length_a   4.52417435
_cell_length_b   4.52417468
_cell_length_c   6.20554900
_cell_angle_alpha   90.00000000
_cell_angle_beta   90.00000000
_cell_angle_gamma   139.07680486
_symmetry_Int_Tables_number   1
_chemical_formula_structural   BeV(BW)3
_chemical_formula_sum   'Be1 V1 B3 W3'
_cell_volume   83.20150951
_cell_formula_units_Z   1
loop_
 _symmetry_equiv_pos_site_id
 _symmetry_equiv_pos_as_xyz
  1  'x, y, z'
loop_
 _atom_site_type_symbol
 _atom_site_label
 _atom_site_symmetry_multiplicity
 _atom_site_fract_x
 _atom_site_fract_y
 _atom_site_fract_z
 _atom_site_occupancy
  Be  Be0  1  0.566608  0.433392  0.500000  1
  V  V1  1  0.853888  0.146112  0.000000  1
  B  B2  1  0.556309  0.443691  0.000000  1
  B  B3  1  0.435138  0.564862  0.241742  1
  B  B4  1  0.435138  0.564862  0.758258  1
  W  W5  1  0.855952  0.144048  0.500000  1
  W  W6  1  0.148482  0.851518  0.239314  1
  W  W7  1  0.148482  0.851518  0.760686  1
