# generated using pymatgen
data_Y3Mg2CdGa2Ag
_symmetry_space_group_name_H-M   'P 1'
_cell_length_a   7.38377850
_cell_length_b   7.37562868
_cell_length_c   4.36627300
_cell_angle_alpha   90.00000000
_cell_angle_beta   90.00000000
_cell_angle_gamma   119.96349541
_symmetry_Int_Tables_number   1
_chemical_formula_structural   Y3Mg2CdGa2Ag
_chemical_formula_sum   'Y3 Mg2 Cd1 Ga2 Ag1'
_cell_volume   206.00552006
_cell_formula_units_Z   1
loop_
 _symmetry_equiv_pos_site_id
 _symmetry_equiv_pos_as_xyz
  1  'x, y, z'
loop_
 _atom_site_type_symbol
 _atom_site_label
 _atom_site_symmetry_multiplicity
 _atom_site_fract_x
 _atom_site_fract_y
 _atom_site_fract_z
 _atom_site_occupancy
  Y  Y0  1  0.000000  0.574279  0.500000  1
  Y  Y1  1  0.422386  0.422058  0.500000  1
  Y  Y2  1  0.577614  0.999673  0.500000  1
  Mg  Mg3  1  0.755372  0.756709  0.000000  1
  Mg  Mg4  1  0.244628  0.001338  0.000000  1
  Cd  Cd5  1  0.000000  0.250679  0.000000  1
  Ga  Ga6  1  0.335765  0.668844  0.000000  1
  Ga  Ga7  1  0.664235  0.333078  0.000000  1
  Ag  Ag8  1  0.000000  0.993341  0.500000  1
