# generated using pymatgen
data_TlIrRhPbO7
_symmetry_space_group_name_H-M   'P 1'
_cell_length_a   7.32802528
_cell_length_b   7.29496910
_cell_length_c   7.32802587
_cell_angle_alpha   60.14910485
_cell_angle_beta   60.13306147
_cell_angle_gamma   60.14910694
_symmetry_Int_Tables_number   1
_chemical_formula_structural   TlIrRhPbO7
_chemical_formula_sum   'Tl2 Ir2 Rh2 Pb2 O14'
_cell_volume   277.90369427
_cell_formula_units_Z   2
loop_
 _symmetry_equiv_pos_site_id
 _symmetry_equiv_pos_as_xyz
  1  'x, y, z'
loop_
 _atom_site_type_symbol
 _atom_site_label
 _atom_site_symmetry_multiplicity
 _atom_site_fract_x
 _atom_site_fract_y
 _atom_site_fract_z
 _atom_site_occupancy
  Tl  Tl0  1  0.125000  0.625000  0.125000  1
  Tl  Tl1  1  0.125000  0.125000  0.125000  1
  Ir  Ir2  1  0.125000  0.625000  0.625000  1
  Ir  Ir3  1  0.625000  0.625000  0.125000  1
  Rh  Rh4  1  0.625000  0.125000  0.625000  1
  Rh  Rh5  1  0.625000  0.625000  0.625000  1
  Pb  Pb6  1  0.625000  0.125000  0.125000  1
  Pb  Pb7  1  0.125000  0.125000  0.625000  1
  O  O8  1  0.706033  0.703736  0.292633  1
  O  O9  1  0.292633  0.297598  0.706033  1
  O  O10  1  0.708020  0.291980  0.708020  1
  O  O11  1  0.306108  0.693892  0.306108  1
  O  O12  1  0.292633  0.703736  0.706033  1
  O  O13  1  0.706033  0.297598  0.292633  1
  O  O14  1  0.543967  0.546264  0.957367  1
  O  O15  1  0.957367  0.952402  0.543967  1
  O  O16  1  0.541980  0.958020  0.541980  1
  O  O17  1  0.943892  0.556108  0.943892  1
  O  O18  1  0.957367  0.546264  0.543967  1
  O  O19  1  0.543967  0.952402  0.957367  1
  O  O20  1  0.241256  0.258744  0.241256  1
  O  O21  1  0.008744  0.991256  0.008744  1
