# generated using pymatgen
data_HgTe28
_symmetry_space_group_name_H-M   'P 1'
_cell_length_a   8.94072182
_cell_length_b   12.26360450
_cell_length_c   11.98178300
_cell_angle_alpha   120.72037550
_cell_angle_beta   96.55679143
_cell_angle_gamma   98.18565023
_symmetry_Int_Tables_number   1
_chemical_formula_structural   HgTe28
_chemical_formula_sum   'Hg1 Te28'
_cell_volume   1090.57840227
_cell_formula_units_Z   1
loop_
 _symmetry_equiv_pos_site_id
 _symmetry_equiv_pos_as_xyz
  1  'x, y, z'
loop_
 _atom_site_type_symbol
 _atom_site_label
 _atom_site_symmetry_multiplicity
 _atom_site_fract_x
 _atom_site_fract_y
 _atom_site_fract_z
 _atom_site_occupancy
  Hg  Hg0  1  0.500000  0.000000  0.000000  1
  Te  Te1  1  0.155928  0.084751  0.424230  1
  Te  Te2  1  0.626620  0.088578  0.403304  1
  Te  Te3  1  0.316826  0.374715  0.835130  1
  Te  Te4  1  0.815356  0.330579  0.823983  1
  Te  Te5  1  0.175694  0.646970  0.797421  1
  Te  Te6  1  0.716958  0.550611  0.675442  1
  Te  Te7  1  0.373380  0.911422  0.596696  1
  Te  Te8  1  0.844072  0.915249  0.575770  1
  Te  Te9  1  0.184644  0.669421  0.176017  1
  Te  Te10  1  0.683174  0.625285  0.164870  1
  Te  Te11  1  0.283042  0.449389  0.324558  1
  Te  Te12  1  0.824306  0.353030  0.202579  1
  Te  Te13  1  0.701031  0.071036  0.782655  1
  Te  Te14  1  0.228257  0.048969  0.811060  1
  Te  Te15  1  0.942732  0.635523  0.939269  1
  Te  Te16  1  0.495949  0.669887  0.000093  1
  Te  Te17  1  0.479314  0.281342  0.312874  1
  Te  Te18  1  0.990735  0.211514  0.296137  1
  Te  Te19  1  0.771743  0.951031  0.188940  1
  Te  Te20  1  0.298969  0.928964  0.217345  1
  Te  Te21  1  0.504051  0.330113  0.999907  1
  Te  Te22  1  0.057268  0.364477  0.060731  1
  Te  Te23  1  0.009265  0.788486  0.703863  1
  Te  Te24  1  0.520686  0.718658  0.687126  1
  Te  Te25  1  0.920173  0.283992  0.581346  1
  Te  Te26  1  0.433540  0.318095  0.572050  1
  Te  Te27  1  0.566460  0.681905  0.427950  1
  Te  Te28  1  0.079827  0.716008  0.418654  1
