# generated using pymatgen
data_Nd4HgPbAu4
_symmetry_space_group_name_H-M   'P 1'
_cell_length_a   3.82829100
_cell_length_b   8.27341300
_cell_length_c   8.27341300
_cell_angle_alpha   90.00000000
_cell_angle_beta   90.00000000
_cell_angle_gamma   90.00000000
_symmetry_Int_Tables_number   1
_chemical_formula_structural   Nd4HgPbAu4
_chemical_formula_sum   'Nd4 Hg1 Pb1 Au4'
_cell_volume   262.04407906
_cell_formula_units_Z   1
loop_
 _symmetry_equiv_pos_site_id
 _symmetry_equiv_pos_as_xyz
  1  'x, y, z'
loop_
 _atom_site_type_symbol
 _atom_site_label
 _atom_site_symmetry_multiplicity
 _atom_site_fract_x
 _atom_site_fract_y
 _atom_site_fract_z
 _atom_site_occupancy
  Nd  Nd0  1  0.500000  0.177091  0.667974  1
  Nd  Nd1  1  0.500000  0.822909  0.332026  1
  Nd  Nd2  1  0.500000  0.332026  0.177091  1
  Nd  Nd3  1  0.500000  0.667974  0.822909  1
  Hg  Hg4  1  0.000000  0.500000  0.500000  1
  Pb  Pb5  1  0.000000  0.000000  0.000000  1
  Au  Au6  1  0.000000  0.623012  0.127303  1
  Au  Au7  1  0.000000  0.376988  0.872697  1
  Au  Au8  1  0.000000  0.872697  0.623012  1
  Au  Au9  1  0.000000  0.127303  0.376988  1
