# generated using pymatgen
data_Y7ErTe12
_symmetry_space_group_name_H-M   'P 1'
_cell_length_a   14.47922984
_cell_length_b   13.80961306
_cell_length_c   7.58196904
_cell_angle_alpha   79.39369151
_cell_angle_beta   69.62904141
_cell_angle_gamma   30.95439436
_symmetry_Int_Tables_number   1
_chemical_formula_structural   Y7ErTe12
_chemical_formula_sum   'Y7 Er1 Te12'
_cell_volume   710.11792421
_cell_formula_units_Z   1
loop_
 _symmetry_equiv_pos_site_id
 _symmetry_equiv_pos_as_xyz
  1  'x, y, z'
loop_
 _atom_site_type_symbol
 _atom_site_label
 _atom_site_symmetry_multiplicity
 _atom_site_fract_x
 _atom_site_fract_y
 _atom_site_fract_z
 _atom_site_occupancy
  Y  Y0  1  0.000425  0.000425  0.499575  1
  Y  Y1  1  0.499515  0.499515  0.000485  1
  Y  Y2  1  0.249623  0.249623  0.750377  1
  Y  Y3  1  0.750670  0.750670  0.249330  1
  Y  Y4  1  0.667299  0.667299  0.832701  1
  Y  Y5  1  0.832755  0.832755  0.667245  1
  Y  Y6  1  0.582696  0.582696  0.417304  1
  Er  Er7  1  0.417444  0.417444  0.582556  1
  Te  Te8  1  0.666579  0.167655  0.829193  1
  Te  Te9  1  0.334439  0.831226  0.165396  1
  Te  Te10  1  0.831226  0.334439  0.668938  1
  Te  Te11  1  0.167655  0.666579  0.336572  1
  Te  Te12  1  0.579999  0.086817  0.419855  1
  Te  Te13  1  0.915458  0.418919  0.084639  1
  Te  Te14  1  0.418919  0.915458  0.580984  1
  Te  Te15  1  0.086817  0.579999  0.913328  1
  Te  Te16  1  0.749136  0.249350  0.251004  1
  Te  Te17  1  0.249350  0.749136  0.750510  1
  Te  Te18  1  0.498323  0.001670  0.001684  1
  Te  Te19  1  0.001670  0.498323  0.498323  1
