# generated using pymatgen
data_Sc3FeAs2Ir3
_symmetry_space_group_name_H-M   'P 1'
_cell_length_a   6.54868800
_cell_length_b   6.54868835
_cell_length_c   3.95600800
_cell_angle_alpha   90.00000000
_cell_angle_beta   90.00000000
_cell_angle_gamma   120.00000832
_symmetry_Int_Tables_number   1
_chemical_formula_structural   Sc3FeAs2Ir3
_chemical_formula_sum   'Sc3 Fe1 As2 Ir3'
_cell_volume   146.92523007
_cell_formula_units_Z   1
loop_
 _symmetry_equiv_pos_site_id
 _symmetry_equiv_pos_as_xyz
  1  'x, y, z'
loop_
 _atom_site_type_symbol
 _atom_site_label
 _atom_site_symmetry_multiplicity
 _atom_site_fract_x
 _atom_site_fract_y
 _atom_site_fract_z
 _atom_site_occupancy
  Sc  Sc0  1  0.000000  0.395620  0.500000  1
  Sc  Sc1  1  0.604380  0.604380  0.500000  1
  Sc  Sc2  1  0.395620  0.000000  0.500000  1
  Fe  Fe3  1  0.000000  0.000000  0.500000  1
  As  As4  1  0.666667  0.333333  0.000000  1
  As  As5  1  0.333333  0.666667  0.000000  1
  Ir  Ir6  1  0.000000  0.762990  0.000000  1
  Ir  Ir7  1  0.237010  0.237010  0.000000  1
  Ir  Ir8  1  0.762990  0.000000  0.000000  1
