# generated using pymatgen
data_Tb6Er10Cd4Co3Os
_symmetry_space_group_name_H-M   'P 1'
_cell_length_a   9.54816642
_cell_length_b   9.54114810
_cell_length_c   9.53983447
_cell_angle_alpha   59.35989262
_cell_angle_beta   59.36848155
_cell_angle_gamma   59.34163598
_symmetry_Int_Tables_number   1
_chemical_formula_structural   Tb6Er10Cd4Co3Os
_chemical_formula_sum   'Tb6 Er10 Cd4 Co3 Os1'
_cell_volume   605.53562890
_cell_formula_units_Z   1
loop_
 _symmetry_equiv_pos_site_id
 _symmetry_equiv_pos_as_xyz
  1  'x, y, z'
loop_
 _atom_site_type_symbol
 _atom_site_label
 _atom_site_symmetry_multiplicity
 _atom_site_fract_x
 _atom_site_fract_y
 _atom_site_fract_z
 _atom_site_occupancy
  Tb  Tb0  1  0.805108  0.189986  0.190641  1
  Tb  Tb1  1  0.057082  0.437137  0.438002  1
  Tb  Tb2  1  0.190145  0.805949  0.189967  1
  Tb  Tb3  1  0.599942  0.600892  0.211107  1
  Tb  Tb4  1  0.190859  0.190055  0.805188  1
  Tb  Tb5  1  0.062155  0.435725  0.060899  1
  Er  Er6  1  0.438230  0.436619  0.057140  1
  Er  Er7  1  0.595091  0.596021  0.596399  1
  Er  Er8  1  0.187638  0.812890  0.811951  1
  Er  Er9  1  0.061811  0.060295  0.436843  1
  Er  Er10  1  0.436580  0.061627  0.061895  1
  Er  Er11  1  0.812247  0.187282  0.812673  1
  Er  Er12  1  0.437648  0.057209  0.436915  1
  Er  Er13  1  0.600442  0.211672  0.600315  1
  Er  Er14  1  0.812227  0.813498  0.186921  1
  Er  Er15  1  0.212328  0.600642  0.599653  1
  Cd  Cd16  1  0.829067  0.829577  0.508673  1
  Cd  Cd17  1  0.830186  0.830676  0.829221  1
  Cd  Cd18  1  0.508432  0.829453  0.829066  1
  Cd  Cd19  1  0.829026  0.508550  0.829129  1
  Co  Co20  1  0.828905  0.391640  0.393293  1
  Co  Co21  1  0.391386  0.829576  0.393165  1
  Co  Co22  1  0.392425  0.392576  0.828484  1
  Os  Os23  1  0.391041  0.390453  0.392461  1
