# generated using pymatgen
data_Tb3Lu(CuSi3)2
_symmetry_space_group_name_H-M   'P 1'
_cell_length_a   8.01180986
_cell_length_b   7.98491661
_cell_length_c   5.69017137
_cell_angle_alpha   69.41642384
_cell_angle_beta   68.91027477
_cell_angle_gamma   41.67332509
_symmetry_Int_Tables_number   1
_chemical_formula_structural   Tb3Lu(CuSi3)2
_chemical_formula_sum   'Tb3 Lu1 Cu2 Si6'
_cell_volume   223.79897703
_cell_formula_units_Z   1
loop_
 _symmetry_equiv_pos_site_id
 _symmetry_equiv_pos_as_xyz
  1  'x, y, z'
loop_
 _atom_site_type_symbol
 _atom_site_label
 _atom_site_symmetry_multiplicity
 _atom_site_fract_x
 _atom_site_fract_y
 _atom_site_fract_z
 _atom_site_occupancy
  Tb  Tb0  1  0.250065  0.249936  0.250064  1
  Tb  Tb1  1  0.750064  0.749935  0.750065  1
  Tb  Tb2  1  0.756561  0.243440  0.756559  1
  Lu  Lu3  1  0.243521  0.756480  0.243519  1
  Cu  Cu4  1  0.665679  0.666604  0.333395  1
  Cu  Cu5  1  0.333396  0.334321  0.665678  1
  Si  Si6  1  0.831915  0.831349  0.168650  1
  Si  Si7  1  0.828734  0.339676  0.171344  1
  Si  Si8  1  0.660324  0.171266  0.339755  1
  Si  Si9  1  0.339756  0.828655  0.660323  1
  Si  Si10  1  0.171345  0.660244  0.828733  1
  Si  Si11  1  0.168651  0.168085  0.831914  1
