# generated using pymatgen
data_Nb6Si6IrRu3W2
_symmetry_space_group_name_H-M   'P 1'
_cell_length_a   7.54230533
_cell_length_b   7.53051681
_cell_length_c   7.53187872
_cell_angle_alpha   126.77481381
_cell_angle_beta   123.88052282
_cell_angle_gamma   81.01247254
_symmetry_Int_Tables_number   1
_chemical_formula_structural   Nb6Si6IrRu3W2
_chemical_formula_sum   'Nb6 Si6 Ir1 Ru3 W2'
_cell_volume   274.15245819
_cell_formula_units_Z   1
loop_
 _symmetry_equiv_pos_site_id
 _symmetry_equiv_pos_as_xyz
  1  'x, y, z'
loop_
 _atom_site_type_symbol
 _atom_site_label
 _atom_site_symmetry_multiplicity
 _atom_site_fract_x
 _atom_site_fract_y
 _atom_site_fract_z
 _atom_site_occupancy
  Nb  Nb0  1  0.560627  0.095129  0.036997  1
  Nb  Nb1  1  0.444195  0.474837  0.534271  1
  Nb  Nb2  1  0.961140  0.489392  0.029118  1
  Nb  Nb3  1  0.037621  0.071688  0.528735  1
  Nb  Nb4  1  0.750788  0.921246  0.668568  1
  Nb  Nb5  1  0.247661  0.915758  0.170337  1
  Si  Si6  1  0.777977  0.551593  0.271166  1
  Si  Si7  1  0.220890  0.494846  0.775069  1
  Si  Si8  1  0.334576  0.818066  0.491669  1
  Si  Si9  1  0.665669  0.156710  0.483355  1
  Si  Si10  1  0.825955  0.817212  0.983257  1
  Si  Si11  1  0.173901  0.157518  0.991750  1
  Ir  Ir12  1  0.160573  0.747110  0.653380  1
  Ru  Ru13  1  0.839031  0.492836  0.584684  1
  Ru  Ru14  1  0.593423  0.746190  0.087731  1
  Ru  Ru15  1  0.407059  0.492437  0.153012  1
  W  W16  1  0.498601  0.249963  0.749315  1
  W  W17  1  0.000315  0.249668  0.249787  1
