# generated using pymatgen
data_Sm4DyHo3(B6Ru)4
_symmetry_space_group_name_H-M   'P 1'
_cell_length_a   3.69184900
_cell_length_b   9.18479902
_cell_length_c   11.58474302
_cell_angle_alpha   90.00737629
_cell_angle_beta   90.00000000
_cell_angle_gamma   90.00000000
_symmetry_Int_Tables_number   1
_chemical_formula_structural   Sm4DyHo3(B6Ru)4
_chemical_formula_sum   'Sm4 Dy1 Ho3 B24 Ru4'
_cell_volume   392.82578606
_cell_formula_units_Z   1
loop_
 _symmetry_equiv_pos_site_id
 _symmetry_equiv_pos_as_xyz
  1  'x, y, z'
loop_
 _atom_site_type_symbol
 _atom_site_label
 _atom_site_symmetry_multiplicity
 _atom_site_fract_x
 _atom_site_fract_y
 _atom_site_fract_z
 _atom_site_occupancy
  Sm  Sm0  1  0.000000  0.322868  0.414252  1
  Sm  Sm1  1  0.000000  0.677145  0.585894  1
  Sm  Sm2  1  0.000000  0.822735  0.085710  1
  Sm  Sm3  1  0.000000  0.177282  0.914176  1
  Dy  Dy4  1  0.000000  0.943904  0.371927  1
  Ho  Ho5  1  0.000000  0.056161  0.628228  1
  Ho  Ho6  1  0.000000  0.443898  0.127958  1
  Ho  Ho7  1  0.000000  0.556056  0.871932  1
  B  B8  1  0.500000  0.555310  0.431551  1
  B  B9  1  0.500000  0.444527  0.568509  1
  B  B10  1  0.500000  0.055482  0.068381  1
  B  B11  1  0.500000  0.944558  0.931517  1
  B  B12  1  0.500000  0.748749  0.418296  1
  B  B13  1  0.500000  0.250915  0.581760  1
  B  B14  1  0.500000  0.249201  0.081685  1
  B  B15  1  0.500000  0.750871  0.918273  1
  B  B16  1  0.500000  0.790335  0.266440  1
  B  B17  1  0.500000  0.209338  0.733505  1
  B  B18  1  0.500000  0.290846  0.233424  1
  B  B19  1  0.500000  0.709304  0.766537  1
  B  B20  1  0.500000  0.631054  0.184980  1
  B  B21  1  0.500000  0.368866  0.814963  1
  B  B22  1  0.500000  0.131454  0.314810  1
  B  B23  1  0.500000  0.868821  0.685100  1
  B  B24  1  0.500000  0.985271  0.213274  1
  B  B25  1  0.500000  0.014952  0.786490  1
  B  B26  1  0.500000  0.484950  0.286432  1
  B  B27  1  0.500000  0.514972  0.713551  1
  B  B28  1  0.500000  0.604787  0.028707  1
  B  B29  1  0.500000  0.395207  0.971251  1
  B  B30  1  0.500000  0.105303  0.471466  1
  B  B31  1  0.500000  0.894974  0.529105  1
  Ru  Ru32  1  0.000000  0.638584  0.320077  1
  Ru  Ru33  1  0.000000  0.361106  0.679943  1
  Ru  Ru34  1  0.000000  0.139152  0.179726  1
  Ru  Ru35  1  0.000000  0.861059  0.820168  1
