# generated using pymatgen
data_Hf4Zr6Sn6P
_symmetry_space_group_name_H-M   'P 1'
_cell_length_a   5.85669000
_cell_length_b   8.55043325
_cell_length_c   8.55045300
_cell_angle_alpha   119.99993180
_cell_angle_beta   90.00014165
_cell_angle_gamma   89.99971220
_symmetry_Int_Tables_number   1
_chemical_formula_structural   Hf4Zr6Sn6P
_chemical_formula_sum   'Hf4 Zr6 Sn6 P1'
_cell_volume   370.81766293
_cell_formula_units_Z   1
loop_
 _symmetry_equiv_pos_site_id
 _symmetry_equiv_pos_as_xyz
  1  'x, y, z'
loop_
 _atom_site_type_symbol
 _atom_site_label
 _atom_site_symmetry_multiplicity
 _atom_site_fract_x
 _atom_site_fract_y
 _atom_site_fract_z
 _atom_site_occupancy
  Hf  Hf0  1  0.500000  0.333333  0.666667  1
  Hf  Hf1  1  0.500000  0.666666  0.333333  1
  Hf  Hf2  1  0.000000  0.666666  0.333331  1
  Hf  Hf3  1  0.000000  0.333335  0.666669  1
  Zr  Zr4  1  0.754998  0.250763  0.000000  1
  Zr  Zr5  1  0.754994  0.749238  0.749237  1
  Zr  Zr6  1  0.754994  0.000000  0.250763  1
  Zr  Zr7  1  0.245002  0.749237  0.000000  1
  Zr  Zr8  1  0.245006  0.250764  0.250763  1
  Zr  Zr9  1  0.245006  0.000001  0.749237  1
  Sn  Sn10  1  0.750224  0.605551  0.000000  1
  Sn  Sn11  1  0.750227  0.394448  0.394448  1
  Sn  Sn12  1  0.750227  0.000000  0.605552  1
  Sn  Sn13  1  0.249776  0.394449  0.000000  1
  Sn  Sn14  1  0.249773  0.605552  0.605552  1
  Sn  Sn15  1  0.249773  0.000000  0.394448  1
  P  P16  1  0.499999  0.000001  0.000000  1
