# generated using pymatgen
data_Cr2Sb12RuPt
_symmetry_space_group_name_H-M   'P 1'
_cell_length_a   8.23001445
_cell_length_b   8.24301020
_cell_length_c   9.48350936
_cell_angle_alpha   54.50827653
_cell_angle_beta   54.37921584
_cell_angle_gamma   70.13758305
_symmetry_Int_Tables_number   1
_chemical_formula_structural   Cr2Sb12RuPt
_chemical_formula_sum   'Cr2 Sb12 Ru1 Pt1'
_cell_volume   425.81065335
_cell_formula_units_Z   1
loop_
 _symmetry_equiv_pos_site_id
 _symmetry_equiv_pos_as_xyz
  1  'x, y, z'
loop_
 _atom_site_type_symbol
 _atom_site_label
 _atom_site_symmetry_multiplicity
 _atom_site_fract_x
 _atom_site_fract_y
 _atom_site_fract_z
 _atom_site_occupancy
  Cr  Cr0  1  0.000000  0.500000  0.500000  1
  Cr  Cr1  1  0.500000  0.000000  0.500000  1
  Sb  Sb2  1  0.156113  0.146749  0.185791  1
  Sb  Sb3  1  0.843887  0.853251  0.814209  1
  Sb  Sb4  1  0.844296  0.844448  0.501884  1
  Sb  Sb5  1  0.155704  0.155552  0.498116  1
  Sb  Sb6  1  0.806797  0.503502  0.345204  1
  Sb  Sb7  1  0.193203  0.496498  0.654796  1
  Sb  Sb8  1  0.506307  0.815883  0.334864  1
  Sb  Sb9  1  0.493693  0.184117  0.665136  1
  Sb  Sb10  1  0.655566  0.333127  0.850419  1
  Sb  Sb11  1  0.344434  0.666873  0.149581  1
  Sb  Sb12  1  0.655857  0.345333  0.150975  1
  Sb  Sb13  1  0.344143  0.654667  0.849025  1
  Ru  Ru14  1  0.500000  0.000000  0.000000  1
  Pt  Pt15  1  0.000000  0.500000  0.000000  1
