# generated using pymatgen
data_Li3Rh(NO3)8
_symmetry_space_group_name_H-M   'P 1'
_cell_length_a   7.77173478
_cell_length_b   7.77173400
_cell_length_c   7.77173500
_cell_angle_alpha   91.21654043
_cell_angle_beta   91.21654030
_cell_angle_gamma   91.21654666
_symmetry_Int_Tables_number   1
_chemical_formula_structural   Li3Rh(NO3)8
_chemical_formula_sum   'Li3 Rh1 N8 O24'
_cell_volume   469.08968040
_cell_formula_units_Z   1
loop_
 _symmetry_equiv_pos_site_id
 _symmetry_equiv_pos_as_xyz
  1  'x, y, z'
loop_
 _atom_site_type_symbol
 _atom_site_label
 _atom_site_symmetry_multiplicity
 _atom_site_fract_x
 _atom_site_fract_y
 _atom_site_fract_z
 _atom_site_occupancy
  Li  Li0  1  0.500000  0.500000  0.000000  1
  Li  Li1  1  0.000000  0.500000  0.500000  1
  Li  Li2  1  0.500000  0.000000  0.500000  1
  Rh  Rh3  1  0.000000  0.000000  0.000000  1
  N  N4  1  0.311927  0.164072  0.825404  1
  N  N5  1  0.825404  0.311927  0.164072  1
  N  N6  1  0.164072  0.825404  0.311927  1
  N  N7  1  0.669033  0.669033  0.669033  1
  N  N8  1  0.688073  0.835928  0.174596  1
  N  N9  1  0.174596  0.688073  0.835928  1
  N  N10  1  0.835928  0.174596  0.688073  1
  N  N11  1  0.330967  0.330967  0.330967  1
  O  O12  1  0.417041  0.286459  0.829370  1
  O  O13  1  0.829370  0.417041  0.286459  1
  O  O14  1  0.286459  0.829370  0.417041  1
  O  O15  1  0.199344  0.166950  0.952698  1
  O  O16  1  0.307568  0.046001  0.716131  1
  O  O17  1  0.716131  0.307568  0.046001  1
  O  O18  1  0.663772  0.558688  0.784691  1
  O  O19  1  0.166950  0.952698  0.199344  1
  O  O20  1  0.784691  0.663772  0.558688  1
  O  O21  1  0.952698  0.199344  0.166950  1
  O  O22  1  0.558688  0.784691  0.663772  1
  O  O23  1  0.046001  0.716131  0.307568  1
  O  O24  1  0.582959  0.713541  0.170630  1
  O  O25  1  0.170630  0.582959  0.713541  1
  O  O26  1  0.713541  0.170630  0.582959  1
  O  O27  1  0.800656  0.833050  0.047302  1
  O  O28  1  0.692432  0.953999  0.283869  1
  O  O29  1  0.283869  0.692432  0.953999  1
  O  O30  1  0.336228  0.441312  0.215309  1
  O  O31  1  0.833050  0.047302  0.800656  1
  O  O32  1  0.215309  0.336228  0.441312  1
  O  O33  1  0.047302  0.800656  0.833050  1
  O  O34  1  0.441312  0.215309  0.336228  1
  O  O35  1  0.953999  0.283869  0.692432  1
