# generated using pymatgen
data_Rb16TiSnBiSb7
_symmetry_space_group_name_H-M   'P 1'
_cell_length_a   12.07795447
_cell_length_b   12.07157673
_cell_length_c   12.07399800
_cell_angle_alpha   59.99336478
_cell_angle_beta   60.01083560
_cell_angle_gamma   60.03745093
_symmetry_Int_Tables_number   1
_chemical_formula_structural   Rb16TiSnBiSb7
_chemical_formula_sum   'Rb16 Ti1 Sn1 Bi1 Sb7'
_cell_volume   1245.17396779
_cell_formula_units_Z   1
loop_
 _symmetry_equiv_pos_site_id
 _symmetry_equiv_pos_as_xyz
  1  'x, y, z'
loop_
 _atom_site_type_symbol
 _atom_site_label
 _atom_site_symmetry_multiplicity
 _atom_site_fract_x
 _atom_site_fract_y
 _atom_site_fract_z
 _atom_site_occupancy
  Rb  Rb0  1  0.624119  0.127655  0.624113  1
  Rb  Rb1  1  0.624084  0.623206  0.128675  1
  Rb  Rb2  1  0.128750  0.623186  0.624033  1
  Rb  Rb3  1  0.624084  0.623206  0.624036  1
  Rb  Rb4  1  0.017685  0.023169  0.479573  1
  Rb  Rb5  1  0.778413  0.221428  0.221424  1
  Rb  Rb6  1  0.220157  0.778501  0.781330  1
  Rb  Rb7  1  0.781108  0.778611  0.220141  1
  Rb  Rb8  1  0.778413  0.221428  0.778735  1
  Rb  Rb9  1  0.220157  0.778501  0.220013  1
  Rb  Rb10  1  0.479599  0.023299  0.479218  1
  Rb  Rb11  1  0.479599  0.023299  0.017883  1
  Rb  Rb12  1  0.021805  0.477747  0.478466  1
  Rb  Rb13  1  0.021805  0.477747  0.021982  1
  Rb  Rb14  1  0.221424  0.221317  0.778630  1
  Rb  Rb15  1  0.478541  0.477458  0.022001  1
  Ti  Ti16  1  0.750273  0.749334  0.750196  1
  Sn  Sn17  1  0.500882  0.497854  0.500631  1
  Bi  Bi18  1  0.396843  0.809376  0.396891  1
  Sb  Sb19  1  0.845071  0.844136  0.465875  1
  Sb  Sb20  1  0.466192  0.844082  0.844863  1
  Sb  Sb21  1  0.845071  0.844136  0.844918  1
  Sb  Sb22  1  0.802030  0.398823  0.399573  1
  Sb  Sb23  1  0.399387  0.398817  0.399462  1
  Sb  Sb24  1  0.399387  0.398817  0.802334  1
  Sb  Sb25  1  0.845124  0.464863  0.845007  1
