# generated using pymatgen
data_CePa3(ZnRh)4
_symmetry_space_group_name_H-M   'P 1'
_cell_length_a   3.98128100
_cell_length_b   6.98658264
_cell_length_c   8.32148336
_cell_angle_alpha   90.44099477
_cell_angle_beta   90.00000000
_cell_angle_gamma   90.00000000
_symmetry_Int_Tables_number   1
_chemical_formula_structural   CePa3(ZnRh)4
_chemical_formula_sum   'Ce1 Pa3 Zn4 Rh4'
_cell_volume   231.45976964
_cell_formula_units_Z   1
loop_
 _symmetry_equiv_pos_site_id
 _symmetry_equiv_pos_as_xyz
  1  'x, y, z'
loop_
 _atom_site_type_symbol
 _atom_site_label
 _atom_site_symmetry_multiplicity
 _atom_site_fract_x
 _atom_site_fract_y
 _atom_site_fract_z
 _atom_site_occupancy
  Ce  Ce0  1  0.250000  0.051923  0.315315  1
  Pa  Pa1  1  0.250000  0.554292  0.186703  1
  Pa  Pa2  1  0.750000  0.449597  0.815173  1
  Pa  Pa3  1  0.750000  0.946692  0.683947  1
  Zn  Zn4  1  0.250000  0.619723  0.556676  1
  Zn  Zn5  1  0.750000  0.372445  0.444355  1
  Zn  Zn6  1  0.750000  0.881394  0.056919  1
  Zn  Zn7  1  0.250000  0.122201  0.944761  1
  Rh  Rh8  1  0.250000  0.732393  0.867779  1
  Rh  Rh9  1  0.750000  0.284134  0.121494  1
  Rh  Rh10  1  0.750000  0.753205  0.366453  1
  Rh  Rh11  1  0.250000  0.232001  0.640421  1
