# generated using pymatgen
data_Tb3Yb(SiPd2)4
_symmetry_space_group_name_H-M   'P 1'
_cell_length_a   5.55926503
_cell_length_b   6.99187100
_cell_length_c   7.34948434
_cell_angle_alpha   90.00000000
_cell_angle_beta   89.93050450
_cell_angle_gamma   90.00000000
_symmetry_Int_Tables_number   1
_chemical_formula_structural   Tb3Yb(SiPd2)4
_chemical_formula_sum   'Tb3 Yb1 Si4 Pd8'
_cell_volume   285.67177638
_cell_formula_units_Z   1
loop_
 _symmetry_equiv_pos_site_id
 _symmetry_equiv_pos_as_xyz
  1  'x, y, z'
loop_
 _atom_site_type_symbol
 _atom_site_label
 _atom_site_symmetry_multiplicity
 _atom_site_fract_x
 _atom_site_fract_y
 _atom_site_fract_z
 _atom_site_occupancy
  Tb  Tb0  1  0.360414  0.750000  0.025301  1
  Tb  Tb1  1  0.137228  0.750000  0.525778  1
  Tb  Tb2  1  0.640437  0.250000  0.973754  1
  Yb  Yb3  1  0.860823  0.250000  0.475473  1
  Si  Si4  1  0.636853  0.750000  0.376654  1
  Si  Si5  1  0.860843  0.750000  0.876484  1
  Si  Si6  1  0.362020  0.250000  0.622697  1
  Si  Si7  1  0.140716  0.250000  0.123649  1
  Pd  Pd8  1  0.901992  0.552657  0.175082  1
  Pd  Pd9  1  0.595772  0.948333  0.676771  1
  Pd  Pd10  1  0.100142  0.052148  0.823002  1
  Pd  Pd11  1  0.402428  0.448110  0.325250  1
  Pd  Pd12  1  0.100142  0.447852  0.823002  1
  Pd  Pd13  1  0.402428  0.051890  0.325250  1
  Pd  Pd14  1  0.901992  0.947343  0.175082  1
  Pd  Pd15  1  0.595772  0.551667  0.676771  1
