# generated using pymatgen
data_Sr6DyY13Sn16
_symmetry_space_group_name_H-M   'P 1'
_cell_length_a   8.06267048
_cell_length_b   8.47690329
_cell_length_c   16.01197200
_cell_angle_alpha   89.99952011
_cell_angle_beta   90.46408219
_cell_angle_gamma   89.98502633
_symmetry_Int_Tables_number   1
_chemical_formula_structural   Sr6DyY13Sn16
_chemical_formula_sum   'Sr6 Dy1 Y13 Sn16'
_cell_volume   1094.32595490
_cell_formula_units_Z   1
loop_
 _symmetry_equiv_pos_site_id
 _symmetry_equiv_pos_as_xyz
  1  'x, y, z'
loop_
 _atom_site_type_symbol
 _atom_site_label
 _atom_site_symmetry_multiplicity
 _atom_site_fract_x
 _atom_site_fract_y
 _atom_site_fract_z
 _atom_site_occupancy
  Sr  Sr0  1  0.003255  0.176481  0.598134  1
  Sr  Sr1  1  0.500029  0.676744  0.408199  1
  Sr  Sr2  1  0.999757  0.822315  0.087805  1
  Sr  Sr3  1  0.499462  0.677684  0.087800  1
  Sr  Sr4  1  0.000095  0.823383  0.408167  1
  Sr  Sr5  1  0.503198  0.323641  0.598045  1
  Dy  Dy6  1  0.001185  0.183265  0.902019  1
  Y  Y7  1  0.333551  0.836288  0.875462  1
  Y  Y8  1  0.829611  0.663963  0.629199  1
  Y  Y9  1  0.668257  0.163917  0.376523  1
  Y  Y10  1  0.163941  0.337711  0.121857  1
  Y  Y11  1  0.663959  0.162355  0.121958  1
  Y  Y12  1  0.168134  0.336143  0.376524  1
  Y  Y13  1  0.329572  0.836036  0.629264  1
  Y  Y14  1  0.833644  0.663545  0.875527  1
  Y  Y15  1  0.501884  0.316599  0.901985  1
  Y  Y16  1  0.169339  0.494225  0.752071  1
  Y  Y17  1  0.669265  0.005622  0.752018  1
  Y  Y18  1  0.827965  0.505224  0.248834  1
  Y  Y19  1  0.328247  0.994847  0.248868  1
  Sn  Sn20  1  0.325430  0.053980  0.034156  1
  Sn  Sn21  1  0.835868  0.458919  0.459290  1
  Sn  Sn22  1  0.664615  0.959310  0.544715  1
  Sn  Sn23  1  0.176936  0.526383  0.951789  1
  Sn  Sn24  1  0.676880  0.973382  0.951858  1
  Sn  Sn25  1  0.164592  0.540956  0.544676  1
  Sn  Sn26  1  0.335907  0.041228  0.459350  1
  Sn  Sn27  1  0.824998  0.446046  0.034230  1
  Sn  Sn28  1  0.529682  0.626629  0.753858  1
  Sn  Sn29  1  0.029520  0.873252  0.753987  1
  Sn  Sn30  1  0.464882  0.367458  0.249294  1
  Sn  Sn31  1  0.965092  0.132436  0.249226  1
  Sn  Sn32  1  0.304738  0.143781  0.758800  1
  Sn  Sn33  1  0.804795  0.356245  0.758730  1
  Sn  Sn34  1  0.700925  0.865629  0.247886  1
  Sn  Sn35  1  0.200790  0.634383  0.247904  1
