# generated using pymatgen
data_Ca2Ac8TlSn5
_symmetry_space_group_name_H-M   'P 1'
_cell_length_a   9.93546821
_cell_length_b   9.93546864
_cell_length_c   9.94739200
_cell_angle_alpha   128.59532806
_cell_angle_beta   128.59533004
_cell_angle_gamma   75.57402611
_symmetry_Int_Tables_number   1
_chemical_formula_structural   Ca2Ac8TlSn5
_chemical_formula_sum   'Ca2 Ac8 Tl1 Sn5'
_cell_volume   583.85316800
_cell_formula_units_Z   1
loop_
 _symmetry_equiv_pos_site_id
 _symmetry_equiv_pos_as_xyz
  1  'x, y, z'
loop_
 _atom_site_type_symbol
 _atom_site_label
 _atom_site_symmetry_multiplicity
 _atom_site_fract_x
 _atom_site_fract_y
 _atom_site_fract_z
 _atom_site_occupancy
  Ca  Ca0  1  0.999847  0.000699  0.000546  1
  Ca  Ca1  1  0.500699  0.499847  0.000546  1
  Ac  Ac2  1  0.815720  0.315720  0.836211  1
  Ac  Ac3  1  0.183924  0.683924  0.162463  1
  Ac  Ac4  1  0.478539  0.978539  0.162463  1
  Ac  Ac5  1  0.314335  0.479966  0.499254  1
  Ac  Ac6  1  0.019288  0.184919  0.499254  1
  Ac  Ac7  1  0.520491  0.020491  0.836211  1
  Ac  Ac8  1  0.684919  0.519288  0.499254  1
  Ac  Ac9  1  0.979966  0.814335  0.499254  1
  Tl  Tl10  1  0.132186  0.632186  0.764373  1
  Sn  Sn11  1  0.869201  0.369201  0.238400  1
  Sn  Sn12  1  0.631551  0.869754  0.501304  1
  Sn  Sn13  1  0.369754  0.131551  0.501304  1
  Sn  Sn14  1  0.249790  0.249790  0.999580  1
  Sn  Sn15  1  0.749790  0.749790  0.999580  1
