# generated using pymatgen
data_NdMgTl(Si3Pd10)2
_symmetry_space_group_name_H-M   'P 1'
_cell_length_a   8.70695670
_cell_length_b   8.70602539
_cell_length_c   8.70632807
_cell_angle_alpha   60.00062286
_cell_angle_beta   59.98944392
_cell_angle_gamma   60.00839817
_symmetry_Int_Tables_number   1
_chemical_formula_structural   NdMgTl(Si3Pd10)2
_chemical_formula_sum   'Nd1 Mg1 Tl1 Si6 Pd20'
_cell_volume   466.66075806
_cell_formula_units_Z   1
loop_
 _symmetry_equiv_pos_site_id
 _symmetry_equiv_pos_as_xyz
  1  'x, y, z'
loop_
 _atom_site_type_symbol
 _atom_site_label
 _atom_site_symmetry_multiplicity
 _atom_site_fract_x
 _atom_site_fract_y
 _atom_site_fract_z
 _atom_site_occupancy
  Nd  Nd0  1  0.750009  0.750007  0.749992  1
  Mg  Mg1  1  0.000005  0.000013  0.999991  1
  Tl  Tl2  1  0.250000  0.249993  0.250047  1
  Si  Si3  1  0.731885  0.268121  0.268103  1
  Si  Si4  1  0.268121  0.731906  0.731891  1
  Si  Si5  1  0.268082  0.731890  0.268107  1
  Si  Si6  1  0.731941  0.268125  0.731893  1
  Si  Si7  1  0.268138  0.268182  0.731822  1
  Si  Si8  1  0.731856  0.731826  0.268188  1
  Pd  Pd9  1  0.344281  0.997859  0.997752  1
  Pd  Pd10  1  0.660399  0.997508  0.997575  1
  Pd  Pd11  1  0.997804  0.344424  0.660081  1
  Pd  Pd12  1  0.997608  0.660225  0.344491  1
  Pd  Pd13  1  0.997887  0.344272  0.997832  1
  Pd  Pd14  1  0.660196  0.997680  0.344441  1
  Pd  Pd15  1  0.997509  0.660391  0.997538  1
  Pd  Pd16  1  0.344432  0.997744  0.660153  1
  Pd  Pd17  1  0.997780  0.997839  0.344277  1
  Pd  Pd18  1  0.997590  0.997544  0.660364  1
  Pd  Pd19  1  0.660088  0.344433  0.997776  1
  Pd  Pd20  1  0.344492  0.660175  0.997650  1
  Pd  Pd21  1  0.380331  0.380369  0.380305  1
  Pd  Pd22  1  0.613472  0.613488  0.613429  1
  Pd  Pd23  1  0.380385  0.380319  0.858852  1
  Pd  Pd24  1  0.380299  0.858823  0.380348  1
  Pd  Pd25  1  0.613488  0.613476  0.159702  1
  Pd  Pd26  1  0.613418  0.159667  0.613495  1
  Pd  Pd27  1  0.858830  0.380287  0.380403  1
  Pd  Pd28  1  0.159675  0.613412  0.613501  1
