# generated using pymatgen
data_Tm8Mg2Sc9Si16Ag
_symmetry_space_group_name_H-M   'P 1'
_cell_length_a   6.92074171
_cell_length_b   7.37924477
_cell_length_c   13.88114600
_cell_angle_alpha   90.00000000
_cell_angle_beta   90.00000000
_cell_angle_gamma   89.77796377
_symmetry_Int_Tables_number   1
_chemical_formula_structural   Tm8Mg2Sc9Si16Ag
_chemical_formula_sum   'Tm8 Mg2 Sc9 Si16 Ag1'
_cell_volume   708.90267961
_cell_formula_units_Z   1
loop_
 _symmetry_equiv_pos_site_id
 _symmetry_equiv_pos_as_xyz
  1  'x, y, z'
loop_
 _atom_site_type_symbol
 _atom_site_label
 _atom_site_symmetry_multiplicity
 _atom_site_fract_x
 _atom_site_fract_y
 _atom_site_fract_z
 _atom_site_occupancy
  Tm  Tm0  1  0.011994  0.178470  0.096750  1
  Tm  Tm1  1  0.990852  0.814411  0.903278  1
  Tm  Tm2  1  0.487245  0.673632  0.904309  1
  Tm  Tm3  1  0.990852  0.814411  0.596722  1
  Tm  Tm4  1  0.510987  0.320612  0.095729  1
  Tm  Tm5  1  0.011994  0.178470  0.403250  1
  Tm  Tm6  1  0.510987  0.320612  0.404271  1
  Tm  Tm7  1  0.487245  0.673632  0.595691  1
  Mg  Mg8  1  0.841729  0.493557  0.250000  1
  Mg  Mg9  1  0.341499  0.009598  0.250000  1
  Sc  Sc10  1  0.657072  0.996781  0.750000  1
  Sc  Sc11  1  0.322961  0.183950  0.627290  1
  Sc  Sc12  1  0.668781  0.821106  0.374551  1
  Sc  Sc13  1  0.170220  0.681805  0.373978  1
  Sc  Sc14  1  0.668781  0.821106  0.125449  1
  Sc  Sc15  1  0.838294  0.325034  0.627604  1
  Sc  Sc16  1  0.322961  0.183950  0.872710  1
  Sc  Sc17  1  0.838294  0.325034  0.872396  1
  Sc  Sc18  1  0.170220  0.681805  0.126022  1
  Si  Si19  1  0.026178  0.089616  0.750000  1
  Si  Si20  1  0.966080  0.899214  0.250000  1
  Si  Si21  1  0.466430  0.603942  0.250000  1
  Si  Si22  1  0.535415  0.388168  0.750000  1
  Si  Si23  1  0.289350  0.877591  0.750000  1
  Si  Si24  1  0.717062  0.124761  0.250000  1
  Si  Si25  1  0.218328  0.375682  0.250000  1
  Si  Si26  1  0.778400  0.630665  0.750000  1
  Si  Si27  1  0.162527  0.460809  0.530356  1
  Si  Si28  1  0.838003  0.535896  0.465626  1
  Si  Si29  1  0.339680  0.965414  0.466544  1
  Si  Si30  1  0.838003  0.535896  0.034374  1
  Si  Si31  1  0.659519  0.033161  0.538855  1
  Si  Si32  1  0.162527  0.460809  0.969644  1
  Si  Si33  1  0.659519  0.033161  0.961145  1
  Si  Si34  1  0.339680  0.965414  0.033456  1
  Ag  Ag35  1  0.160329  0.521829  0.750000  1
