# generated using pymatgen
data_Hf10SiSn6
_symmetry_space_group_name_H-M   'P 1'
_cell_length_a   5.83302201
_cell_length_b   8.52573548
_cell_length_c   8.52599101
_cell_angle_alpha   119.99901900
_cell_angle_beta   90.00108639
_cell_angle_gamma   89.99781567
_symmetry_Int_Tables_number   1
_chemical_formula_structural   Hf10SiSn6
_chemical_formula_sum   'Hf10 Si1 Sn6'
_cell_volume   367.20219115
_cell_formula_units_Z   1
loop_
 _symmetry_equiv_pos_site_id
 _symmetry_equiv_pos_as_xyz
  1  'x, y, z'
loop_
 _atom_site_type_symbol
 _atom_site_label
 _atom_site_symmetry_multiplicity
 _atom_site_fract_x
 _atom_site_fract_y
 _atom_site_fract_z
 _atom_site_occupancy
  Hf  Hf0  1  0.500001  0.333333  0.666667  1
  Hf  Hf1  1  0.500001  0.666667  0.333333  1
  Hf  Hf2  1  0.000000  0.666655  0.333310  1
  Hf  Hf3  1  0.000000  0.333345  0.666690  1
  Hf  Hf4  1  0.757864  0.255514  0.000000  1
  Hf  Hf5  1  0.757827  0.744507  0.744498  1
  Hf  Hf6  1  0.757827  0.000008  0.255502  1
  Hf  Hf7  1  0.242135  0.744485  0.000000  1
  Hf  Hf8  1  0.242173  0.255495  0.255504  1
  Hf  Hf9  1  0.242173  0.999992  0.744496  1
  Si  Si10  1  0.499998  0.000000  0.000000  1
  Sn  Sn11  1  0.746707  0.609027  0.000000  1
  Sn  Sn12  1  0.746756  0.390990  0.390996  1
  Sn  Sn13  1  0.746756  0.999994  0.609004  1
  Sn  Sn14  1  0.253292  0.390972  0.000000  1
  Sn  Sn15  1  0.253245  0.609010  0.609005  1
  Sn  Sn16  1  0.253245  0.000005  0.390995  1
