# generated using pymatgen
data_Nb3SiTc2N
_symmetry_space_group_name_H-M   'P 1'
_cell_length_a   8.27815558
_cell_length_b   8.27833455
_cell_length_c   8.27809201
_cell_angle_alpha   60.00150076
_cell_angle_beta   60.00019351
_cell_angle_gamma   60.00134658
_symmetry_Int_Tables_number   1
_chemical_formula_structural   Nb3SiTc2N
_chemical_formula_sum   'Nb12 Si4 Tc8 N4'
_cell_volume   401.14537468
_cell_formula_units_Z   4
loop_
 _symmetry_equiv_pos_site_id
 _symmetry_equiv_pos_as_xyz
  1  'x, y, z'
loop_
 _atom_site_type_symbol
 _atom_site_label
 _atom_site_symmetry_multiplicity
 _atom_site_fract_x
 _atom_site_fract_y
 _atom_site_fract_z
 _atom_site_occupancy
  Nb  Nb0  1  0.804608  0.804629  0.195393  1
  Nb  Nb1  1  0.195354  0.195398  0.804626  1
  Nb  Nb2  1  0.804622  0.195409  0.804620  1
  Nb  Nb3  1  0.195379  0.804633  0.195381  1
  Nb  Nb4  1  0.195392  0.804627  0.804606  1
  Nb  Nb5  1  0.804624  0.195397  0.195358  1
  Nb  Nb6  1  0.445392  0.445371  0.054607  1
  Nb  Nb7  1  0.054646  0.054602  0.445374  1
  Nb  Nb8  1  0.445378  0.054591  0.445380  1
  Nb  Nb9  1  0.054621  0.445367  0.054619  1
  Nb  Nb10  1  0.054608  0.445373  0.445394  1
  Nb  Nb11  1  0.445376  0.054603  0.054642  1
  Si  Si12  1  0.125000  0.625000  0.625000  1
  Si  Si13  1  0.625000  0.125000  0.625000  1
  Si  Si14  1  0.625000  0.625000  0.125000  1
  Si  Si15  1  0.625000  0.625000  0.625000  1
  Tc  Tc16  1  0.749060  0.416997  0.416974  1
  Tc  Tc17  1  0.416985  0.749058  0.416982  1
  Tc  Tc18  1  0.416977  0.416995  0.749058  1
  Tc  Tc19  1  0.416973  0.416990  0.416970  1
  Tc  Tc20  1  0.500940  0.833003  0.833026  1
  Tc  Tc21  1  0.833015  0.500942  0.833018  1
  Tc  Tc22  1  0.833023  0.833005  0.500942  1
  Tc  Tc23  1  0.833027  0.833010  0.833030  1
  N  N24  1  0.625000  0.125000  0.125000  1
  N  N25  1  0.125000  0.625000  0.125000  1
  N  N26  1  0.125000  0.125000  0.625000  1
  N  N27  1  0.125000  0.125000  0.125000  1
