# generated using pymatgen
data_SmHo6Sn23Ir6
_symmetry_space_group_name_H-M   'P 1'
_cell_length_a   9.86403400
_cell_length_b   9.86403261
_cell_length_c   10.08640700
_cell_angle_alpha   90.00000000
_cell_angle_beta   90.00000000
_cell_angle_gamma   119.99999795
_symmetry_Int_Tables_number   1
_chemical_formula_structural   SmHo6Sn23Ir6
_chemical_formula_sum   'Sm1 Ho6 Sn23 Ir6'
_cell_volume   849.91636008
_cell_formula_units_Z   1
loop_
 _symmetry_equiv_pos_site_id
 _symmetry_equiv_pos_as_xyz
  1  'x, y, z'
loop_
 _atom_site_type_symbol
 _atom_site_label
 _atom_site_symmetry_multiplicity
 _atom_site_fract_x
 _atom_site_fract_y
 _atom_site_fract_z
 _atom_site_occupancy
  Sm  Sm0  1  0.000000  0.000000  0.000000  1
  Ho  Ho1  1  0.519115  0.480885  0.693327  1
  Ho  Ho2  1  0.519115  0.038229  0.693327  1
  Ho  Ho3  1  0.961771  0.480885  0.693327  1
  Ho  Ho4  1  0.038229  0.519115  0.306673  1
  Ho  Ho5  1  0.480885  0.961771  0.306673  1
  Ho  Ho6  1  0.480885  0.519115  0.306673  1
  Sn  Sn7  1  0.666667  0.333333  0.172938  1
  Sn  Sn8  1  0.666667  0.333333  0.876057  1
  Sn  Sn9  1  0.333333  0.666667  0.123943  1
  Sn  Sn10  1  0.352778  0.352778  0.000000  1
  Sn  Sn11  1  0.000000  0.647222  0.000000  1
  Sn  Sn12  1  0.647222  0.000000  0.000000  1
  Sn  Sn13  1  0.647222  0.647222  0.000000  1
  Sn  Sn14  1  0.333333  0.666667  0.827062  1
  Sn  Sn15  1  0.445713  0.222856  0.457630  1
  Sn  Sn16  1  0.222856  0.777144  0.542370  1
  Sn  Sn17  1  0.222856  0.445713  0.542370  1
  Sn  Sn18  1  0.554287  0.777144  0.542370  1
  Sn  Sn19  1  0.119108  0.880892  0.284384  1
  Sn  Sn20  1  0.777144  0.554287  0.457630  1
  Sn  Sn21  1  0.777144  0.222856  0.457630  1
  Sn  Sn22  1  0.352778  0.000000  0.000000  1
  Sn  Sn23  1  0.119108  0.238216  0.284384  1
  Sn  Sn24  1  0.761784  0.880892  0.284384  1
  Sn  Sn25  1  0.238216  0.119108  0.715616  1
  Sn  Sn26  1  0.880892  0.761784  0.715616  1
  Sn  Sn27  1  0.880892  0.119108  0.715616  1
  Sn  Sn28  1  0.000000  0.000000  0.500000  1
  Sn  Sn29  1  0.000000  0.352778  0.000000  1
  Ir  Ir30  1  0.169641  0.830359  0.800529  1
  Ir  Ir31  1  0.169641  0.339279  0.800529  1
  Ir  Ir32  1  0.660721  0.830359  0.800529  1
  Ir  Ir33  1  0.339279  0.169641  0.199471  1
  Ir  Ir34  1  0.830359  0.660721  0.199471  1
  Ir  Ir35  1  0.830359  0.169641  0.199471  1
