# generated using pymatgen
data_Tb2Y3Bi2Ru
_symmetry_space_group_name_H-M   'P 1'
_cell_length_a   8.01840100
_cell_length_b   9.02962300
_cell_length_c   12.52133700
_cell_angle_alpha   90.00000000
_cell_angle_beta   90.00000000
_cell_angle_gamma   90.00000000
_symmetry_Int_Tables_number   1
_chemical_formula_structural   Tb2Y3Bi2Ru
_chemical_formula_sum   'Tb8 Y12 Bi8 Ru4'
_cell_volume   906.58409192
_cell_formula_units_Z   4
loop_
 _symmetry_equiv_pos_site_id
 _symmetry_equiv_pos_as_xyz
  1  'x, y, z'
loop_
 _atom_site_type_symbol
 _atom_site_label
 _atom_site_symmetry_multiplicity
 _atom_site_fract_x
 _atom_site_fract_y
 _atom_site_fract_z
 _atom_site_occupancy
  Tb  Tb0  1  0.675781  0.041419  0.563979  1
  Tb  Tb1  1  0.324219  0.958581  0.436021  1
  Tb  Tb2  1  0.175781  0.958581  0.936021  1
  Tb  Tb3  1  0.324219  0.541419  0.436021  1
  Tb  Tb4  1  0.824219  0.041419  0.063979  1
  Tb  Tb5  1  0.675781  0.458581  0.563979  1
  Tb  Tb6  1  0.824219  0.458581  0.063979  1
  Tb  Tb7  1  0.175781  0.541419  0.936021  1
  Y  Y8  1  0.843165  0.750000  0.792751  1
  Y  Y9  1  0.156835  0.250000  0.207249  1
  Y  Y10  1  0.343165  0.250000  0.707249  1
  Y  Y11  1  0.656835  0.750000  0.292751  1
  Y  Y12  1  0.375018  0.750000  0.693311  1
  Y  Y13  1  0.624982  0.250000  0.306689  1
  Y  Y14  1  0.875018  0.250000  0.806689  1
  Y  Y15  1  0.124982  0.750000  0.193311  1
  Y  Y16  1  0.946713  0.750000  0.504339  1
  Y  Y17  1  0.053287  0.250000  0.495661  1
  Y  Y18  1  0.446713  0.250000  0.995661  1
  Y  Y19  1  0.553287  0.750000  0.004339  1
  Bi  Bi20  1  0.570432  0.493219  0.827508  1
  Bi  Bi21  1  0.429568  0.506781  0.172492  1
  Bi  Bi22  1  0.070432  0.506781  0.672492  1
  Bi  Bi23  1  0.429568  0.993219  0.172492  1
  Bi  Bi24  1  0.929568  0.493219  0.327508  1
  Bi  Bi25  1  0.570432  0.006781  0.827508  1
  Bi  Bi26  1  0.929568  0.006781  0.327508  1
  Bi  Bi27  1  0.070432  0.993219  0.672492  1
  Ru  Ru28  1  0.574142  0.750000  0.511660  1
  Ru  Ru29  1  0.425858  0.250000  0.488340  1
  Ru  Ru30  1  0.074142  0.250000  0.988340  1
  Ru  Ru31  1  0.925858  0.750000  0.011660  1
