# generated using pymatgen
data_TbYTm3CoSb2
_symmetry_space_group_name_H-M   'P 1'
_cell_length_a   7.81460700
_cell_length_b   8.73739900
_cell_length_c   12.09562800
_cell_angle_alpha   90.00000000
_cell_angle_beta   90.00000000
_cell_angle_gamma   90.00000000
_symmetry_Int_Tables_number   1
_chemical_formula_structural   TbYTm3CoSb2
_chemical_formula_sum   'Tb4 Y4 Tm12 Co4 Sb8'
_cell_volume   825.88148931
_cell_formula_units_Z   4
loop_
 _symmetry_equiv_pos_site_id
 _symmetry_equiv_pos_as_xyz
  1  'x, y, z'
loop_
 _atom_site_type_symbol
 _atom_site_label
 _atom_site_symmetry_multiplicity
 _atom_site_fract_x
 _atom_site_fract_y
 _atom_site_fract_z
 _atom_site_occupancy
  Tb  Tb0  1  0.622705  0.750000  0.306825  1
  Tb  Tb1  1  0.122705  0.250000  0.193175  1
  Tb  Tb2  1  0.377295  0.250000  0.693175  1
  Tb  Tb3  1  0.877295  0.750000  0.806825  1
  Y  Y4  1  0.155331  0.750000  0.204779  1
  Y  Y5  1  0.655331  0.250000  0.295221  1
  Y  Y6  1  0.844669  0.250000  0.795221  1
  Y  Y7  1  0.344669  0.750000  0.704779  1
  Tm  Tm8  1  0.450818  0.750000  0.997711  1
  Tm  Tm9  1  0.950818  0.250000  0.502289  1
  Tm  Tm10  1  0.549182  0.250000  0.002289  1
  Tm  Tm11  1  0.049182  0.750000  0.497711  1
  Tm  Tm12  1  0.822421  0.963528  0.064672  1
  Tm  Tm13  1  0.322421  0.036472  0.435328  1
  Tm  Tm14  1  0.177579  0.463528  0.935328  1
  Tm  Tm15  1  0.677579  0.536472  0.564672  1
  Tm  Tm16  1  0.177579  0.036472  0.935328  1
  Tm  Tm17  1  0.677579  0.963528  0.564672  1
  Tm  Tm18  1  0.822421  0.536472  0.064672  1
  Tm  Tm19  1  0.322421  0.463528  0.435328  1
  Co  Co20  1  0.432963  0.750000  0.489463  1
  Co  Co21  1  0.932963  0.250000  0.010537  1
  Co  Co22  1  0.567037  0.250000  0.510537  1
  Co  Co23  1  0.067037  0.750000  0.989463  1
  Sb  Sb24  1  0.929854  0.991774  0.329410  1
  Sb  Sb25  1  0.429854  0.008226  0.170590  1
  Sb  Sb26  1  0.070146  0.491774  0.670590  1
  Sb  Sb27  1  0.570146  0.508226  0.829410  1
  Sb  Sb28  1  0.070146  0.008226  0.670590  1
  Sb  Sb29  1  0.570146  0.991774  0.829410  1
  Sb  Sb30  1  0.929854  0.508226  0.329410  1
  Sb  Sb31  1  0.429854  0.491774  0.170590  1
