# generated using pymatgen
data_Y11Tl6In3(NiAu)2
_symmetry_space_group_name_H-M   'P 1'
_cell_length_a   13.19169918
_cell_length_b   13.24552759
_cell_length_c   3.69522600
_cell_angle_alpha   90.00000000
_cell_angle_beta   90.00000000
_cell_angle_gamma   110.41717106
_symmetry_Int_Tables_number   1
_chemical_formula_structural   Y11Tl6In3(NiAu)2
_chemical_formula_sum   'Y11 Tl6 In3 Ni2 Au2'
_cell_volume   605.10793963
_cell_formula_units_Z   1
loop_
 _symmetry_equiv_pos_site_id
 _symmetry_equiv_pos_as_xyz
  1  'x, y, z'
loop_
 _atom_site_type_symbol
 _atom_site_label
 _atom_site_symmetry_multiplicity
 _atom_site_fract_x
 _atom_site_fract_y
 _atom_site_fract_z
 _atom_site_occupancy
  Y  Y0  1  0.073971  0.418554  0.000000  1
  Y  Y1  1  0.926029  0.581446  0.000000  1
  Y  Y2  1  0.420492  0.078846  0.000000  1
  Y  Y3  1  0.579508  0.921154  0.000000  1
  Y  Y4  1  0.618557  0.360016  0.000000  1
  Y  Y5  1  0.381443  0.639984  0.000000  1
  Y  Y6  1  0.839079  0.156118  0.000000  1
  Y  Y7  1  0.160921  0.843882  0.000000  1
  Y  Y8  1  0.000000  0.000000  0.000000  1
  Y  Y9  1  0.316431  0.301994  0.000000  1
  Y  Y10  1  0.683569  0.698006  0.000000  1
  Tl  Tl11  1  0.847510  0.365849  0.500000  1
  Tl  Tl12  1  0.152490  0.634151  0.500000  1
  Tl  Tl13  1  0.369372  0.847499  0.500000  1
  Tl  Tl14  1  0.630628  0.152501  0.500000  1
  Tl  Tl15  1  0.069065  0.214131  0.500000  1
  Tl  Tl16  1  0.930935  0.785869  0.500000  1
  In  In17  1  0.219820  0.071249  0.500000  1
  In  In18  1  0.780180  0.928751  0.500000  1
  In  In19  1  0.500000  0.500000  0.500000  1
  Ni  Ni20  1  0.448932  0.245737  0.500000  1
  Ni  Ni21  1  0.551068  0.754263  0.500000  1
  Au  Au22  1  0.258507  0.453983  0.500000  1
  Au  Au23  1  0.741493  0.546017  0.500000  1
