# generated using pymatgen
data_Ta2Nb8Si5Au
_symmetry_space_group_name_H-M   'P 1'
_cell_length_a   7.59846622
_cell_length_b   7.59846519
_cell_length_c   7.59846456
_cell_angle_alpha   127.75183332
_cell_angle_beta   127.75182665
_cell_angle_gamma   77.02740194
_symmetry_Int_Tables_number   1
_chemical_formula_structural   Ta2Nb8Si5Au
_chemical_formula_sum   'Ta2 Nb8 Si5 Au1'
_cell_volume   266.21318708
_cell_formula_units_Z   1
loop_
 _symmetry_equiv_pos_site_id
 _symmetry_equiv_pos_as_xyz
  1  'x, y, z'
loop_
 _atom_site_type_symbol
 _atom_site_label
 _atom_site_symmetry_multiplicity
 _atom_site_fract_x
 _atom_site_fract_y
 _atom_site_fract_z
 _atom_site_occupancy
  Ta  Ta0  1  0.997950  0.997950  0.000000  1
  Ta  Ta1  1  0.502050  0.502050  0.000000  1
  Nb  Nb2  1  0.022821  0.194881  0.513817  1
  Nb  Nb3  1  0.681063  0.509004  0.486183  1
  Nb  Nb4  1  0.509004  0.022821  0.827939  1
  Nb  Nb5  1  0.194881  0.681063  0.172061  1
  Nb  Nb6  1  0.990996  0.818937  0.513817  1
  Nb  Nb7  1  0.305119  0.477179  0.486183  1
  Nb  Nb8  1  0.477179  0.990996  0.172061  1
  Nb  Nb9  1  0.818937  0.305119  0.827939  1
  Si  Si10  1  0.250000  0.250000  0.000000  1
  Si  Si11  1  0.369914  0.130086  0.500000  1
  Si  Si12  1  0.630086  0.869914  0.500000  1
  Si  Si13  1  0.869914  0.369914  0.239829  1
  Si  Si14  1  0.130086  0.630086  0.760171  1
  Au  Au15  1  0.750000  0.750000  0.000000  1
