# generated using pymatgen
data_Sr6YAl(BO3)6
_symmetry_space_group_name_H-M   'P 1'
_cell_length_a   7.74183047
_cell_length_b   7.74182868
_cell_length_c   7.74183433
_cell_angle_alpha   105.43388369
_cell_angle_beta   105.43389141
_cell_angle_gamma   105.43384112
_symmetry_Int_Tables_number   1
_chemical_formula_structural   Sr6YAl(BO3)6
_chemical_formula_sum   'Sr6 Y1 Al1 B6 O18'
_cell_volume   401.80373532
_cell_formula_units_Z   1
loop_
 _symmetry_equiv_pos_site_id
 _symmetry_equiv_pos_as_xyz
  1  'x, y, z'
loop_
 _atom_site_type_symbol
 _atom_site_label
 _atom_site_symmetry_multiplicity
 _atom_site_fract_x
 _atom_site_fract_y
 _atom_site_fract_z
 _atom_site_occupancy
  Sr  Sr0  1  0.650346  0.266321  0.164750  1
  Sr  Sr1  1  0.164750  0.650347  0.266320  1
  Sr  Sr2  1  0.733679  0.835251  0.349653  1
  Sr  Sr3  1  0.266321  0.164749  0.650346  1
  Sr  Sr4  1  0.835251  0.349653  0.733679  1
  Sr  Sr5  1  0.349654  0.733679  0.835250  1
  Y  Y6  1  0.000000  0.000000  0.000000  1
  Al  Al7  1  0.500000  0.500000  0.500000  1
  B  B8  1  0.299319  0.379115  0.053938  1
  B  B9  1  0.379114  0.053938  0.299319  1
  B  B10  1  0.053939  0.299319  0.379114  1
  B  B11  1  0.946062  0.700681  0.620885  1
  B  B12  1  0.620885  0.946062  0.700681  1
  B  B13  1  0.700681  0.620886  0.946062  1
  O  O14  1  0.723440  0.815071  0.014478  1
  O  O15  1  0.797626  0.544489  0.062983  1
  O  O16  1  0.985522  0.276560  0.184928  1
  O  O17  1  0.455510  0.937016  0.202374  1
  O  O18  1  0.429468  0.496174  0.239251  1
  O  O19  1  0.184929  0.985522  0.276560  1
  O  O20  1  0.496174  0.239251  0.429467  1
  O  O21  1  0.937015  0.202374  0.455511  1
  O  O22  1  0.239252  0.429468  0.496175  1
  O  O23  1  0.760749  0.570532  0.503825  1
  O  O24  1  0.062984  0.797625  0.544490  1
  O  O25  1  0.503825  0.760749  0.570532  1
  O  O26  1  0.815072  0.014478  0.723440  1
  O  O27  1  0.570532  0.503825  0.760749  1
  O  O28  1  0.544490  0.062984  0.797626  1
  O  O29  1  0.014478  0.723440  0.815072  1
  O  O30  1  0.202374  0.455511  0.937017  1
  O  O31  1  0.276560  0.184929  0.985522  1
