# generated using pymatgen
data_PrThPd2Pb
_symmetry_space_group_name_H-M   'P 1'
_cell_length_a   8.07815180
_cell_length_b   8.07815180
_cell_length_c   3.82492400
_cell_angle_alpha   90.00000000
_cell_angle_beta   90.00000000
_cell_angle_gamma   92.45168821
_symmetry_Int_Tables_number   1
_chemical_formula_structural   PrThPd2Pb
_chemical_formula_sum   'Pr2 Th2 Pd4 Pb2'
_cell_volume   249.37281935
_cell_formula_units_Z   2
loop_
 _symmetry_equiv_pos_site_id
 _symmetry_equiv_pos_as_xyz
  1  'x, y, z'
loop_
 _atom_site_type_symbol
 _atom_site_label
 _atom_site_symmetry_multiplicity
 _atom_site_fract_x
 _atom_site_fract_y
 _atom_site_fract_z
 _atom_site_occupancy
  Pr  Pr0  1  0.825057  0.674943  0.500000  1
  Pr  Pr1  1  0.174943  0.325057  0.500000  1
  Th  Th2  1  0.325154  0.825154  0.500000  1
  Th  Th3  1  0.674846  0.174846  0.500000  1
  Pd  Pd4  1  0.870632  0.370632  0.000000  1
  Pd  Pd5  1  0.620117  0.879883  0.000000  1
  Pd  Pd6  1  0.379883  0.120117  0.000000  1
  Pd  Pd7  1  0.129368  0.629368  0.000000  1
  Pb  Pb8  1  0.500000  0.500000  0.000000  1
  Pb  Pb9  1  0.000000  0.000000  0.000000  1
