# generated using pymatgen
data_Ho5ReRuO12
_symmetry_space_group_name_H-M   'P 1'
_cell_length_a   6.82838105
_cell_length_b   6.82838125
_cell_length_c   7.48546070
_cell_angle_alpha   73.81161803
_cell_angle_beta   73.81161691
_cell_angle_gamma   48.95818610
_symmetry_Int_Tables_number   1
_chemical_formula_structural   Ho5ReRuO12
_chemical_formula_sum   'Ho5 Re1 Ru1 O12'
_cell_volume   250.58832581
_cell_formula_units_Z   1
loop_
 _symmetry_equiv_pos_site_id
 _symmetry_equiv_pos_as_xyz
  1  'x, y, z'
loop_
 _atom_site_type_symbol
 _atom_site_label
 _atom_site_symmetry_multiplicity
 _atom_site_fract_x
 _atom_site_fract_y
 _atom_site_fract_z
 _atom_site_occupancy
  Ho  Ho0  1  0.310044  0.318377  0.825939  1
  Ho  Ho1  1  0.681623  0.689956  0.174061  1
  Ho  Ho2  1  0.992317  0.007683  0.500000  1
  Ho  Ho3  1  0.683634  0.711496  0.642065  1
  Ho  Ho4  1  0.288504  0.316366  0.357935  1
  Re  Re5  1  0.795909  0.204091  0.000000  1
  Ru  Ru6  1  0.230420  0.769580  0.000000  1
  O  O7  1  0.511768  0.486875  0.176812  1
  O  O8  1  0.513125  0.488232  0.823188  1
  O  O9  1  0.998867  0.005194  0.203447  1
  O  O10  1  0.994806  0.001133  0.796553  1
  O  O11  1  0.910751  0.407481  0.915062  1
  O  O12  1  0.592519  0.089249  0.084938  1
  O  O13  1  0.086347  0.565664  0.085852  1
  O  O14  1  0.591737  0.107143  0.568487  1
  O  O15  1  0.892857  0.408263  0.431513  1
  O  O16  1  0.400969  0.910532  0.423154  1
  O  O17  1  0.089468  0.599031  0.576846  1
  O  O18  1  0.434336  0.913653  0.914148  1
