# generated using pymatgen
data_Y8Zr11Si16Ru
_symmetry_space_group_name_H-M   'P 1'
_cell_length_a   7.07564894
_cell_length_b   7.28845398
_cell_length_c   13.90011900
_cell_angle_alpha   90.00000000
_cell_angle_beta   90.00000000
_cell_angle_gamma   90.08464568
_symmetry_Int_Tables_number   1
_chemical_formula_structural   Y8Zr11Si16Ru
_chemical_formula_sum   'Y8 Zr11 Si16 Ru1'
_cell_volume   716.83588381
_cell_formula_units_Z   1
loop_
 _symmetry_equiv_pos_site_id
 _symmetry_equiv_pos_as_xyz
  1  'x, y, z'
loop_
 _atom_site_type_symbol
 _atom_site_label
 _atom_site_symmetry_multiplicity
 _atom_site_fract_x
 _atom_site_fract_y
 _atom_site_fract_z
 _atom_site_occupancy
  Y  Y0  1  0.518493  0.675003  0.598941  1
  Y  Y1  1  0.016450  0.822576  0.900740  1
  Y  Y2  1  0.480594  0.323631  0.096495  1
  Y  Y3  1  0.982467  0.176817  0.404518  1
  Y  Y4  1  0.480594  0.323631  0.403505  1
  Y  Y5  1  0.982467  0.176817  0.095482  1
  Y  Y6  1  0.518493  0.675003  0.901059  1
  Y  Y7  1  0.016450  0.822576  0.599260  1
  Zr  Zr8  1  0.678664  0.176272  0.625409  1
  Zr  Zr9  1  0.175408  0.327436  0.873367  1
  Zr  Zr10  1  0.324576  0.823500  0.123673  1
  Zr  Zr11  1  0.823466  0.676370  0.377083  1
  Zr  Zr12  1  0.324576  0.823500  0.376327  1
  Zr  Zr13  1  0.823466  0.676370  0.122917  1
  Zr  Zr14  1  0.678664  0.176272  0.874591  1
  Zr  Zr15  1  0.175408  0.327436  0.626633  1
  Zr  Zr16  1  0.350298  0.003530  0.750000  1
  Zr  Zr17  1  0.149399  0.501321  0.250000  1
  Zr  Zr18  1  0.651063  0.997232  0.250000  1
  Si  Si19  1  0.651081  0.969976  0.459087  1
  Si  Si20  1  0.152860  0.533407  0.039303  1
  Si  Si21  1  0.346190  0.032937  0.957431  1
  Si  Si22  1  0.848607  0.468407  0.545899  1
  Si  Si23  1  0.346190  0.032937  0.542569  1
  Si  Si24  1  0.848607  0.468407  0.954101  1
  Si  Si25  1  0.651081  0.969976  0.040913  1
  Si  Si26  1  0.152860  0.533407  0.460697  1
  Si  Si27  1  0.484080  0.386291  0.750000  1
  Si  Si28  1  0.971704  0.117686  0.750000  1
  Si  Si29  1  0.526099  0.616945  0.250000  1
  Si  Si30  1  0.027806  0.879288  0.250000  1
  Si  Si31  1  0.723312  0.869202  0.750000  1
  Si  Si32  1  0.213567  0.625969  0.750000  1
  Si  Si33  1  0.275108  0.125680  0.250000  1
  Si  Si34  1  0.775447  0.372583  0.250000  1
  Ru  Ru35  1  0.854407  0.491609  0.750000  1
