# generated using pymatgen
data_Er4Lu16GaBi11
_symmetry_space_group_name_H-M   'P 1'
_cell_length_a   8.09571400
_cell_length_b   9.35524800
_cell_length_c   11.82768500
_cell_angle_alpha   90.00000000
_cell_angle_beta   90.26254744
_cell_angle_gamma   90.00000000
_symmetry_Int_Tables_number   1
_chemical_formula_structural   Er4Lu16GaBi11
_chemical_formula_sum   'Er4 Lu16 Ga1 Bi11'
_cell_volume   895.78884897
_cell_formula_units_Z   1
loop_
 _symmetry_equiv_pos_site_id
 _symmetry_equiv_pos_as_xyz
  1  'x, y, z'
loop_
 _atom_site_type_symbol
 _atom_site_label
 _atom_site_symmetry_multiplicity
 _atom_site_fract_x
 _atom_site_fract_y
 _atom_site_fract_z
 _atom_site_occupancy
  Er  Er0  1  0.313610  0.250000  0.217513  1
  Er  Er1  1  0.810954  0.250000  0.283104  1
  Er  Er2  1  0.672782  0.750000  0.790230  1
  Er  Er3  1  0.193386  0.750000  0.722117  1
  Lu  Lu4  1  0.353178  0.750000  0.206115  1
  Lu  Lu5  1  0.850682  0.750000  0.283067  1
  Lu  Lu6  1  0.652256  0.250000  0.782165  1
  Lu  Lu7  1  0.148321  0.250000  0.719700  1
  Lu  Lu8  1  0.682611  0.573691  0.055783  1
  Lu  Lu9  1  0.192094  0.931968  0.437960  1
  Lu  Lu10  1  0.310078  0.051008  0.940851  1
  Lu  Lu11  1  0.808392  0.432798  0.559981  1
  Lu  Lu12  1  0.310078  0.448992  0.940851  1
  Lu  Lu13  1  0.808392  0.067202  0.559981  1
  Lu  Lu14  1  0.682611  0.926309  0.055783  1
  Lu  Lu15  1  0.192094  0.568032  0.437960  1
  Lu  Lu16  1  0.477838  0.250000  0.489420  1
  Lu  Lu17  1  0.981622  0.250000  0.008645  1
  Lu  Lu18  1  0.523888  0.750000  0.510639  1
  Lu  Lu19  1  0.035824  0.750000  0.991361  1
  Ga  Ga20  1  0.403949  0.750000  0.961686  1
  Bi  Bi21  1  0.904769  0.750000  0.544737  1
  Bi  Bi22  1  0.597755  0.250000  0.040626  1
  Bi  Bi23  1  0.098548  0.250000  0.458810  1
  Bi  Bi24  1  0.562961  0.994660  0.325086  1
  Bi  Bi25  1  0.060950  0.502707  0.175587  1
  Bi  Bi26  1  0.436812  0.494517  0.674600  1
  Bi  Bi27  1  0.936421  0.001544  0.825185  1
  Bi  Bi28  1  0.436812  0.005483  0.674600  1
  Bi  Bi29  1  0.936421  0.498456  0.825185  1
  Bi  Bi30  1  0.562961  0.505340  0.325086  1
  Bi  Bi31  1  0.060950  0.997293  0.175587  1
