# generated using pymatgen
data_Cs10Mn5AlS14
_symmetry_space_group_name_H-M   'P 1'
_cell_length_a   10.67449583
_cell_length_b   10.67450371
_cell_length_c   9.03626500
_cell_angle_alpha   79.49276022
_cell_angle_beta   79.49277421
_cell_angle_gamma   74.23133986
_symmetry_Int_Tables_number   1
_chemical_formula_structural   Cs10Mn5AlS14
_chemical_formula_sum   'Cs10 Mn5 Al1 S14'
_cell_volume   964.62955575
_cell_formula_units_Z   1
loop_
 _symmetry_equiv_pos_site_id
 _symmetry_equiv_pos_as_xyz
  1  'x, y, z'
loop_
 _atom_site_type_symbol
 _atom_site_label
 _atom_site_symmetry_multiplicity
 _atom_site_fract_x
 _atom_site_fract_y
 _atom_site_fract_z
 _atom_site_occupancy
  Cs  Cs0  1  0.033750  0.433656  0.733350  1
  Cs  Cs1  1  0.433656  0.033751  0.733350  1
  Cs  Cs2  1  0.955630  0.579378  0.271725  1
  Cs  Cs3  1  0.579378  0.955630  0.271725  1
  Cs  Cs4  1  0.306507  0.703610  0.998771  1
  Cs  Cs5  1  0.703610  0.306507  0.998771  1
  Cs  Cs6  1  0.841561  0.151026  0.501796  1
  Cs  Cs7  1  0.151026  0.841561  0.501796  1
  Cs  Cs8  1  0.429169  0.429169  0.692157  1
  Cs  Cs9  1  0.570409  0.570409  0.305152  1
  Mn  Mn10  1  0.199056  0.199056  0.181415  1
  Mn  Mn11  1  0.804924  0.804924  0.824879  1
  Mn  Mn12  1  0.069591  0.069591  0.060505  1
  Mn  Mn13  1  0.937840  0.937840  0.944378  1
  Mn  Mn14  1  0.326179  0.326180  0.315453  1
  Al  Al15  1  0.662479  0.662479  0.671807  1
  S  S16  1  0.999790  0.270190  0.121139  1
  S  S17  1  0.270190  0.999790  0.121138  1
  S  S18  1  0.009158  0.736755  0.886257  1
  S  S19  1  0.736755  0.009158  0.886257  1
  S  S20  1  0.197933  0.197933  0.424072  1
  S  S21  1  0.798928  0.798928  0.566549  1
  S  S22  1  0.063964  0.063964  0.819854  1
  S  S23  1  0.942367  0.942367  0.183739  1
  S  S24  1  0.328574  0.328574  0.070918  1
  S  S25  1  0.663572  0.663572  0.927811  1
  S  S26  1  0.257688  0.521713  0.385048  1
  S  S27  1  0.521713  0.257688  0.385048  1
  S  S28  1  0.746571  0.458031  0.607572  1
  S  S29  1  0.458031  0.746571  0.607572  1
