# generated using pymatgen
data_Ba6Sn8PI
_symmetry_space_group_name_H-M   'P 1'
_cell_length_a   9.25166894
_cell_length_b   9.25166784
_cell_length_c   9.36366696
_cell_angle_alpha   119.60512419
_cell_angle_beta   119.60511538
_cell_angle_gamma   90.00000374
_symmetry_Int_Tables_number   1
_chemical_formula_structural   Ba6Sn8PI
_chemical_formula_sum   'Ba6 Sn8 P1 I1'
_cell_volume   573.42167716
_cell_formula_units_Z   1
loop_
 _symmetry_equiv_pos_site_id
 _symmetry_equiv_pos_as_xyz
  1  'x, y, z'
loop_
 _atom_site_type_symbol
 _atom_site_label
 _atom_site_symmetry_multiplicity
 _atom_site_fract_x
 _atom_site_fract_y
 _atom_site_fract_z
 _atom_site_occupancy
  Ba  Ba0  1  0.267401  0.267401  0.534802  1
  Ba  Ba1  1  0.732599  0.732599  0.465198  1
  Ba  Ba2  1  0.649252  0.185284  0.000000  1
  Ba  Ba3  1  0.350748  0.814716  0.000000  1
  Ba  Ba4  1  0.814716  0.649252  0.000000  1
  Ba  Ba5  1  0.185284  0.350748  0.000000  1
  Sn  Sn6  1  0.332230  0.835900  0.388152  1
  Sn  Sn7  1  0.667770  0.164100  0.611848  1
  Sn  Sn8  1  0.055923  0.552253  0.388152  1
  Sn  Sn9  1  0.552253  0.332230  0.388152  1
  Sn  Sn10  1  0.164100  0.944077  0.611848  1
  Sn  Sn11  1  0.944077  0.447747  0.611848  1
  Sn  Sn12  1  0.447747  0.667770  0.611848  1
  Sn  Sn13  1  0.835900  0.055923  0.388152  1
  P  P14  1  0.500000  0.500000  0.000000  1
  I  I15  1  0.000000  0.000000  0.000000  1
