# generated using pymatgen
data_Th2Re2TcB6
_symmetry_space_group_name_H-M   'P 1'
_cell_length_a   6.35801164
_cell_length_b   6.35801117
_cell_length_c   7.65303705
_cell_angle_alpha   90.85084129
_cell_angle_beta   90.85084445
_cell_angle_gamma   114.99361658
_symmetry_Int_Tables_number   1
_chemical_formula_structural   Th2Re2TcB6
_chemical_formula_sum   'Th4 Re4 Tc2 B12'
_cell_volume   280.29077054
_cell_formula_units_Z   2
loop_
 _symmetry_equiv_pos_site_id
 _symmetry_equiv_pos_as_xyz
  1  'x, y, z'
loop_
 _atom_site_type_symbol
 _atom_site_label
 _atom_site_symmetry_multiplicity
 _atom_site_fract_x
 _atom_site_fract_y
 _atom_site_fract_z
 _atom_site_occupancy
  Th  Th0  1  0.096119  0.440654  0.326380  1
  Th  Th1  1  0.559346  0.903881  0.173620  1
  Th  Th2  1  0.903881  0.559346  0.673620  1
  Th  Th3  1  0.440654  0.096119  0.826380  1
  Re  Re4  1  0.992153  0.805331  0.086556  1
  Re  Re5  1  0.194669  0.007847  0.413444  1
  Re  Re6  1  0.007847  0.194669  0.913444  1
  Re  Re7  1  0.805331  0.992153  0.586556  1
  Tc  Tc8  1  0.588546  0.411454  0.250000  1
  Tc  Tc9  1  0.411454  0.588546  0.750000  1
  B  B10  1  0.245562  0.154688  0.133741  1
  B  B11  1  0.845312  0.754438  0.366259  1
  B  B12  1  0.754438  0.845312  0.866259  1
  B  B13  1  0.154688  0.245562  0.633741  1
  B  B14  1  0.583502  0.160591  0.482314  1
  B  B15  1  0.839409  0.416498  0.017686  1
  B  B16  1  0.416498  0.839409  0.517686  1
  B  B17  1  0.160591  0.583502  0.982314  1
  B  B18  1  0.443803  0.349685  0.533381  1
  B  B19  1  0.650315  0.556197  0.966619  1
  B  B20  1  0.556197  0.650315  0.466619  1
  B  B21  1  0.349685  0.443803  0.033381  1
