# generated using pymatgen
data_Yb2YAl3CuGe2
_symmetry_space_group_name_H-M   'P 1'
_cell_length_a   7.01245797
_cell_length_b   7.01245742
_cell_length_c   4.25761100
_cell_angle_alpha   90.00000000
_cell_angle_beta   90.00000000
_cell_angle_gamma   120.88585384
_symmetry_Int_Tables_number   1
_chemical_formula_structural   Yb2YAl3CuGe2
_chemical_formula_sum   'Yb2 Y1 Al3 Cu1 Ge2'
_cell_volume   179.67629487
_cell_formula_units_Z   1
loop_
 _symmetry_equiv_pos_site_id
 _symmetry_equiv_pos_as_xyz
  1  'x, y, z'
loop_
 _atom_site_type_symbol
 _atom_site_label
 _atom_site_symmetry_multiplicity
 _atom_site_fract_x
 _atom_site_fract_y
 _atom_site_fract_z
 _atom_site_occupancy
  Yb  Yb0  1  0.411575  0.998329  0.000000  1
  Yb  Yb1  1  0.998329  0.411575  0.000000  1
  Y  Y2  1  0.586982  0.586982  0.000000  1
  Al  Al3  1  0.765065  0.989453  0.500001  1
  Al  Al4  1  0.238504  0.238505  0.500001  1
  Al  Al5  1  0.989453  0.765065  0.500001  1
  Cu  Cu6  1  0.006473  0.006473  0.000000  1
  Ge  Ge7  1  0.667046  0.336573  0.500001  1
  Ge  Ge8  1  0.336573  0.667047  0.500001  1
