# generated using pymatgen
data_La2CeCoNi
_symmetry_space_group_name_H-M   'P 1'
_cell_length_a   6.21470872
_cell_length_b   6.21470877
_cell_length_c   6.21470889
_cell_angle_alpha   144.92062525
_cell_angle_beta   119.24348843
_cell_angle_gamma   72.12877918
_symmetry_Int_Tables_number   1
_chemical_formula_structural   La2CeCoNi
_chemical_formula_sum   'La2 Ce1 Co1 Ni1'
_cell_volume   118.28186495
_cell_formula_units_Z   1
loop_
 _symmetry_equiv_pos_site_id
 _symmetry_equiv_pos_as_xyz
  1  'x, y, z'
loop_
 _atom_site_type_symbol
 _atom_site_label
 _atom_site_symmetry_multiplicity
 _atom_site_fract_x
 _atom_site_fract_y
 _atom_site_fract_z
 _atom_site_occupancy
  La  La0  1  0.694866  0.191135  0.503730  1
  La  La1  1  0.312596  0.808864  0.503730  1
  Ce  Ce2  1  0.016620  0.000000  0.016620  1
  Co  Co3  1  0.274954  0.499999  0.774953  1
  Ni  Ni4  1  0.700964  0.500000  0.200964  1
