# generated using pymatgen
data_Lu6Co18Si5P7
_symmetry_space_group_name_H-M   'P 1'
_cell_length_a   10.48271000
_cell_length_b   3.69082600
_cell_length_c   12.13507200
_cell_angle_alpha   90.00000000
_cell_angle_beta   90.00000000
_cell_angle_gamma   90.00000000
_symmetry_Int_Tables_number   1
_chemical_formula_structural   Lu6Co18Si5P7
_chemical_formula_sum   'Lu6 Co18 Si5 P7'
_cell_volume   469.50422000
_cell_formula_units_Z   1
loop_
 _symmetry_equiv_pos_site_id
 _symmetry_equiv_pos_as_xyz
  1  'x, y, z'
loop_
 _atom_site_type_symbol
 _atom_site_label
 _atom_site_symmetry_multiplicity
 _atom_site_fract_x
 _atom_site_fract_y
 _atom_site_fract_z
 _atom_site_occupancy
  Lu  Lu0  1  0.066285  0.750001  0.207299  1
  Lu  Lu1  1  0.433715  0.750001  0.207299  1
  Lu  Lu2  1  0.250000  0.750001  0.475265  1
  Lu  Lu3  1  0.750000  0.250001  0.528691  1
  Lu  Lu4  1  0.566621  0.250001  0.793440  1
  Lu  Lu5  1  0.933379  0.250001  0.793440  1
  Co  Co6  1  0.080762  0.250001  0.003094  1
  Co  Co7  1  0.419238  0.250001  0.003094  1
  Co  Co8  1  0.250000  0.750001  0.010414  1
  Co  Co9  1  0.750000  0.750001  0.156771  1
  Co  Co10  1  0.628595  0.250001  0.296104  1
  Co  Co11  1  0.871406  0.250001  0.296104  1
  Co  Co12  1  0.250000  0.250001  0.303094  1
  Co  Co13  1  0.544386  0.750001  0.433575  1
  Co  Co14  1  0.955614  0.750001  0.433575  1
  Co  Co15  1  0.044848  0.250001  0.568579  1
  Co  Co16  1  0.455152  0.250001  0.568579  1
  Co  Co17  1  0.750000  0.750001  0.699007  1
  Co  Co18  1  0.127162  0.750001  0.710703  1
  Co  Co19  1  0.372838  0.750001  0.710703  1
  Co  Co20  1  0.250000  0.250001  0.845652  1
  Co  Co21  1  0.750000  0.250001  0.974288  1
  Co  Co22  1  0.584165  0.750001  0.988787  1
  Co  Co23  1  0.915836  0.750001  0.988787  1
  Si  Si24  1  0.604742  0.250001  0.107443  1
  Si  Si25  1  0.895258  0.250001  0.107443  1
  Si  Si26  1  0.250000  0.250001  0.118137  1
  Si  Si27  1  0.750000  0.750001  0.345455  1
  Si  Si28  1  0.250000  0.250001  0.657078  1
  P  P29  1  0.060695  0.250001  0.383744  1
  P  P30  1  0.439305  0.250001  0.383744  1
  P  P31  1  0.559935  0.750001  0.618112  1
  P  P32  1  0.940064  0.750001  0.618112  1
  P  P33  1  0.750000  0.750001  0.877717  1
  P  P34  1  0.095962  0.750001  0.893338  1
  P  P35  1  0.404038  0.750001  0.893338  1
