# generated using pymatgen
data_Y8AlPd7Pt17
_symmetry_space_group_name_H-M   'P 1'
_cell_length_a   8.36637800
_cell_length_b   8.39370500
_cell_length_c   8.36930200
_cell_angle_alpha   90.00000000
_cell_angle_beta   90.00000000
_cell_angle_gamma   90.00000000
_symmetry_Int_Tables_number   1
_chemical_formula_structural   Y8AlPd7Pt17
_chemical_formula_sum   'Y8 Al1 Pd7 Pt17'
_cell_volume   587.73347009
_cell_formula_units_Z   1
loop_
 _symmetry_equiv_pos_site_id
 _symmetry_equiv_pos_as_xyz
  1  'x, y, z'
loop_
 _atom_site_type_symbol
 _atom_site_label
 _atom_site_symmetry_multiplicity
 _atom_site_fract_x
 _atom_site_fract_y
 _atom_site_fract_z
 _atom_site_occupancy
  Y  Y0  1  0.251499  0.251213  0.251074  1
  Y  Y1  1  0.748699  0.748853  0.749036  1
  Y  Y2  1  0.748699  0.748853  0.250964  1
  Y  Y3  1  0.748699  0.251147  0.749036  1
  Y  Y4  1  0.251499  0.251213  0.748926  1
  Y  Y5  1  0.251499  0.748787  0.251074  1
  Y  Y6  1  0.251499  0.748787  0.748926  1
  Y  Y7  1  0.748699  0.251147  0.250964  1
  Al  Al8  1  0.000299  0.000000  0.000000  1
  Pd  Pd9  1  0.747118  0.500000  0.500000  1
  Pd  Pd10  1  0.499708  0.253256  0.500000  1
  Pd  Pd11  1  0.499708  0.746744  0.500000  1
  Pd  Pd12  1  0.499799  0.500000  0.253443  1
  Pd  Pd13  1  0.499799  0.500000  0.746557  1
  Pd  Pd14  1  0.999799  0.000000  0.292926  1
  Pd  Pd15  1  0.999799  0.000000  0.707074  1
  Pt  Pt16  1  0.261281  0.500000  0.000000  1
  Pt  Pt17  1  0.738630  0.500000  0.000000  1
  Pt  Pt18  1  0.000105  0.260124  0.500000  1
  Pt  Pt19  1  0.500145  0.261113  0.000000  1
  Pt  Pt20  1  0.000105  0.739876  0.500000  1
  Pt  Pt21  1  0.500145  0.738887  0.000000  1
  Pt  Pt22  1  0.500190  0.000000  0.262230  1
  Pt  Pt23  1  0.260412  0.000000  0.500000  1
  Pt  Pt24  1  0.500190  0.000000  0.737770  1
  Pt  Pt25  1  0.739370  0.000000  0.500000  1
  Pt  Pt26  1  0.000018  0.500000  0.261679  1
  Pt  Pt27  1  0.000018  0.500000  0.738321  1
  Pt  Pt28  1  0.252844  0.500000  0.500000  1
  Pt  Pt29  1  0.293201  0.000000  0.000000  1
  Pt  Pt30  1  0.707016  0.000000  0.000000  1
  Pt  Pt31  1  0.999754  0.292451  0.000000  1
  Pt  Pt32  1  0.999754  0.707549  0.000000  1
