# generated using pymatgen
data_Er8Ga3Rh
_symmetry_space_group_name_H-M   'P 1'
_cell_length_a   9.98961200
_cell_length_b   9.98961357
_cell_length_c   6.92121700
_cell_angle_alpha   90.00000000
_cell_angle_beta   90.00000000
_cell_angle_gamma   120.00000143
_symmetry_Int_Tables_number   1
_chemical_formula_structural   Er8Ga3Rh
_chemical_formula_sum   'Er16 Ga6 Rh2'
_cell_volume   598.15040384
_cell_formula_units_Z   2
loop_
 _symmetry_equiv_pos_site_id
 _symmetry_equiv_pos_as_xyz
  1  'x, y, z'
loop_
 _atom_site_type_symbol
 _atom_site_label
 _atom_site_symmetry_multiplicity
 _atom_site_fract_x
 _atom_site_fract_y
 _atom_site_fract_z
 _atom_site_occupancy
  Er  Er0  1  0.000000  0.000000  0.268064  1
  Er  Er1  1  0.000000  0.000000  0.768064  1
  Er  Er2  1  0.171078  0.828922  0.990648  1
  Er  Er3  1  0.828922  0.171078  0.490648  1
  Er  Er4  1  0.171078  0.342156  0.990648  1
  Er  Er5  1  0.657844  0.828922  0.990648  1
  Er  Er6  1  0.342156  0.171078  0.490648  1
  Er  Er7  1  0.828922  0.657844  0.490648  1
  Er  Er8  1  0.333333  0.666667  0.664835  1
  Er  Er9  1  0.666667  0.333333  0.164835  1
  Er  Er10  1  0.465809  0.534191  0.295942  1
  Er  Er11  1  0.534191  0.465809  0.795942  1
  Er  Er12  1  0.465809  0.931619  0.295942  1
  Er  Er13  1  0.068381  0.534191  0.295942  1
  Er  Er14  1  0.931619  0.465809  0.795942  1
  Er  Er15  1  0.534191  0.068381  0.795942  1
  Ga  Ga16  1  0.163377  0.836623  0.541255  1
  Ga  Ga17  1  0.836623  0.163377  0.041255  1
  Ga  Ga18  1  0.163377  0.326754  0.541255  1
  Ga  Ga19  1  0.673246  0.836623  0.541255  1
  Ga  Ga20  1  0.326754  0.163377  0.041255  1
  Ga  Ga21  1  0.836623  0.673246  0.041255  1
  Rh  Rh22  1  0.333333  0.666667  0.056624  1
  Rh  Rh23  1  0.666667  0.333333  0.556624  1
