# generated using pymatgen
data_GdHoSi2O7
_symmetry_space_group_name_H-M   'P 1'
_cell_length_a   5.72763772
_cell_length_b   5.72763689
_cell_length_c   4.78485200
_cell_angle_alpha   82.87526876
_cell_angle_beta   82.87525921
_cell_angle_gamma   105.27460657
_symmetry_Int_Tables_number   1
_chemical_formula_structural   GdHoSi2O7
_chemical_formula_sum   'Gd1 Ho1 Si2 O7'
_cell_volume   148.22955864
_cell_formula_units_Z   1
loop_
 _symmetry_equiv_pos_site_id
 _symmetry_equiv_pos_as_xyz
  1  'x, y, z'
loop_
 _atom_site_type_symbol
 _atom_site_label
 _atom_site_symmetry_multiplicity
 _atom_site_fract_x
 _atom_site_fract_y
 _atom_site_fract_z
 _atom_site_occupancy
  Gd  Gd0  1  0.303378  0.696622  0.500000  1
  Ho  Ho1  1  0.689693  0.310307  0.500000  1
  Si  Si2  1  0.217287  0.215873  0.087818  1
  Si  Si3  1  0.784127  0.782713  0.912182  1
  O  O4  1  0.377446  0.380702  0.786547  1
  O  O5  1  0.619298  0.622554  0.213453  1
  O  O6  1  0.017744  0.982256  0.000000  1
  O  O7  1  0.075560  0.376691  0.273551  1
  O  O8  1  0.388539  0.096379  0.282565  1
  O  O9  1  0.903621  0.611461  0.717435  1
  O  O10  1  0.623309  0.924440  0.726449  1
