# generated using pymatgen
data_Ca2YbHoPd4
_symmetry_space_group_name_H-M   'P 1'
_cell_length_a   4.42613700
_cell_length_b   5.74417651
_cell_length_c   7.31744200
_cell_angle_alpha   90.06334861
_cell_angle_beta   90.00000000
_cell_angle_gamma   90.00000000
_symmetry_Int_Tables_number   1
_chemical_formula_structural   Ca2YbHoPd4
_chemical_formula_sum   'Ca2 Yb1 Ho1 Pd4'
_cell_volume   186.04227961
_cell_formula_units_Z   1
loop_
 _symmetry_equiv_pos_site_id
 _symmetry_equiv_pos_as_xyz
  1  'x, y, z'
loop_
 _atom_site_type_symbol
 _atom_site_label
 _atom_site_symmetry_multiplicity
 _atom_site_fract_x
 _atom_site_fract_y
 _atom_site_fract_z
 _atom_site_occupancy
  Ca  Ca0  1  0.250000  0.138109  0.184089  1
  Ca  Ca1  1  0.750000  0.640125  0.316347  1
  Yb  Yb2  1  0.250000  0.359821  0.681559  1
  Ho  Ho3  1  0.750000  0.864356  0.817592  1
  Pd  Pd4  1  0.250000  0.855187  0.560249  1
  Pd  Pd5  1  0.250000  0.650809  0.012755  1
  Pd  Pd6  1  0.750000  0.142357  0.478320  1
  Pd  Pd7  1  0.750000  0.349236  0.949091  1
