# generated using pymatgen
data_Sr12Y5Ho3Ti6(GeO8)6
_symmetry_space_group_name_H-M   'P 1'
_cell_length_a   11.47371699
_cell_length_b   11.47795222
_cell_length_c   11.47795100
_cell_angle_alpha   109.47869642
_cell_angle_beta   109.46374559
_cell_angle_gamma   109.46374329
_symmetry_Int_Tables_number   1
_chemical_formula_structural   Sr12Y5Ho3Ti6(GeO8)6
_chemical_formula_sum   'Sr12 Y5 Ho3 Ti6 Ge6 O48'
_cell_volume   1163.72691949
_cell_formula_units_Z   1
loop_
 _symmetry_equiv_pos_site_id
 _symmetry_equiv_pos_as_xyz
  1  'x, y, z'
loop_
 _atom_site_type_symbol
 _atom_site_label
 _atom_site_symmetry_multiplicity
 _atom_site_fract_x
 _atom_site_fract_y
 _atom_site_fract_z
 _atom_site_occupancy
  Sr  Sr0  1  0.750192  0.125663  0.375200  1
  Sr  Sr1  1  0.250141  0.374842  0.124860  1
  Sr  Sr2  1  0.125066  0.250422  0.374725  1
  Sr  Sr3  1  0.375566  0.750618  0.125457  1
  Sr  Sr4  1  0.749893  0.624610  0.874743  1
  Sr  Sr5  1  0.124975  0.375288  0.749749  1
  Sr  Sr6  1  0.624803  0.874756  0.749998  1
  Sr  Sr7  1  0.249674  0.874781  0.625229  1
  Sr  Sr8  1  0.873968  0.623627  0.250230  1
  Sr  Sr9  1  0.624974  0.249529  0.875097  1
  Sr  Sr10  1  0.874509  0.749563  0.624710  1
  Sr  Sr11  1  0.376254  0.126277  0.249986  1
  Y  Y12  1  0.500410  0.001387  0.000680  1
  Y  Y13  1  0.999243  0.498615  0.999003  1
  Y  Y14  1  0.500287  0.499613  0.000998  1
  Y  Y15  1  0.500725  0.499728  0.499332  1
  Y  Y16  1  0.999624  0.000258  0.501009  1
  Ho  Ho17  1  0.999671  0.000685  0.999321  1
  Ho  Ho18  1  0.998627  0.499353  0.499003  1
  Ho  Ho19  1  0.501370  0.000368  0.500691  1
  Ti  Ti20  1  0.125306  0.875314  0.249980  1
  Ti  Ti21  1  0.874724  0.124705  0.750013  1
  Ti  Ti22  1  0.249960  0.625063  0.375422  1
  Ti  Ti23  1  0.375452  0.250000  0.624952  1
  Ti  Ti24  1  0.750072  0.875131  0.124769  1
  Ti  Ti25  1  0.124842  0.750009  0.874428  1
  Ge  Ge26  1  0.374335  0.624804  0.749581  1
  Ge  Ge27  1  0.624718  0.750121  0.375180  1
  Ge  Ge28  1  0.875130  0.250041  0.125468  1
  Ge  Ge29  1  0.249839  0.124993  0.875349  1
  Ge  Ge30  1  0.750041  0.374715  0.624459  1
  Ge  Ge31  1  0.625614  0.375158  0.250379  1
  O  O32  1  0.409177  0.802210  0.790067  1
  O  O33  1  0.880646  0.392540  0.090915  1
  O  O34  1  0.106903  0.987877  0.698795  1
  O  O35  1  0.511542  0.618908  0.709620  1
  O  O36  1  0.693298  0.089164  0.710767  1
  O  O37  1  0.619448  0.710681  0.512661  1
  O  O38  1  0.619851  0.408966  0.107525  1
  O  O39  1  0.710496  0.512297  0.619769  1
  O  O40  1  0.802558  0.511938  0.393117  1
  O  O41  1  0.983539  0.790175  0.879438  1
  O  O42  1  0.790173  0.879050  0.983134  1
  O  O43  1  0.711355  0.693944  0.089660  1
  O  O44  1  0.410532  0.103764  0.620356  1
  O  O45  1  0.395577  0.806816  0.516557  1
  O  O46  1  0.087762  0.709383  0.692023  1
  O  O47  1  0.103883  0.620936  0.411048  1
  O  O48  1  0.517868  0.395374  0.806937  1
  O  O49  1  0.089402  0.878532  0.395652  1
  O  O50  1  0.982941  0.693715  0.104347  1
  O  O51  1  0.196799  0.488475  0.606821  1
  O  O52  1  0.698285  0.107115  0.987873  1
  O  O53  1  0.789468  0.408211  0.801024  1
  O  O54  1  0.392463  0.090689  0.880228  1
  O  O55  1  0.878582  0.982709  0.789335  1
  O  O56  1  0.591412  0.198413  0.210991  1
  O  O57  1  0.121426  0.604595  0.910411  1
  O  O58  1  0.896024  0.017131  0.305796  1
  O  O59  1  0.488008  0.380604  0.289298  1
  O  O60  1  0.307365  0.911544  0.290403  1
  O  O61  1  0.378521  0.288585  0.482280  1
  O  O62  1  0.380624  0.590448  0.892503  1
  O  O63  1  0.289245  0.482334  0.377898  1
  O  O64  1  0.120971  0.016781  0.209501  1
  O  O65  1  0.604469  0.911326  0.122107  1
  O  O66  1  0.211017  0.590165  0.194436  1
  O  O67  1  0.194276  0.211133  0.589621  1
  O  O68  1  0.306036  0.895917  0.017209  1
  O  O69  1  0.017600  0.305640  0.895713  1
  O  O70  1  0.909896  0.121938  0.604298  1
  O  O71  1  0.487440  0.607677  0.198092  1
  O  O72  1  0.893018  0.381080  0.590173  1
  O  O73  1  0.910235  0.290922  0.302864  1
  O  O74  1  0.607400  0.197379  0.488442  1
  O  O75  1  0.591086  0.893245  0.381779  1
  O  O76  1  0.289431  0.301821  0.909128  1
  O  O77  1  0.209034  0.118862  0.011816  1
  O  O78  1  0.011394  0.209327  0.118476  1
  O  O79  1  0.801520  0.789630  0.409095  1
