# generated using pymatgen
data_Dy4Lu8In2Fe2Tc
_symmetry_space_group_name_H-M   'P 1'
_cell_length_a   8.26178399
_cell_length_b   8.26178458
_cell_length_c   8.26178426
_cell_angle_alpha   108.79338889
_cell_angle_beta   108.79338244
_cell_angle_gamma   110.83555937
_symmetry_Int_Tables_number   1
_chemical_formula_structural   Dy4Lu8In2Fe2Tc
_chemical_formula_sum   'Dy4 Lu8 In2 Fe2 Tc1'
_cell_volume   433.92479441
_cell_formula_units_Z   1
loop_
 _symmetry_equiv_pos_site_id
 _symmetry_equiv_pos_as_xyz
  1  'x, y, z'
loop_
 _atom_site_type_symbol
 _atom_site_label
 _atom_site_symmetry_multiplicity
 _atom_site_fract_x
 _atom_site_fract_y
 _atom_site_fract_z
 _atom_site_occupancy
  Dy  Dy0  1  0.306149  0.306149  0.612299  1
  Dy  Dy1  1  0.693851  0.693851  0.387701  1
  Dy  Dy2  1  0.693851  0.306149  0.000000  1
  Dy  Dy3  1  0.306149  0.693851  0.000000  1
  Lu  Lu4  1  0.191707  0.429402  0.237695  1
  Lu  Lu5  1  0.808293  0.570598  0.762305  1
  Lu  Lu6  1  0.191707  0.954011  0.762305  1
  Lu  Lu7  1  0.954011  0.191707  0.762305  1
  Lu  Lu8  1  0.808293  0.045989  0.237695  1
  Lu  Lu9  1  0.045989  0.808293  0.237695  1
  Lu  Lu10  1  0.429402  0.191707  0.237695  1
  Lu  Lu11  1  0.570598  0.808293  0.762305  1
  In  In12  1  0.000000  0.500000  0.500000  1
  In  In13  1  0.500000  0.000000  0.500000  1
  Fe  Fe14  1  0.382292  0.382292  0.000000  1
  Fe  Fe15  1  0.617708  0.617708  0.000000  1
  Tc  Tc16  1  0.000000  0.000000  0.000000  1
