# generated using pymatgen
data_Pr3NdGa18(Ru2Rh)2
_symmetry_space_group_name_H-M   'P 1'
_cell_length_a   7.59937742
_cell_length_b   7.59714070
_cell_length_c   9.81728100
_cell_angle_alpha   90.00000000
_cell_angle_beta   90.00000000
_cell_angle_gamma   119.51544608
_symmetry_Int_Tables_number   1
_chemical_formula_structural   Pr3NdGa18(Ru2Rh)2
_chemical_formula_sum   'Pr3 Nd1 Ga18 Ru4 Rh2'
_cell_volume   493.23049563
_cell_formula_units_Z   1
loop_
 _symmetry_equiv_pos_site_id
 _symmetry_equiv_pos_as_xyz
  1  'x, y, z'
loop_
 _atom_site_type_symbol
 _atom_site_label
 _atom_site_symmetry_multiplicity
 _atom_site_fract_x
 _atom_site_fract_y
 _atom_site_fract_z
 _atom_site_occupancy
  Pr  Pr0  1  0.996761  0.668811  0.250000  1
  Pr  Pr1  1  0.003420  0.331235  0.750000  1
  Pr  Pr2  1  0.668704  0.996702  0.250000  1
  Nd  Nd3  1  0.331217  0.003023  0.750000  1
  Ga  Ga4  1  0.132349  0.132273  0.250000  1
  Ga  Ga5  1  0.868394  0.867800  0.750000  1
  Ga  Ga6  1  0.006375  0.336466  0.073164  1
  Ga  Ga7  1  0.993967  0.664022  0.926394  1
  Ga  Ga8  1  0.993967  0.664022  0.573606  1
  Ga  Ga9  1  0.336485  0.006392  0.427422  1
  Ga  Ga10  1  0.006375  0.336466  0.426836  1
  Ga  Ga11  1  0.663026  0.993771  0.573624  1
  Ga  Ga12  1  0.663026  0.993771  0.926376  1
  Ga  Ga13  1  0.336485  0.006392  0.072578  1
  Ga  Ga14  1  0.339982  0.339448  0.557075  1
  Ga  Ga15  1  0.660059  0.659993  0.443699  1
  Ga  Ga16  1  0.660059  0.659993  0.056301  1
  Ga  Ga17  1  0.339982  0.339448  0.942925  1
  Ga  Ga18  1  0.336037  0.545628  0.250000  1
  Ga  Ga19  1  0.663232  0.453506  0.750000  1
  Ga  Ga20  1  0.545631  0.335943  0.250000  1
  Ga  Ga21  1  0.454456  0.664701  0.750000  1
  Ru  Ru22  1  0.673045  0.326920  0.999852  1
  Ru  Ru23  1  0.326908  0.673086  0.999812  1
  Ru  Ru24  1  0.326908  0.673086  0.500188  1
  Ru  Ru25  1  0.673045  0.326920  0.500148  1
  Rh  Rh26  1  0.000053  0.000091  0.999802  1
  Rh  Rh27  1  0.000053  0.000091  0.500198  1
