# generated using pymatgen
data_TaV2MoBr20
_symmetry_space_group_name_H-M   'P 1'
_cell_length_a   7.82258380
_cell_length_b   8.09434138
_cell_length_c   15.09709973
_cell_angle_alpha   90.56979014
_cell_angle_beta   91.36146816
_cell_angle_gamma   106.59867862
_symmetry_Int_Tables_number   1
_chemical_formula_structural   TaV2MoBr20
_chemical_formula_sum   'Ta1 V2 Mo1 Br20'
_cell_volume   915.69555648
_cell_formula_units_Z   1
loop_
 _symmetry_equiv_pos_site_id
 _symmetry_equiv_pos_as_xyz
  1  'x, y, z'
loop_
 _atom_site_type_symbol
 _atom_site_label
 _atom_site_symmetry_multiplicity
 _atom_site_fract_x
 _atom_site_fract_y
 _atom_site_fract_z
 _atom_site_occupancy
  Ta  Ta0  1  0.000000  0.000000  0.000000  1
  V  V1  1  0.383632  0.591842  0.761371  1
  V  V2  1  0.616368  0.408158  0.238629  1
  Mo  Mo3  1  0.000000  0.000000  0.500000  1
  Br  Br4  1  0.294986  0.078765  0.921931  1
  Br  Br5  1  0.705014  0.921235  0.078069  1
  Br  Br6  1  0.110193  0.269220  0.097533  1
  Br  Br7  1  0.889807  0.730780  0.902467  1
  Br  Br8  1  0.124780  0.828916  0.111535  1
  Br  Br9  1  0.875220  0.171084  0.888465  1
  Br  Br10  1  0.223393  0.286752  0.478815  1
  Br  Br11  1  0.776607  0.713248  0.521185  1
  Br  Br12  1  0.227310  0.850969  0.458366  1
  Br  Br13  1  0.772690  0.149031  0.541634  1
  Br  Br14  1  0.097280  0.004748  0.658113  1
  Br  Br15  1  0.902720  0.995252  0.341887  1
  Br  Br16  1  0.664036  0.410221  0.092669  1
  Br  Br17  1  0.335964  0.589779  0.907331  1
  Br  Br18  1  0.883162  0.484074  0.311929  1
  Br  Br19  1  0.116838  0.515926  0.688071  1
  Br  Br20  1  0.461049  0.143126  0.281551  1
  Br  Br21  1  0.538951  0.856874  0.718449  1
  Br  Br22  1  0.468185  0.600355  0.274944  1
  Br  Br23  1  0.531815  0.399645  0.725056  1
