# generated using pymatgen
data_SrFe2(AsO4)2
_symmetry_space_group_name_H-M   'P 1'
_cell_length_a   5.82072681
_cell_length_b   7.10136880
_cell_length_c   9.64985193
_cell_angle_alpha   110.44466657
_cell_angle_beta   101.14942242
_cell_angle_gamma   99.15501051
_symmetry_Int_Tables_number   1
_chemical_formula_structural   SrFe2(AsO4)2
_chemical_formula_sum   'Sr2 Fe4 As4 O16'
_cell_volume   355.37942390
_cell_formula_units_Z   2
loop_
 _symmetry_equiv_pos_site_id
 _symmetry_equiv_pos_as_xyz
  1  'x, y, z'
loop_
 _atom_site_type_symbol
 _atom_site_label
 _atom_site_symmetry_multiplicity
 _atom_site_fract_x
 _atom_site_fract_y
 _atom_site_fract_z
 _atom_site_occupancy
  Sr  Sr0  1  0.250604  0.203083  0.446850  1
  Sr  Sr1  1  0.749318  0.796678  0.553092  1
  Fe  Fe2  1  0.137543  0.853540  0.056423  1
  Fe  Fe3  1  0.507586  0.596847  0.847169  1
  Fe  Fe4  1  0.862699  0.146103  0.943472  1
  Fe  Fe5  1  0.492145  0.403100  0.152877  1
  As  As6  1  0.338907  0.022325  0.796567  1
  As  As7  1  0.661432  0.977800  0.203504  1
  As  As8  1  0.890994  0.418208  0.733570  1
  As  As9  1  0.108808  0.581787  0.266361  1
  O  O10  1  0.872384  0.594200  0.907700  1
  O  O11  1  0.127801  0.406107  0.092230  1
  O  O12  1  0.502135  0.273677  0.921846  1
  O  O13  1  0.497782  0.726699  0.078106  1
  O  O14  1  0.102657  0.939963  0.864363  1
  O  O15  1  0.897692  0.060200  0.135633  1
  O  O16  1  0.553933  0.877411  0.805509  1
  O  O17  1  0.446271  0.122587  0.194686  1
  O  O18  1  0.831874  0.175161  0.734422  1
  O  O19  1  0.167748  0.824928  0.265738  1
  O  O20  1  0.168052  0.471285  0.697398  1
  O  O21  1  0.831722  0.528584  0.302523  1
  O  O22  1  0.224793  0.987074  0.611454  1
  O  O23  1  0.775399  0.012753  0.388548  1
  O  O24  1  0.660048  0.451351  0.610534  1
  O  O25  1  0.339673  0.548554  0.389429  1
