# generated using pymatgen
data_Li4Tb3GdPt4
_symmetry_space_group_name_H-M   'P 1'
_cell_length_a   4.10605300
_cell_length_b   7.24790959
_cell_length_c   8.60940900
_cell_angle_alpha   90.16091735
_cell_angle_beta   90.00000000
_cell_angle_gamma   90.00000000
_symmetry_Int_Tables_number   1
_chemical_formula_structural   Li4Tb3GdPt4
_chemical_formula_sum   'Li4 Tb3 Gd1 Pt4'
_cell_volume   256.21759187
_cell_formula_units_Z   1
loop_
 _symmetry_equiv_pos_site_id
 _symmetry_equiv_pos_as_xyz
  1  'x, y, z'
loop_
 _atom_site_type_symbol
 _atom_site_label
 _atom_site_symmetry_multiplicity
 _atom_site_fract_x
 _atom_site_fract_y
 _atom_site_fract_z
 _atom_site_occupancy
  Li  Li0  1  0.250000  0.629316  0.558001  1
  Li  Li1  1  0.250000  0.128133  0.941784  1
  Li  Li2  1  0.750000  0.371977  0.440588  1
  Li  Li3  1  0.750000  0.871941  0.059205  1
  Tb  Tb4  1  0.250000  0.043972  0.320522  1
  Tb  Tb5  1  0.250000  0.544499  0.180463  1
  Tb  Tb6  1  0.750000  0.954465  0.677665  1
  Gd  Gd7  1  0.750000  0.456780  0.820080  1
  Pt  Pt8  1  0.250000  0.240032  0.624699  1
  Pt  Pt9  1  0.250000  0.745649  0.875122  1
  Pt  Pt10  1  0.750000  0.756815  0.373584  1
  Pt  Pt11  1  0.750000  0.256424  0.128285  1
