# generated using pymatgen
data_NdTm19(NiSb5)2
_symmetry_space_group_name_H-M   'P 1'
_cell_length_a   7.88885463
_cell_length_b   9.11795700
_cell_length_c   11.80405788
_cell_angle_alpha   90.00000000
_cell_angle_beta   90.14842567
_cell_angle_gamma   90.00000000
_symmetry_Int_Tables_number   1
_chemical_formula_structural   NdTm19(NiSb5)2
_chemical_formula_sum   'Nd1 Tm19 Ni2 Sb10'
_cell_volume   849.06583564
_cell_formula_units_Z   1
loop_
 _symmetry_equiv_pos_site_id
 _symmetry_equiv_pos_as_xyz
  1  'x, y, z'
loop_
 _atom_site_type_symbol
 _atom_site_label
 _atom_site_symmetry_multiplicity
 _atom_site_fract_x
 _atom_site_fract_y
 _atom_site_fract_z
 _atom_site_occupancy
  Nd  Nd0  1  0.575573  0.500000  0.774624  1
  Tm  Tm1  1  0.433551  0.182023  0.564636  1
  Tm  Tm2  1  0.566101  0.817319  0.064381  1
  Tm  Tm3  1  0.068390  0.721701  0.434160  1
  Tm  Tm4  1  0.930453  0.278922  0.934524  1
  Tm  Tm5  1  0.068390  0.278299  0.434160  1
  Tm  Tm6  1  0.930453  0.721078  0.934524  1
  Tm  Tm7  1  0.433551  0.817977  0.564636  1
  Tm  Tm8  1  0.566101  0.182681  0.064381  1
  Tm  Tm9  1  0.427128  0.500000  0.273459  1
  Tm  Tm10  1  0.909506  0.000000  0.205729  1
  Tm  Tm11  1  0.090299  0.000000  0.704665  1
  Tm  Tm12  1  0.266564  0.500000  0.994815  1
  Tm  Tm13  1  0.734874  0.500000  0.494191  1
  Tm  Tm14  1  0.199841  0.000000  0.000404  1
  Tm  Tm15  1  0.798727  0.000000  0.497929  1
  Tm  Tm16  1  0.091023  0.500000  0.714271  1
  Tm  Tm17  1  0.909488  0.500000  0.216840  1
  Tm  Tm18  1  0.380390  0.000000  0.303163  1
  Tm  Tm19  1  0.619940  0.000000  0.803104  1
  Ni  Ni20  1  0.170287  0.000000  0.484858  1
  Ni  Ni21  1  0.830005  0.000000  0.986231  1
  Sb  Sb22  1  0.819852  0.744806  0.670186  1
  Sb  Sb23  1  0.185394  0.259584  0.172945  1
  Sb  Sb24  1  0.681979  0.241978  0.326139  1
  Sb  Sb25  1  0.312422  0.761004  0.826994  1
  Sb  Sb26  1  0.681979  0.758022  0.326139  1
  Sb  Sb27  1  0.312422  0.238996  0.826994  1
  Sb  Sb28  1  0.819852  0.255194  0.670186  1
  Sb  Sb29  1  0.185394  0.740416  0.172945  1
  Sb  Sb30  1  0.343086  0.500000  0.525143  1
  Sb  Sb31  1  0.656984  0.500000  0.032648  1
