# generated using pymatgen
data_U8Ta3Nb8Si16Os
_symmetry_space_group_name_H-M   'P 1'
_cell_length_a   7.00859318
_cell_length_b   7.01516558
_cell_length_c   12.93894814
_cell_angle_alpha   89.91121253
_cell_angle_beta   90.00940526
_cell_angle_gamma   90.03594099
_symmetry_Int_Tables_number   1
_chemical_formula_structural   U8Ta3Nb8Si16Os
_chemical_formula_sum   'U8 Ta3 Nb8 Si16 Os1'
_cell_volume   636.16114042
_cell_formula_units_Z   1
loop_
 _symmetry_equiv_pos_site_id
 _symmetry_equiv_pos_as_xyz
  1  'x, y, z'
loop_
 _atom_site_type_symbol
 _atom_site_label
 _atom_site_symmetry_multiplicity
 _atom_site_fract_x
 _atom_site_fract_y
 _atom_site_fract_z
 _atom_site_occupancy
  U  U0  1  0.997625  0.334650  0.221567  1
  U  U1  1  0.007391  0.671131  0.717126  1
  U  U2  1  0.166217  0.498046  0.468957  1
  U  U3  1  0.503169  0.831576  0.033718  1
  U  U4  1  0.830848  0.505676  0.969326  1
  U  U5  1  0.495863  0.165226  0.528703  1
  U  U6  1  0.329024  0.993551  0.779656  1
  U  U7  1  0.669546  0.003274  0.279420  1
  Ta  Ta8  1  0.167692  0.166714  0.001386  1
  Ta  Ta9  1  0.831459  0.832979  0.499645  1
  Ta  Ta10  1  0.328989  0.666219  0.250072  1
  Nb  Nb11  1  0.668545  0.331317  0.749273  1
  Nb  Nb12  1  0.843727  0.001782  0.874123  1
  Nb  Nb13  1  0.496116  0.658698  0.622994  1
  Nb  Nb14  1  0.343585  0.499329  0.876150  1
  Nb  Nb15  1  0.495243  0.338722  0.125800  1
  Nb  Nb16  1  0.658624  0.498594  0.375511  1
  Nb  Nb17  1  0.998952  0.157765  0.626507  1
  Nb  Nb18  1  0.996777  0.840400  0.123004  1
  Si  Si19  1  0.291910  0.035179  0.188544  1
  Si  Si20  1  0.702865  0.959435  0.683651  1
  Si  Si21  1  0.459274  0.796110  0.432645  1
  Si  Si22  1  0.202847  0.537887  0.065423  1
  Si  Si23  1  0.538401  0.201726  0.935104  1
  Si  Si24  1  0.794763  0.461342  0.565145  1
  Si  Si25  1  0.040745  0.298292  0.815936  1
  Si  Si26  1  0.965913  0.715317  0.316184  1
  Si  Si27  1  0.370576  0.291253  0.317379  1
  Si  Si28  1  0.629367  0.707045  0.815308  1
  Si  Si29  1  0.202915  0.872331  0.562078  1
  Si  Si30  1  0.129116  0.793777  0.934180  1
  Si  Si31  1  0.793987  0.130811  0.066757  1
  Si  Si32  1  0.879246  0.200178  0.433747  1
  Si  Si33  1  0.293773  0.370134  0.683406  1
  Si  Si34  1  0.705455  0.624657  0.184678  1
  Os  Os35  1  0.169451  0.008878  0.376897  1
