# generated using pymatgen
data_K4HfThI12
_symmetry_space_group_name_H-M   'P 1'
_cell_length_a   8.71361655
_cell_length_b   8.23192693
_cell_length_c   14.24989698
_cell_angle_alpha   54.76589560
_cell_angle_beta   89.79293639
_cell_angle_gamma   90.51014718
_symmetry_Int_Tables_number   1
_chemical_formula_structural   K4HfThI12
_chemical_formula_sum   'K4 Hf1 Th1 I12'
_cell_volume   834.80710399
_cell_formula_units_Z   1
loop_
 _symmetry_equiv_pos_site_id
 _symmetry_equiv_pos_as_xyz
  1  'x, y, z'
loop_
 _atom_site_type_symbol
 _atom_site_label
 _atom_site_symmetry_multiplicity
 _atom_site_fract_x
 _atom_site_fract_y
 _atom_site_fract_z
 _atom_site_occupancy
  K  K0  1  0.586707  0.732967  0.244214  1
  K  K1  1  0.080655  0.281027  0.240806  1
  K  K2  1  0.413293  0.267033  0.755786  1
  K  K3  1  0.919345  0.718973  0.759194  1
  Hf  Hf4  1  0.000000  0.000000  0.000000  1
  Th  Th5  1  0.500000  0.000000  0.500000  1
  I  I6  1  0.984604  0.855983  0.235773  1
  I  I7  1  0.484413  0.164674  0.243984  1
  I  I8  1  0.015396  0.144017  0.764227  1
  I  I9  1  0.515587  0.835326  0.756016  1
  I  I10  1  0.690203  0.641482  0.553411  1
  I  I11  1  0.180261  0.334845  0.950444  1
  I  I12  1  0.309797  0.358518  0.446589  1
  I  I13  1  0.819739  0.665155  0.049556  1
  I  I14  1  0.722386  0.218121  0.957454  1
  I  I15  1  0.197474  0.767262  0.544761  1
  I  I16  1  0.277614  0.781879  0.042546  1
  I  I17  1  0.802526  0.232738  0.455239  1
