# generated using pymatgen
data_LiInNiF6
_symmetry_space_group_name_H-M   'P 1'
_cell_length_a   4.82051900
_cell_length_b   4.82051900
_cell_length_c   9.51577500
_cell_angle_alpha   90.00000000
_cell_angle_beta   90.00000000
_cell_angle_gamma   90.00000000
_symmetry_Int_Tables_number   1
_chemical_formula_structural   LiInNiF6
_chemical_formula_sum   'Li2 In2 Ni2 F12'
_cell_volume   221.12190262
_cell_formula_units_Z   2
loop_
 _symmetry_equiv_pos_site_id
 _symmetry_equiv_pos_as_xyz
  1  'x, y, z'
loop_
 _atom_site_type_symbol
 _atom_site_label
 _atom_site_symmetry_multiplicity
 _atom_site_fract_x
 _atom_site_fract_y
 _atom_site_fract_z
 _atom_site_occupancy
  Li  Li0  1  0.500000  0.500000  0.498541  1
  Li  Li1  1  0.000000  0.000000  0.998541  1
  In  In2  1  0.500000  0.500000  0.832339  1
  In  In3  1  0.000000  0.000000  0.332339  1
  Ni  Ni4  1  0.500000  0.500000  0.167235  1
  Ni  Ni5  1  0.000000  0.000000  0.667235  1
  F  F6  1  0.196359  0.803641  0.504775  1
  F  F7  1  0.803641  0.196359  0.504775  1
  F  F8  1  0.303641  0.303641  0.004775  1
  F  F9  1  0.696359  0.696359  0.004775  1
  F  F10  1  0.201987  0.798013  0.164800  1
  F  F11  1  0.798013  0.201987  0.164800  1
  F  F12  1  0.298013  0.298013  0.664800  1
  F  F13  1  0.701987  0.701987  0.664800  1
  F  F14  1  0.809275  0.190725  0.831368  1
  F  F15  1  0.190725  0.809275  0.831368  1
  F  F16  1  0.690725  0.690725  0.331368  1
  F  F17  1  0.309275  0.309275  0.331368  1
