# generated using pymatgen
data_CsGaHgF6
_symmetry_space_group_name_H-M   'P 1'
_cell_length_a   7.67505900
_cell_length_b   7.71081300
_cell_length_c   10.75609500
_cell_angle_alpha   90.00000000
_cell_angle_beta   90.00000000
_cell_angle_gamma   90.00000000
_symmetry_Int_Tables_number   1
_chemical_formula_structural   CsGaHgF6
_chemical_formula_sum   'Cs4 Ga4 Hg4 F24'
_cell_volume   636.55586352
_cell_formula_units_Z   4
loop_
 _symmetry_equiv_pos_site_id
 _symmetry_equiv_pos_as_xyz
  1  'x, y, z'
loop_
 _atom_site_type_symbol
 _atom_site_label
 _atom_site_symmetry_multiplicity
 _atom_site_fract_x
 _atom_site_fract_y
 _atom_site_fract_z
 _atom_site_occupancy
  Cs  Cs0  1  0.017503  0.250000  0.631947  1
  Cs  Cs1  1  0.982497  0.750000  0.368053  1
  Cs  Cs2  1  0.482497  0.750000  0.131947  1
  Cs  Cs3  1  0.517503  0.250000  0.868053  1
  Ga  Ga4  1  0.000000  0.000000  0.000000  1
  Ga  Ga5  1  0.500000  0.000000  0.500000  1
  Ga  Ga6  1  0.000000  0.500000  0.000000  1
  Ga  Ga7  1  0.500000  0.500000  0.500000  1
  Hg  Hg8  1  0.214076  0.250000  0.254250  1
  Hg  Hg9  1  0.785924  0.750000  0.745750  1
  Hg  Hg10  1  0.285924  0.750000  0.754250  1
  Hg  Hg11  1  0.714076  0.250000  0.245750  1
  F  F12  1  0.290901  0.036201  0.408664  1
  F  F13  1  0.709099  0.963799  0.591336  1
  F  F14  1  0.209099  0.963799  0.908664  1
  F  F15  1  0.709099  0.536201  0.591336  1
  F  F16  1  0.790901  0.036201  0.091336  1
  F  F17  1  0.290901  0.463799  0.408664  1
  F  F18  1  0.790901  0.463799  0.091336  1
  F  F19  1  0.209099  0.536201  0.908664  1
  F  F20  1  0.553365  0.250000  0.500033  1
  F  F21  1  0.446635  0.750000  0.499967  1
  F  F22  1  0.946635  0.750000  0.000033  1
  F  F23  1  0.053365  0.250000  0.999967  1
  F  F24  1  0.129052  0.519820  0.151637  1
  F  F25  1  0.870948  0.480180  0.848363  1
  F  F26  1  0.370948  0.480180  0.651637  1
  F  F27  1  0.870948  0.019820  0.848363  1
  F  F28  1  0.629052  0.519820  0.348363  1
  F  F29  1  0.129052  0.980180  0.151637  1
  F  F30  1  0.629052  0.980180  0.348363  1
  F  F31  1  0.370948  0.019820  0.651637  1
  F  F32  1  0.458163  0.250000  0.145494  1
  F  F33  1  0.541837  0.750000  0.854506  1
  F  F34  1  0.041837  0.750000  0.645494  1
  F  F35  1  0.958163  0.250000  0.354506  1
