# generated using pymatgen
data_Rb2LiHoAs2
_symmetry_space_group_name_H-M   'P 1'
_cell_length_a   10.61231779
_cell_length_b   10.61231849
_cell_length_c   6.83450300
_cell_angle_alpha   90.00000000
_cell_angle_beta   90.00000000
_cell_angle_gamma   99.67615638
_symmetry_Int_Tables_number   1
_chemical_formula_structural   Rb2LiHoAs2
_chemical_formula_sum   'Rb8 Li4 Ho4 As8'
_cell_volume   758.76030071
_cell_formula_units_Z   4
loop_
 _symmetry_equiv_pos_site_id
 _symmetry_equiv_pos_as_xyz
  1  'x, y, z'
loop_
 _atom_site_type_symbol
 _atom_site_label
 _atom_site_symmetry_multiplicity
 _atom_site_fract_x
 _atom_site_fract_y
 _atom_site_fract_z
 _atom_site_occupancy
  Rb  Rb0  1  0.569055  0.930945  0.750000  1
  Rb  Rb1  1  0.930945  0.569055  0.250000  1
  Rb  Rb2  1  0.430945  0.069055  0.250000  1
  Rb  Rb3  1  0.069055  0.430945  0.750000  1
  Rb  Rb4  1  0.676894  0.323106  0.783612  1
  Rb  Rb5  1  0.823106  0.176894  0.283612  1
  Rb  Rb6  1  0.323106  0.676894  0.216388  1
  Rb  Rb7  1  0.176894  0.823106  0.716388  1
  Li  Li8  1  0.618135  0.618135  0.000000  1
  Li  Li9  1  0.881865  0.881865  0.500000  1
  Li  Li10  1  0.381865  0.381865  0.000000  1
  Li  Li11  1  0.118135  0.118135  0.500000  1
  Ho  Ho12  1  0.868065  0.868065  0.000000  1
  Ho  Ho13  1  0.631935  0.631935  0.500000  1
  Ho  Ho14  1  0.131935  0.131935  0.000000  1
  Ho  Ho15  1  0.368065  0.368065  0.500000  1
  As  As16  1  0.342647  0.157353  0.750000  1
  As  As17  1  0.157353  0.342647  0.250000  1
  As  As18  1  0.657353  0.842647  0.250000  1
  As  As19  1  0.842647  0.657353  0.750000  1
  As  As20  1  0.909818  0.090182  0.766129  1
  As  As21  1  0.590182  0.409818  0.266129  1
  As  As22  1  0.090182  0.909818  0.233871  1
  As  As23  1  0.409818  0.590182  0.733871  1
