# generated using pymatgen
data_Hf2(ScRe8)3
_symmetry_space_group_name_H-M   'P 1'
_cell_length_a   8.46505749
_cell_length_b   8.46505771
_cell_length_c   8.46726305
_cell_angle_alpha   109.47019337
_cell_angle_beta   109.47019312
_cell_angle_gamma   109.46271707
_symmetry_Int_Tables_number   1
_chemical_formula_structural   Hf2(ScRe8)3
_chemical_formula_sum   'Hf2 Sc3 Re24'
_cell_volume   467.12979866
_cell_formula_units_Z   1
loop_
 _symmetry_equiv_pos_site_id
 _symmetry_equiv_pos_as_xyz
  1  'x, y, z'
loop_
 _atom_site_type_symbol
 _atom_site_label
 _atom_site_symmetry_multiplicity
 _atom_site_fract_x
 _atom_site_fract_y
 _atom_site_fract_z
 _atom_site_occupancy
  Hf  Hf0  1  0.999930  0.999930  0.368640  1
  Hf  Hf1  1  0.631291  0.631291  0.631361  1
  Sc  Sc2  1  0.002139  0.002139  0.000000  1
  Sc  Sc3  1  0.368888  0.999852  0.000000  1
  Sc  Sc4  1  0.999852  0.368888  0.000000  1
  Re  Re5  1  0.603221  0.323240  0.000000  1
  Re  Re6  1  0.323240  0.603221  0.000000  1
  Re  Re7  1  0.806349  0.622607  0.000000  1
  Re  Re8  1  0.622607  0.806349  0.000000  1
  Re  Re9  1  0.376252  0.376252  0.184099  1
  Re  Re10  1  0.815301  0.192342  0.192026  1
  Re  Re11  1  0.192342  0.815301  0.192026  1
  Re  Re12  1  0.676623  0.676623  0.279311  1
  Re  Re13  1  0.603170  0.000938  0.323789  1
  Re  Re14  1  0.000938  0.603170  0.323789  1
  Re  Re15  1  0.377002  0.183711  0.377067  1
  Re  Re16  1  0.183711  0.377002  0.377067  1
  Re  Re17  1  0.719676  0.397144  0.396330  1
  Re  Re18  1  0.397144  0.719676  0.396330  1
  Re  Re19  1  0.323346  0.000814  0.603669  1
  Re  Re20  1  0.000814  0.323346  0.603669  1
  Re  Re21  1  0.806644  0.999935  0.622933  1
  Re  Re22  1  0.999935  0.806644  0.622933  1
  Re  Re23  1  0.677149  0.279381  0.676211  1
  Re  Re24  1  0.279381  0.677149  0.676211  1
  Re  Re25  1  0.397311  0.397311  0.720688  1
  Re  Re26  1  0.623274  0.000316  0.807974  1
  Re  Re27  1  0.000316  0.623274  0.807974  1
  Re  Re28  1  0.192153  0.192153  0.815902  1
