# generated using pymatgen
data_Th10Si2(SnTe)3
_symmetry_space_group_name_H-M   'P 1'
_cell_length_a   9.62598600
_cell_length_b   9.62598514
_cell_length_c   6.54459900
_cell_angle_alpha   90.00000000
_cell_angle_beta   90.00000000
_cell_angle_gamma   119.99999607
_symmetry_Int_Tables_number   1
_chemical_formula_structural   Th10Si2(SnTe)3
_chemical_formula_sum   'Th10 Si2 Sn3 Te3'
_cell_volume   525.17507154
_cell_formula_units_Z   1
loop_
 _symmetry_equiv_pos_site_id
 _symmetry_equiv_pos_as_xyz
  1  'x, y, z'
loop_
 _atom_site_type_symbol
 _atom_site_label
 _atom_site_symmetry_multiplicity
 _atom_site_fract_x
 _atom_site_fract_y
 _atom_site_fract_z
 _atom_site_occupancy
  Th  Th0  1  0.666667  0.333333  0.003595  1
  Th  Th1  1  0.333333  0.666667  0.003595  1
  Th  Th2  1  0.333333  0.666667  0.496405  1
  Th  Th3  1  0.666667  0.333333  0.496405  1
  Th  Th4  1  0.743609  0.743609  0.750000  1
  Th  Th5  1  0.256391  0.000000  0.750000  1
  Th  Th6  1  0.000000  0.256391  0.750000  1
  Th  Th7  1  0.257757  0.257757  0.250000  1
  Th  Th8  1  0.742243  0.000000  0.250000  1
  Th  Th9  1  0.000000  0.742243  0.250000  1
  Si  Si10  1  0.000000  0.000000  0.001899  1
  Si  Si11  1  0.000000  0.000000  0.498101  1
  Sn  Sn12  1  0.611118  0.611118  0.250000  1
  Sn  Sn13  1  0.388882  0.000000  0.250000  1
  Sn  Sn14  1  0.000000  0.388882  0.250000  1
  Te  Te15  1  0.390313  0.390313  0.750000  1
  Te  Te16  1  0.609687  0.000000  0.750000  1
  Te  Te17  1  0.000000  0.609687  0.750000  1
