# generated using pymatgen
data_Tm8Ta12Si15P
_symmetry_space_group_name_H-M   'P 1'
_cell_length_a   6.79946008
_cell_length_b   7.00747699
_cell_length_c   13.28417200
_cell_angle_alpha   90.00000000
_cell_angle_beta   90.00000000
_cell_angle_gamma   90.06596303
_symmetry_Int_Tables_number   1
_chemical_formula_structural   Tm8Ta12Si15P
_chemical_formula_sum   'Tm8 Ta12 Si15 P1'
_cell_volume   632.95132183
_cell_formula_units_Z   1
loop_
 _symmetry_equiv_pos_site_id
 _symmetry_equiv_pos_as_xyz
  1  'x, y, z'
loop_
 _atom_site_type_symbol
 _atom_site_label
 _atom_site_symmetry_multiplicity
 _atom_site_fract_x
 _atom_site_fract_y
 _atom_site_fract_z
 _atom_site_occupancy
  Tm  Tm0  1  0.004366  0.172266  0.095384  1
  Tm  Tm1  1  0.996643  0.830473  0.903373  1
  Tm  Tm2  1  0.496544  0.671997  0.905008  1
  Tm  Tm3  1  0.996643  0.830473  0.596627  1
  Tm  Tm4  1  0.504098  0.328039  0.095253  1
  Tm  Tm5  1  0.004366  0.172266  0.404616  1
  Tm  Tm6  1  0.504098  0.328039  0.404747  1
  Tm  Tm7  1  0.496544  0.671997  0.594992  1
  Ta  Ta8  1  0.157881  0.492003  0.750000  1
  Ta  Ta9  1  0.841082  0.508098  0.250000  1
  Ta  Ta10  1  0.340190  0.991757  0.250000  1
  Ta  Ta11  1  0.661799  0.009484  0.750000  1
  Ta  Ta12  1  0.330135  0.172613  0.626099  1
  Ta  Ta13  1  0.666102  0.825621  0.375244  1
  Ta  Ta14  1  0.165271  0.674389  0.374998  1
  Ta  Ta15  1  0.666102  0.825621  0.124756  1
  Ta  Ta16  1  0.836163  0.324079  0.625975  1
  Ta  Ta17  1  0.330135  0.172613  0.873901  1
  Ta  Ta18  1  0.836163  0.324079  0.874025  1
  Ta  Ta19  1  0.165271  0.674389  0.125002  1
  Si  Si20  1  0.962613  0.880544  0.250000  1
  Si  Si21  1  0.462574  0.620518  0.250000  1
  Si  Si22  1  0.536933  0.379123  0.750000  1
  Si  Si23  1  0.297444  0.864849  0.750000  1
  Si  Si24  1  0.707815  0.130786  0.250000  1
  Si  Si25  1  0.207397  0.369057  0.250000  1
  Si  Si26  1  0.792404  0.630363  0.750000  1
  Si  Si27  1  0.163506  0.465309  0.540930  1
  Si  Si28  1  0.836346  0.535159  0.459587  1
  Si  Si29  1  0.335320  0.964785  0.459062  1
  Si  Si30  1  0.836346  0.535159  0.040413  1
  Si  Si31  1  0.663043  0.036000  0.541015  1
  Si  Si32  1  0.163506  0.465309  0.959070  1
  Si  Si33  1  0.663043  0.036000  0.958985  1
  Si  Si34  1  0.335320  0.964785  0.040938  1
  P  P35  1  0.036795  0.121959  0.750000  1
