# generated using pymatgen
data_MgTiZn7Pt3O16
_symmetry_space_group_name_H-M   'P 1'
_cell_length_a   6.13527900
_cell_length_b   6.10337600
_cell_length_c   8.60557563
_cell_angle_alpha   89.21576118
_cell_angle_beta   90.00000000
_cell_angle_gamma   90.00000000
_symmetry_Int_Tables_number   1
_chemical_formula_structural   MgTiZn7Pt3O16
_chemical_formula_sum   'Mg1 Ti1 Zn7 Pt3 O16'
_cell_volume   322.21346439
_cell_formula_units_Z   1
loop_
 _symmetry_equiv_pos_site_id
 _symmetry_equiv_pos_as_xyz
  1  'x, y, z'
loop_
 _atom_site_type_symbol
 _atom_site_label
 _atom_site_symmetry_multiplicity
 _atom_site_fract_x
 _atom_site_fract_y
 _atom_site_fract_z
 _atom_site_occupancy
  Mg  Mg0  1  0.752287  0.000000  0.750000  1
  Ti  Ti1  1  0.781486  0.500000  0.750000  1
  Zn  Zn2  1  0.996981  0.232943  0.001604  1
  Zn  Zn3  1  0.996981  0.767057  0.498396  1
  Zn  Zn4  1  0.261692  0.243488  0.628544  1
  Zn  Zn5  1  0.261692  0.756512  0.871456  1
  Zn  Zn6  1  0.232340  0.000000  0.250000  1
  Zn  Zn7  1  0.745868  0.252773  0.375159  1
  Zn  Zn8  1  0.745868  0.747227  0.124841  1
  Pt  Pt9  1  0.244594  0.500000  0.250000  1
  Pt  Pt10  1  0.500472  0.749448  0.503342  1
  Pt  Pt11  1  0.500472  0.250552  0.996658  1
  O  O12  1  0.527863  0.740988  0.739814  1
  O  O13  1  0.527863  0.259012  0.760186  1
  O  O14  1  0.741218  0.980451  0.509471  1
  O  O15  1  0.741218  0.019549  0.990529  1
  O  O16  1  0.738553  0.511773  0.519918  1
  O  O17  1  0.738553  0.488227  0.980082  1
  O  O18  1  0.977183  0.736594  0.755668  1
  O  O19  1  0.977183  0.263406  0.744332  1
  O  O20  1  0.014056  0.739542  0.255658  1
  O  O21  1  0.014056  0.260458  0.244342  1
  O  O22  1  0.252683  0.521456  0.488076  1
  O  O23  1  0.252683  0.478544  0.011924  1
  O  O24  1  0.261077  0.979522  0.495603  1
  O  O25  1  0.261077  0.020478  0.004397  1
  O  O26  1  0.477001  0.743782  0.264583  1
  O  O27  1  0.477001  0.256218  0.235417  1
