# generated using pymatgen
data_Ca9Pr3Ga7Fe5(SnO6)8
_symmetry_space_group_name_H-M   'P 1'
_cell_length_a   11.07820883
_cell_length_b   11.09846137
_cell_length_c   11.09817100
_cell_angle_alpha   109.27493764
_cell_angle_beta   109.60570677
_cell_angle_gamma   109.60703771
_symmetry_Int_Tables_number   1
_chemical_formula_structural   Ca9Pr3Ga7Fe5(SnO6)8
_chemical_formula_sum   'Ca9 Pr3 Ga7 Fe5 Sn8 O48'
_cell_volume   1049.44781541
_cell_formula_units_Z   1
loop_
 _symmetry_equiv_pos_site_id
 _symmetry_equiv_pos_as_xyz
  1  'x, y, z'
loop_
 _atom_site_type_symbol
 _atom_site_label
 _atom_site_symmetry_multiplicity
 _atom_site_fract_x
 _atom_site_fract_y
 _atom_site_fract_z
 _atom_site_occupancy
  Ca  Ca0  1  0.125513  0.249682  0.376319  1
  Ca  Ca1  1  0.372052  0.750612  0.121742  1
  Ca  Ca2  1  0.248882  0.873827  0.626876  1
  Ca  Ca3  1  0.878044  0.752666  0.624339  1
  Ca  Ca4  1  0.625052  0.246871  0.877972  1
  Ca  Ca5  1  0.371384  0.119345  0.245042  1
  Ca  Ca6  1  0.625404  0.879505  0.752428  1
  Ca  Ca7  1  0.126553  0.378685  0.750987  1
  Ca  Ca8  1  0.876435  0.623059  0.252276  1
  Pr  Pr9  1  0.249101  0.373669  0.123486  1
  Pr  Pr10  1  0.751887  0.626516  0.876093  1
  Pr  Pr11  1  0.749914  0.125828  0.374205  1
  Ga  Ga12  1  0.250265  0.120790  0.871002  1
  Ga  Ga13  1  0.124600  0.748975  0.874143  1
  Ga  Ga14  1  0.875443  0.250207  0.125485  1
  Ga  Ga15  1  0.625120  0.374364  0.249944  1
  Ga  Ga16  1  0.375273  0.625857  0.750818  1
  Ga  Ga17  1  0.875485  0.124858  0.749807  1
  Ga  Ga18  1  0.124161  0.875980  0.250506  1
  Fe  Fe19  1  0.249822  0.629271  0.378752  1
  Fe  Fe20  1  0.750585  0.374778  0.625118  1
  Fe  Fe21  1  0.749601  0.875506  0.125300  1
  Fe  Fe22  1  0.376502  0.250032  0.625336  1
  Fe  Fe23  1  0.624018  0.749886  0.374290  1
  Sn  Sn24  1  0.001020  0.000206  0.998780  1
  Sn  Sn25  1  0.497866  0.999178  0.499794  1
  Sn  Sn26  1  0.002698  0.503305  0.502010  1
  Sn  Sn27  1  0.496466  0.998836  0.996230  1
  Sn  Sn28  1  0.498791  0.497690  0.999464  1
  Sn  Sn29  1  0.500735  0.501322  0.500198  1
  Sn  Sn30  1  0.002713  0.999138  0.502325  1
  Sn  Sn31  1  0.999997  0.500100  0.000751  1
  O  O32  1  0.474862  0.376780  0.293974  1
  O  O33  1  0.525154  0.622389  0.706303  1
  O  O34  1  0.582372  0.180719  0.205159  1
  O  O35  1  0.917644  0.122657  0.598149  1
  O  O36  1  0.297456  0.479790  0.378413  1
  O  O37  1  0.317139  0.916664  0.296116  1
  O  O38  1  0.418492  0.817963  0.795481  1
  O  O39  1  0.081706  0.877669  0.400157  1
  O  O40  1  0.703524  0.522894  0.622479  1
  O  O41  1  0.682037  0.083431  0.702798  1
  O  O42  1  0.025254  0.318956  0.901773  1
  O  O43  1  0.203589  0.581560  0.182038  1
  O  O44  1  0.121380  0.022682  0.202786  1
  O  O45  1  0.974926  0.681331  0.098144  1
  O  O46  1  0.796219  0.418467  0.819868  1
  O  O47  1  0.878319  0.978327  0.796292  1
  O  O48  1  0.597876  0.919081  0.122099  1
  O  O49  1  0.182549  0.477331  0.598530  1
  O  O50  1  0.402171  0.082759  0.875954  1
  O  O51  1  0.817720  0.521359  0.401582  1
  O  O52  1  0.901134  0.023592  0.321076  1
  O  O53  1  0.378884  0.580504  0.900244  1
  O  O54  1  0.098241  0.974365  0.680897  1
  O  O55  1  0.621438  0.418095  0.100101  1
  O  O56  1  0.378490  0.298849  0.478700  1
  O  O57  1  0.581568  0.903065  0.375893  1
  O  O58  1  0.622064  0.703456  0.522550  1
  O  O59  1  0.418453  0.100050  0.624230  1
  O  O60  1  0.120642  0.598381  0.917467  1
  O  O61  1  0.026138  0.206653  0.123605  1
  O  O62  1  0.879304  0.400741  0.083091  1
  O  O63  1  0.974664  0.793418  0.876833  1
  O  O64  1  0.317095  0.901077  0.022378  1
  O  O65  1  0.918122  0.295090  0.319420  1
  O  O66  1  0.682554  0.098629  0.978799  1
  O  O67  1  0.081628  0.704521  0.682104  1
  O  O68  1  0.182023  0.202934  0.581102  1
  O  O69  1  0.471235  0.595685  0.178300  1
  O  O70  1  0.818491  0.796684  0.417341  1
  O  O71  1  0.527967  0.402937  0.819910  1
  O  O72  1  0.294832  0.314582  0.914708  1
  O  O73  1  0.702713  0.680260  0.081465  1
  O  O74  1  0.205023  0.121053  0.020163  1
  O  O75  1  0.796813  0.878487  0.977154  1
  O  O76  1  0.902049  0.377296  0.581490  1
  O  O77  1  0.097178  0.624350  0.417999  1
  O  O78  1  0.597326  0.180235  0.475914  1
  O  O79  1  0.402160  0.821652  0.527152  1
