# generated using pymatgen
data_Li4PrNd3Pt4
_symmetry_space_group_name_H-M   'P 1'
_cell_length_a   4.09694700
_cell_length_b   7.26675318
_cell_length_c   8.68294837
_cell_angle_alpha   89.90702420
_cell_angle_beta   90.00000000
_cell_angle_gamma   90.00000000
_symmetry_Int_Tables_number   1
_chemical_formula_structural   Li4PrNd3Pt4
_chemical_formula_sum   'Li4 Pr1 Nd3 Pt4'
_cell_volume   258.50408007
_cell_formula_units_Z   1
loop_
 _symmetry_equiv_pos_site_id
 _symmetry_equiv_pos_as_xyz
  1  'x, y, z'
loop_
 _atom_site_type_symbol
 _atom_site_label
 _atom_site_symmetry_multiplicity
 _atom_site_fract_x
 _atom_site_fract_y
 _atom_site_fract_z
 _atom_site_occupancy
  Li  Li0  1  0.250000  0.126256  0.056169  1
  Li  Li1  1  0.250000  0.624782  0.443965  1
  Li  Li2  1  0.750000  0.874153  0.945184  1
  Li  Li3  1  0.750000  0.375116  0.554868  1
  Pr  Pr4  1  0.250000  0.046517  0.684236  1
  Nd  Nd5  1  0.250000  0.547230  0.816899  1
  Nd  Nd6  1  0.750000  0.952669  0.315757  1
  Nd  Nd7  1  0.750000  0.453663  0.183906  1
  Pt  Pt8  1  0.250000  0.247659  0.379082  1
  Pt  Pt9  1  0.250000  0.748263  0.119434  1
  Pt  Pt10  1  0.750000  0.750228  0.618597  1
  Pt  Pt11  1  0.750000  0.253462  0.881902  1
