# generated using pymatgen
data_Dy12HoErRh6
_symmetry_space_group_name_H-M   'P 1'
_cell_length_a   9.79648300
_cell_length_b   9.79648399
_cell_length_c   6.17433500
_cell_angle_alpha   90.00000000
_cell_angle_beta   90.00000000
_cell_angle_gamma   120.00000003
_symmetry_Int_Tables_number   1
_chemical_formula_structural   Dy12HoErRh6
_chemical_formula_sum   'Dy12 Ho1 Er1 Rh6'
_cell_volume   513.16998050
_cell_formula_units_Z   1
loop_
 _symmetry_equiv_pos_site_id
 _symmetry_equiv_pos_as_xyz
  1  'x, y, z'
loop_
 _atom_site_type_symbol
 _atom_site_label
 _atom_site_symmetry_multiplicity
 _atom_site_fract_x
 _atom_site_fract_y
 _atom_site_fract_z
 _atom_site_occupancy
  Dy  Dy0  1  0.752026  0.876013  0.991881  1
  Dy  Dy1  1  0.876062  0.123938  0.491904  1
  Dy  Dy2  1  0.540989  0.459011  0.797691  1
  Dy  Dy3  1  0.082117  0.541058  0.297691  1
  Dy  Dy4  1  0.458942  0.917883  0.297691  1
  Dy  Dy5  1  0.540989  0.081978  0.797691  1
  Dy  Dy6  1  0.918022  0.459011  0.797691  1
  Dy  Dy7  1  0.458942  0.541058  0.297691  1
  Dy  Dy8  1  0.123987  0.247974  0.991881  1
  Dy  Dy9  1  0.876062  0.752122  0.491904  1
  Dy  Dy10  1  0.247878  0.123938  0.491904  1
  Dy  Dy11  1  0.123987  0.876013  0.991881  1
  Ho  Ho12  1  0.666667  0.333333  0.284444  1
  Er  Er13  1  0.333333  0.666667  0.783961  1
  Rh  Rh14  1  0.190103  0.809897  0.563086  1
  Rh  Rh15  1  0.380025  0.190011  0.062947  1
  Rh  Rh16  1  0.809989  0.619975  0.062947  1
  Rh  Rh17  1  0.190103  0.380208  0.563086  1
  Rh  Rh18  1  0.619792  0.809897  0.563086  1
  Rh  Rh19  1  0.809989  0.190011  0.062947  1
