# generated using pymatgen
data_HoEr3Ga20Pt11
_symmetry_space_group_name_H-M   'P 1'
_cell_length_a   4.21383487
_cell_length_b   10.88021776
_cell_length_c   13.74424706
_cell_angle_alpha   81.99792473
_cell_angle_beta   81.18210109
_cell_angle_gamma   78.83432348
_symmetry_Int_Tables_number   1
_chemical_formula_structural   HoEr3Ga20Pt11
_chemical_formula_sum   'Ho1 Er3 Ga20 Pt11'
_cell_volume   606.99302681
_cell_formula_units_Z   1
loop_
 _symmetry_equiv_pos_site_id
 _symmetry_equiv_pos_as_xyz
  1  'x, y, z'
loop_
 _atom_site_type_symbol
 _atom_site_label
 _atom_site_symmetry_multiplicity
 _atom_site_fract_x
 _atom_site_fract_y
 _atom_site_fract_z
 _atom_site_occupancy
  Ho  Ho0  1  0.122465  0.089580  0.665491  1
  Er  Er1  1  0.877570  0.910389  0.334470  1
  Er  Er2  1  0.773388  0.630737  0.822486  1
  Er  Er3  1  0.226611  0.369261  0.177517  1
  Ga  Ga4  1  0.007570  0.073182  0.911678  1
  Ga  Ga5  1  0.992420  0.926818  0.088342  1
  Ga  Ga6  1  0.065029  0.674535  0.195406  1
  Ga  Ga7  1  0.934959  0.325487  0.804595  1
  Ga  Ga8  1  0.103489  0.339671  0.453351  1
  Ga  Ga9  1  0.896514  0.660326  0.546646  1
  Ga  Ga10  1  0.200790  0.605495  0.992924  1
  Ga  Ga11  1  0.799208  0.394507  0.007078  1
  Ga  Ga12  1  0.256185  0.784146  0.703485  1
  Ga  Ga13  1  0.743839  0.215814  0.296508  1
  Ga  Ga14  1  0.301371  0.901050  0.496209  1
  Ga  Ga15  1  0.698690  0.098925  0.503695  1
  Ga  Ga16  1  0.386016  0.528263  0.699706  1
  Ga  Ga17  1  0.613980  0.471742  0.300297  1
  Ga  Ga18  1  0.397390  0.206221  0.998999  1
  Ga  Ga19  1  0.602612  0.793771  0.001004  1
  Ga  Ga20  1  0.544931  0.283771  0.626368  1
  Ga  Ga21  1  0.455011  0.716352  0.373624  1
  Ga  Ga22  1  0.635632  0.934037  0.794701  1
  Ga  Ga23  1  0.364365  0.065917  0.205352  1
  Pt  Pt24  1  0.499994  0.500019  0.499992  1
  Pt  Pt25  1  0.027180  0.574840  0.370799  1
  Pt  Pt26  1  0.972819  0.425173  0.629190  1
  Pt  Pt27  1  0.137466  0.834101  0.890967  1
  Pt  Pt28  1  0.862535  0.165911  0.109018  1
  Pt  Pt29  1  0.242514  0.125647  0.389323  1
  Pt  Pt30  1  0.757550  0.874247  0.610653  1
  Pt  Pt31  1  0.343955  0.422594  0.889496  1
  Pt  Pt32  1  0.656042  0.577403  0.110513  1
  Pt  Pt33  1  0.507471  0.170273  0.814787  1
  Pt  Pt34  1  0.492437  0.829795  0.185329  1
