# generated using pymatgen
data_LaYbAl3O7
_symmetry_space_group_name_H-M   'P 1'
_cell_length_a   7.82320078
_cell_length_b   7.82320095
_cell_length_c   5.16577200
_cell_angle_alpha   90.00000000
_cell_angle_beta   90.00000000
_cell_angle_gamma   91.50271765
_symmetry_Int_Tables_number   1
_chemical_formula_structural   LaYbAl3O7
_chemical_formula_sum   'La2 Yb2 Al6 O14'
_cell_volume   316.04928264
_cell_formula_units_Z   2
loop_
 _symmetry_equiv_pos_site_id
 _symmetry_equiv_pos_as_xyz
  1  'x, y, z'
loop_
 _atom_site_type_symbol
 _atom_site_label
 _atom_site_symmetry_multiplicity
 _atom_site_fract_x
 _atom_site_fract_y
 _atom_site_fract_z
 _atom_site_occupancy
  La  La0  1  0.164892  0.835108  0.492914  1
  La  La1  1  0.835108  0.164892  0.492914  1
  Yb  Yb2  1  0.657616  0.657616  0.520205  1
  Yb  Yb3  1  0.342384  0.342384  0.520205  1
  Al  Al4  1  0.361020  0.638980  0.040935  1
  Al  Al5  1  0.851106  0.851106  0.961868  1
  Al  Al6  1  0.638980  0.361020  0.040935  1
  Al  Al7  1  0.148894  0.148894  0.961868  1
  Al  Al8  1  0.500000  0.000000  0.991529  1
  Al  Al9  1  0.000000  0.500000  0.991529  1
  O  O10  1  0.000000  0.000000  0.824808  1
  O  O11  1  0.500000  0.500000  0.195087  1
  O  O12  1  0.408332  0.839201  0.191430  1
  O  O13  1  0.909242  0.661302  0.798474  1
  O  O14  1  0.591668  0.160799  0.191430  1
  O  O15  1  0.090758  0.338698  0.798474  1
  O  O16  1  0.338698  0.090758  0.798474  1
  O  O17  1  0.839201  0.408332  0.191430  1
  O  O18  1  0.661302  0.909242  0.798474  1
  O  O19  1  0.160799  0.591668  0.191430  1
  O  O20  1  0.361409  0.638591  0.702416  1
  O  O21  1  0.856422  0.856422  0.300377  1
  O  O22  1  0.638591  0.361409  0.702416  1
  O  O23  1  0.143578  0.143578  0.300377  1
