# generated using pymatgen
data_TbDy3(Co5As3)4
_symmetry_space_group_name_H-M   'P 1'
_cell_length_a   3.78980600
_cell_length_b   12.16993201
_cell_length_c   10.67914801
_cell_angle_alpha   89.99495291
_cell_angle_beta   90.00000000
_cell_angle_gamma   90.00000000
_symmetry_Int_Tables_number   1
_chemical_formula_structural   TbDy3(Co5As3)4
_chemical_formula_sum   'Tb1 Dy3 Co20 As12'
_cell_volume   492.54025980
_cell_formula_units_Z   1
loop_
 _symmetry_equiv_pos_site_id
 _symmetry_equiv_pos_as_xyz
  1  'x, y, z'
loop_
 _atom_site_type_symbol
 _atom_site_label
 _atom_site_symmetry_multiplicity
 _atom_site_fract_x
 _atom_site_fract_y
 _atom_site_fract_z
 _atom_site_occupancy
  Tb  Tb0  1  0.750000  0.201283  0.417978  1
  Dy  Dy1  1  0.750000  0.701340  0.081838  1
  Dy  Dy2  1  0.250000  0.298704  0.918196  1
  Dy  Dy3  1  0.250000  0.798765  0.581864  1
  Co  Co4  1  0.750000  0.697016  0.384033  1
  Co  Co5  1  0.250000  0.303175  0.616215  1
  Co  Co6  1  0.250000  0.803066  0.884106  1
  Co  Co7  1  0.750000  0.196857  0.115734  1
  Co  Co8  1  0.750000  0.990892  0.211806  1
  Co  Co9  1  0.250000  0.008922  0.788260  1
  Co  Co10  1  0.250000  0.509052  0.711860  1
  Co  Co11  1  0.750000  0.490980  0.288193  1
  Co  Co12  1  0.750000  0.677581  0.784102  1
  Co  Co13  1  0.250000  0.322500  0.215738  1
  Co  Co14  1  0.250000  0.822451  0.283971  1
  Co  Co15  1  0.750000  0.177488  0.716104  1
  Co  Co16  1  0.750000  0.932099  0.969585  1
  Co  Co17  1  0.250000  0.067783  0.030224  1
  Co  Co18  1  0.250000  0.568112  0.469541  1
  Co  Co19  1  0.750000  0.432347  0.530614  1
  Co  Co20  1  0.750000  0.987963  0.593066  1
  Co  Co21  1  0.250000  0.011515  0.406988  1
  Co  Co22  1  0.250000  0.511945  0.092952  1
  Co  Co23  1  0.750000  0.488099  0.907051  1
  As  As24  1  0.750000  0.614363  0.584695  1
  As  As25  1  0.250000  0.386139  0.415338  1
  As  As26  1  0.250000  0.885795  0.084724  1
  As  As27  1  0.750000  0.114135  0.915324  1
  As  As28  1  0.750000  0.890661  0.399266  1
  As  As29  1  0.250000  0.109160  0.600999  1
  As  As30  1  0.250000  0.609334  0.899336  1
  As  As31  1  0.750000  0.390678  0.100692  1
  As  As32  1  0.750000  0.870293  0.769480  1
  As  As33  1  0.250000  0.129482  0.230136  1
  As  As34  1  0.250000  0.629715  0.269381  1
  As  As35  1  0.750000  0.370308  0.730607  1
