# generated using pymatgen
data_Sc2B2SbRh5
_symmetry_space_group_name_H-M   'P 1'
_cell_length_a   9.35085900
_cell_length_b   9.35085900
_cell_length_c   3.24561400
_cell_angle_alpha   90.00000000
_cell_angle_beta   90.00000000
_cell_angle_gamma   90.00000000
_symmetry_Int_Tables_number   1
_chemical_formula_structural   Sc2B2SbRh5
_chemical_formula_sum   'Sc4 B4 Sb2 Rh10'
_cell_volume   283.79182758
_cell_formula_units_Z   2
loop_
 _symmetry_equiv_pos_site_id
 _symmetry_equiv_pos_as_xyz
  1  'x, y, z'
loop_
 _atom_site_type_symbol
 _atom_site_label
 _atom_site_symmetry_multiplicity
 _atom_site_fract_x
 _atom_site_fract_y
 _atom_site_fract_z
 _atom_site_occupancy
  Sc  Sc0  1  0.826360  0.326360  0.000000  1
  Sc  Sc1  1  0.326360  0.173640  0.000000  1
  Sc  Sc2  1  0.673640  0.826360  0.000000  1
  Sc  Sc3  1  0.173640  0.673640  0.000000  1
  B  B4  1  0.621256  0.121256  0.000000  1
  B  B5  1  0.121256  0.378744  0.000000  1
  B  B6  1  0.878744  0.621256  0.000000  1
  B  B7  1  0.378744  0.878744  0.000000  1
  Sb  Sb8  1  0.000000  0.000000  0.000000  1
  Sb  Sb9  1  0.500000  0.500000  0.000000  1
  Rh  Rh10  1  0.072785  0.221736  0.500000  1
  Rh  Rh11  1  0.221736  0.927215  0.500000  1
  Rh  Rh12  1  0.778264  0.072785  0.500000  1
  Rh  Rh13  1  0.927215  0.778264  0.500000  1
  Rh  Rh14  1  0.427215  0.721736  0.500000  1
  Rh  Rh15  1  0.572785  0.278264  0.500000  1
  Rh  Rh16  1  0.721736  0.572785  0.500000  1
  Rh  Rh17  1  0.278264  0.427215  0.500000  1
  Rh  Rh18  1  0.500000  0.000000  0.500000  1
  Rh  Rh19  1  0.000000  0.500000  0.500000  1
