# generated using pymatgen
data_NiSb12Ir2Os
_symmetry_space_group_name_H-M   'P 1'
_cell_length_a   8.09826868
_cell_length_b   8.08943293
_cell_length_c   9.35131362
_cell_angle_alpha   54.60278047
_cell_angle_beta   54.98318775
_cell_angle_gamma   70.58108032
_symmetry_Int_Tables_number   1
_chemical_formula_structural   NiSb12Ir2Os
_chemical_formula_sum   'Ni1 Sb12 Ir2 Os1'
_cell_volume   408.97693757
_cell_formula_units_Z   1
loop_
 _symmetry_equiv_pos_site_id
 _symmetry_equiv_pos_as_xyz
  1  'x, y, z'
loop_
 _atom_site_type_symbol
 _atom_site_label
 _atom_site_symmetry_multiplicity
 _atom_site_fract_x
 _atom_site_fract_y
 _atom_site_fract_z
 _atom_site_occupancy
  Ni  Ni0  1  0.500000  0.000000  0.500000  1
  Sb  Sb1  1  0.154666  0.153163  0.185894  1
  Sb  Sb2  1  0.845334  0.846837  0.814106  1
  Sb  Sb3  1  0.841952  0.845409  0.494587  1
  Sb  Sb4  1  0.158048  0.154591  0.505413  1
  Sb  Sb5  1  0.816699  0.507770  0.338509  1
  Sb  Sb6  1  0.183301  0.492230  0.661491  1
  Sb  Sb7  1  0.504364  0.815862  0.343600  1
  Sb  Sb8  1  0.495636  0.184138  0.656400  1
  Sb  Sb9  1  0.664026  0.339525  0.843637  1
  Sb  Sb10  1  0.335974  0.660475  0.156363  1
  Sb  Sb11  1  0.656900  0.336825  0.159027  1
  Sb  Sb12  1  0.343100  0.663175  0.840973  1
  Ir  Ir13  1  0.000000  0.500000  0.000000  1
  Ir  Ir14  1  0.500000  0.000000  0.000000  1
  Os  Os15  1  0.000000  0.500000  0.500000  1
