# generated using pymatgen
data_Rb4PaCrBr12
_symmetry_space_group_name_H-M   'P 1'
_cell_length_a   7.58026500
_cell_length_b   7.58026500
_cell_length_c   11.77524400
_cell_angle_alpha   90.00000000
_cell_angle_beta   90.00000000
_cell_angle_gamma   90.00000000
_symmetry_Int_Tables_number   1
_chemical_formula_structural   Rb4PaCrBr12
_chemical_formula_sum   'Rb4 Pa1 Cr1 Br12'
_cell_volume   676.61043605
_cell_formula_units_Z   1
loop_
 _symmetry_equiv_pos_site_id
 _symmetry_equiv_pos_as_xyz
  1  'x, y, z'
loop_
 _atom_site_type_symbol
 _atom_site_label
 _atom_site_symmetry_multiplicity
 _atom_site_fract_x
 _atom_site_fract_y
 _atom_site_fract_z
 _atom_site_occupancy
  Rb  Rb0  1  0.500000  0.000000  0.802625  1
  Rb  Rb1  1  0.500000  0.000000  0.197375  1
  Rb  Rb2  1  0.000000  0.500000  0.197375  1
  Rb  Rb3  1  0.000000  0.500000  0.802625  1
  Pa  Pa4  1  0.500000  0.500000  0.500000  1
  Cr  Cr5  1  0.000000  0.000000  0.000000  1
  Br  Br6  1  0.761551  0.235623  0.000000  1
  Br  Br7  1  0.238449  0.764377  0.000000  1
  Br  Br8  1  0.500000  0.500000  0.266265  1
  Br  Br9  1  0.305712  0.199974  0.500000  1
  Br  Br10  1  0.235623  0.238449  0.000000  1
  Br  Br11  1  0.800026  0.305712  0.500000  1
  Br  Br12  1  0.000000  0.000000  0.216773  1
  Br  Br13  1  0.694288  0.800026  0.500000  1
  Br  Br14  1  0.199974  0.694288  0.500000  1
  Br  Br15  1  0.500000  0.500000  0.733735  1
  Br  Br16  1  0.764377  0.761551  0.000000  1
  Br  Br17  1  0.000000  0.000000  0.783227  1
