# generated using pymatgen
data_Yb2Zn19Cu3
_symmetry_space_group_name_H-M   'P 1'
_cell_length_a   8.22176736
_cell_length_b   8.21773912
_cell_length_c   8.21773910
_cell_angle_alpha   99.65351675
_cell_angle_beta   99.54377509
_cell_angle_gamma   131.76688583
_symmetry_Int_Tables_number   1
_chemical_formula_structural   Yb2Zn19Cu3
_chemical_formula_sum   'Yb2 Zn19 Cu3'
_cell_volume   378.06762404
_cell_formula_units_Z   1
loop_
 _symmetry_equiv_pos_site_id
 _symmetry_equiv_pos_as_xyz
  1  'x, y, z'
loop_
 _atom_site_type_symbol
 _atom_site_label
 _atom_site_symmetry_multiplicity
 _atom_site_fract_x
 _atom_site_fract_y
 _atom_site_fract_z
 _atom_site_occupancy
  Yb  Yb0  1  0.499208  0.499669  0.999539  1
  Yb  Yb1  1  0.750792  0.250331  0.500461  1
  Zn  Zn2  1  0.398138  0.073293  0.079235  1
  Zn  Zn3  1  0.989482  0.314174  0.917699  1
  Zn  Zn4  1  0.260518  0.678216  0.824691  1
  Zn  Zn5  1  0.851862  0.431097  0.175156  1
  Zn  Zn6  1  0.925790  0.598578  0.912578  1
  Zn  Zn7  1  0.685464  0.009190  0.081191  1
  Zn  Zn8  1  0.324210  0.736788  0.172788  1
  Zn  Zn9  1  0.564536  0.145727  0.823726  1
  Zn  Zn10  1  0.851862  0.676707  0.420765  1
  Zn  Zn11  1  0.260518  0.435826  0.582301  1
  Zn  Zn12  1  0.989482  0.071784  0.675309  1
  Zn  Zn13  1  0.398138  0.318903  0.324844  1
  Zn  Zn14  1  0.324210  0.151422  0.587422  1
  Zn  Zn15  1  0.564536  0.740810  0.418809  1
  Zn  Zn16  1  0.925790  0.013212  0.327212  1
  Zn  Zn17  1  0.685464  0.604273  0.676274  1
  Zn  Zn18  1  0.251229  0.747144  0.504086  1
  Zn  Zn19  1  0.998771  0.002856  0.995914  1
  Zn  Zn20  1  0.125000  0.875000  0.250000  1
  Cu  Cu21  1  0.125000  0.875000  0.750000  1
  Cu  Cu22  1  0.125000  0.375000  0.250000  1
  Cu  Cu23  1  0.625000  0.875000  0.750000  1
