# generated using pymatgen
data_K4Li2ScAlSb4
_symmetry_space_group_name_H-M   'P 1'
_cell_length_a   9.42392283
_cell_length_b   9.42392457
_cell_length_c   9.42392475
_cell_angle_alpha   137.57046758
_cell_angle_beta   137.11534902
_cell_angle_gamma   61.91161967
_symmetry_Int_Tables_number   1
_chemical_formula_structural   K4Li2ScAlSb4
_chemical_formula_sum   'K4 Li2 Sc1 Al1 Sb4'
_cell_volume   379.78024486
_cell_formula_units_Z   1
loop_
 _symmetry_equiv_pos_site_id
 _symmetry_equiv_pos_as_xyz
  1  'x, y, z'
loop_
 _atom_site_type_symbol
 _atom_site_label
 _atom_site_symmetry_multiplicity
 _atom_site_fract_x
 _atom_site_fract_y
 _atom_site_fract_z
 _atom_site_occupancy
  K  K0  1  0.099959  0.830882  0.276879  1
  K  K1  1  0.900041  0.176920  0.730923  1
  K  K2  1  0.445998  0.669118  0.769077  1
  K  K3  1  0.554002  0.323080  0.223121  1
  Li  Li4  1  0.500000  0.250000  0.750000  1
  Li  Li5  1  0.500000  0.750000  0.250000  1
  Sc  Sc6  1  0.000000  0.750000  0.750000  1
  Al  Al7  1  0.000000  0.250000  0.250000  1
  Sb  Sb8  1  0.670098  0.911184  0.775071  1
  Sb  Sb9  1  0.136113  0.395026  0.724929  1
  Sb  Sb10  1  0.863887  0.588816  0.258913  1
  Sb  Sb11  1  0.329902  0.104974  0.241087  1
