# generated using pymatgen
data_YbEr2Fe2Co7P6
_symmetry_space_group_name_H-M   'P 1'
_cell_length_a   3.69538900
_cell_length_b   10.53941200
_cell_length_c   12.08769500
_cell_angle_alpha   90.00000000
_cell_angle_beta   90.00000000
_cell_angle_gamma   90.00000000
_symmetry_Int_Tables_number   1
_chemical_formula_structural   YbEr2Fe2Co7P6
_chemical_formula_sum   'Yb2 Er4 Fe4 Co14 P12'
_cell_volume   470.78220314
_cell_formula_units_Z   2
loop_
 _symmetry_equiv_pos_site_id
 _symmetry_equiv_pos_as_xyz
  1  'x, y, z'
loop_
 _atom_site_type_symbol
 _atom_site_label
 _atom_site_symmetry_multiplicity
 _atom_site_fract_x
 _atom_site_fract_y
 _atom_site_fract_z
 _atom_site_occupancy
  Yb  Yb0  1  0.750000  0.250000  0.477084  1
  Yb  Yb1  1  0.250000  0.750000  0.522916  1
  Er  Er2  1  0.250000  0.930225  0.796059  1
  Er  Er3  1  0.250000  0.569775  0.796059  1
  Er  Er4  1  0.750000  0.069775  0.203941  1
  Er  Er5  1  0.750000  0.430225  0.203941  1
  Fe  Fe6  1  0.250000  0.250000  0.844429  1
  Fe  Fe7  1  0.750000  0.750000  0.155571  1
  Fe  Fe8  1  0.750000  0.250000  0.011751  1
  Fe  Fe9  1  0.250000  0.750000  0.988249  1
  Co  Co10  1  0.250000  0.250000  0.298292  1
  Co  Co11  1  0.750000  0.750000  0.701708  1
  Co  Co12  1  0.250000  0.418215  0.005722  1
  Co  Co13  1  0.250000  0.081785  0.005722  1
  Co  Co14  1  0.750000  0.581785  0.994278  1
  Co  Co15  1  0.750000  0.918215  0.994278  1
  Co  Co16  1  0.250000  0.453697  0.569926  1
  Co  Co17  1  0.250000  0.046303  0.569926  1
  Co  Co18  1  0.750000  0.546303  0.430074  1
  Co  Co19  1  0.750000  0.953697  0.430074  1
  Co  Co20  1  0.250000  0.870881  0.290358  1
  Co  Co21  1  0.250000  0.629119  0.290358  1
  Co  Co22  1  0.750000  0.129119  0.709642  1
  Co  Co23  1  0.750000  0.370881  0.709642  1
  P  P24  1  0.250000  0.250000  0.115944  1
  P  P25  1  0.750000  0.750000  0.884056  1
  P  P26  1  0.250000  0.250000  0.658714  1
  P  P27  1  0.750000  0.750000  0.341286  1
  P  P28  1  0.250000  0.440650  0.382993  1
  P  P29  1  0.250000  0.059350  0.382993  1
  P  P30  1  0.750000  0.559350  0.617007  1
  P  P31  1  0.750000  0.940650  0.617007  1
  P  P32  1  0.250000  0.902506  0.106741  1
  P  P33  1  0.250000  0.597494  0.106741  1
  P  P34  1  0.750000  0.097494  0.893259  1
  P  P35  1  0.750000  0.402506  0.893259  1
