# generated using pymatgen
data_Tm4Ir7Rh
_symmetry_space_group_name_H-M   'P 1'
_cell_length_a   5.32933212
_cell_length_b   5.33649528
_cell_length_c   8.67589200
_cell_angle_alpha   90.00000000
_cell_angle_beta   90.00000000
_cell_angle_gamma   120.04349952
_symmetry_Int_Tables_number   1
_chemical_formula_structural   Tm4Ir7Rh
_chemical_formula_sum   'Tm4 Ir7 Rh1'
_cell_volume   213.59110025
_cell_formula_units_Z   1
loop_
 _symmetry_equiv_pos_site_id
 _symmetry_equiv_pos_as_xyz
  1  'x, y, z'
loop_
 _atom_site_type_symbol
 _atom_site_label
 _atom_site_symmetry_multiplicity
 _atom_site_fract_x
 _atom_site_fract_y
 _atom_site_fract_z
 _atom_site_occupancy
  Tm  Tm0  1  0.667168  0.333586  0.566591  1
  Tm  Tm1  1  0.332857  0.666428  0.433597  1
  Tm  Tm2  1  0.332857  0.666428  0.066403  1
  Tm  Tm3  1  0.667168  0.333586  0.933409  1
  Ir  Ir4  1  0.997504  0.998749  0.499890  1
  Ir  Ir5  1  0.997504  0.998749  0.000110  1
  Ir  Ir6  1  0.170808  0.340823  0.750000  1
  Ir  Ir7  1  0.170793  0.829988  0.750000  1
  Ir  Ir8  1  0.659885  0.829959  0.750000  1
  Ir  Ir9  1  0.831588  0.659804  0.250000  1
  Ir  Ir10  1  0.831583  0.171769  0.250000  1
  Rh  Rh11  1  0.340282  0.170133  0.250000  1
