# generated using pymatgen
data_Yb3HoTc2(B8Os)2
_symmetry_space_group_name_H-M   'P 1'
_cell_length_a   3.55992400
_cell_length_b   5.96687072
_cell_length_c   11.53839263
_cell_angle_alpha   89.99507608
_cell_angle_beta   90.00000000
_cell_angle_gamma   90.00000000
_symmetry_Int_Tables_number   1
_chemical_formula_structural   Yb3HoTc2(B8Os)2
_chemical_formula_sum   'Yb3 Ho1 Tc2 B16 Os2'
_cell_volume   245.09399240
_cell_formula_units_Z   1
loop_
 _symmetry_equiv_pos_site_id
 _symmetry_equiv_pos_as_xyz
  1  'x, y, z'
loop_
 _atom_site_type_symbol
 _atom_site_label
 _atom_site_symmetry_multiplicity
 _atom_site_fract_x
 _atom_site_fract_y
 _atom_site_fract_z
 _atom_site_occupancy
  Yb  Yb0  1  0.000000  0.630242  0.350901  1
  Yb  Yb1  1  0.000000  0.370446  0.648205  1
  Yb  Yb2  1  0.000000  0.128426  0.152282  1
  Ho  Ho3  1  0.000000  0.871922  0.848305  1
  Tc  Tc4  1  0.000000  0.630755  0.083358  1
  Tc  Tc5  1  0.000000  0.370474  0.915266  1
  B  B6  1  0.500000  0.785484  0.185453  1
  B  B7  1  0.500000  0.213596  0.814677  1
  B  B8  1  0.500000  0.285864  0.315274  1
  B  B9  1  0.500000  0.713049  0.684622  1
  B  B10  1  0.500000  0.865173  0.032354  1
  B  B11  1  0.500000  0.134633  0.967973  1
  B  B12  1  0.500000  0.364021  0.469867  1
  B  B13  1  0.500000  0.636258  0.530260  1
  B  B14  1  0.500000  0.886864  0.453042  1
  B  B15  1  0.500000  0.113890  0.547295  1
  B  B16  1  0.500000  0.385169  0.047717  1
  B  B17  1  0.500000  0.612712  0.952406  1
  B  B18  1  0.500000  0.974483  0.308828  1
  B  B19  1  0.500000  0.025567  0.691281  1
  B  B20  1  0.500000  0.478121  0.192833  1
  B  B21  1  0.500000  0.522032  0.806714  1
  Os  Os22  1  0.000000  0.138726  0.411549  1
  Os  Os23  1  0.000000  0.862096  0.589537  1
