# generated using pymatgen
data_CaZr(TaS2)8
_symmetry_space_group_name_H-M   'P 1'
_cell_length_a   6.65639218
_cell_length_b   6.65456943
_cell_length_c   13.59907000
_cell_angle_alpha   90.00000000
_cell_angle_beta   89.98674425
_cell_angle_gamma   119.99099493
_symmetry_Int_Tables_number   1
_chemical_formula_structural   CaZr(TaS2)8
_chemical_formula_sum   'Ca1 Zr1 Ta8 S16'
_cell_volume   521.72072486
_cell_formula_units_Z   1
loop_
 _symmetry_equiv_pos_site_id
 _symmetry_equiv_pos_as_xyz
  1  'x, y, z'
loop_
 _atom_site_type_symbol
 _atom_site_label
 _atom_site_symmetry_multiplicity
 _atom_site_fract_x
 _atom_site_fract_y
 _atom_site_fract_z
 _atom_site_occupancy
  Ca  Ca0  1  0.000000  0.000000  0.000000  1
  Zr  Zr1  1  0.000000  0.000000  0.500000  1
  Ta  Ta2  1  0.989956  0.494979  0.262715  1
  Ta  Ta3  1  0.010044  0.505021  0.737285  1
  Ta  Ta4  1  0.494977  0.504435  0.737096  1
  Ta  Ta5  1  0.505023  0.009458  0.262904  1
  Ta  Ta6  1  0.000280  0.000140  0.736681  1
  Ta  Ta7  1  0.999720  0.999860  0.263319  1
  Ta  Ta8  1  0.505023  0.495565  0.262904  1
  Ta  Ta9  1  0.494977  0.990542  0.737096  1
  S  S10  1  0.333368  0.666685  0.619241  1
  S  S11  1  0.666783  0.333390  0.144402  1
  S  S12  1  0.666632  0.333315  0.380759  1
  S  S13  1  0.333217  0.666610  0.855598  1
  S  S14  1  0.169703  0.339200  0.378769  1
  S  S15  1  0.831585  0.168249  0.851700  1
  S  S16  1  0.336630  0.168313  0.851744  1
  S  S17  1  0.660575  0.830288  0.378901  1
  S  S18  1  0.169703  0.830502  0.378769  1
  S  S19  1  0.831585  0.663337  0.851700  1
  S  S20  1  0.168415  0.336663  0.148300  1
  S  S21  1  0.830297  0.169498  0.621231  1
  S  S22  1  0.339425  0.169712  0.621099  1
  S  S23  1  0.663370  0.831687  0.148256  1
  S  S24  1  0.168415  0.831751  0.148300  1
  S  S25  1  0.830297  0.660800  0.621231  1
