# generated using pymatgen
data_Tb2TmLuPt2
_symmetry_space_group_name_H-M   'P 1'
_cell_length_a   4.75213600
_cell_length_b   7.13105900
_cell_length_c   8.68191500
_cell_angle_alpha   90.00000000
_cell_angle_beta   90.00000000
_cell_angle_gamma   90.00000000
_symmetry_Int_Tables_number   1
_chemical_formula_structural   Tb2TmLuPt2
_chemical_formula_sum   'Tb4 Tm2 Lu2 Pt4'
_cell_volume   294.21067089
_cell_formula_units_Z   2
loop_
 _symmetry_equiv_pos_site_id
 _symmetry_equiv_pos_as_xyz
  1  'x, y, z'
loop_
 _atom_site_type_symbol
 _atom_site_label
 _atom_site_symmetry_multiplicity
 _atom_site_fract_x
 _atom_site_fract_y
 _atom_site_fract_z
 _atom_site_occupancy
  Tb  Tb0  1  0.750000  0.487148  0.828106  1
  Tb  Tb1  1  0.250000  0.012945  0.330671  1
  Tb  Tb2  1  0.750000  0.987148  0.671894  1
  Tb  Tb3  1  0.250000  0.512945  0.169329  1
  Tm  Tm4  1  0.250000  0.642840  0.575977  1
  Tm  Tm5  1  0.250000  0.142840  0.924023  1
  Lu  Lu6  1  0.750000  0.356057  0.422012  1
  Lu  Lu7  1  0.750000  0.856057  0.077988  1
  Pt  Pt8  1  0.250000  0.747071  0.904832  1
  Pt  Pt9  1  0.250000  0.247071  0.595168  1
  Pt  Pt10  1  0.750000  0.753941  0.405278  1
  Pt  Pt11  1  0.750000  0.253941  0.094722  1
