# generated using pymatgen
data_La3Ho2(TlSb)2
_symmetry_space_group_name_H-M   'P 1'
_cell_length_a   9.34823814
_cell_length_b   8.73341643
_cell_length_c   8.42077100
_cell_angle_alpha   90.32756214
_cell_angle_beta   90.50293144
_cell_angle_gamma   124.84095008
_symmetry_Int_Tables_number   1
_chemical_formula_structural   La3Ho2(TlSb)2
_chemical_formula_sum   'La6 Ho4 Tl4 Sb4'
_cell_volume   564.18055356
_cell_formula_units_Z   2
loop_
 _symmetry_equiv_pos_site_id
 _symmetry_equiv_pos_as_xyz
  1  'x, y, z'
loop_
 _atom_site_type_symbol
 _atom_site_label
 _atom_site_symmetry_multiplicity
 _atom_site_fract_x
 _atom_site_fract_y
 _atom_site_fract_z
 _atom_site_occupancy
  La  La0  1  0.049704  0.343548  0.324771  1
  La  La1  1  0.950296  0.656452  0.675229  1
  La  La2  1  0.449379  0.149833  0.816341  1
  La  La3  1  0.788922  0.513840  0.162064  1
  La  La4  1  0.550621  0.850167  0.183659  1
  La  La5  1  0.211078  0.486160  0.837936  1
  Ho  Ho6  1  0.721078  0.979449  0.658034  1
  Ho  Ho7  1  0.278922  0.020551  0.341966  1
  Ho  Ho8  1  0.000000  0.000000  0.000000  1
  Ho  Ho9  1  0.500000  0.500000  0.500000  1
  Tl  Tl10  1  0.368929  0.372304  0.132821  1
  Tl  Tl11  1  0.631071  0.627696  0.867179  1
  Tl  Tl12  1  0.129799  0.127467  0.629365  1
  Tl  Tl13  1  0.870201  0.872533  0.370635  1
  Sb  Sb14  1  0.813540  0.210513  0.968293  1
  Sb  Sb15  1  0.186460  0.789487  0.031707  1
  Sb  Sb16  1  0.674576  0.264258  0.475633  1
  Sb  Sb17  1  0.325424  0.735742  0.524367  1
