# generated using pymatgen
data_AcPa(Al3Rh)3
_symmetry_space_group_name_H-M   'P 1'
_cell_length_a   7.66128200
_cell_length_b   7.64839034
_cell_length_c   9.46500000
_cell_angle_alpha   90.00000000
_cell_angle_beta   90.00000000
_cell_angle_gamma   119.51571260
_symmetry_Int_Tables_number   1
_chemical_formula_structural   AcPa(Al3Rh)3
_chemical_formula_sum   'Ac2 Pa2 Al18 Rh6'
_cell_volume   482.63796568
_cell_formula_units_Z   2
loop_
 _symmetry_equiv_pos_site_id
 _symmetry_equiv_pos_as_xyz
  1  'x, y, z'
loop_
 _atom_site_type_symbol
 _atom_site_label
 _atom_site_symmetry_multiplicity
 _atom_site_fract_x
 _atom_site_fract_y
 _atom_site_fract_z
 _atom_site_occupancy
  Ac  Ac0  1  0.670137  0.993935  0.750000  1
  Ac  Ac1  1  0.329863  0.006065  0.250000  1
  Pa  Pa2  1  0.998335  0.672677  0.750000  1
  Pa  Pa3  1  0.001665  0.327323  0.250000  1
  Al  Al4  1  0.135584  0.130272  0.750000  1
  Al  Al5  1  0.864416  0.869728  0.250000  1
  Al  Al6  1  0.005512  0.338838  0.573134  1
  Al  Al7  1  0.994488  0.661162  0.426866  1
  Al  Al8  1  0.994488  0.661162  0.073134  1
  Al  Al9  1  0.332381  0.004002  0.922437  1
  Al  Al10  1  0.005512  0.338838  0.926866  1
  Al  Al11  1  0.667619  0.995998  0.077563  1
  Al  Al12  1  0.667619  0.995998  0.422437  1
  Al  Al13  1  0.332381  0.004002  0.577563  1
  Al  Al14  1  0.333696  0.337623  0.046923  1
  Al  Al15  1  0.666304  0.662377  0.953077  1
  Al  Al16  1  0.666304  0.662377  0.546923  1
  Al  Al17  1  0.333696  0.337623  0.453077  1
  Al  Al18  1  0.332213  0.541064  0.750000  1
  Al  Al19  1  0.667787  0.458936  0.250000  1
  Al  Al20  1  0.552828  0.352991  0.750000  1
  Al  Al21  1  0.447172  0.647009  0.250000  1
  Rh  Rh22  1  0.675072  0.329967  0.499212  1
  Rh  Rh23  1  0.324928  0.670033  0.500788  1
  Rh  Rh24  1  0.324928  0.670033  0.999212  1
  Rh  Rh25  1  0.675072  0.329967  0.000788  1
  Rh  Rh26  1  0.000000  0.000000  0.500000  1
  Rh  Rh27  1  0.000000  0.000000  0.000000  1
