# generated using pymatgen
data_Dy5Ho3Tc3B24Rh
_symmetry_space_group_name_H-M   'P 1'
_cell_length_a   3.68035900
_cell_length_b   9.15239452
_cell_length_c   11.53755405
_cell_angle_alpha   90.13021156
_cell_angle_beta   90.00000000
_cell_angle_gamma   90.00000000
_symmetry_Int_Tables_number   1
_chemical_formula_structural   Dy5Ho3Tc3B24Rh
_chemical_formula_sum   'Dy5 Ho3 Tc3 B24 Rh1'
_cell_volume   388.63109224
_cell_formula_units_Z   1
loop_
 _symmetry_equiv_pos_site_id
 _symmetry_equiv_pos_as_xyz
  1  'x, y, z'
loop_
 _atom_site_type_symbol
 _atom_site_label
 _atom_site_symmetry_multiplicity
 _atom_site_fract_x
 _atom_site_fract_y
 _atom_site_fract_z
 _atom_site_occupancy
  Dy  Dy0  1  0.500000  0.318647  0.416126  1
  Dy  Dy1  1  0.500000  0.678040  0.590925  1
  Dy  Dy2  1  0.500000  0.177015  0.912787  1
  Dy  Dy3  1  0.500000  0.827243  0.081124  1
  Dy  Dy4  1  0.500000  0.440457  0.129203  1
  Ho  Ho5  1  0.500000  0.557434  0.870799  1
  Ho  Ho6  1  0.500000  0.056461  0.629664  1
  Ho  Ho7  1  0.500000  0.943556  0.369675  1
  Tc  Tc8  1  0.500000  0.138058  0.180296  1
  Tc  Tc9  1  0.500000  0.861697  0.820600  1
  Tc  Tc10  1  0.500000  0.362569  0.677878  1
  B  B11  1  0.000000  0.101362  0.471351  1
  B  B12  1  0.000000  0.895561  0.528167  1
  B  B13  1  0.000000  0.397085  0.971618  1
  B  B14  1  0.000000  0.604324  0.029105  1
  B  B15  1  0.000000  0.130304  0.315062  1
  B  B16  1  0.000000  0.868813  0.685415  1
  B  B17  1  0.000000  0.369623  0.814115  1
  B  B18  1  0.000000  0.631689  0.184205  1
  B  B19  1  0.000000  0.053434  0.066704  1
  B  B20  1  0.000000  0.947206  0.932325  1
  B  B21  1  0.000000  0.446409  0.566812  1
  B  B22  1  0.000000  0.554010  0.433711  1
  B  B23  1  0.000000  0.483127  0.288194  1
  B  B24  1  0.000000  0.518058  0.712303  1
  B  B25  1  0.000000  0.017521  0.787084  1
  B  B26  1  0.000000  0.982779  0.211891  1
  B  B27  1  0.000000  0.248479  0.081468  1
  B  B28  1  0.000000  0.752072  0.918576  1
  B  B29  1  0.000000  0.250617  0.581211  1
  B  B30  1  0.000000  0.749068  0.420103  1
  B  B31  1  0.000000  0.290862  0.235485  1
  B  B32  1  0.000000  0.708664  0.765655  1
  B  B33  1  0.000000  0.208873  0.734232  1
  B  B34  1  0.000000  0.790935  0.265021  1
  Rh  Rh35  1  0.500000  0.637952  0.321112  1
