# generated using pymatgen
data_CeYMnN3
_symmetry_space_group_name_H-M   'P 1'
_cell_length_a   3.42576685
_cell_length_b   3.78605813
_cell_length_c   6.66003122
_cell_angle_alpha   106.51325266
_cell_angle_beta   104.90330638
_cell_angle_gamma   90.00001125
_symmetry_Int_Tables_number   1
_chemical_formula_structural   CeYMnN3
_chemical_formula_sum   'Ce1 Y1 Mn1 N3'
_cell_volume   79.78329510
_cell_formula_units_Z   1
loop_
 _symmetry_equiv_pos_site_id
 _symmetry_equiv_pos_as_xyz
  1  'x, y, z'
loop_
 _atom_site_type_symbol
 _atom_site_label
 _atom_site_symmetry_multiplicity
 _atom_site_fract_x
 _atom_site_fract_y
 _atom_site_fract_z
 _atom_site_occupancy
  Ce  Ce0  1  0.352347  0.352347  0.704694  1
  Y  Y1  1  0.644906  0.644907  0.289815  1
  Mn  Mn2  1  0.002347  0.002347  0.004695  1
  N  N3  1  0.998890  0.498888  0.997777  1
  N  N4  1  0.163876  0.163876  0.327752  1
  N  N5  1  0.837633  0.837633  0.675267  1
