# generated using pymatgen
data_Ca20TlSi8Hg3
_symmetry_space_group_name_H-M   'P 1'
_cell_length_a   7.72147200
_cell_length_b   7.72147200
_cell_length_c   15.31347800
_cell_angle_alpha   90.00000000
_cell_angle_beta   90.00000000
_cell_angle_gamma   90.00000000
_symmetry_Int_Tables_number   1
_chemical_formula_structural   Ca20TlSi8Hg3
_chemical_formula_sum   'Ca20 Tl1 Si8 Hg3'
_cell_volume   913.00686024
_cell_formula_units_Z   1
loop_
 _symmetry_equiv_pos_site_id
 _symmetry_equiv_pos_as_xyz
  1  'x, y, z'
loop_
 _atom_site_type_symbol
 _atom_site_label
 _atom_site_symmetry_multiplicity
 _atom_site_fract_x
 _atom_site_fract_y
 _atom_site_fract_z
 _atom_site_occupancy
  Ca  Ca0  1  0.675149  0.176043  0.113588  1
  Ca  Ca1  1  0.175569  0.676471  0.613379  1
  Ca  Ca2  1  0.324851  0.823957  0.113588  1
  Ca  Ca3  1  0.824431  0.323529  0.613379  1
  Ca  Ca4  1  0.823957  0.675149  0.113588  1
  Ca  Ca5  1  0.323529  0.175569  0.613379  1
  Ca  Ca6  1  0.176043  0.324851  0.113588  1
  Ca  Ca7  1  0.676471  0.824431  0.613379  1
  Ca  Ca8  1  0.823957  0.324851  0.886412  1
  Ca  Ca9  1  0.323529  0.824431  0.386621  1
  Ca  Ca10  1  0.176043  0.675149  0.886412  1
  Ca  Ca11  1  0.676471  0.175569  0.386621  1
  Ca  Ca12  1  0.675149  0.823957  0.886412  1
  Ca  Ca13  1  0.175569  0.323529  0.386621  1
  Ca  Ca14  1  0.324851  0.176043  0.886412  1
  Ca  Ca15  1  0.824431  0.676471  0.386621  1
  Ca  Ca16  1  0.500000  0.500000  0.751627  1
  Ca  Ca17  1  0.000000  0.000000  0.249290  1
  Ca  Ca18  1  0.000000  0.000000  0.750710  1
  Ca  Ca19  1  0.500000  0.500000  0.248373  1
  Tl  Tl20  1  0.000000  0.000000  0.000000  1
  Si  Si21  1  0.609920  0.113660  0.750136  1
  Si  Si22  1  0.113660  0.609920  0.249864  1
  Si  Si23  1  0.886340  0.390080  0.249864  1
  Si  Si24  1  0.390080  0.886340  0.750136  1
  Si  Si25  1  0.886340  0.609920  0.750136  1
  Si  Si26  1  0.390080  0.113660  0.249864  1
  Si  Si27  1  0.113660  0.390080  0.750136  1
  Si  Si28  1  0.609920  0.886340  0.249864  1
  Hg  Hg29  1  0.500000  0.500000  0.500000  1
  Hg  Hg30  1  0.500000  0.500000  0.000000  1
  Hg  Hg31  1  0.000000  0.000000  0.500000  1
