# generated using pymatgen
data_Dy4Y16Cd5InNi2
_symmetry_space_group_name_H-M   'P 1'
_cell_length_a   9.66047095
_cell_length_b   9.66236071
_cell_length_c   9.78635110
_cell_angle_alpha   90.01091150
_cell_angle_beta   89.89350562
_cell_angle_gamma   120.14003667
_symmetry_Int_Tables_number   1
_chemical_formula_structural   Dy4Y16Cd5InNi2
_chemical_formula_sum   'Dy4 Y16 Cd5 In1 Ni2'
_cell_volume   789.98254278
_cell_formula_units_Z   1
loop_
 _symmetry_equiv_pos_site_id
 _symmetry_equiv_pos_as_xyz
  1  'x, y, z'
loop_
 _atom_site_type_symbol
 _atom_site_label
 _atom_site_symmetry_multiplicity
 _atom_site_fract_x
 _atom_site_fract_y
 _atom_site_fract_z
 _atom_site_occupancy
  Dy  Dy0  1  0.002320  0.998304  0.501301  1
  Dy  Dy1  1  0.001784  0.998001  0.998614  1
  Dy  Dy2  1  0.210858  0.788944  0.436662  1
  Dy  Dy3  1  0.210073  0.421056  0.435759  1
  Y  Y4  1  0.542574  0.457120  0.250279  1
  Y  Y5  1  0.539977  0.087487  0.250331  1
  Y  Y6  1  0.912810  0.460003  0.250264  1
  Y  Y7  1  0.455848  0.544137  0.749819  1
  Y  Y8  1  0.456681  0.912701  0.749789  1
  Y  Y9  1  0.087446  0.543389  0.749539  1
  Y  Y10  1  0.580622  0.790736  0.436715  1
  Y  Y11  1  0.790450  0.209934  0.562318  1
  Y  Y12  1  0.789669  0.579521  0.564116  1
  Y  Y13  1  0.420150  0.210373  0.563987  1
  Y  Y14  1  0.790282  0.210012  0.937584  1
  Y  Y15  1  0.789450  0.579454  0.935920  1
  Y  Y16  1  0.420700  0.210722  0.935835  1
  Y  Y17  1  0.210171  0.789767  0.062565  1
  Y  Y18  1  0.209245  0.419250  0.063583  1
  Y  Y19  1  0.580245  0.790506  0.063625  1
  Cd  Cd20  1  0.885097  0.769649  0.249972  1
  Cd  Cd21  1  0.230343  0.114833  0.249825  1
  Cd  Cd22  1  0.116548  0.883424  0.750240  1
  Cd  Cd23  1  0.114866  0.230693  0.750241  1
  Cd  Cd24  1  0.769267  0.885087  0.750112  1
  In  In25  1  0.884026  0.115731  0.249921  1
  Ni  Ni26  1  0.331387  0.666332  0.251267  1
  Ni  Ni27  1  0.667113  0.332831  0.749816  1
