# generated using pymatgen
data_Ca3LaCdIr
_symmetry_space_group_name_H-M   'P 1'
_cell_length_a   10.10522067
_cell_length_b   10.10522042
_cell_length_c   10.10522000
_cell_angle_alpha   60.00000137
_cell_angle_beta   60.00000218
_cell_angle_gamma   60.00000064
_symmetry_Int_Tables_number   1
_chemical_formula_structural   Ca3LaCdIr
_chemical_formula_sum   'Ca12 La4 Cd4 Ir4'
_cell_volume   729.66309552
_cell_formula_units_Z   4
loop_
 _symmetry_equiv_pos_site_id
 _symmetry_equiv_pos_as_xyz
  1  'x, y, z'
loop_
 _atom_site_type_symbol
 _atom_site_label
 _atom_site_symmetry_multiplicity
 _atom_site_fract_x
 _atom_site_fract_y
 _atom_site_fract_z
 _atom_site_occupancy
  Ca  Ca0  1  0.808260  0.191740  0.191740  1
  Ca  Ca1  1  0.191740  0.808260  0.808260  1
  Ca  Ca2  1  0.191740  0.808260  0.191740  1
  Ca  Ca3  1  0.808260  0.191740  0.808260  1
  Ca  Ca4  1  0.191740  0.191740  0.808260  1
  Ca  Ca5  1  0.808260  0.808260  0.191740  1
  Ca  Ca6  1  0.941528  0.558472  0.558472  1
  Ca  Ca7  1  0.558472  0.941528  0.941528  1
  Ca  Ca8  1  0.558472  0.941528  0.558472  1
  Ca  Ca9  1  0.941528  0.558472  0.941528  1
  Ca  Ca10  1  0.558472  0.558472  0.941528  1
  Ca  Ca11  1  0.941528  0.941528  0.558472  1
  La  La12  1  0.343808  0.343808  0.343808  1
  La  La13  1  0.343808  0.343808  0.968575  1
  La  La14  1  0.343808  0.968575  0.343808  1
  La  La15  1  0.968575  0.343808  0.343808  1
  Cd  Cd16  1  0.580030  0.580030  0.580030  1
  Cd  Cd17  1  0.580030  0.580030  0.259910  1
  Cd  Cd18  1  0.580030  0.259910  0.580030  1
  Cd  Cd19  1  0.259910  0.580030  0.580030  1
  Ir  Ir20  1  0.142646  0.142646  0.142646  1
  Ir  Ir21  1  0.142646  0.142646  0.572062  1
  Ir  Ir22  1  0.142646  0.572062  0.142646  1
  Ir  Ir23  1  0.572062  0.142646  0.142646  1
