# generated using pymatgen
data_Nb2AlRh5
_symmetry_space_group_name_H-M   'P 1'
_cell_length_a   5.49748398
_cell_length_b   5.49748389
_cell_length_c   8.05559200
_cell_angle_alpha   90.00051639
_cell_angle_beta   90.00051729
_cell_angle_gamma   97.33873605
_symmetry_Int_Tables_number   1
_chemical_formula_structural   Nb2AlRh5
_chemical_formula_sum   'Nb4 Al2 Rh10'
_cell_volume   241.46441824
_cell_formula_units_Z   2
loop_
 _symmetry_equiv_pos_site_id
 _symmetry_equiv_pos_as_xyz
  1  'x, y, z'
loop_
 _atom_site_type_symbol
 _atom_site_label
 _atom_site_symmetry_multiplicity
 _atom_site_fract_x
 _atom_site_fract_y
 _atom_site_fract_z
 _atom_site_occupancy
  Nb  Nb0  1  0.782123  0.217877  0.500000  1
  Nb  Nb1  1  0.217886  0.782114  0.000000  1
  Nb  Nb2  1  0.217877  0.782123  0.500000  1
  Nb  Nb3  1  0.782114  0.217886  0.000000  1
  Al  Al4  1  0.500266  0.500266  0.750004  1
  Al  Al5  1  0.499734  0.499734  0.249996  1
  Rh  Rh6  1  0.717829  0.717829  0.000065  1
  Rh  Rh7  1  0.717828  0.717828  0.499927  1
  Rh  Rh8  1  0.282171  0.282171  0.999935  1
  Rh  Rh9  1  0.282172  0.282172  0.500073  1
  Rh  Rh10  1  0.500004  0.000035  0.750019  1
  Rh  Rh11  1  0.499996  0.999965  0.249981  1
  Rh  Rh12  1  0.000053  0.000053  0.249971  1
  Rh  Rh13  1  0.999947  0.999947  0.750029  1
  Rh  Rh14  1  0.000035  0.500004  0.750019  1
  Rh  Rh15  1  0.999965  0.499996  0.249981  1
