# generated using pymatgen
data_HoErCo12SiP6
_symmetry_space_group_name_H-M   'P 1'
_cell_length_a   9.01799200
_cell_length_b   9.01799086
_cell_length_c   3.59056600
_cell_angle_alpha   90.00000000
_cell_angle_beta   90.00000000
_cell_angle_gamma   119.99998951
_symmetry_Int_Tables_number   1
_chemical_formula_structural   HoErCo12SiP6
_chemical_formula_sum   'Ho1 Er1 Co12 Si1 P6'
_cell_volume   252.87926943
_cell_formula_units_Z   1
loop_
 _symmetry_equiv_pos_site_id
 _symmetry_equiv_pos_as_xyz
  1  'x, y, z'
loop_
 _atom_site_type_symbol
 _atom_site_label
 _atom_site_symmetry_multiplicity
 _atom_site_fract_x
 _atom_site_fract_y
 _atom_site_fract_z
 _atom_site_occupancy
  Ho  Ho0  1  0.666667  0.333333  0.500000  1
  Er  Er1  1  0.333333  0.666667  0.000000  1
  Co  Co2  1  0.122027  0.840203  0.000000  1
  Co  Co3  1  0.386000  0.436094  0.500000  1
  Co  Co4  1  0.718175  0.877973  0.000000  1
  Co  Co5  1  0.563906  0.949906  0.500000  1
  Co  Co6  1  0.228446  0.099159  0.500000  1
  Co  Co7  1  0.870712  0.771554  0.500000  1
  Co  Co8  1  0.900841  0.129288  0.500000  1
  Co  Co9  1  0.939895  0.373116  0.000000  1
  Co  Co10  1  0.626884  0.566779  0.000000  1
  Co  Co11  1  0.433221  0.060105  0.000000  1
  Co  Co12  1  0.050094  0.614000  0.500000  1
  Co  Co13  1  0.159797  0.281825  0.000000  1
  Si  Si14  1  0.000000  0.000000  0.000000  1
  P  P15  1  0.597302  0.710246  0.500000  1
  P  P16  1  0.705919  0.113121  0.000000  1
  P  P17  1  0.886879  0.592798  0.000000  1
  P  P18  1  0.407202  0.294081  0.000000  1
  P  P19  1  0.289754  0.887057  0.500000  1
  P  P20  1  0.112943  0.402698  0.500000  1
