# generated using pymatgen
data_Y4LuZn2Bi
_symmetry_space_group_name_H-M   'P 1'
_cell_length_a   8.64717249
_cell_length_b   8.64717199
_cell_length_c   8.64717272
_cell_angle_alpha   123.99001333
_cell_angle_beta   123.99001113
_cell_angle_gamma   83.21772978
_symmetry_Int_Tables_number   1
_chemical_formula_structural   Y4LuZn2Bi
_chemical_formula_sum   'Y8 Lu2 Zn4 Bi2'
_cell_volume   426.35167918
_cell_formula_units_Z   2
loop_
 _symmetry_equiv_pos_site_id
 _symmetry_equiv_pos_as_xyz
  1  'x, y, z'
loop_
 _atom_site_type_symbol
 _atom_site_label
 _atom_site_symmetry_multiplicity
 _atom_site_fract_x
 _atom_site_fract_y
 _atom_site_fract_z
 _atom_site_occupancy
  Y  Y0  1  0.796587  0.296587  0.809883  1
  Y  Y1  1  0.203413  0.703413  0.190117  1
  Y  Y2  1  0.486705  0.986705  0.190117  1
  Y  Y3  1  0.296587  0.486705  0.500000  1
  Y  Y4  1  0.013295  0.203413  0.500000  1
  Y  Y5  1  0.513295  0.013295  0.809883  1
  Y  Y6  1  0.703413  0.513295  0.500000  1
  Y  Y7  1  0.986705  0.796587  0.500000  1
  Lu  Lu8  1  0.000000  0.000000  0.000000  1
  Lu  Lu9  1  0.500000  0.500000  0.000000  1
  Zn  Zn10  1  0.137957  0.637957  0.775914  1
  Zn  Zn11  1  0.862043  0.362043  0.224086  1
  Zn  Zn12  1  0.637957  0.862043  0.500000  1
  Zn  Zn13  1  0.362043  0.137957  0.500000  1
  Bi  Bi14  1  0.250000  0.250000  0.000000  1
  Bi  Bi15  1  0.750000  0.750000  0.000000  1
