# generated using pymatgen
data_La3Zn4Cl
_symmetry_space_group_name_H-M   'P 1'
_cell_length_a   8.13742940
_cell_length_b   8.13742821
_cell_length_c   8.13742846
_cell_angle_alpha   119.71297264
_cell_angle_beta   119.71297321
_cell_angle_gamma   90.49787219
_symmetry_Int_Tables_number   1
_chemical_formula_structural   La3Zn4Cl
_chemical_formula_sum   'La6 Zn8 Cl2'
_cell_volume   382.65632343
_cell_formula_units_Z   2
loop_
 _symmetry_equiv_pos_site_id
 _symmetry_equiv_pos_as_xyz
  1  'x, y, z'
loop_
 _atom_site_type_symbol
 _atom_site_label
 _atom_site_symmetry_multiplicity
 _atom_site_fract_x
 _atom_site_fract_y
 _atom_site_fract_z
 _atom_site_occupancy
  La  La0  1  0.660112  0.160112  0.820223  1
  La  La1  1  0.160112  0.339888  0.500000  1
  La  La2  1  0.839888  0.660112  0.500000  1
  La  La3  1  0.750000  0.750000  0.000000  1
  La  La4  1  0.339888  0.839888  0.179777  1
  La  La5  1  0.250000  0.250000  0.000000  1
  Zn  Zn6  1  0.941522  0.441522  0.782300  1
  Zn  Zn7  1  0.840779  0.058478  0.500000  1
  Zn  Zn8  1  0.340779  0.840779  0.782300  1
  Zn  Zn9  1  0.441522  0.659221  0.500000  1
  Zn  Zn10  1  0.558478  0.340779  0.500000  1
  Zn  Zn11  1  0.058478  0.558478  0.217700  1
  Zn  Zn12  1  0.159221  0.941522  0.500000  1
  Zn  Zn13  1  0.659221  0.159221  0.217700  1
  Cl  Cl14  1  0.500000  0.500000  0.000000  1
  Cl  Cl15  1  0.000000  0.000000  0.000000  1
