# generated using pymatgen
data_Tb4ScSi3H
_symmetry_space_group_name_H-M   'P 1'
_cell_length_a   8.40277500
_cell_length_b   8.40277559
_cell_length_c   6.14347500
_cell_angle_alpha   90.00000000
_cell_angle_beta   90.00000000
_cell_angle_gamma   120.00000163
_symmetry_Int_Tables_number   1
_chemical_formula_structural   Tb4ScSi3H
_chemical_formula_sum   'Tb8 Sc2 Si6 H2'
_cell_volume   375.65590455
_cell_formula_units_Z   2
loop_
 _symmetry_equiv_pos_site_id
 _symmetry_equiv_pos_as_xyz
  1  'x, y, z'
loop_
 _atom_site_type_symbol
 _atom_site_label
 _atom_site_symmetry_multiplicity
 _atom_site_fract_x
 _atom_site_fract_y
 _atom_site_fract_z
 _atom_site_occupancy
  Tb  Tb0  1  0.333333  0.666667  0.500000  1
  Tb  Tb1  1  0.666667  0.333333  0.500000  1
  Tb  Tb2  1  0.748592  0.748592  0.754507  1
  Tb  Tb3  1  0.251408  0.000000  0.754507  1
  Tb  Tb4  1  0.000000  0.251408  0.754507  1
  Tb  Tb5  1  0.251408  0.251408  0.245493  1
  Tb  Tb6  1  0.748592  0.000000  0.245493  1
  Tb  Tb7  1  0.000000  0.748592  0.245493  1
  Sc  Sc8  1  0.666667  0.333333  0.000000  1
  Sc  Sc9  1  0.333333  0.666667  0.000000  1
  Si  Si10  1  0.392412  0.392412  0.764766  1
  Si  Si11  1  0.607588  0.000000  0.764766  1
  Si  Si12  1  0.000000  0.607588  0.764766  1
  Si  Si13  1  0.607588  0.607588  0.235234  1
  Si  Si14  1  0.392412  0.000000  0.235234  1
  Si  Si15  1  0.000000  0.392412  0.235234  1
  H  H16  1  0.000000  0.000000  0.500000  1
  H  H17  1  0.000000  0.000000  0.000000  1
