# generated using pymatgen
data_Tb8TiSi16W11
_symmetry_space_group_name_H-M   'P 1'
_cell_length_a   6.89340839
_cell_length_b   6.89340849
_cell_length_c   12.84360316
_cell_angle_alpha   90.04001738
_cell_angle_beta   89.95998045
_cell_angle_gamma   90.20959075
_symmetry_Int_Tables_number   1
_chemical_formula_structural   Tb8TiSi16W11
_chemical_formula_sum   'Tb8 Ti1 Si16 W11'
_cell_volume   610.31182422
_cell_formula_units_Z   1
loop_
 _symmetry_equiv_pos_site_id
 _symmetry_equiv_pos_as_xyz
  1  'x, y, z'
loop_
 _atom_site_type_symbol
 _atom_site_label
 _atom_site_symmetry_multiplicity
 _atom_site_fract_x
 _atom_site_fract_y
 _atom_site_fract_z
 _atom_site_occupancy
  Tb  Tb0  1  0.999300  0.663913  0.031216  1
  Tb  Tb1  1  0.998891  0.337212  0.531011  1
  Tb  Tb2  1  0.663913  0.999300  0.968784  1
  Tb  Tb3  1  0.161531  0.500883  0.780505  1
  Tb  Tb4  1  0.837545  0.502040  0.281312  1
  Tb  Tb5  1  0.500883  0.161531  0.219495  1
  Tb  Tb6  1  0.502040  0.837545  0.718688  1
  Tb  Tb7  1  0.337212  0.998891  0.468989  1
  Ti  Ti8  1  0.331597  0.331597  0.000000  1
  Si  Si9  1  0.035244  0.713047  0.436818  1
  Si  Si10  1  0.960256  0.290569  0.934301  1
  Si  Si11  1  0.713047  0.035244  0.563182  1
  Si  Si12  1  0.211179  0.465006  0.187297  1
  Si  Si13  1  0.787674  0.536046  0.686848  1
  Si  Si14  1  0.465006  0.211179  0.812703  1
  Si  Si15  1  0.536046  0.787674  0.313152  1
  Si  Si16  1  0.290569  0.960256  0.065699  1
  Si  Si17  1  0.800849  0.874676  0.184056  1
  Si  Si18  1  0.299861  0.625308  0.565790  1
  Si  Si19  1  0.702500  0.371842  0.065583  1
  Si  Si20  1  0.625308  0.299861  0.434210  1
  Si  Si21  1  0.371842  0.702500  0.934417  1
  Si  Si22  1  0.125723  0.201244  0.315202  1
  Si  Si23  1  0.201244  0.125723  0.684798  1
  Si  Si24  1  0.874676  0.800849  0.815944  1
  W  W25  1  0.334076  0.501142  0.376303  1
  W  W26  1  0.834670  0.001468  0.373121  1
  W  W27  1  0.003528  0.165809  0.124057  1
  W  W28  1  0.001468  0.834670  0.626879  1
  W  W29  1  0.501142  0.334076  0.623697  1
  W  W30  1  0.165809  0.003528  0.875943  1
  W  W31  1  0.668008  0.668008  0.500000  1
  W  W32  1  0.832997  0.165570  0.747840  1
  W  W33  1  0.165570  0.832997  0.252160  1
  W  W34  1  0.499555  0.659235  0.123185  1
  W  W35  1  0.659235  0.499555  0.876815  1
