# generated using pymatgen
data_Ho3TaNb2(B2Ru5)2
_symmetry_space_group_name_H-M   'P 1'
_cell_length_a   9.58480206
_cell_length_b   9.58988685
_cell_length_c   3.12247300
_cell_angle_alpha   90.00000000
_cell_angle_beta   90.00000000
_cell_angle_gamma   90.35055895
_symmetry_Int_Tables_number   1
_chemical_formula_structural   Ho3TaNb2(B2Ru5)2
_chemical_formula_sum   'Ho3 Ta1 Nb2 B4 Ru10'
_cell_volume   287.00350079
_cell_formula_units_Z   1
loop_
 _symmetry_equiv_pos_site_id
 _symmetry_equiv_pos_as_xyz
  1  'x, y, z'
loop_
 _atom_site_type_symbol
 _atom_site_label
 _atom_site_symmetry_multiplicity
 _atom_site_fract_x
 _atom_site_fract_y
 _atom_site_fract_z
 _atom_site_occupancy
  Ho  Ho0  1  0.824351  0.675226  0.000000  1
  Ho  Ho1  1  0.174844  0.323988  0.000000  1
  Ho  Ho2  1  0.325383  0.825810  0.000000  1
  Ta  Ta3  1  0.002758  0.998136  0.000000  1
  Nb  Nb4  1  0.675974  0.175653  0.000000  1
  Nb  Nb5  1  0.498019  0.502986  0.000000  1
  B  B6  1  0.623227  0.880804  0.000000  1
  B  B7  1  0.380773  0.123187  0.000000  1
  B  B8  1  0.119296  0.619285  0.000000  1
  B  B9  1  0.876313  0.376439  0.000000  1
  Ru  Ru10  1  0.571290  0.722344  0.500000  1
  Ru  Ru11  1  0.440525  0.280055  0.500000  1
  Ru  Ru12  1  0.069462  0.780636  0.500000  1
  Ru  Ru13  1  0.916480  0.213333  0.500000  1
  Ru  Ru14  1  0.280136  0.569439  0.500000  1
  Ru  Ru15  1  0.713732  0.415824  0.500000  1
  Ru  Ru16  1  0.221630  0.071262  0.500000  1
  Ru  Ru17  1  0.780524  0.940319  0.500000  1
  Ru  Ru18  1  0.509199  0.009178  0.500000  1
  Ru  Ru19  1  0.996083  0.496094  0.500000  1
