# generated using pymatgen
data_CuCl30
_symmetry_space_group_name_H-M   'P 1'
_cell_length_a   12.95816232
_cell_length_b   12.95816300
_cell_length_c   16.99998307
_cell_angle_alpha   84.75397464
_cell_angle_beta   84.75397508
_cell_angle_gamma   123.93896977
_symmetry_Int_Tables_number   1
_chemical_formula_structural   CuCl30
_chemical_formula_sum   'Cu1 Cl30'
_cell_volume   2322.95973927
_cell_formula_units_Z   1
loop_
 _symmetry_equiv_pos_site_id
 _symmetry_equiv_pos_as_xyz
  1  'x, y, z'
loop_
 _atom_site_type_symbol
 _atom_site_label
 _atom_site_symmetry_multiplicity
 _atom_site_fract_x
 _atom_site_fract_y
 _atom_site_fract_z
 _atom_site_occupancy
  Cu  Cu0  1  0.000000  0.000000  0.000000  1
  Cl  Cl1  1  0.932814  0.932814  0.191706  1
  Cl  Cl2  1  0.067186  0.067186  0.808294  1
  Cl  Cl3  1  0.057703  0.189060  0.004923  1
  Cl  Cl4  1  0.942297  0.810940  0.995077  1
  Cl  Cl5  1  0.189060  0.057703  0.004923  1
  Cl  Cl6  1  0.810940  0.942297  0.995077  1
  Cl  Cl7  1  0.206264  0.744296  0.059637  1
  Cl  Cl8  1  0.793736  0.255704  0.940363  1
  Cl  Cl9  1  0.698268  0.081243  0.256902  1
  Cl  Cl10  1  0.255704  0.793736  0.940363  1
  Cl  Cl11  1  0.301732  0.918757  0.743098  1
  Cl  Cl12  1  0.744296  0.206264  0.059637  1
  Cl  Cl13  1  0.992693  0.196399  0.766874  1
  Cl  Cl14  1  0.918757  0.301732  0.743098  1
  Cl  Cl15  1  0.007307  0.803601  0.233126  1
  Cl  Cl16  1  0.081243  0.698268  0.256902  1
  Cl  Cl17  1  0.803601  0.007307  0.233126  1
  Cl  Cl18  1  0.196399  0.992693  0.766874  1
  Cl  Cl19  1  0.464711  0.551825  0.261260  1
  Cl  Cl20  1  0.535289  0.448175  0.738740  1
  Cl  Cl21  1  0.504079  0.201371  0.453142  1
  Cl  Cl22  1  0.448175  0.535289  0.738740  1
  Cl  Cl23  1  0.495921  0.798629  0.546858  1
  Cl  Cl24  1  0.551825  0.464711  0.261260  1
  Cl  Cl25  1  0.237457  0.427505  0.544204  1
  Cl  Cl26  1  0.798629  0.495921  0.546858  1
  Cl  Cl27  1  0.762543  0.572495  0.455796  1
  Cl  Cl28  1  0.201371  0.504079  0.453142  1
  Cl  Cl29  1  0.572495  0.762543  0.455796  1
  Cl  Cl30  1  0.427505  0.237457  0.544204  1
