# generated using pymatgen
data_Tb20Ru11Rh
_symmetry_space_group_name_H-M   'P 1'
_cell_length_a   10.86627190
_cell_length_b   10.86627173
_cell_length_c   6.40187313
_cell_angle_alpha   89.96570566
_cell_angle_beta   89.96570530
_cell_angle_gamma   89.95920295
_symmetry_Int_Tables_number   1
_chemical_formula_structural   Tb20Ru11Rh
_chemical_formula_sum   'Tb20 Ru11 Rh1'
_cell_volume   755.90623384
_cell_formula_units_Z   1
loop_
 _symmetry_equiv_pos_site_id
 _symmetry_equiv_pos_as_xyz
  1  'x, y, z'
loop_
 _atom_site_type_symbol
 _atom_site_label
 _atom_site_symmetry_multiplicity
 _atom_site_fract_x
 _atom_site_fract_y
 _atom_site_fract_z
 _atom_site_occupancy
  Tb  Tb0  1  0.292266  0.086967  0.377779  1
  Tb  Tb1  1  0.292171  0.915071  0.878240  1
  Tb  Tb2  1  0.708109  0.086980  0.877926  1
  Tb  Tb3  1  0.708145  0.913227  0.378126  1
  Tb  Tb4  1  0.588146  0.793265  0.877786  1
  Tb  Tb5  1  0.586954  0.207152  0.377194  1
  Tb  Tb6  1  0.413852  0.793639  0.376663  1
  Tb  Tb7  1  0.413148  0.208304  0.877936  1
  Tb  Tb8  1  0.206735  0.411854  0.622214  1
  Tb  Tb9  1  0.206361  0.586148  0.123337  1
  Tb  Tb10  1  0.792848  0.413046  0.122806  1
  Tb  Tb11  1  0.791696  0.586852  0.622064  1
  Tb  Tb12  1  0.913033  0.707734  0.122221  1
  Tb  Tb13  1  0.913020  0.291891  0.622074  1
  Tb  Tb14  1  0.084929  0.707829  0.621760  1
  Tb  Tb15  1  0.086773  0.291855  0.121874  1
  Tb  Tb16  1  0.000199  0.000175  0.499922  1
  Tb  Tb17  1  0.999825  0.999801  0.000078  1
  Tb  Tb18  1  0.501563  0.499388  0.001076  1
  Tb  Tb19  1  0.500612  0.498437  0.498924  1
  Ru  Ru20  1  0.847287  0.152713  0.250000  1
  Ru  Ru21  1  0.847210  0.846898  0.749791  1
  Ru  Ru22  1  0.153102  0.152790  0.750209  1
  Ru  Ru23  1  0.153923  0.846077  0.250000  1
  Ru  Ru24  1  0.652588  0.347412  0.750000  1
  Ru  Ru25  1  0.651280  0.652915  0.250431  1
  Ru  Ru26  1  0.347085  0.348720  0.249569  1
  Ru  Ru27  1  0.500012  0.999288  0.122983  1
  Ru  Ru28  1  0.499835  0.999798  0.623766  1
  Ru  Ru29  1  0.000202  0.500165  0.876234  1
  Ru  Ru30  1  0.000712  0.499988  0.377017  1
  Rh  Rh31  1  0.346378  0.653622  0.750000  1
