# generated using pymatgen
data_Ce2Y(InPt)3
_symmetry_space_group_name_H-M   'P 1'
_cell_length_a   7.66465500
_cell_length_b   7.66803601
_cell_length_c   3.99949900
_cell_angle_alpha   90.00000000
_cell_angle_beta   90.00000000
_cell_angle_gamma   119.98541115
_symmetry_Int_Tables_number   1
_chemical_formula_structural   Ce2Y(InPt)3
_chemical_formula_sum   'Ce2 Y1 In3 Pt3'
_cell_volume   203.59954583
_cell_formula_units_Z   1
loop_
 _symmetry_equiv_pos_site_id
 _symmetry_equiv_pos_as_xyz
  1  'x, y, z'
loop_
 _atom_site_type_symbol
 _atom_site_label
 _atom_site_symmetry_multiplicity
 _atom_site_fract_x
 _atom_site_fract_y
 _atom_site_fract_z
 _atom_site_occupancy
  Ce  Ce0  1  0.589812  0.589192  0.500000  1
  Ce  Ce1  1  0.000620  0.410808  0.500000  1
  Y  Y2  1  0.406732  0.000000  0.500000  1
  In  In3  1  0.005087  0.749170  0.000000  1
  In  In4  1  0.740327  0.000000  0.000000  1
  In  In5  1  0.255916  0.250830  0.000000  1
  Pt  Pt6  1  0.997773  0.000000  0.500000  1
  Pt  Pt7  1  0.671590  0.339446  0.000000  1
  Pt  Pt8  1  0.332143  0.660554  0.000000  1
