# generated using pymatgen
data_Pr3Mg3Hg2Ge
_symmetry_space_group_name_H-M   'P 1'
_cell_length_a   7.71614500
_cell_length_b   7.71614561
_cell_length_c   4.51299400
_cell_angle_alpha   90.00000000
_cell_angle_beta   90.00000000
_cell_angle_gamma   120.00000169
_symmetry_Int_Tables_number   1
_chemical_formula_structural   Pr3Mg3Hg2Ge
_chemical_formula_sum   'Pr3 Mg3 Hg2 Ge1'
_cell_volume   232.69988836
_cell_formula_units_Z   1
loop_
 _symmetry_equiv_pos_site_id
 _symmetry_equiv_pos_as_xyz
  1  'x, y, z'
loop_
 _atom_site_type_symbol
 _atom_site_label
 _atom_site_symmetry_multiplicity
 _atom_site_fract_x
 _atom_site_fract_y
 _atom_site_fract_z
 _atom_site_occupancy
  Pr  Pr0  1  0.423255  0.007417  0.000000  1
  Pr  Pr1  1  0.992583  0.415839  0.000000  1
  Pr  Pr2  1  0.584162  0.576745  0.000000  1
  Mg  Mg3  1  0.752200  0.999309  0.499999  1
  Mg  Mg4  1  0.247108  0.247800  0.499999  1
  Mg  Mg5  1  0.000691  0.752890  0.499999  1
  Hg  Hg6  1  0.000000  0.000000  0.000000  1
  Hg  Hg7  1  0.333333  0.666666  0.499999  1
  Ge  Ge8  1  0.666666  0.333334  0.499999  1
