# generated using pymatgen
data_Hf4Si3Ni4As
_symmetry_space_group_name_H-M   'P 1'
_cell_length_a   3.82961900
_cell_length_b   6.42542921
_cell_length_c   7.24592449
_cell_angle_alpha   90.44643326
_cell_angle_beta   90.00000000
_cell_angle_gamma   90.00000000
_symmetry_Int_Tables_number   1
_chemical_formula_structural   Hf4Si3Ni4As
_chemical_formula_sum   'Hf4 Si3 Ni4 As1'
_cell_volume   178.29465861
_cell_formula_units_Z   1
loop_
 _symmetry_equiv_pos_site_id
 _symmetry_equiv_pos_as_xyz
  1  'x, y, z'
loop_
 _atom_site_type_symbol
 _atom_site_label
 _atom_site_symmetry_multiplicity
 _atom_site_fract_x
 _atom_site_fract_y
 _atom_site_fract_z
 _atom_site_occupancy
  Hf  Hf0  1  0.250000  0.014925  0.310809  1
  Hf  Hf1  1  0.250000  0.517391  0.185012  1
  Hf  Hf2  1  0.750000  0.977337  0.690281  1
  Hf  Hf3  1  0.750000  0.485358  0.814020  1
  Si  Si4  1  0.250000  0.771921  0.888642  1
  Si  Si5  1  0.750000  0.728637  0.386425  1
  Si  Si6  1  0.750000  0.227713  0.110808  1
  Ni  Ni7  1  0.250000  0.137342  0.944498  1
  Ni  Ni8  1  0.250000  0.657939  0.564858  1
  Ni  Ni9  1  0.750000  0.854188  0.063363  1
  Ni  Ni10  1  0.750000  0.356090  0.425571  1
  As  As11  1  0.250000  0.271159  0.615713  1
