# generated using pymatgen
data_Ho4MnB16Ir3
_symmetry_space_group_name_H-M   'P 1'
_cell_length_a   3.52446700
_cell_length_b   5.94522758
_cell_length_c   11.52788852
_cell_angle_alpha   90.18240200
_cell_angle_beta   90.00000000
_cell_angle_gamma   90.00000000
_symmetry_Int_Tables_number   1
_chemical_formula_structural   Ho4MnB16Ir3
_chemical_formula_sum   'Ho4 Mn1 B16 Ir3'
_cell_volume   241.55136683
_cell_formula_units_Z   1
loop_
 _symmetry_equiv_pos_site_id
 _symmetry_equiv_pos_as_xyz
  1  'x, y, z'
loop_
 _atom_site_type_symbol
 _atom_site_label
 _atom_site_symmetry_multiplicity
 _atom_site_fract_x
 _atom_site_fract_y
 _atom_site_fract_z
 _atom_site_occupancy
  Ho  Ho0  1  0.500000  0.629201  0.145034  1
  Ho  Ho1  1  0.500000  0.373111  0.851446  1
  Ho  Ho2  1  0.500000  0.129915  0.351308  1
  Ho  Ho3  1  0.500000  0.870151  0.654656  1
  Mn  Mn4  1  0.500000  0.861318  0.908425  1
  B  B5  1  0.000000  0.970974  0.190385  1
  B  B6  1  0.000000  0.022596  0.809922  1
  B  B7  1  0.000000  0.472336  0.306388  1
  B  B8  1  0.000000  0.526650  0.694358  1
  B  B9  1  0.000000  0.790081  0.311167  1
  B  B10  1  0.000000  0.210260  0.689443  1
  B  B11  1  0.000000  0.289934  0.185652  1
  B  B12  1  0.000000  0.715640  0.816231  1
  B  B13  1  0.000000  0.863889  0.470585  1
  B  B14  1  0.000000  0.135890  0.530661  1
  B  B15  1  0.000000  0.364580  0.029273  1
  B  B16  1  0.000000  0.638095  0.967197  1
  B  B17  1  0.000000  0.885362  0.043843  1
  B  B18  1  0.000000  0.110580  0.952041  1
  B  B19  1  0.000000  0.387472  0.453306  1
  B  B20  1  0.000000  0.613568  0.548275  1
  Ir  Ir21  1  0.500000  0.644337  0.402604  1
  Ir  Ir22  1  0.500000  0.357353  0.595684  1
  Ir  Ir23  1  0.500000  0.136707  0.092115  1
