# generated using pymatgen
data_Sr2Y(B3Ir4)2
_symmetry_space_group_name_H-M   'P 1'
_cell_length_a   10.00654348
_cell_length_b   9.11987082
_cell_length_c   5.71315991
_cell_angle_alpha   81.34507873
_cell_angle_beta   64.29145251
_cell_angle_gamma   34.36346535
_symmetry_Int_Tables_number   1
_chemical_formula_structural   Sr2Y(B3Ir4)2
_chemical_formula_sum   'Sr2 Y1 B6 Ir8'
_cell_volume   242.05608128
_cell_formula_units_Z   1
loop_
 _symmetry_equiv_pos_site_id
 _symmetry_equiv_pos_as_xyz
  1  'x, y, z'
loop_
 _atom_site_type_symbol
 _atom_site_label
 _atom_site_symmetry_multiplicity
 _atom_site_fract_x
 _atom_site_fract_y
 _atom_site_fract_z
 _atom_site_occupancy
  Sr  Sr0  1  0.318250  0.318250  0.681750  1
  Sr  Sr1  1  0.681750  0.681750  0.318250  1
  Y  Y2  1  0.500000  0.500000  0.500000  1
  B  B3  1  0.668195  0.990113  0.009887  1
  B  B4  1  0.990113  0.668195  0.331805  1
  B  B5  1  0.331805  0.009887  0.990113  1
  B  B6  1  0.009887  0.331805  0.668195  1
  B  B7  1  0.166078  0.833922  0.166078  1
  B  B8  1  0.833922  0.166078  0.833922  1
  Ir  Ir9  1  0.583787  0.583787  0.916213  1
  Ir  Ir10  1  0.914407  0.914407  0.085593  1
  Ir  Ir11  1  0.416213  0.416213  0.083787  1
  Ir  Ir12  1  0.083787  0.083787  0.416213  1
  Ir  Ir13  1  0.916213  0.916213  0.583787  1
  Ir  Ir14  1  0.250000  0.250000  0.250000  1
  Ir  Ir15  1  0.085593  0.085593  0.914407  1
  Ir  Ir16  1  0.750000  0.750000  0.750000  1
