# generated using pymatgen
data_Pr3Hg2Pb3
_symmetry_space_group_name_H-M   'P 1'
_cell_length_a   6.74788035
_cell_length_b   6.74788021
_cell_length_c   10.68093900
_cell_angle_alpha   90.00000000
_cell_angle_beta   90.00000000
_cell_angle_gamma   103.05330484
_symmetry_Int_Tables_number   1
_chemical_formula_structural   Pr3Hg2Pb3
_chemical_formula_sum   'Pr6 Hg4 Pb6'
_cell_volume   473.77771160
_cell_formula_units_Z   2
loop_
 _symmetry_equiv_pos_site_id
 _symmetry_equiv_pos_as_xyz
  1  'x, y, z'
loop_
 _atom_site_type_symbol
 _atom_site_label
 _atom_site_symmetry_multiplicity
 _atom_site_fract_x
 _atom_site_fract_y
 _atom_site_fract_z
 _atom_site_occupancy
  Pr  Pr0  1  0.616152  0.616152  0.250000  1
  Pr  Pr1  1  0.383848  0.383848  0.750000  1
  Pr  Pr2  1  0.205186  0.794814  0.500000  1
  Pr  Pr3  1  0.205186  0.794814  0.000000  1
  Pr  Pr4  1  0.794814  0.205186  0.500000  1
  Pr  Pr5  1  0.794814  0.205186  0.000000  1
  Hg  Hg6  1  0.311403  0.311403  0.038362  1
  Hg  Hg7  1  0.688597  0.688597  0.961638  1
  Hg  Hg8  1  0.311403  0.311403  0.461638  1
  Hg  Hg9  1  0.688597  0.688597  0.538362  1
  Pb  Pb10  1  0.011202  0.011202  0.250000  1
  Pb  Pb11  1  0.988798  0.988798  0.750000  1
  Pb  Pb12  1  0.498387  0.065922  0.250000  1
  Pb  Pb13  1  0.934078  0.501613  0.750000  1
  Pb  Pb14  1  0.501613  0.934078  0.750000  1
  Pb  Pb15  1  0.065922  0.498387  0.250000  1
