# generated using pymatgen
data_Rb6ScBiSe3
_symmetry_space_group_name_H-M   'P 1'
_cell_length_a   10.95924600
_cell_length_b   10.95924512
_cell_length_c   8.87417300
_cell_angle_alpha   90.00000000
_cell_angle_beta   90.00000000
_cell_angle_gamma   119.99999663
_symmetry_Int_Tables_number   1
_chemical_formula_structural   Rb6ScBiSe3
_chemical_formula_sum   'Rb12 Sc2 Bi2 Se6'
_cell_volume   923.03858004
_cell_formula_units_Z   2
loop_
 _symmetry_equiv_pos_site_id
 _symmetry_equiv_pos_as_xyz
  1  'x, y, z'
loop_
 _atom_site_type_symbol
 _atom_site_label
 _atom_site_symmetry_multiplicity
 _atom_site_fract_x
 _atom_site_fract_y
 _atom_site_fract_z
 _atom_site_occupancy
  Rb  Rb0  1  0.142721  0.857279  0.536827  1
  Rb  Rb1  1  0.285441  0.142721  0.036827  1
  Rb  Rb2  1  0.857279  0.714559  0.036827  1
  Rb  Rb3  1  0.142721  0.285441  0.536827  1
  Rb  Rb4  1  0.714559  0.857279  0.536827  1
  Rb  Rb5  1  0.857279  0.142721  0.036827  1
  Rb  Rb6  1  0.527987  0.472013  0.372921  1
  Rb  Rb7  1  0.055975  0.527987  0.872921  1
  Rb  Rb8  1  0.472013  0.944025  0.872921  1
  Rb  Rb9  1  0.527987  0.055975  0.372921  1
  Rb  Rb10  1  0.944025  0.472013  0.372921  1
  Rb  Rb11  1  0.472013  0.527987  0.872921  1
  Sc  Sc12  1  0.333333  0.666667  0.242336  1
  Sc  Sc13  1  0.666667  0.333333  0.742336  1
  Bi  Bi14  1  0.333333  0.666667  0.567933  1
  Bi  Bi15  1  0.666667  0.333333  0.067933  1
  Se  Se16  1  0.199481  0.800519  0.156729  1
  Se  Se17  1  0.398961  0.199481  0.656729  1
  Se  Se18  1  0.800519  0.601039  0.656729  1
  Se  Se19  1  0.199481  0.398961  0.156729  1
  Se  Se20  1  0.601039  0.800519  0.156729  1
  Se  Se21  1  0.800519  0.199481  0.656729  1
