# generated using pymatgen
data_Zn22IrPd2Rh
_symmetry_space_group_name_H-M   'P 1'
_cell_length_a   7.93564946
_cell_length_b   7.93564968
_cell_length_c   7.92408957
_cell_angle_alpha   109.43864367
_cell_angle_beta   109.43864710
_cell_angle_gamma   109.54885448
_symmetry_Int_Tables_number   1
_chemical_formula_structural   Zn22IrPd2Rh
_chemical_formula_sum   'Zn22 Ir1 Pd2 Rh1'
_cell_volume   384.08303171
_cell_formula_units_Z   1
loop_
 _symmetry_equiv_pos_site_id
 _symmetry_equiv_pos_as_xyz
  1  'x, y, z'
loop_
 _atom_site_type_symbol
 _atom_site_label
 _atom_site_symmetry_multiplicity
 _atom_site_fract_x
 _atom_site_fract_y
 _atom_site_fract_z
 _atom_site_occupancy
  Zn  Zn0  1  0.997247  0.785836  0.999354  1
  Zn  Zn1  1  0.785836  0.997247  0.999354  1
  Zn  Zn2  1  0.997664  0.997664  0.781815  1
  Zn  Zn3  1  0.216385  0.216385  0.217976  1
  Zn  Zn4  1  0.353181  0.619155  0.351940  1
  Zn  Zn5  1  0.267880  0.001183  0.648853  1
  Zn  Zn6  1  0.650309  0.000929  0.269332  1
  Zn  Zn7  1  0.269156  0.649314  0.999934  1
  Zn  Zn8  1  0.732417  0.732417  0.381784  1
  Zn  Zn9  1  0.381240  0.731041  0.730070  1
  Zn  Zn10  1  0.000929  0.650309  0.269332  1
  Zn  Zn11  1  0.001183  0.267880  0.648853  1
  Zn  Zn12  1  0.649314  0.269156  0.999934  1
  Zn  Zn13  1  0.352146  0.352146  0.618592  1
  Zn  Zn14  1  0.619155  0.353181  0.351940  1
  Zn  Zn15  1  0.731041  0.381240  0.730070  1
  Zn  Zn16  1  0.357288  0.357288  0.001152  1
  Zn  Zn17  1  0.999608  0.640493  0.645240  1
  Zn  Zn18  1  0.996250  0.355669  0.354977  1
  Zn  Zn19  1  0.355669  0.996250  0.354977  1
  Zn  Zn20  1  0.640493  0.999608  0.645240  1
  Zn  Zn21  1  0.642021  0.642021  0.999061  1
  Ir  Ir22  1  0.000803  0.000803  0.345621  1
  Pd  Pd23  1  0.000469  0.346473  0.999821  1
  Pd  Pd24  1  0.346473  0.000469  0.999821  1
  Rh  Rh25  1  0.655845  0.655845  0.654957  1
