# generated using pymatgen
data_PrBiPt2O7
_symmetry_space_group_name_H-M   'P 1'
_cell_length_a   7.47811649
_cell_length_b   7.45951544
_cell_length_c   7.45951580
_cell_angle_alpha   59.88719292
_cell_angle_beta   59.91747564
_cell_angle_gamma   59.91748225
_symmetry_Int_Tables_number   1
_chemical_formula_structural   PrBiPt2O7
_chemical_formula_sum   'Pr2 Bi2 Pt4 O14'
_cell_volume   293.61954539
_cell_formula_units_Z   2
loop_
 _symmetry_equiv_pos_site_id
 _symmetry_equiv_pos_as_xyz
  1  'x, y, z'
loop_
 _atom_site_type_symbol
 _atom_site_label
 _atom_site_symmetry_multiplicity
 _atom_site_fract_x
 _atom_site_fract_y
 _atom_site_fract_z
 _atom_site_occupancy
  Pr  Pr0  1  0.625000  0.125000  0.125000  1
  Pr  Pr1  1  0.125000  0.125000  0.125000  1
  Bi  Bi2  1  0.125000  0.125000  0.625000  1
  Bi  Bi3  1  0.125000  0.625000  0.125000  1
  Pt  Pt4  1  0.625000  0.625000  0.125000  1
  Pt  Pt5  1  0.625000  0.125000  0.625000  1
  Pt  Pt6  1  0.125000  0.625000  0.625000  1
  Pt  Pt7  1  0.625000  0.625000  0.625000  1
  O  O8  1  0.249042  0.250958  0.250958  1
  O  O9  1  0.000958  0.999042  0.999042  1
  O  O10  1  0.542058  0.958738  0.540845  1
  O  O11  1  0.291640  0.709155  0.291262  1
  O  O12  1  0.542058  0.540845  0.958738  1
  O  O13  1  0.957225  0.542775  0.542775  1
  O  O14  1  0.540193  0.959807  0.959807  1
  O  O15  1  0.958360  0.958738  0.540845  1
  O  O16  1  0.958360  0.540845  0.958738  1
  O  O17  1  0.709807  0.290193  0.290193  1
  O  O18  1  0.292775  0.707225  0.707225  1
  O  O19  1  0.707942  0.291262  0.709155  1
  O  O20  1  0.291640  0.291262  0.709155  1
  O  O21  1  0.707942  0.709155  0.291262  1
