# generated using pymatgen
data_Er3Ir2Rh7
_symmetry_space_group_name_H-M   'P 1'
_cell_length_a   5.24646300
_cell_length_b   5.24932935
_cell_length_c   17.54358103
_cell_angle_alpha   90.00542827
_cell_angle_beta   90.00000000
_cell_angle_gamma   119.98193242
_symmetry_Int_Tables_number   1
_chemical_formula_structural   Er3Ir2Rh7
_chemical_formula_sum   'Er6 Ir4 Rh14'
_cell_volume   418.50278464
_cell_formula_units_Z   2
loop_
 _symmetry_equiv_pos_site_id
 _symmetry_equiv_pos_as_xyz
  1  'x, y, z'
loop_
 _atom_site_type_symbol
 _atom_site_label
 _atom_site_symmetry_multiplicity
 _atom_site_fract_x
 _atom_site_fract_y
 _atom_site_fract_z
 _atom_site_occupancy
  Er  Er0  1  0.333959  0.667917  0.041389  1
  Er  Er1  1  0.333361  0.666723  0.249198  1
  Er  Er2  1  0.333345  0.666689  0.458522  1
  Er  Er3  1  0.666603  0.333206  0.541424  1
  Er  Er4  1  0.666563  0.333127  0.750070  1
  Er  Er5  1  0.666570  0.333140  0.958955  1
  Ir  Ir6  1  0.001313  0.002626  0.999807  1
  Ir  Ir7  1  0.334522  0.165839  0.125608  1
  Ir  Ir8  1  0.831316  0.165839  0.125608  1
  Ir  Ir9  1  0.999873  0.999747  0.500026  1
  Rh  Rh10  1  0.831887  0.663775  0.124981  1
  Rh  Rh11  1  0.000577  0.001154  0.249667  1
  Rh  Rh12  1  0.666888  0.333776  0.250061  1
  Rh  Rh13  1  0.334654  0.167151  0.375234  1
  Rh  Rh14  1  0.832496  0.167151  0.375234  1
  Rh  Rh15  1  0.832947  0.665893  0.374953  1
  Rh  Rh16  1  0.167209  0.334418  0.625151  1
  Rh  Rh17  1  0.167323  0.832860  0.625167  1
  Rh  Rh18  1  0.665539  0.832860  0.625167  1
  Rh  Rh19  1  0.000330  0.000660  0.750112  1
  Rh  Rh20  1  0.333234  0.666467  0.749808  1
  Rh  Rh21  1  0.167115  0.334231  0.874804  1
  Rh  Rh22  1  0.166886  0.832376  0.874530  1
  Rh  Rh23  1  0.665491  0.832376  0.874530  1
