# generated using pymatgen
data_Tm10Bi5Rh
_symmetry_space_group_name_H-M   'P 1'
_cell_length_a   8.05378900
_cell_length_b   9.35968800
_cell_length_c   11.97992100
_cell_angle_alpha   90.00000000
_cell_angle_beta   90.00000000
_cell_angle_gamma   90.00000000
_symmetry_Int_Tables_number   1
_chemical_formula_structural   Tm10Bi5Rh
_chemical_formula_sum   'Tm20 Bi10 Rh2'
_cell_volume   903.05785295
_cell_formula_units_Z   2
loop_
 _symmetry_equiv_pos_site_id
 _symmetry_equiv_pos_as_xyz
  1  'x, y, z'
loop_
 _atom_site_type_symbol
 _atom_site_label
 _atom_site_symmetry_multiplicity
 _atom_site_fract_x
 _atom_site_fract_y
 _atom_site_fract_z
 _atom_site_occupancy
  Tm  Tm0  1  0.326391  0.927828  0.059547  1
  Tm  Tm1  1  0.826391  0.072172  0.440453  1
  Tm  Tm2  1  0.686174  0.470237  0.936051  1
  Tm  Tm3  1  0.186174  0.529763  0.563949  1
  Tm  Tm4  1  0.686174  0.029763  0.936051  1
  Tm  Tm5  1  0.186174  0.970237  0.563949  1
  Tm  Tm6  1  0.326391  0.572172  0.059547  1
  Tm  Tm7  1  0.826391  0.427828  0.440453  1
  Tm  Tm8  1  0.654994  0.750000  0.202027  1
  Tm  Tm9  1  0.154994  0.250000  0.297973  1
  Tm  Tm10  1  0.306688  0.250000  0.763951  1
  Tm  Tm11  1  0.806688  0.750000  0.736049  1
  Tm  Tm12  1  0.155930  0.750000  0.288470  1
  Tm  Tm13  1  0.655930  0.250000  0.211530  1
  Tm  Tm14  1  0.873853  0.250000  0.702833  1
  Tm  Tm15  1  0.373853  0.750000  0.797167  1
  Tm  Tm16  1  0.516524  0.750000  0.503802  1
  Tm  Tm17  1  0.016524  0.250000  0.996198  1
  Tm  Tm18  1  0.456920  0.250000  0.493684  1
  Tm  Tm19  1  0.956920  0.750000  0.006316  1
  Bi  Bi20  1  0.936412  0.007347  0.176403  1
  Bi  Bi21  1  0.436412  0.992653  0.323597  1
  Bi  Bi22  1  0.071391  0.514951  0.829441  1
  Bi  Bi23  1  0.571391  0.485049  0.670559  1
  Bi  Bi24  1  0.071391  0.985049  0.829441  1
  Bi  Bi25  1  0.571391  0.014951  0.670559  1
  Bi  Bi26  1  0.936412  0.492653  0.176403  1
  Bi  Bi27  1  0.436412  0.507347  0.323597  1
  Bi  Bi28  1  0.402491  0.250000  0.019724  1
  Bi  Bi29  1  0.902491  0.750000  0.480276  1
  Rh  Rh30  1  0.591863  0.750000  0.975375  1
  Rh  Rh31  1  0.091863  0.250000  0.524625  1
