# generated using pymatgen
data_Y10Ga3Bi2Ir
_symmetry_space_group_name_H-M   'P 1'
_cell_length_a   8.72425436
_cell_length_b   8.72431553
_cell_length_c   8.83019082
_cell_angle_alpha   125.30620602
_cell_angle_beta   125.30595423
_cell_angle_gamma   80.21691401
_symmetry_Int_Tables_number   1
_chemical_formula_structural   Y10Ga3Bi2Ir
_chemical_formula_sum   'Y10 Ga3 Bi2 Ir1'
_cell_volume   433.80030893
_cell_formula_units_Z   1
loop_
 _symmetry_equiv_pos_site_id
 _symmetry_equiv_pos_as_xyz
  1  'x, y, z'
loop_
 _atom_site_type_symbol
 _atom_site_label
 _atom_site_symmetry_multiplicity
 _atom_site_fract_x
 _atom_site_fract_y
 _atom_site_fract_z
 _atom_site_occupancy
  Y  Y0  1  0.001898  0.001757  0.003654  1
  Y  Y1  1  0.498239  0.498103  0.996343  1
  Y  Y2  1  0.017111  0.504099  0.801700  1
  Y  Y3  1  0.715426  0.202404  0.198314  1
  Y  Y4  1  0.518042  0.704606  0.500001  1
  Y  Y5  1  0.193706  0.038199  0.500006  1
  Y  Y6  1  0.995905  0.482884  0.198304  1
  Y  Y7  1  0.297597  0.784583  0.801689  1
  Y  Y8  1  0.461804  0.306287  0.499996  1
  Y  Y9  1  0.795391  0.981956  0.499995  1
  Ga  Ga10  1  0.359904  0.857087  0.216987  1
  Ga  Ga11  1  0.642912  0.140090  0.783006  1
  Ga  Ga12  1  0.865321  0.634679  0.499998  1
  Bi  Bi13  1  0.754965  0.745033  0.000000  1
  Bi  Bi14  1  0.254973  0.245029  0.000001  1
  Ir  Ir15  1  0.126805  0.373204  0.500008  1
