# generated using pymatgen
data_YbTmSc2(B6Os)2
_symmetry_space_group_name_H-M   'P 1'
_cell_length_a   3.56167400
_cell_length_b   9.01981486
_cell_length_c   11.35708300
_cell_angle_alpha   89.97494052
_cell_angle_beta   90.00000000
_cell_angle_gamma   90.00000000
_symmetry_Int_Tables_number   1
_chemical_formula_structural   YbTmSc2(B6Os)2
_chemical_formula_sum   'Yb2 Tm2 Sc4 B24 Os4'
_cell_volume   364.85352593
_cell_formula_units_Z   2
loop_
 _symmetry_equiv_pos_site_id
 _symmetry_equiv_pos_as_xyz
  1  'x, y, z'
loop_
 _atom_site_type_symbol
 _atom_site_label
 _atom_site_symmetry_multiplicity
 _atom_site_fract_x
 _atom_site_fract_y
 _atom_site_fract_z
 _atom_site_occupancy
  Yb  Yb0  1  0.000000  0.823231  0.085058  1
  Yb  Yb1  1  0.000000  0.176769  0.914942  1
  Tm  Tm2  1  0.000000  0.320969  0.414129  1
  Tm  Tm3  1  0.000000  0.679031  0.585871  1
  Sc  Sc4  1  0.000000  0.944744  0.370887  1
  Sc  Sc5  1  0.000000  0.055256  0.629113  1
  Sc  Sc6  1  0.000000  0.443977  0.128659  1
  Sc  Sc7  1  0.000000  0.556023  0.871341  1
  B  B8  1  0.500000  0.554951  0.433550  1
  B  B9  1  0.500000  0.445049  0.566450  1
  B  B10  1  0.500000  0.055474  0.067832  1
  B  B11  1  0.500000  0.944526  0.932168  1
  B  B12  1  0.500000  0.752968  0.418395  1
  B  B13  1  0.500000  0.247032  0.581605  1
  B  B14  1  0.500000  0.252891  0.082276  1
  B  B15  1  0.500000  0.747109  0.917724  1
  B  B16  1  0.500000  0.793971  0.264545  1
  B  B17  1  0.500000  0.206029  0.735455  1
  B  B18  1  0.500000  0.294869  0.236341  1
  B  B19  1  0.500000  0.705131  0.763659  1
  B  B20  1  0.500000  0.630146  0.183171  1
  B  B21  1  0.500000  0.369854  0.816829  1
  B  B22  1  0.500000  0.130260  0.317638  1
  B  B23  1  0.500000  0.869740  0.682362  1
  B  B24  1  0.500000  0.983135  0.213877  1
  B  B25  1  0.500000  0.016865  0.786123  1
  B  B26  1  0.500000  0.482582  0.286656  1
  B  B27  1  0.500000  0.517418  0.713344  1
  B  B28  1  0.500000  0.596268  0.025901  1
  B  B29  1  0.500000  0.403732  0.974099  1
  B  B30  1  0.500000  0.098240  0.473619  1
  B  B31  1  0.500000  0.901760  0.526381  1
  Os  Os32  1  0.000000  0.639490  0.320052  1
  Os  Os33  1  0.000000  0.360510  0.679948  1
  Os  Os34  1  0.000000  0.142421  0.183567  1
  Os  Os35  1  0.000000  0.857579  0.816433  1
