# generated using pymatgen
data_Ce2Y3Sn3Hg
_symmetry_space_group_name_H-M   'P 1'
_cell_length_a   6.40960200
_cell_length_b   9.44853582
_cell_length_c   9.44853500
_cell_angle_alpha   120.00000062
_cell_angle_beta   90.00000000
_cell_angle_gamma   90.00000000
_symmetry_Int_Tables_number   1
_chemical_formula_structural   Ce2Y3Sn3Hg
_chemical_formula_sum   'Ce4 Y6 Sn6 Hg2'
_cell_volume   495.55365338
_cell_formula_units_Z   2
loop_
 _symmetry_equiv_pos_site_id
 _symmetry_equiv_pos_as_xyz
  1  'x, y, z'
loop_
 _atom_site_type_symbol
 _atom_site_label
 _atom_site_symmetry_multiplicity
 _atom_site_fract_x
 _atom_site_fract_y
 _atom_site_fract_z
 _atom_site_occupancy
  Ce  Ce0  1  0.000000  0.666667  0.333333  1
  Ce  Ce1  1  0.000000  0.333333  0.666667  1
  Ce  Ce2  1  0.500000  0.333333  0.666667  1
  Ce  Ce3  1  0.500000  0.666667  0.333333  1
  Y  Y4  1  0.750000  0.714929  0.714929  1
  Y  Y5  1  0.250000  0.285071  0.285071  1
  Y  Y6  1  0.750000  0.000000  0.285071  1
  Y  Y7  1  0.250000  0.000000  0.714929  1
  Y  Y8  1  0.750000  0.285071  0.000000  1
  Y  Y9  1  0.250000  0.714929  0.000000  1
  Sn  Sn10  1  0.750000  0.371978  0.371978  1
  Sn  Sn11  1  0.250000  0.628022  0.628022  1
  Sn  Sn12  1  0.750000  0.000000  0.628022  1
  Sn  Sn13  1  0.250000  0.000000  0.371978  1
  Sn  Sn14  1  0.750000  0.628022  0.000000  1
  Sn  Sn15  1  0.250000  0.371978  0.000000  1
  Hg  Hg16  1  0.000000  0.000000  0.000000  1
  Hg  Hg17  1  0.500000  0.000000  0.000000  1
