# generated using pymatgen
data_Er4Al2ZnGaPd4
_symmetry_space_group_name_H-M   'P 1'
_cell_length_a   4.40725300
_cell_length_b   6.80329110
_cell_length_c   7.80660811
_cell_angle_alpha   90.28888420
_cell_angle_beta   90.00000000
_cell_angle_gamma   90.00000000
_symmetry_Int_Tables_number   1
_chemical_formula_structural   Er4Al2ZnGaPd4
_chemical_formula_sum   'Er4 Al2 Zn1 Ga1 Pd4'
_cell_volume   234.06899711
_cell_formula_units_Z   1
loop_
 _symmetry_equiv_pos_site_id
 _symmetry_equiv_pos_as_xyz
  1  'x, y, z'
loop_
 _atom_site_type_symbol
 _atom_site_label
 _atom_site_symmetry_multiplicity
 _atom_site_fract_x
 _atom_site_fract_y
 _atom_site_fract_z
 _atom_site_occupancy
  Er  Er0  1  0.250000  0.031211  0.312568  1
  Er  Er1  1  0.250000  0.532936  0.180009  1
  Er  Er2  1  0.750000  0.967243  0.685805  1
  Er  Er3  1  0.750000  0.465593  0.821987  1
  Al  Al4  1  0.250000  0.645601  0.560328  1
  Al  Al5  1  0.750000  0.357864  0.441045  1
  Zn  Zn6  1  0.250000  0.151057  0.936269  1
  Ga  Ga7  1  0.750000  0.851035  0.061139  1
  Pd  Pd8  1  0.250000  0.269608  0.612878  1
  Pd  Pd9  1  0.250000  0.761724  0.877177  1
  Pd  Pd10  1  0.750000  0.731649  0.383777  1
  Pd  Pd11  1  0.750000  0.234477  0.127018  1
