# generated using pymatgen
data_Nb8FeSnSe16
_symmetry_space_group_name_H-M   'P 1'
_cell_length_a   6.99651800
_cell_length_b   6.99651995
_cell_length_c   13.74818100
_cell_angle_alpha   90.00000000
_cell_angle_beta   90.00000000
_cell_angle_gamma   120.00000024
_symmetry_Int_Tables_number   1
_chemical_formula_structural   Nb8FeSnSe16
_chemical_formula_sum   'Nb8 Fe1 Sn1 Se16'
_cell_volume   582.82732442
_cell_formula_units_Z   1
loop_
 _symmetry_equiv_pos_site_id
 _symmetry_equiv_pos_as_xyz
  1  'x, y, z'
loop_
 _atom_site_type_symbol
 _atom_site_label
 _atom_site_symmetry_multiplicity
 _atom_site_fract_x
 _atom_site_fract_y
 _atom_site_fract_z
 _atom_site_occupancy
  Nb  Nb0  1  0.000000  0.000000  0.222810  1
  Nb  Nb1  1  0.000000  0.000000  0.777190  1
  Nb  Nb2  1  0.506564  0.013126  0.220692  1
  Nb  Nb3  1  0.986874  0.493436  0.220692  1
  Nb  Nb4  1  0.506564  0.493436  0.220692  1
  Nb  Nb5  1  0.493436  0.986874  0.779308  1
  Nb  Nb6  1  0.013126  0.506564  0.779308  1
  Nb  Nb7  1  0.493436  0.506564  0.779308  1
  Fe  Fe8  1  0.000000  0.000000  0.000000  1
  Sn  Sn9  1  0.000000  0.000000  0.500000  1
  Se  Se10  1  0.333333  0.666667  0.903628  1
  Se  Se11  1  0.666667  0.333333  0.096372  1
  Se  Se12  1  0.666667  0.333333  0.347015  1
  Se  Se13  1  0.333333  0.666667  0.652985  1
  Se  Se14  1  0.168957  0.831043  0.343368  1
  Se  Se15  1  0.168957  0.337913  0.343368  1
  Se  Se16  1  0.662087  0.831043  0.343368  1
  Se  Se17  1  0.831043  0.168957  0.656632  1
  Se  Se18  1  0.831043  0.662087  0.656632  1
  Se  Se19  1  0.337913  0.168957  0.656632  1
  Se  Se20  1  0.834840  0.165160  0.897889  1
  Se  Se21  1  0.834840  0.669683  0.897889  1
  Se  Se22  1  0.330317  0.165160  0.897889  1
  Se  Se23  1  0.165160  0.834840  0.102111  1
  Se  Se24  1  0.165160  0.330317  0.102111  1
  Se  Se25  1  0.669683  0.834840  0.102111  1
