# generated using pymatgen
data_Li2V2ZnCoO8
_symmetry_space_group_name_H-M   'P 1'
_cell_length_a   8.89039669
_cell_length_b   8.89039695
_cell_length_c   8.89039701
_cell_angle_alpha   107.82865925
_cell_angle_beta   107.82866247
_cell_angle_gamma   107.82867510
_symmetry_Int_Tables_number   1
_chemical_formula_structural   Li2V2ZnCoO8
_chemical_formula_sum   'Li6 V6 Zn3 Co3 O24'
_cell_volume   571.46201308
_cell_formula_units_Z   3
loop_
 _symmetry_equiv_pos_site_id
 _symmetry_equiv_pos_as_xyz
  1  'x, y, z'
loop_
 _atom_site_type_symbol
 _atom_site_label
 _atom_site_symmetry_multiplicity
 _atom_site_fract_x
 _atom_site_fract_y
 _atom_site_fract_z
 _atom_site_occupancy
  Li  Li0  1  0.203588  0.438758  0.610494  1
  Li  Li1  1  0.438758  0.610494  0.203588  1
  Li  Li2  1  0.610494  0.203588  0.438758  1
  Li  Li3  1  0.896418  0.724195  0.125844  1
  Li  Li4  1  0.724195  0.125844  0.896418  1
  Li  Li5  1  0.125844  0.896418  0.724195  1
  V  V6  1  0.538139  0.766149  0.944719  1
  V  V7  1  0.766149  0.944719  0.538139  1
  V  V8  1  0.944719  0.538139  0.766149  1
  V  V9  1  0.461546  0.232883  0.054496  1
  V  V10  1  0.232883  0.054496  0.461546  1
  V  V11  1  0.054496  0.461546  0.232883  1
  Zn  Zn12  1  0.103801  0.275919  0.872456  1
  Zn  Zn13  1  0.275919  0.872456  0.103801  1
  Zn  Zn14  1  0.872456  0.103801  0.275919  1
  Co  Co15  1  0.797361  0.563404  0.388157  1
  Co  Co16  1  0.563404  0.388157  0.797361  1
  Co  Co17  1  0.388157  0.797361  0.563404  1
  O  O18  1  0.391057  0.687349  0.724923  1
  O  O19  1  0.687349  0.724923  0.391057  1
  O  O20  1  0.724923  0.391057  0.687349  1
  O  O21  1  0.611720  0.317834  0.275176  1
  O  O22  1  0.317834  0.275176  0.611720  1
  O  O23  1  0.275176  0.611720  0.317834  1
  O  O24  1  0.695287  0.983532  0.028212  1
  O  O25  1  0.983532  0.028212  0.695287  1
  O  O26  1  0.028212  0.695287  0.983532  1
  O  O27  1  0.306318  0.016821  0.973156  1
  O  O28  1  0.016821  0.973156  0.306318  1
  O  O29  1  0.973156  0.306318  0.016821  1
  O  O30  1  0.425016  0.752970  0.073793  1
  O  O31  1  0.752970  0.073793  0.425016  1
  O  O32  1  0.073793  0.425016  0.752970  1
  O  O33  1  0.574981  0.245495  0.925581  1
  O  O34  1  0.245495  0.925581  0.574981  1
  O  O35  1  0.925581  0.574981  0.245495  1
  O  O36  1  0.646866  0.634080  0.960685  1
  O  O37  1  0.634080  0.960685  0.646866  1
  O  O38  1  0.960685  0.646866  0.634080  1
  O  O39  1  0.350588  0.363583  0.036646  1
  O  O40  1  0.363583  0.036646  0.350588  1
  O  O41  1  0.036646  0.350588  0.363583  1
