# generated using pymatgen
data_Tb4Tc3B16Rh
_symmetry_space_group_name_H-M   'P 1'
_cell_length_a   3.59914200
_cell_length_b   5.98815787
_cell_length_c   11.58777409
_cell_angle_alpha   90.12882252
_cell_angle_beta   90.00000000
_cell_angle_gamma   90.00000000
_symmetry_Int_Tables_number   1
_chemical_formula_structural   Tb4Tc3B16Rh
_chemical_formula_sum   'Tb4 Tc3 B16 Rh1'
_cell_volume   249.74174695
_cell_formula_units_Z   1
loop_
 _symmetry_equiv_pos_site_id
 _symmetry_equiv_pos_as_xyz
  1  'x, y, z'
loop_
 _atom_site_type_symbol
 _atom_site_label
 _atom_site_symmetry_multiplicity
 _atom_site_fract_x
 _atom_site_fract_y
 _atom_site_fract_z
 _atom_site_occupancy
  Tb  Tb0  1  0.000000  0.127775  0.652074  1
  Tb  Tb1  1  0.000000  0.872964  0.350287  1
  Tb  Tb2  1  0.000000  0.628331  0.849110  1
  Tb  Tb3  1  0.000000  0.371228  0.147703  1
  Tc  Tc4  1  0.000000  0.631544  0.585889  1
  Tc  Tc5  1  0.000000  0.367146  0.412160  1
  Tc  Tc6  1  0.000000  0.138423  0.910250  1
  B  B7  1  0.500000  0.786796  0.684913  1
  B  B8  1  0.500000  0.211438  0.315116  1
  B  B9  1  0.500000  0.288619  0.814641  1
  B  B10  1  0.500000  0.708855  0.185065  1
  B  B11  1  0.500000  0.863771  0.531220  1
  B  B12  1  0.500000  0.135984  0.468876  1
  B  B13  1  0.500000  0.365246  0.969129  1
  B  B14  1  0.500000  0.636322  0.030735  1
  B  B15  1  0.500000  0.025949  0.192126  1
  B  B16  1  0.500000  0.975504  0.808136  1
  B  B17  1  0.500000  0.523471  0.307611  1
  B  B18  1  0.500000  0.478848  0.691996  1
  B  B19  1  0.500000  0.114029  0.046647  1
  B  B20  1  0.500000  0.887725  0.952727  1
  B  B21  1  0.500000  0.612602  0.452708  1
  B  B22  1  0.500000  0.387310  0.546582  1
  Rh  Rh23  1  0.000000  0.860119  0.094301  1
