# generated using pymatgen
data_Ca5Ce4NdRu4
_symmetry_space_group_name_H-M   'P 1'
_cell_length_a   9.04341952
_cell_length_b   9.04341901
_cell_length_c   7.29341234
_cell_angle_alpha   84.38845627
_cell_angle_beta   84.38845583
_cell_angle_gamma   42.84997313
_symmetry_Int_Tables_number   1
_chemical_formula_structural   Ca5Ce4NdRu4
_chemical_formula_sum   'Ca5 Ce4 Nd1 Ru4'
_cell_volume   403.41073697
_cell_formula_units_Z   1
loop_
 _symmetry_equiv_pos_site_id
 _symmetry_equiv_pos_as_xyz
  1  'x, y, z'
loop_
 _atom_site_type_symbol
 _atom_site_label
 _atom_site_symmetry_multiplicity
 _atom_site_fract_x
 _atom_site_fract_y
 _atom_site_fract_z
 _atom_site_occupancy
  Ca  Ca0  1  0.359855  0.218903  0.817931  1
  Ca  Ca1  1  0.781097  0.640145  0.682069  1
  Ca  Ca2  1  0.642131  0.782449  0.180500  1
  Ca  Ca3  1  0.217551  0.357869  0.319500  1
  Ca  Ca4  1  0.573249  0.426751  0.750000  1
  Ce  Ce5  1  0.996737  0.822087  0.904434  1
  Ce  Ce6  1  0.177913  0.003263  0.595566  1
  Ce  Ce7  1  0.005863  0.175458  0.097921  1
  Ce  Ce8  1  0.824542  0.994137  0.402079  1
  Nd  Nd9  1  0.431917  0.568083  0.250000  1
  Ru  Ru10  1  0.122435  0.674702  0.598754  1
  Ru  Ru11  1  0.325298  0.877565  0.901246  1
  Ru  Ru12  1  0.872667  0.331254  0.398071  1
  Ru  Ru13  1  0.668746  0.127333  0.101929  1
