# generated using pymatgen
data_Hf4Si3MoN
_symmetry_space_group_name_H-M   'P 1'
_cell_length_a   7.73123700
_cell_length_b   7.73123756
_cell_length_c   5.43961500
_cell_angle_alpha   90.00000000
_cell_angle_beta   90.00000000
_cell_angle_gamma   120.00000189
_symmetry_Int_Tables_number   1
_chemical_formula_structural   Hf4Si3MoN
_chemical_formula_sum   'Hf8 Si6 Mo2 N2'
_cell_volume   281.57674931
_cell_formula_units_Z   2
loop_
 _symmetry_equiv_pos_site_id
 _symmetry_equiv_pos_as_xyz
  1  'x, y, z'
loop_
 _atom_site_type_symbol
 _atom_site_label
 _atom_site_symmetry_multiplicity
 _atom_site_fract_x
 _atom_site_fract_y
 _atom_site_fract_z
 _atom_site_occupancy
  Hf  Hf0  1  0.235168  0.000000  0.248233  1
  Hf  Hf1  1  0.764832  0.000000  0.751767  1
  Hf  Hf2  1  0.000000  0.235168  0.248233  1
  Hf  Hf3  1  0.000000  0.764832  0.751767  1
  Hf  Hf4  1  0.764832  0.764832  0.248233  1
  Hf  Hf5  1  0.235168  0.235168  0.751767  1
  Hf  Hf6  1  0.666667  0.333333  0.500000  1
  Hf  Hf7  1  0.333333  0.666667  0.500000  1
  Si  Si8  1  0.590709  0.000000  0.227303  1
  Si  Si9  1  0.409291  0.000000  0.772697  1
  Si  Si10  1  0.000000  0.590709  0.227303  1
  Si  Si11  1  0.000000  0.409291  0.772697  1
  Si  Si12  1  0.409291  0.409291  0.227303  1
  Si  Si13  1  0.590709  0.590709  0.772697  1
  Mo  Mo14  1  0.333333  0.666667  0.000000  1
  Mo  Mo15  1  0.666667  0.333333  0.000000  1
  N  N16  1  0.000000  0.000000  0.000000  1
  N  N17  1  0.000000  0.000000  0.500000  1
