# generated using pymatgen
data_Ca14Nb2V3FeN18
_symmetry_space_group_name_H-M   'P 1'
_cell_length_a   6.12718902
_cell_length_b   10.04566100
_cell_length_c   9.09889365
_cell_angle_alpha   90.00000000
_cell_angle_beta   92.34887955
_cell_angle_gamma   90.00000000
_symmetry_Int_Tables_number   1
_chemical_formula_structural   Ca14Nb2V3FeN18
_chemical_formula_sum   'Ca14 Nb2 V3 Fe1 N18'
_cell_volume   559.58148377
_cell_formula_units_Z   1
loop_
 _symmetry_equiv_pos_site_id
 _symmetry_equiv_pos_as_xyz
  1  'x, y, z'
loop_
 _atom_site_type_symbol
 _atom_site_label
 _atom_site_symmetry_multiplicity
 _atom_site_fract_x
 _atom_site_fract_y
 _atom_site_fract_z
 _atom_site_occupancy
  Ca  Ca0  1  0.074835  0.417042  0.172200  1
  Ca  Ca1  1  0.933433  0.919222  0.827886  1
  Ca  Ca2  1  0.933433  0.580778  0.827886  1
  Ca  Ca3  1  0.074835  0.082959  0.172200  1
  Ca  Ca4  1  0.244003  0.921281  0.509741  1
  Ca  Ca5  1  0.751138  0.417786  0.489096  1
  Ca  Ca6  1  0.751138  0.082214  0.489096  1
  Ca  Ca7  1  0.244003  0.578719  0.509741  1
  Ca  Ca8  1  0.580001  0.932232  0.157363  1
  Ca  Ca9  1  0.425766  0.432979  0.837263  1
  Ca  Ca10  1  0.425766  0.067021  0.837263  1
  Ca  Ca11  1  0.580001  0.567768  0.157363  1
  Ca  Ca12  1  0.912139  0.250000  0.798731  1
  Ca  Ca13  1  0.089535  0.750000  0.201953  1
  Nb  Nb14  1  0.279985  0.250000  0.560450  1
  Nb  Nb15  1  0.721141  0.750000  0.436142  1
  V  V16  1  0.541951  0.750000  0.722977  1
  V  V17  1  0.673013  0.250000  0.069526  1
  V  V18  1  0.324159  0.750000  0.935973  1
  Fe  Fe19  1  0.454934  0.250000  0.280117  1
  N  N20  1  0.112652  0.401404  0.660492  1
  N  N21  1  0.884486  0.901194  0.341521  1
  N  N22  1  0.884486  0.598806  0.341521  1
  N  N23  1  0.112652  0.098596  0.660492  1
  N  N24  1  0.232786  0.904778  0.020180  1
  N  N25  1  0.768529  0.402779  0.982070  1
  N  N26  1  0.768529  0.097221  0.982070  1
  N  N27  1  0.232786  0.595222  0.020180  1
  N  N28  1  0.354548  0.390670  0.378228  1
  N  N29  1  0.632462  0.894359  0.625701  1
  N  N30  1  0.632462  0.605641  0.625701  1
  N  N31  1  0.354548  0.109330  0.378228  1
  N  N32  1  0.366098  0.250000  0.067248  1
  N  N33  1  0.641982  0.750000  0.930701  1
  N  N34  1  0.555416  0.250000  0.667776  1
  N  N35  1  0.446588  0.750000  0.329297  1
  N  N36  1  0.779184  0.250000  0.265571  1
  N  N37  1  0.224594  0.750000  0.730059  1
