# generated using pymatgen
data_Ce3Tm(CuSi3)2
_symmetry_space_group_name_H-M   'P 1'
_cell_length_a   8.04607145
_cell_length_b   8.10644350
_cell_length_c   5.77018897
_cell_angle_alpha   68.51081638
_cell_angle_beta   69.63071222
_cell_angle_gamma   41.85846212
_symmetry_Int_Tables_number   1
_chemical_formula_structural   Ce3Tm(CuSi3)2
_chemical_formula_sum   'Ce3 Tm1 Cu2 Si6'
_cell_volume   231.96333961
_cell_formula_units_Z   1
loop_
 _symmetry_equiv_pos_site_id
 _symmetry_equiv_pos_as_xyz
  1  'x, y, z'
loop_
 _atom_site_type_symbol
 _atom_site_label
 _atom_site_symmetry_multiplicity
 _atom_site_fract_x
 _atom_site_fract_y
 _atom_site_fract_z
 _atom_site_occupancy
  Ce  Ce0  1  0.250000  0.250000  0.249999  1
  Ce  Ce1  1  0.743609  0.256391  0.256391  1
  Ce  Ce2  1  0.256392  0.743609  0.743608  1
  Tm  Tm3  1  0.750000  0.750000  0.750000  1
  Cu  Cu4  1  0.831864  0.831864  0.168136  1
  Cu  Cu5  1  0.168135  0.168136  0.831865  1
  Si  Si6  1  0.330346  0.838689  0.159039  1
  Si  Si7  1  0.159038  0.671927  0.330346  1
  Si  Si8  1  0.668484  0.668484  0.331517  1
  Si  Si9  1  0.331516  0.331516  0.668485  1
  Si  Si10  1  0.838689  0.330346  0.671926  1
  Si  Si11  1  0.671926  0.159039  0.838689  1
