# generated using pymatgen
data_Nd16CdHg3(IrPt)2
_symmetry_space_group_name_H-M   'P 1'
_cell_length_a   9.95203705
_cell_length_b   9.96373198
_cell_length_c   9.94244082
_cell_angle_alpha   60.06478735
_cell_angle_beta   60.02843531
_cell_angle_gamma   60.27292705
_symmetry_Int_Tables_number   1
_chemical_formula_structural   Nd16CdHg3(IrPt)2
_chemical_formula_sum   'Nd16 Cd1 Hg3 Ir2 Pt2'
_cell_volume   699.04740431
_cell_formula_units_Z   1
loop_
 _symmetry_equiv_pos_site_id
 _symmetry_equiv_pos_as_xyz
  1  'x, y, z'
loop_
 _atom_site_type_symbol
 _atom_site_label
 _atom_site_symmetry_multiplicity
 _atom_site_fract_x
 _atom_site_fract_y
 _atom_site_fract_z
 _atom_site_occupancy
  Nd  Nd0  1  0.350928  0.350710  0.346744  1
  Nd  Nd1  1  0.351111  0.350903  0.951420  1
  Nd  Nd2  1  0.356234  0.943802  0.350097  1
  Nd  Nd3  1  0.941898  0.356503  0.350905  1
  Nd  Nd4  1  0.805688  0.190605  0.191245  1
  Nd  Nd5  1  0.189700  0.806271  0.813004  1
  Nd  Nd6  1  0.189657  0.806469  0.190771  1
  Nd  Nd7  1  0.805438  0.190720  0.812312  1
  Nd  Nd8  1  0.190186  0.190941  0.809444  1
  Nd  Nd9  1  0.809919  0.810125  0.189831  1
  Nd  Nd10  1  0.939008  0.563620  0.560943  1
  Nd  Nd11  1  0.562826  0.939948  0.936429  1
  Nd  Nd12  1  0.563046  0.940000  0.560737  1
  Nd  Nd13  1  0.938973  0.563336  0.936618  1
  Nd  Nd14  1  0.562271  0.562609  0.937705  1
  Nd  Nd15  1  0.938478  0.939362  0.561044  1
  Cd  Cd16  1  0.260562  0.578976  0.580127  1
  Hg  Hg17  1  0.582797  0.584836  0.584775  1
  Hg  Hg18  1  0.582635  0.584650  0.247790  1
  Hg  Hg19  1  0.582078  0.248035  0.584861  1
  Ir  Ir20  1  0.140884  0.572182  0.143488  1
  Ir  Ir21  1  0.572005  0.141371  0.143331  1
  Pt  Pt22  1  0.141957  0.142131  0.145697  1
  Pt  Pt23  1  0.141721  0.141895  0.570682  1
