# generated using pymatgen
data_HfScInCu2
_symmetry_space_group_name_H-M   'P 1'
_cell_length_a   7.23608700
_cell_length_b   7.23608700
_cell_length_c   6.83488900
_cell_angle_alpha   90.00000000
_cell_angle_beta   90.00000000
_cell_angle_gamma   90.00000000
_symmetry_Int_Tables_number   1
_chemical_formula_structural   HfScInCu2
_chemical_formula_sum   'Hf4 Sc4 In4 Cu8'
_cell_volume   357.88131585
_cell_formula_units_Z   4
loop_
 _symmetry_equiv_pos_site_id
 _symmetry_equiv_pos_as_xyz
  1  'x, y, z'
loop_
 _atom_site_type_symbol
 _atom_site_label
 _atom_site_symmetry_multiplicity
 _atom_site_fract_x
 _atom_site_fract_y
 _atom_site_fract_z
 _atom_site_occupancy
  Hf  Hf0  1  0.150160  0.150160  0.000000  1
  Hf  Hf1  1  0.849840  0.849840  0.000000  1
  Hf  Hf2  1  0.650160  0.349840  0.500000  1
  Hf  Hf3  1  0.349840  0.650160  0.500000  1
  Sc  Sc4  1  0.685262  0.314738  0.000000  1
  Sc  Sc5  1  0.314738  0.685262  0.000000  1
  Sc  Sc6  1  0.814738  0.814738  0.500000  1
  Sc  Sc7  1  0.185262  0.185262  0.500000  1
  In  In8  1  0.500000  0.000000  0.250000  1
  In  In9  1  0.500000  0.000000  0.750000  1
  In  In10  1  0.000000  0.500000  0.250000  1
  In  In11  1  0.000000  0.500000  0.750000  1
  Cu  Cu12  1  0.375727  0.375727  0.212011  1
  Cu  Cu13  1  0.624273  0.624273  0.787989  1
  Cu  Cu14  1  0.624273  0.624273  0.212011  1
  Cu  Cu15  1  0.875727  0.124273  0.712011  1
  Cu  Cu16  1  0.875727  0.124273  0.287989  1
  Cu  Cu17  1  0.375727  0.375727  0.787989  1
  Cu  Cu18  1  0.124273  0.875727  0.287989  1
  Cu  Cu19  1  0.124273  0.875727  0.712011  1
