# generated using pymatgen
data_Ce6ScTiPb10
_symmetry_space_group_name_H-M   'P 1'
_cell_length_a   9.50198600
_cell_length_b   9.50198527
_cell_length_c   6.46193400
_cell_angle_alpha   90.00000000
_cell_angle_beta   90.00000000
_cell_angle_gamma   119.99999557
_symmetry_Int_Tables_number   1
_chemical_formula_structural   Ce6ScTiPb10
_chemical_formula_sum   'Ce6 Sc1 Ti1 Pb10'
_cell_volume   505.26813283
_cell_formula_units_Z   1
loop_
 _symmetry_equiv_pos_site_id
 _symmetry_equiv_pos_as_xyz
  1  'x, y, z'
loop_
 _atom_site_type_symbol
 _atom_site_label
 _atom_site_symmetry_multiplicity
 _atom_site_fract_x
 _atom_site_fract_y
 _atom_site_fract_z
 _atom_site_occupancy
  Ce  Ce0  1  0.614221  0.000000  0.249106  1
  Ce  Ce1  1  0.385779  0.000000  0.750894  1
  Ce  Ce2  1  0.000000  0.614221  0.249106  1
  Ce  Ce3  1  0.000000  0.385779  0.750894  1
  Ce  Ce4  1  0.385779  0.385779  0.249106  1
  Ce  Ce5  1  0.614221  0.614221  0.750894  1
  Sc  Sc6  1  0.000000  0.000000  0.000000  1
  Ti  Ti7  1  0.000000  0.000000  0.500000  1
  Pb  Pb8  1  0.264582  0.000000  0.255890  1
  Pb  Pb9  1  0.735418  0.000000  0.744110  1
  Pb  Pb10  1  0.000000  0.264582  0.255890  1
  Pb  Pb11  1  0.000000  0.735418  0.744110  1
  Pb  Pb12  1  0.735418  0.735418  0.255890  1
  Pb  Pb13  1  0.264582  0.264582  0.744110  1
  Pb  Pb14  1  0.333333  0.666667  0.000000  1
  Pb  Pb15  1  0.666667  0.333333  0.000000  1
  Pb  Pb16  1  0.666667  0.333333  0.500000  1
  Pb  Pb17  1  0.333333  0.666667  0.500000  1
