# generated using pymatgen
data_YHo2B7Ru
_symmetry_space_group_name_H-M   'P 1'
_cell_length_a   8.03137957
_cell_length_b   8.03137866
_cell_length_c   9.32300300
_cell_angle_alpha   90.00000000
_cell_angle_beta   90.00000000
_cell_angle_gamma   154.76352479
_symmetry_Int_Tables_number   1
_chemical_formula_structural   YHo2B7Ru
_chemical_formula_sum   'Y2 Ho4 B14 Ru2'
_cell_volume   256.39389029
_cell_formula_units_Z   2
loop_
 _symmetry_equiv_pos_site_id
 _symmetry_equiv_pos_as_xyz
  1  'x, y, z'
loop_
 _atom_site_type_symbol
 _atom_site_label
 _atom_site_symmetry_multiplicity
 _atom_site_fract_x
 _atom_site_fract_y
 _atom_site_fract_z
 _atom_site_occupancy
  Y  Y0  1  0.244873  0.755127  0.250000  1
  Y  Y1  1  0.755127  0.244873  0.750000  1
  Ho  Ho2  1  0.894111  0.105889  0.059767  1
  Ho  Ho3  1  0.105889  0.894111  0.559767  1
  Ho  Ho4  1  0.105889  0.894111  0.940233  1
  Ho  Ho5  1  0.894111  0.105889  0.440233  1
  B  B6  1  0.456563  0.543437  0.250000  1
  B  B7  1  0.543437  0.456563  0.750000  1
  B  B8  1  0.727127  0.272873  0.033875  1
  B  B9  1  0.272873  0.727127  0.533875  1
  B  B10  1  0.272873  0.727127  0.966125  1
  B  B11  1  0.727127  0.272873  0.466125  1
  B  B12  1  0.631429  0.368571  0.349226  1
  B  B13  1  0.368571  0.631429  0.849226  1
  B  B14  1  0.368571  0.631429  0.650774  1
  B  B15  1  0.631429  0.368571  0.150774  1
  B  B16  1  0.520483  0.479517  0.403684  1
  B  B17  1  0.479517  0.520483  0.903684  1
  B  B18  1  0.479517  0.520483  0.596316  1
  B  B19  1  0.520483  0.479517  0.096316  1
  Ru  Ru20  1  0.053739  0.946261  0.250000  1
  Ru  Ru21  1  0.946260  0.053739  0.750000  1
