# generated using pymatgen
data_YbDy3Ho4(B6Ru)4
_symmetry_space_group_name_H-M   'P 1'
_cell_length_a   3.65321400
_cell_length_b   9.12879294
_cell_length_c   11.51243800
_cell_angle_alpha   89.91195888
_cell_angle_beta   90.00000000
_cell_angle_gamma   90.00000000
_symmetry_Int_Tables_number   1
_chemical_formula_structural   YbDy3Ho4(B6Ru)4
_chemical_formula_sum   'Yb1 Dy3 Ho4 B24 Ru4'
_cell_volume   383.93284020
_cell_formula_units_Z   1
loop_
 _symmetry_equiv_pos_site_id
 _symmetry_equiv_pos_as_xyz
  1  'x, y, z'
loop_
 _atom_site_type_symbol
 _atom_site_label
 _atom_site_symmetry_multiplicity
 _atom_site_fract_x
 _atom_site_fract_y
 _atom_site_fract_z
 _atom_site_occupancy
  Yb  Yb0  1  0.000000  0.323818  0.413658  1
  Dy  Dy1  1  0.000000  0.675571  0.584992  1
  Dy  Dy2  1  0.000000  0.822753  0.086390  1
  Dy  Dy3  1  0.000000  0.177740  0.914537  1
  Ho  Ho4  1  0.000000  0.944063  0.371213  1
  Ho  Ho5  1  0.000000  0.058000  0.627977  1
  Ho  Ho6  1  0.000000  0.443005  0.129609  1
  Ho  Ho7  1  0.000000  0.556043  0.872122  1
  B  B8  1  0.500000  0.553875  0.432460  1
  B  B9  1  0.500000  0.445666  0.567301  1
  B  B10  1  0.500000  0.053498  0.066877  1
  B  B11  1  0.500000  0.945801  0.932395  1
  B  B12  1  0.500000  0.748195  0.419184  1
  B  B13  1  0.500000  0.252306  0.580764  1
  B  B14  1  0.500000  0.247559  0.080653  1
  B  B15  1  0.500000  0.751796  0.919543  1
  B  B16  1  0.500000  0.791238  0.266239  1
  B  B17  1  0.500000  0.209834  0.733911  1
  B  B18  1  0.500000  0.289981  0.233643  1
  B  B19  1  0.500000  0.709281  0.766390  1
  B  B20  1  0.500000  0.631964  0.185967  1
  B  B21  1  0.500000  0.368436  0.814990  1
  B  B22  1  0.500000  0.131383  0.314078  1
  B  B23  1  0.500000  0.868564  0.685214  1
  B  B24  1  0.500000  0.983565  0.212021  1
  B  B25  1  0.500000  0.016432  0.787194  1
  B  B26  1  0.500000  0.483921  0.287746  1
  B  B27  1  0.500000  0.516146  0.712691  1
  B  B28  1  0.500000  0.608012  0.030105  1
  B  B29  1  0.500000  0.392108  0.970573  1
  B  B30  1  0.500000  0.104718  0.470951  1
  B  B31  1  0.500000  0.894419  0.529166  1
  Ru  Ru32  1  0.000000  0.639351  0.320513  1
  Ru  Ru33  1  0.000000  0.361954  0.680174  1
  Ru  Ru34  1  0.000000  0.137020  0.177763  1
  Ru  Ru35  1  0.000000  0.861990  0.820993  1
