# generated using pymatgen
data_TbEuErZn11
_symmetry_space_group_name_H-M   'P 1'
_cell_length_a   8.20723778
_cell_length_b   8.20723690
_cell_length_c   8.20723818
_cell_angle_alpha   148.28742791
_cell_angle_beta   115.87145025
_cell_angle_gamma   73.31862324
_symmetry_Int_Tables_number   1
_chemical_formula_structural   TbEuErZn11
_chemical_formula_sum   'Tb1 Eu1 Er1 Zn11'
_cell_volume   257.30192194
_cell_formula_units_Z   1
loop_
 _symmetry_equiv_pos_site_id
 _symmetry_equiv_pos_as_xyz
  1  'x, y, z'
loop_
 _atom_site_type_symbol
 _atom_site_label
 _atom_site_symmetry_multiplicity
 _atom_site_fract_x
 _atom_site_fract_y
 _atom_site_fract_z
 _atom_site_occupancy
  Tb  Tb0  1  0.703645  0.703645  0.000000  1
  Eu  Eu1  1  0.999753  0.999753  0.000000  1
  Er  Er2  1  0.296078  0.296078  0.000000  1
  Zn  Zn3  1  0.500915  0.000915  0.500000  1
  Zn  Zn4  1  0.675847  0.499480  0.176367  1
  Zn  Zn5  1  0.323113  0.499480  0.823633  1
  Zn  Zn6  1  0.694050  0.338750  0.355301  1
  Zn  Zn7  1  0.304957  0.661665  0.643292  1
  Zn  Zn8  1  0.983450  0.338750  0.644699  1
  Zn  Zn9  1  0.018372  0.661665  0.356708  1
  Zn  Zn10  1  0.425589  0.141184  0.284407  1
  Zn  Zn11  1  0.570843  0.858725  0.712117  1
  Zn  Zn12  1  0.856777  0.141184  0.715593  1
  Zn  Zn13  1  0.146609  0.858725  0.287883  1
