# generated using pymatgen
data_Ba(CrS)9
_symmetry_space_group_name_H-M   'P 1'
_cell_length_a   8.58961100
_cell_length_b   8.58961133
_cell_length_c   12.18097500
_cell_angle_alpha   90.00000000
_cell_angle_beta   90.00000000
_cell_angle_gamma   119.99999489
_symmetry_Int_Tables_number   1
_chemical_formula_structural   Ba(CrS)9
_chemical_formula_sum   'Ba2 Cr18 S18'
_cell_volume   778.32273222
_cell_formula_units_Z   2
loop_
 _symmetry_equiv_pos_site_id
 _symmetry_equiv_pos_as_xyz
  1  'x, y, z'
loop_
 _atom_site_type_symbol
 _atom_site_label
 _atom_site_symmetry_multiplicity
 _atom_site_fract_x
 _atom_site_fract_y
 _atom_site_fract_z
 _atom_site_occupancy
  Ba  Ba0  1  0.666667  0.333333  0.250000  1
  Ba  Ba1  1  0.333333  0.666667  0.750000  1
  Cr  Cr2  1  0.970856  0.823001  0.250000  1
  Cr  Cr3  1  0.969025  0.820241  0.916918  1
  Cr  Cr4  1  0.969025  0.820241  0.583082  1
  Cr  Cr5  1  0.852144  0.029144  0.250000  1
  Cr  Cr6  1  0.851217  0.030975  0.916918  1
  Cr  Cr7  1  0.851217  0.030975  0.583082  1
  Cr  Cr8  1  0.176999  0.147856  0.250000  1
  Cr  Cr9  1  0.179759  0.148783  0.916918  1
  Cr  Cr10  1  0.179759  0.148783  0.583082  1
  Cr  Cr11  1  0.030975  0.179759  0.416918  1
  Cr  Cr12  1  0.030975  0.179759  0.083082  1
  Cr  Cr13  1  0.029144  0.176999  0.750000  1
  Cr  Cr14  1  0.148783  0.969025  0.416918  1
  Cr  Cr15  1  0.148783  0.969025  0.083082  1
  Cr  Cr16  1  0.147856  0.970856  0.750000  1
  Cr  Cr17  1  0.820241  0.851217  0.416918  1
  Cr  Cr18  1  0.820241  0.851217  0.083082  1
  Cr  Cr19  1  0.823001  0.852144  0.750000  1
  S  S20  1  0.282224  0.943603  0.250000  1
  S  S21  1  0.280110  0.940948  0.915678  1
  S  S22  1  0.280110  0.940948  0.584322  1
  S  S23  1  0.661380  0.717776  0.250000  1
  S  S24  1  0.660839  0.719890  0.915678  1
  S  S25  1  0.660839  0.719890  0.584322  1
  S  S26  1  0.056397  0.338620  0.250000  1
  S  S27  1  0.059052  0.339161  0.915678  1
  S  S28  1  0.059052  0.339161  0.584322  1
  S  S29  1  0.719890  0.059052  0.415678  1
  S  S30  1  0.719890  0.059052  0.084322  1
  S  S31  1  0.717776  0.056397  0.750000  1
  S  S32  1  0.339161  0.280110  0.415678  1
  S  S33  1  0.339161  0.280110  0.084322  1
  S  S34  1  0.338620  0.282224  0.750000  1
  S  S35  1  0.940948  0.660839  0.415678  1
  S  S36  1  0.940948  0.660839  0.084322  1
  S  S37  1  0.943603  0.661380  0.750000  1
