# generated using pymatgen
data_Dy3Er13(Tl3Ir)2
_symmetry_space_group_name_H-M   'P 1'
_cell_length_a   10.35768100
_cell_length_b   10.35768086
_cell_length_c   7.01989400
_cell_angle_alpha   90.00000000
_cell_angle_beta   90.00000000
_cell_angle_gamma   119.99999725
_symmetry_Int_Tables_number   1
_chemical_formula_structural   Dy3Er13(Tl3Ir)2
_chemical_formula_sum   'Dy3 Er13 Tl6 Ir2'
_cell_volume   652.20820032
_cell_formula_units_Z   1
loop_
 _symmetry_equiv_pos_site_id
 _symmetry_equiv_pos_as_xyz
  1  'x, y, z'
loop_
 _atom_site_type_symbol
 _atom_site_label
 _atom_site_symmetry_multiplicity
 _atom_site_fract_x
 _atom_site_fract_y
 _atom_site_fract_z
 _atom_site_occupancy
  Dy  Dy0  1  0.533861  0.067722  0.793794  1
  Dy  Dy1  1  0.932278  0.466139  0.793794  1
  Dy  Dy2  1  0.533861  0.466139  0.793794  1
  Er  Er3  1  0.465170  0.930340  0.294218  1
  Er  Er4  1  0.069660  0.534830  0.294218  1
  Er  Er5  1  0.465170  0.534830  0.294218  1
  Er  Er6  1  0.823910  0.647819  0.497024  1
  Er  Er7  1  0.352181  0.176090  0.497024  1
  Er  Er8  1  0.823910  0.176090  0.497024  1
  Er  Er9  1  0.176047  0.352094  0.998856  1
  Er  Er10  1  0.647906  0.823953  0.998856  1
  Er  Er11  1  0.176047  0.823953  0.998856  1
  Er  Er12  1  0.666667  0.333333  0.174112  1
  Er  Er13  1  0.333333  0.666667  0.674195  1
  Er  Er14  1  0.000000  0.000000  0.776873  1
  Er  Er15  1  0.000000  0.000000  0.277108  1
  Tl  Tl16  1  0.837117  0.674236  0.041718  1
  Tl  Tl17  1  0.325764  0.162883  0.041718  1
  Tl  Tl18  1  0.837117  0.162883  0.041718  1
  Tl  Tl19  1  0.163100  0.326197  0.541903  1
  Tl  Tl20  1  0.673803  0.836900  0.541903  1
  Tl  Tl21  1  0.163100  0.836900  0.541903  1
  Ir  Ir22  1  0.666667  0.333333  0.564658  1
  Ir  Ir23  1  0.333333  0.666667  0.066422  1
