# generated using pymatgen
data_Mg6Cu3Si7Pd13
_symmetry_space_group_name_H-M   'P 1'
_cell_length_a   8.53372880
_cell_length_b   8.52420742
_cell_length_c   8.53372943
_cell_angle_alpha   60.02947629
_cell_angle_beta   60.02073382
_cell_angle_gamma   60.02947842
_symmetry_Int_Tables_number   1
_chemical_formula_structural   Mg6Cu3Si7Pd13
_chemical_formula_sum   'Mg6 Cu3 Si7 Pd13'
_cell_volume   439.21598745
_cell_formula_units_Z   1
loop_
 _symmetry_equiv_pos_site_id
 _symmetry_equiv_pos_as_xyz
  1  'x, y, z'
loop_
 _atom_site_type_symbol
 _atom_site_label
 _atom_site_symmetry_multiplicity
 _atom_site_fract_x
 _atom_site_fract_y
 _atom_site_fract_z
 _atom_site_occupancy
  Mg  Mg0  1  0.294851  0.705004  0.294851  1
  Mg  Mg1  1  0.297554  0.702734  0.705492  1
  Mg  Mg2  1  0.705952  0.295343  0.295309  1
  Mg  Mg3  1  0.705492  0.702734  0.297554  1
  Mg  Mg4  1  0.295309  0.295343  0.705952  1
  Mg  Mg5  1  0.703610  0.298185  0.703610  1
  Cu  Cu6  1  0.333821  0.332742  0.001218  1
  Cu  Cu7  1  0.001218  0.332742  0.333821  1
  Cu  Cu8  1  0.666877  0.665836  0.666877  1
  Si  Si9  1  0.001165  0.999695  0.001165  1
  Si  Si10  1  0.999754  0.499496  0.999754  1
  Si  Si11  1  0.498070  0.000058  0.999707  1
  Si  Si12  1  0.998960  0.500648  0.498789  1
  Si  Si13  1  0.499359  0.000655  0.499359  1
  Si  Si14  1  0.999707  0.000058  0.498070  1
  Si  Si15  1  0.498789  0.500648  0.998960  1
  Pd  Pd16  1  0.114515  0.127727  0.114515  1
  Pd  Pd17  1  0.351873  0.878851  0.878391  1
  Pd  Pd18  1  0.878557  0.353112  0.878557  1
  Pd  Pd19  1  0.878391  0.878851  0.351873  1
  Pd  Pd20  1  0.114848  0.642221  0.114848  1
  Pd  Pd21  1  0.110055  0.121695  0.646218  1
  Pd  Pd22  1  0.646218  0.121695  0.110055  1
  Pd  Pd23  1  0.883464  0.883144  0.883464  1
  Pd  Pd24  1  0.339845  0.340953  0.339845  1
  Pd  Pd25  1  0.023801  0.658301  0.658925  1
  Pd  Pd26  1  0.658780  0.024053  0.658780  1
  Pd  Pd27  1  0.658925  0.658301  0.023801  1
  Pd  Pd28  1  0.340240  0.979178  0.340240  1
