# generated using pymatgen
data_Tb7TmGaPd24
_symmetry_space_group_name_H-M   'P 1'
_cell_length_a   8.36529400
_cell_length_b   8.36529400
_cell_length_c   8.36529400
_cell_angle_alpha   89.99971233
_cell_angle_beta   89.99971233
_cell_angle_gamma   90.00028767
_symmetry_Int_Tables_number   1
_chemical_formula_structural   Tb7TmGaPd24
_chemical_formula_sum   'Tb7 Tm1 Ga1 Pd24'
_cell_volume   585.38774568
_cell_formula_units_Z   1
loop_
 _symmetry_equiv_pos_site_id
 _symmetry_equiv_pos_as_xyz
  1  'x, y, z'
loop_
 _atom_site_type_symbol
 _atom_site_label
 _atom_site_symmetry_multiplicity
 _atom_site_fract_x
 _atom_site_fract_y
 _atom_site_fract_z
 _atom_site_occupancy
  Tb  Tb0  1  0.251685  0.748306  0.251694  1
  Tb  Tb1  1  0.748306  0.251685  0.251694  1
  Tb  Tb2  1  0.748306  0.748306  0.748315  1
  Tb  Tb3  1  0.748346  0.748346  0.251654  1
  Tb  Tb4  1  0.748326  0.251699  0.748301  1
  Tb  Tb5  1  0.251699  0.748326  0.748301  1
  Tb  Tb6  1  0.251699  0.251699  0.251674  1
  Tm  Tm7  1  0.251683  0.251683  0.748317  1
  Ga  Ga8  1  0.000036  0.000036  0.999964  1
  Pd  Pd9  1  0.499003  0.499003  0.747234  1
  Pd  Pd10  1  0.499003  0.252766  0.500997  1
  Pd  Pd11  1  0.252766  0.499003  0.500997  1
  Pd  Pd12  1  0.499925  0.499925  0.252786  1
  Pd  Pd13  1  0.499925  0.747214  0.500075  1
  Pd  Pd14  1  0.747214  0.499925  0.500075  1
  Pd  Pd15  1  0.000895  0.000895  0.708420  1
  Pd  Pd16  1  0.000895  0.291580  0.999105  1
  Pd  Pd17  1  0.291580  0.000895  0.999105  1
  Pd  Pd18  1  0.000034  0.000034  0.291784  1
  Pd  Pd19  1  0.000034  0.708216  0.999966  1
  Pd  Pd20  1  0.708216  0.000034  0.999966  1
  Pd  Pd21  1  0.001029  0.499192  0.739774  1
  Pd  Pd22  1  0.499192  0.260226  0.998971  1
  Pd  Pd23  1  0.260226  0.001029  0.500808  1
  Pd  Pd24  1  0.001029  0.260226  0.500808  1
  Pd  Pd25  1  0.499192  0.001029  0.739774  1
  Pd  Pd26  1  0.260226  0.499192  0.998971  1
  Pd  Pd27  1  0.000052  0.499872  0.260157  1
  Pd  Pd28  1  0.499872  0.739843  0.999948  1
  Pd  Pd29  1  0.000052  0.739843  0.500128  1
  Pd  Pd30  1  0.499872  0.000052  0.260157  1
  Pd  Pd31  1  0.739843  0.000052  0.500128  1
  Pd  Pd32  1  0.739843  0.499872  0.999948  1
