# generated using pymatgen
data_Cs2La8Sm2Os2Br17
_symmetry_space_group_name_H-M   'P 1'
_cell_length_a   9.60884731
_cell_length_b   11.39370504
_cell_length_c   11.34877896
_cell_angle_alpha   107.28387547
_cell_angle_beta   93.33903544
_cell_angle_gamma   93.37839060
_symmetry_Int_Tables_number   1
_chemical_formula_structural   Cs2La8Sm2Os2Br17
_chemical_formula_sum   'Cs2 La8 Sm2 Os2 Br17'
_cell_volume   1180.55649969
_cell_formula_units_Z   1
loop_
 _symmetry_equiv_pos_site_id
 _symmetry_equiv_pos_as_xyz
  1  'x, y, z'
loop_
 _atom_site_type_symbol
 _atom_site_label
 _atom_site_symmetry_multiplicity
 _atom_site_fract_x
 _atom_site_fract_y
 _atom_site_fract_z
 _atom_site_occupancy
  Cs  Cs0  1  0.000809  0.821973  0.178862  1
  Cs  Cs1  1  0.001281  0.178919  0.822142  1
  La  La2  1  0.823910  0.293420  0.291304  1
  La  La3  1  0.311748  0.426590  0.425415  1
  La  La4  1  0.425934  0.796402  0.488768  1
  La  La5  1  0.574478  0.194010  0.513135  1
  La  La6  1  0.689662  0.566927  0.565866  1
  La  La7  1  0.169279  0.710916  0.710926  1
  La  La8  1  0.425596  0.489922  0.798370  1
  La  La9  1  0.564157  0.840991  0.844253  1
  Sm  Sm10  1  0.439548  0.166554  0.164774  1
  Sm  Sm11  1  0.573870  0.509748  0.198099  1
  Os  Os12  1  0.571906  0.356187  0.356122  1
  Os  Os13  1  0.426628  0.645202  0.645457  1
  Br  Br14  1  0.579244  0.684638  0.023096  1
  Br  Br15  1  0.708122  0.069577  0.069134  1
  Br  Br16  1  0.850426  0.454765  0.118473  1
  Br  Br17  1  0.137764  0.204470  0.203054  1
  Br  Br18  1  0.290331  0.602559  0.251799  1
  Br  Br19  1  0.419472  0.979906  0.308882  1
  Br  Br20  1  0.713670  0.739118  0.387358  1
  Br  Br21  1  0.859639  0.118540  0.450601  1
  Br  Br22  1  0.000615  0.500340  0.499974  1
  Br  Br23  1  0.141763  0.881115  0.549466  1
  Br  Br24  1  0.283700  0.255896  0.604912  1
  Br  Br25  1  0.579960  0.018525  0.688826  1
  Br  Br26  1  0.716797  0.394249  0.743256  1
  Br  Br27  1  0.868793  0.795092  0.795326  1
  Br  Br28  1  0.140896  0.550160  0.881937  1
  Br  Br29  1  0.286061  0.937098  0.936797  1
  Br  Br30  1  0.423944  0.316191  0.983613  1
