# generated using pymatgen
data_LaYb3Ti4O12
_symmetry_space_group_name_H-M   'P 1'
_cell_length_a   5.36803200
_cell_length_b   5.51748800
_cell_length_c   7.67020600
_cell_angle_alpha   90.00000000
_cell_angle_beta   90.00000000
_cell_angle_gamma   89.90243855
_symmetry_Int_Tables_number   1
_chemical_formula_structural   LaYb3Ti4O12
_chemical_formula_sum   'La1 Yb3 Ti4 O12'
_cell_volume   227.17623187
_cell_formula_units_Z   1
loop_
 _symmetry_equiv_pos_site_id
 _symmetry_equiv_pos_as_xyz
  1  'x, y, z'
loop_
 _atom_site_type_symbol
 _atom_site_label
 _atom_site_symmetry_multiplicity
 _atom_site_fract_x
 _atom_site_fract_y
 _atom_site_fract_z
 _atom_site_occupancy
  La  La0  1  0.991920  0.459457  0.750000  1
  Yb  Yb1  1  0.513433  0.949124  0.750000  1
  Yb  Yb2  1  0.488853  0.049890  0.250000  1
  Yb  Yb3  1  0.010772  0.554406  0.250000  1
  Ti  Ti4  1  0.000337  0.999878  0.005354  1
  Ti  Ti5  1  0.000337  0.999878  0.494646  1
  Ti  Ti6  1  0.499151  0.500315  0.006432  1
  Ti  Ti7  1  0.499151  0.500315  0.493568  1
  O  O8  1  0.083729  0.009864  0.750000  1
  O  O9  1  0.203851  0.294076  0.045176  1
  O  O10  1  0.203851  0.294076  0.454824  1
  O  O11  1  0.291466  0.790026  0.453818  1
  O  O12  1  0.291466  0.790026  0.046182  1
  O  O13  1  0.432023  0.524077  0.750000  1
  O  O14  1  0.585843  0.472719  0.250000  1
  O  O15  1  0.704190  0.206065  0.956884  1
  O  O16  1  0.704190  0.206065  0.543116  1
  O  O17  1  0.790148  0.710670  0.535748  1
  O  O18  1  0.790148  0.710670  0.964252  1
  O  O19  1  0.915140  0.978404  0.250000  1
