# generated using pymatgen
data_Li5V(Co2Si)6
_symmetry_space_group_name_H-M   'P 1'
_cell_length_a   3.88281100
_cell_length_b   5.48385500
_cell_length_c   11.64533700
_cell_angle_alpha   89.99966566
_cell_angle_beta   90.00029513
_cell_angle_gamma   89.99990597
_symmetry_Int_Tables_number   1
_chemical_formula_structural   Li5V(Co2Si)6
_chemical_formula_sum   'Li5 V1 Co12 Si6'
_cell_volume   247.96151162
_cell_formula_units_Z   1
loop_
 _symmetry_equiv_pos_site_id
 _symmetry_equiv_pos_as_xyz
  1  'x, y, z'
loop_
 _atom_site_type_symbol
 _atom_site_label
 _atom_site_symmetry_multiplicity
 _atom_site_fract_x
 _atom_site_fract_y
 _atom_site_fract_z
 _atom_site_occupancy
  Li  Li0  1  0.000011  0.500497  0.000931  1
  Li  Li1  1  0.499910  0.999558  0.167450  1
  Li  Li2  1  0.999912  0.500480  0.333338  1
  Li  Li3  1  0.500006  0.999444  0.499365  1
  Li  Li4  1  0.000080  0.500516  0.665705  1
  V  V5  1  0.500069  0.999885  0.833322  1
  Co  Co6  1  0.500010  0.250652  0.998817  1
  Co  Co7  1  0.500008  0.749206  0.998833  1
  Co  Co8  1  0.999923  0.251391  0.166517  1
  Co  Co9  1  0.999925  0.748606  0.166509  1
  Co  Co10  1  0.499938  0.248465  0.333351  1
  Co  Co11  1  0.499939  0.751583  0.333354  1
  Co  Co12  1  0.000002  0.251377  0.500163  1
  Co  Co13  1  0.000003  0.748616  0.500178  1
  Co  Co14  1  0.500065  0.250673  0.667819  1
  Co  Co15  1  0.500067  0.749168  0.667793  1
  Co  Co16  1  0.000062  0.247713  0.833294  1
  Co  Co17  1  0.000064  0.752184  0.833287  1
  Si  Si18  1  0.000009  0.999923  0.006337  1
  Si  Si19  1  0.499916  0.499947  0.171286  1
  Si  Si20  1  0.999942  0.000119  0.333338  1
  Si  Si21  1  0.499999  0.499983  0.495413  1
  Si  Si22  1  0.000072  0.999898  0.660317  1
  Si  Si23  1  0.500064  0.500117  0.833282  1
