# generated using pymatgen
data_Na2La17HoPb16
_symmetry_space_group_name_H-M   'P 1'
_cell_length_a   8.53906388
_cell_length_b   16.59339300
_cell_length_c   8.64970200
_cell_angle_alpha   90.00000000
_cell_angle_beta   89.72148673
_cell_angle_gamma   90.00000000
_symmetry_Int_Tables_number   1
_chemical_formula_structural   Na2La17HoPb16
_chemical_formula_sum   'Na2 La17 Ho1 Pb16'
_cell_volume   1225.57946701
_cell_formula_units_Z   1
loop_
 _symmetry_equiv_pos_site_id
 _symmetry_equiv_pos_as_xyz
  1  'x, y, z'
loop_
 _atom_site_type_symbol
 _atom_site_label
 _atom_site_symmetry_multiplicity
 _atom_site_fract_x
 _atom_site_fract_y
 _atom_site_fract_z
 _atom_site_occupancy
  Na  Na0  1  0.300255  0.750000  0.000283  1
  Na  Na1  1  0.203331  0.250000  0.498824  1
  La  La2  1  0.625179  0.618174  0.155988  1
  La  La3  1  0.129650  0.878473  0.332810  1
  La  La4  1  0.369554  0.122298  0.834414  1
  La  La5  1  0.874955  0.378870  0.656625  1
  La  La6  1  0.369554  0.377702  0.834414  1
  La  La7  1  0.874955  0.121130  0.656625  1
  La  La8  1  0.625179  0.881826  0.155988  1
  La  La9  1  0.129650  0.621527  0.332810  1
  La  La10  1  0.476944  0.599153  0.686184  1
  La  La11  1  0.987560  0.903950  0.820346  1
  La  La12  1  0.513936  0.097464  0.319610  1
  La  La13  1  0.021129  0.400413  0.188849  1
  La  La14  1  0.513936  0.402536  0.319610  1
  La  La15  1  0.021129  0.099587  0.188849  1
  La  La16  1  0.476944  0.900847  0.686184  1
  La  La17  1  0.987560  0.596050  0.820346  1
  La  La18  1  0.803505  0.750000  0.495619  1
  Ho  Ho19  1  0.698612  0.250000  0.996557  1
  Pb  Pb20  1  0.712012  0.451030  0.968075  1
  Pb  Pb21  1  0.210895  0.036744  0.540472  1
  Pb  Pb22  1  0.289141  0.963426  0.039304  1
  Pb  Pb23  1  0.788505  0.543488  0.464970  1
  Pb  Pb24  1  0.289141  0.536574  0.039304  1
  Pb  Pb25  1  0.788505  0.956512  0.464970  1
  Pb  Pb26  1  0.712012  0.048970  0.968075  1
  Pb  Pb27  1  0.210895  0.463256  0.540472  1
  Pb  Pb28  1  0.431231  0.750000  0.383059  1
  Pb  Pb29  1  0.934239  0.750000  0.105379  1
  Pb  Pb30  1  0.568654  0.250000  0.615758  1
  Pb  Pb31  1  0.060417  0.250000  0.895627  1
  Pb  Pb32  1  0.673835  0.750000  0.855583  1
  Pb  Pb33  1  0.177723  0.750000  0.647168  1
  Pb  Pb34  1  0.332716  0.250000  0.143913  1
  Pb  Pb35  1  0.816565  0.250000  0.346932  1
