# generated using pymatgen
data_CsY3Te5
_symmetry_space_group_name_H-M   'P 1'
_cell_length_a   4.42701000
_cell_length_b   13.30926600
_cell_length_c   23.88012800
_cell_angle_alpha   90.00000000
_cell_angle_beta   90.00000000
_cell_angle_gamma   90.00000000
_symmetry_Int_Tables_number   1
_chemical_formula_structural   CsY3Te5
_chemical_formula_sum   'Cs4 Y12 Te20'
_cell_volume   1407.02319954
_cell_formula_units_Z   4
loop_
 _symmetry_equiv_pos_site_id
 _symmetry_equiv_pos_as_xyz
  1  'x, y, z'
loop_
 _atom_site_type_symbol
 _atom_site_label
 _atom_site_symmetry_multiplicity
 _atom_site_fract_x
 _atom_site_fract_y
 _atom_site_fract_z
 _atom_site_occupancy
  Cs  Cs0  1  0.250000  0.354031  0.089258  1
  Cs  Cs1  1  0.750000  0.645969  0.910742  1
  Cs  Cs2  1  0.750000  0.854031  0.410742  1
  Cs  Cs3  1  0.250000  0.145969  0.589258  1
  Y  Y4  1  0.250000  0.453837  0.697654  1
  Y  Y5  1  0.750000  0.546163  0.302346  1
  Y  Y6  1  0.750000  0.953837  0.802346  1
  Y  Y7  1  0.250000  0.046163  0.197654  1
  Y  Y8  1  0.250000  0.796769  0.674860  1
  Y  Y9  1  0.750000  0.203231  0.325140  1
  Y  Y10  1  0.750000  0.296769  0.825140  1
  Y  Y11  1  0.250000  0.703231  0.174860  1
  Y  Y12  1  0.250000  0.392160  0.444368  1
  Y  Y13  1  0.750000  0.607840  0.555632  1
  Y  Y14  1  0.750000  0.892160  0.055632  1
  Y  Y15  1  0.250000  0.107840  0.944368  1
  Te  Te16  1  0.250000  0.443832  0.568859  1
  Te  Te17  1  0.750000  0.556168  0.431141  1
  Te  Te18  1  0.750000  0.943832  0.931141  1
  Te  Te19  1  0.250000  0.056168  0.068859  1
  Te  Te20  1  0.250000  0.769323  0.546884  1
  Te  Te21  1  0.750000  0.230677  0.453116  1
  Te  Te22  1  0.750000  0.269323  0.953116  1
  Te  Te23  1  0.250000  0.730677  0.046884  1
  Te  Te24  1  0.250000  0.797756  0.803142  1
  Te  Te25  1  0.750000  0.202244  0.196858  1
  Te  Te26  1  0.750000  0.297756  0.696858  1
  Te  Te27  1  0.250000  0.702244  0.303142  1
  Te  Te28  1  0.250000  0.454464  0.825873  1
  Te  Te29  1  0.750000  0.545536  0.174127  1
  Te  Te30  1  0.750000  0.954464  0.674127  1
  Te  Te31  1  0.250000  0.045536  0.325873  1
  Te  Te32  1  0.250000  0.375234  0.313683  1
  Te  Te33  1  0.750000  0.624766  0.686317  1
  Te  Te34  1  0.750000  0.875234  0.186317  1
  Te  Te35  1  0.250000  0.124766  0.813683  1
