# generated using pymatgen
data_Pr3CI5
_symmetry_space_group_name_H-M   'P 1'
_cell_length_a   8.01310204
_cell_length_b   9.80432504
_cell_length_c   9.89046490
_cell_angle_alpha   107.06821845
_cell_angle_beta   96.78013166
_cell_angle_gamma   104.57602114
_symmetry_Int_Tables_number   1
_chemical_formula_structural   Pr3CI5
_chemical_formula_sum   'Pr6 C2 I10'
_cell_volume   703.25610757
_cell_formula_units_Z   2
loop_
 _symmetry_equiv_pos_site_id
 _symmetry_equiv_pos_as_xyz
  1  'x, y, z'
loop_
 _atom_site_type_symbol
 _atom_site_label
 _atom_site_symmetry_multiplicity
 _atom_site_fract_x
 _atom_site_fract_y
 _atom_site_fract_z
 _atom_site_occupancy
  Pr  Pr0  1  0.106865  0.040344  0.776060  1
  Pr  Pr1  1  0.375247  0.134399  0.180834  1
  Pr  Pr2  1  0.893135  0.959656  0.223940  1
  Pr  Pr3  1  0.030448  0.734207  0.923119  1
  Pr  Pr4  1  0.969552  0.265793  0.076881  1
  Pr  Pr5  1  0.624753  0.865601  0.819166  1
  C  C6  1  0.913433  0.970457  0.959461  1
  C  C7  1  0.086567  0.029543  0.040539  1
  I  I8  1  0.189058  0.733625  0.644040  1
  I  I9  1  0.087943  0.369600  0.820147  1
  I  I10  1  0.456765  0.808701  0.092522  1
  I  I11  1  0.254464  0.084649  0.461195  1
  I  I12  1  0.543235  0.191299  0.907478  1
  I  I13  1  0.810942  0.266375  0.355960  1
  I  I14  1  0.345895  0.457135  0.273804  1
  I  I15  1  0.912057  0.630400  0.179853  1
  I  I16  1  0.654105  0.542865  0.726196  1
  I  I17  1  0.745536  0.915351  0.538805  1
