# generated using pymatgen
data_La4TcRuO10
_symmetry_space_group_name_H-M   'P 1'
_cell_length_a   7.03512377
_cell_length_b   7.03511875
_cell_length_c   7.03509983
_cell_angle_alpha   100.45218286
_cell_angle_beta   100.45261021
_cell_angle_gamma   129.58059872
_symmetry_Int_Tables_number   1
_chemical_formula_structural   La4TcRuO10
_chemical_formula_sum   'La4 Tc1 Ru1 O10'
_cell_volume   242.79855588
_cell_formula_units_Z   1
loop_
 _symmetry_equiv_pos_site_id
 _symmetry_equiv_pos_as_xyz
  1  'x, y, z'
loop_
 _atom_site_type_symbol
 _atom_site_label
 _atom_site_symmetry_multiplicity
 _atom_site_fract_x
 _atom_site_fract_y
 _atom_site_fract_z
 _atom_site_occupancy
  La  La0  1  0.811388  0.391845  0.213377  1
  La  La1  1  0.391844  0.178468  0.580459  1
  La  La2  1  0.598009  0.811384  0.419539  1
  La  La3  1  0.178463  0.598008  0.786622  1
  Tc  Tc4  1  0.820308  0.820307  0.000001  1
  Ru  Ru5  1  0.190179  0.190178  0.000001  1
  O  O6  1  0.356077  0.067179  0.908463  1
  O  O7  1  0.067179  0.158716  0.711102  1
  O  O8  1  0.447615  0.356077  0.288898  1
  O  O9  1  0.158716  0.447615  0.091538  1
  O  O10  1  0.654496  0.930941  0.093236  1
  O  O11  1  0.930943  0.837706  0.276445  1
  O  O12  1  0.247909  0.747910  0.500001  1
  O  O13  1  0.747910  0.247911  0.500001  1
  O  O14  1  0.837707  0.561260  0.906763  1
  O  O15  1  0.561260  0.654497  0.723554  1
