# generated using pymatgen
data_Cs2RbSc(H6Ir)2
_symmetry_space_group_name_H-M   'P 1'
_cell_length_a   8.45281100
_cell_length_b   8.45281100
_cell_length_c   7.62105100
_cell_angle_alpha   90.00000000
_cell_angle_beta   90.00000000
_cell_angle_gamma   90.00000000
_symmetry_Int_Tables_number   1
_chemical_formula_structural   Cs2RbSc(H6Ir)2
_chemical_formula_sum   'Cs4 Rb2 Sc2 H24 Ir4'
_cell_volume   544.52419913
_cell_formula_units_Z   2
loop_
 _symmetry_equiv_pos_site_id
 _symmetry_equiv_pos_as_xyz
  1  'x, y, z'
loop_
 _atom_site_type_symbol
 _atom_site_label
 _atom_site_symmetry_multiplicity
 _atom_site_fract_x
 _atom_site_fract_y
 _atom_site_fract_z
 _atom_site_occupancy
  Cs  Cs0  1  0.000000  0.000000  0.500000  1
  Cs  Cs1  1  0.000000  0.500000  0.000000  1
  Cs  Cs2  1  0.500000  0.000000  0.000000  1
  Cs  Cs3  1  0.000000  0.000000  0.000000  1
  Rb  Rb4  1  0.000000  0.500000  0.500000  1
  Rb  Rb5  1  0.500000  0.000000  0.500000  1
  Sc  Sc6  1  0.500000  0.500000  0.500000  1
  Sc  Sc7  1  0.500000  0.500000  0.000000  1
  H  H8  1  0.691494  0.691494  0.476306  1
  H  H9  1  0.308506  0.308506  0.476306  1
  H  H10  1  0.115825  0.704768  0.739058  1
  H  H11  1  0.295232  0.884175  0.739058  1
  H  H12  1  0.704768  0.115825  0.739058  1
  H  H13  1  0.884175  0.295232  0.739058  1
  H  H14  1  0.694322  0.512202  0.746891  1
  H  H15  1  0.512202  0.694322  0.746891  1
  H  H16  1  0.487798  0.305678  0.746891  1
  H  H17  1  0.305678  0.487798  0.746891  1
  H  H18  1  0.309282  0.690718  0.966222  1
  H  H19  1  0.690718  0.309282  0.966222  1
  H  H20  1  0.690718  0.690718  0.033778  1
  H  H21  1  0.309282  0.309282  0.033778  1
  H  H22  1  0.305678  0.512202  0.253109  1
  H  H23  1  0.487798  0.694322  0.253109  1
  H  H24  1  0.512202  0.305678  0.253109  1
  H  H25  1  0.694322  0.487798  0.253109  1
  H  H26  1  0.884175  0.704768  0.260942  1
  H  H27  1  0.704768  0.884175  0.260942  1
  H  H28  1  0.295232  0.115825  0.260942  1
  H  H29  1  0.115825  0.295232  0.260942  1
  H  H30  1  0.308506  0.691494  0.523694  1
  H  H31  1  0.691494  0.308506  0.523694  1
  Ir  Ir32  1  0.314297  0.685703  0.744047  1
  Ir  Ir33  1  0.685703  0.314297  0.744047  1
  Ir  Ir34  1  0.685703  0.685703  0.255953  1
  Ir  Ir35  1  0.314297  0.314297  0.255953  1
