# generated using pymatgen
data_Ba8Tb3Y(FeO5)4
_symmetry_space_group_name_H-M   'P 1'
_cell_length_a   6.16696801
_cell_length_b   7.94438772
_cell_length_c   12.77963095
_cell_angle_alpha   91.77812244
_cell_angle_beta   89.99294640
_cell_angle_gamma   90.00199585
_symmetry_Int_Tables_number   1
_chemical_formula_structural   Ba8Tb3Y(FeO5)4
_chemical_formula_sum   'Ba8 Tb3 Y1 Fe4 O20'
_cell_volume   625.80822237
_cell_formula_units_Z   1
loop_
 _symmetry_equiv_pos_site_id
 _symmetry_equiv_pos_as_xyz
  1  'x, y, z'
loop_
 _atom_site_type_symbol
 _atom_site_label
 _atom_site_symmetry_multiplicity
 _atom_site_fract_x
 _atom_site_fract_y
 _atom_site_fract_z
 _atom_site_occupancy
  Ba  Ba0  1  0.763679  0.482485  0.347060  1
  Ba  Ba1  1  0.736267  0.982620  0.846826  1
  Ba  Ba2  1  0.236270  0.517351  0.653012  1
  Ba  Ba3  1  0.263734  0.017511  0.153023  1
  Ba  Ba4  1  0.760149  0.993289  0.379788  1
  Ba  Ba5  1  0.739820  0.493168  0.879501  1
  Ba  Ba6  1  0.239838  0.006856  0.620339  1
  Ba  Ba7  1  0.260186  0.506769  0.120287  1
  Tb  Tb8  1  0.750503  0.767165  0.129085  1
  Tb  Tb9  1  0.250513  0.732832  0.370929  1
  Tb  Tb10  1  0.249494  0.232915  0.870732  1
  Y  Y11  1  0.749470  0.266874  0.629207  1
  Fe  Fe12  1  0.732348  0.742986  0.583138  1
  Fe  Fe13  1  0.767601  0.243052  0.083089  1
  Fe  Fe14  1  0.267580  0.257034  0.417248  1
  Fe  Fe15  1  0.232329  0.757076  0.916777  1
  O  O16  1  0.766605  0.972078  0.631378  1
  O  O17  1  0.733420  0.472093  0.131476  1
  O  O18  1  0.233528  0.028107  0.368618  1
  O  O19  1  0.266591  0.527861  0.868546  1
  O  O20  1  0.732182  0.062249  0.175493  1
  O  O21  1  0.767781  0.561969  0.675280  1
  O  O22  1  0.267827  0.937899  0.824495  1
  O  O23  1  0.232310  0.437556  0.324677  1
  O  O24  1  0.549854  0.745601  0.275523  1
  O  O25  1  0.950259  0.245750  0.775118  1
  O  O26  1  0.450929  0.254426  0.724365  1
  O  O27  1  0.049894  0.754378  0.224497  1
  O  O28  1  0.556729  0.221103  0.973727  1
  O  O29  1  0.943192  0.721108  0.473685  1
  O  O30  1  0.443123  0.778906  0.026231  1
  O  O31  1  0.055853  0.278813  0.526465  1
  O  O32  1  0.052676  0.233533  0.024567  1
  O  O33  1  0.447321  0.733563  0.524640  1
  O  O34  1  0.947361  0.766471  0.975287  1
  O  O35  1  0.552781  0.266553  0.475889  1
