# generated using pymatgen
data_Mg2CrGaAg4F14
_symmetry_space_group_name_H-M   'P 1'
_cell_length_a   7.50033982
_cell_length_b   7.50404205
_cell_length_c   7.50404206
_cell_angle_alpha   120.97312614
_cell_angle_beta   116.94723278
_cell_angle_gamma   91.85865226
_symmetry_Int_Tables_number   1
_chemical_formula_structural   Mg2CrGaAg4F14
_chemical_formula_sum   'Mg2 Cr1 Ga1 Ag4 F14'
_cell_volume   302.68215619
_cell_formula_units_Z   1
loop_
 _symmetry_equiv_pos_site_id
 _symmetry_equiv_pos_as_xyz
  1  'x, y, z'
loop_
 _atom_site_type_symbol
 _atom_site_label
 _atom_site_symmetry_multiplicity
 _atom_site_fract_x
 _atom_site_fract_y
 _atom_site_fract_z
 _atom_site_occupancy
  Mg  Mg0  1  0.500000  0.500000  0.500000  1
  Mg  Mg1  1  0.500000  0.000000  0.000000  1
  Cr  Cr2  1  0.500000  0.000000  0.500000  1
  Ga  Ga3  1  0.000000  0.500000  0.500000  1
  Ag  Ag4  1  0.500000  0.500000  0.000000  1
  Ag  Ag5  1  0.000000  0.000000  0.000000  1
  Ag  Ag6  1  0.000000  0.500000  0.000000  1
  Ag  Ag7  1  0.000000  0.000000  0.500000  1
  F  F8  1  0.872979  0.590315  0.282664  1
  F  F9  1  0.189462  0.908646  0.280816  1
  F  F10  1  0.187704  0.801579  0.760779  1
  F  F11  1  0.458080  0.694251  0.383673  1
  F  F12  1  0.458080  0.074407  0.763829  1
  F  F13  1  0.187704  0.426925  0.386124  1
  F  F14  1  0.812296  0.573075  0.613876  1
  F  F15  1  0.541920  0.925593  0.236171  1
  F  F16  1  0.541920  0.305749  0.616327  1
  F  F17  1  0.812296  0.198421  0.239221  1
  F  F18  1  0.407944  0.249636  0.158308  1
  F  F19  1  0.127021  0.409685  0.717336  1
  F  F20  1  0.810538  0.091354  0.719184  1
  F  F21  1  0.592056  0.750364  0.841692  1
