# generated using pymatgen
data_Ta4V6AsOs
_symmetry_space_group_name_H-M   'P 1'
_cell_length_a   5.03956800
_cell_length_b   5.03956771
_cell_length_c   8.27788200
_cell_angle_alpha   90.00000000
_cell_angle_beta   90.00000000
_cell_angle_gamma   120.00001503
_symmetry_Int_Tables_number   1
_chemical_formula_structural   Ta4V6AsOs
_chemical_formula_sum   'Ta4 V6 As1 Os1'
_cell_volume   182.06916122
_cell_formula_units_Z   1
loop_
 _symmetry_equiv_pos_site_id
 _symmetry_equiv_pos_as_xyz
  1  'x, y, z'
loop_
 _atom_site_type_symbol
 _atom_site_label
 _atom_site_symmetry_multiplicity
 _atom_site_fract_x
 _atom_site_fract_y
 _atom_site_fract_z
 _atom_site_occupancy
  Ta  Ta0  1  0.333333  0.666667  0.934731  1
  Ta  Ta1  1  0.666667  0.333333  0.065269  1
  Ta  Ta2  1  0.666667  0.333333  0.436315  1
  Ta  Ta3  1  0.333333  0.666667  0.563685  1
  V  V4  1  0.172338  0.827662  0.251476  1
  V  V5  1  0.172338  0.344674  0.251476  1
  V  V6  1  0.655326  0.827662  0.251476  1
  V  V7  1  0.827662  0.172338  0.748524  1
  V  V8  1  0.827662  0.655326  0.748524  1
  V  V9  1  0.344674  0.172338  0.748524  1
  As  As10  1  0.000000  0.000000  0.000000  1
  Os  Os11  1  0.000000  0.000000  0.500000  1
