# generated using pymatgen
data_Ti(AlOs)2
_symmetry_space_group_name_H-M   'P 1'
_cell_length_a   3.14628494
_cell_length_b   3.14628546
_cell_length_c   7.58518805
_cell_angle_alpha   101.96984229
_cell_angle_beta   101.96984481
_cell_angle_gamma   89.99999306
_symmetry_Int_Tables_number   1
_chemical_formula_structural   Ti(AlOs)2
_chemical_formula_sum   'Ti1 Al2 Os2'
_cell_volume   71.78426180
_cell_formula_units_Z   1
loop_
 _symmetry_equiv_pos_site_id
 _symmetry_equiv_pos_as_xyz
  1  'x, y, z'
loop_
 _atom_site_type_symbol
 _atom_site_label
 _atom_site_symmetry_multiplicity
 _atom_site_fract_x
 _atom_site_fract_y
 _atom_site_fract_z
 _atom_site_occupancy
  Ti  Ti0  1  0.000000  0.000000  0.000000  1
  Al  Al1  1  0.197730  0.197730  0.395461  1
  Al  Al2  1  0.802270  0.802270  0.604540  1
  Os  Os3  1  0.606908  0.606908  0.213816  1
  Os  Os4  1  0.393093  0.393093  0.786185  1
