# generated using pymatgen
data_Dy15YCd4Ir3Os
_symmetry_space_group_name_H-M   'P 1'
_cell_length_a   9.67390188
_cell_length_b   9.67393195
_cell_length_c   9.67480547
_cell_angle_alpha   59.58541345
_cell_angle_beta   59.58539437
_cell_angle_gamma   59.57033378
_symmetry_Int_Tables_number   1
_chemical_formula_structural   Dy15YCd4Ir3Os
_chemical_formula_sum   'Dy15 Y1 Cd4 Ir3 Os1'
_cell_volume   634.11712574
_cell_formula_units_Z   1
loop_
 _symmetry_equiv_pos_site_id
 _symmetry_equiv_pos_as_xyz
  1  'x, y, z'
loop_
 _atom_site_type_symbol
 _atom_site_label
 _atom_site_symmetry_multiplicity
 _atom_site_fract_x
 _atom_site_fract_y
 _atom_site_fract_z
 _atom_site_occupancy
  Dy  Dy0  1  0.349313  0.349313  0.349264  1
  Dy  Dy1  1  0.348407  0.348407  0.956986  1
  Dy  Dy2  1  0.348615  0.956919  0.348332  1
  Dy  Dy3  1  0.956918  0.348615  0.348333  1
  Dy  Dy4  1  0.811546  0.189340  0.189021  1
  Dy  Dy5  1  0.187906  0.809397  0.809492  1
  Dy  Dy6  1  0.189341  0.811546  0.189020  1
  Dy  Dy7  1  0.809398  0.187906  0.809491  1
  Dy  Dy8  1  0.189228  0.189228  0.811501  1
  Dy  Dy9  1  0.809419  0.809418  0.187741  1
  Dy  Dy10  1  0.938705  0.561157  0.561412  1
  Dy  Dy11  1  0.557110  0.939137  0.939280  1
  Dy  Dy12  1  0.561155  0.938707  0.561412  1
  Dy  Dy13  1  0.939137  0.557109  0.939281  1
  Dy  Dy14  1  0.561420  0.561420  0.938645  1
  Y  Y15  1  0.938928  0.938930  0.557595  1
  Cd  Cd16  1  0.579847  0.579848  0.579868  1
  Cd  Cd17  1  0.580524  0.580524  0.256867  1
  Cd  Cd18  1  0.580473  0.256983  0.580530  1
  Cd  Cd19  1  0.256983  0.580472  0.580530  1
  Ir  Ir20  1  0.143404  0.143405  0.577287  1
  Ir  Ir21  1  0.143376  0.577297  0.143391  1
  Ir  Ir22  1  0.577298  0.143376  0.143391  1
  Os  Os23  1  0.141550  0.141550  0.141330  1
