# generated using pymatgen
data_Tm4Ge4As2Rh7
_symmetry_space_group_name_H-M   'P 1'
_cell_length_a   7.23179209
_cell_length_b   7.22969243
_cell_length_c   7.22969248
_cell_angle_alpha   109.35879197
_cell_angle_beta   109.52157514
_cell_angle_gamma   109.52156248
_symmetry_Int_Tables_number   1
_chemical_formula_structural   Tm4Ge4As2Rh7
_chemical_formula_sum   'Tm4 Ge4 As2 Rh7'
_cell_volume   291.02190449
_cell_formula_units_Z   1
loop_
 _symmetry_equiv_pos_site_id
 _symmetry_equiv_pos_as_xyz
  1  'x, y, z'
loop_
 _atom_site_type_symbol
 _atom_site_label
 _atom_site_symmetry_multiplicity
 _atom_site_fract_x
 _atom_site_fract_y
 _atom_site_fract_z
 _atom_site_occupancy
  Tm  Tm0  1  0.502030  0.501658  0.501658  1
  Tm  Tm1  1  0.000337  0.500168  0.000168  1
  Tm  Tm2  1  0.502030  0.000372  0.000372  1
  Tm  Tm3  1  0.000337  0.000168  0.500168  1
  Ge  Ge4  1  0.316447  0.314667  0.001780  1
  Ge  Ge5  1  0.003129  0.681635  0.681635  1
  Ge  Ge6  1  0.003129  0.321494  0.321494  1
  Ge  Ge7  1  0.316447  0.001780  0.314667  1
  As  As8  1  0.680795  0.001114  0.679681  1
  As  As9  1  0.680795  0.679681  0.001114  1
  Rh  Rh10  1  0.749061  0.498756  0.250305  1
  Rh  Rh11  1  0.497550  0.248775  0.748775  1
  Rh  Rh12  1  0.749061  0.250305  0.498756  1
  Rh  Rh13  1  0.250268  0.751518  0.498750  1
  Rh  Rh14  1  0.250268  0.498750  0.751518  1
  Rh  Rh15  1  0.497550  0.748775  0.248775  1
  Rh  Rh16  1  0.000764  0.000382  0.000382  1
