# generated using pymatgen
data_Lu4TcB8Ru9
_symmetry_space_group_name_H-M   'P 1'
_cell_length_a   3.06775700
_cell_length_b   8.67442172
_cell_length_c   10.15479510
_cell_angle_alpha   90.15782265
_cell_angle_beta   90.00000000
_cell_angle_gamma   90.00000000
_symmetry_Int_Tables_number   1
_chemical_formula_structural   Lu4TcB8Ru9
_chemical_formula_sum   'Lu4 Tc1 B8 Ru9'
_cell_volume   270.22840951
_cell_formula_units_Z   1
loop_
 _symmetry_equiv_pos_site_id
 _symmetry_equiv_pos_as_xyz
  1  'x, y, z'
loop_
 _atom_site_type_symbol
 _atom_site_label
 _atom_site_symmetry_multiplicity
 _atom_site_fract_x
 _atom_site_fract_y
 _atom_site_fract_z
 _atom_site_occupancy
  Lu  Lu0  1  0.500000  0.839797  0.180152  1
  Lu  Lu1  1  0.500000  0.159451  0.819511  1
  Lu  Lu2  1  0.500000  0.659461  0.683379  1
  Lu  Lu3  1  0.500000  0.340579  0.317097  1
  Tc  Tc4  1  0.000000  0.657496  0.954357  1
  B  B5  1  0.500000  0.967078  0.588962  1
  B  B6  1  0.500000  0.032647  0.410923  1
  B  B7  1  0.500000  0.849929  0.901090  1
  B  B8  1  0.500000  0.149061  0.099002  1
  B  B9  1  0.500000  0.645489  0.399129  1
  B  B10  1  0.500000  0.352319  0.601421  1
  B  B11  1  0.500000  0.470784  0.911044  1
  B  B12  1  0.500000  0.538500  0.086249  1
  Ru  Ru13  1  0.000000  0.339313  0.047281  1
  Ru  Ru14  1  0.000000  0.841764  0.454084  1
  Ru  Ru15  1  0.000000  0.157817  0.545516  1
  Ru  Ru16  1  0.000000  0.000133  0.000266  1
  Ru  Ru17  1  0.000000  0.405461  0.760672  1
  Ru  Ru18  1  0.000000  0.593537  0.239852  1
  Ru  Ru19  1  0.000000  0.499122  0.500512  1
  Ru  Ru20  1  0.000000  0.907488  0.738456  1
  Ru  Ru21  1  0.000000  0.092774  0.261044  1
