# generated using pymatgen
data_NdZnCu2AgPt
_symmetry_space_group_name_H-M   'P 1'
_cell_length_a   5.30076130
_cell_length_b   5.27412584
_cell_length_c   5.24377774
_cell_angle_alpha   58.70924968
_cell_angle_beta   59.63986328
_cell_angle_gamma   59.83278977
_symmetry_Int_Tables_number   1
_chemical_formula_structural   NdZnCu2AgPt
_chemical_formula_sum   'Nd1 Zn1 Cu2 Ag1 Pt1'
_cell_volume   102.20920523
_cell_formula_units_Z   1
loop_
 _symmetry_equiv_pos_site_id
 _symmetry_equiv_pos_as_xyz
  1  'x, y, z'
loop_
 _atom_site_type_symbol
 _atom_site_label
 _atom_site_symmetry_multiplicity
 _atom_site_fract_x
 _atom_site_fract_y
 _atom_site_fract_z
 _atom_site_occupancy
  Nd  Nd0  1  0.002662  0.992350  0.002328  1
  Zn  Zn1  1  0.621468  0.135017  0.622045  1
  Cu  Cu2  1  0.128725  0.626227  0.623244  1
  Cu  Cu3  1  0.621803  0.626227  0.623244  1
  Ag  Ag4  1  0.251020  0.242663  0.255299  1
  Pt  Pt5  1  0.624322  0.627517  0.123839  1
