# generated using pymatgen
data_RbSm6RuBr12
_symmetry_space_group_name_H-M   'P 1'
_cell_length_a   9.45035945
_cell_length_b   9.44728202
_cell_length_c   9.45163130
_cell_angle_alpha   104.47205522
_cell_angle_beta   104.48354306
_cell_angle_gamma   104.45550323
_symmetry_Int_Tables_number   1
_chemical_formula_structural   RbSm6RuBr12
_chemical_formula_sum   'Rb1 Sm6 Ru1 Br12'
_cell_volume   745.96744338
_cell_formula_units_Z   1
loop_
 _symmetry_equiv_pos_site_id
 _symmetry_equiv_pos_as_xyz
  1  'x, y, z'
loop_
 _atom_site_type_symbol
 _atom_site_label
 _atom_site_symmetry_multiplicity
 _atom_site_fract_x
 _atom_site_fract_y
 _atom_site_fract_z
 _atom_site_occupancy
  Rb  Rb0  1  0.500000  0.500000  0.500000  1
  Sm  Sm1  1  0.099906  0.304602  0.010430  1
  Sm  Sm2  1  0.304944  0.010526  0.100292  1
  Sm  Sm3  1  0.010350  0.100165  0.304723  1
  Sm  Sm4  1  0.989651  0.899835  0.695278  1
  Sm  Sm5  1  0.695056  0.989475  0.899708  1
  Sm  Sm6  1  0.900094  0.695398  0.989570  1
  Ru  Ru7  1  0.000000  0.000000  0.000000  1
  Br  Br8  1  0.215708  0.673106  0.075157  1
  Br  Br9  1  0.425754  0.334096  0.112306  1
  Br  Br10  1  0.672855  0.075081  0.215317  1
  Br  Br11  1  0.924884  0.784601  0.326903  1
  Br  Br12  1  0.112307  0.425827  0.334060  1
  Br  Br13  1  0.333986  0.112242  0.425866  1
  Br  Br14  1  0.666014  0.887758  0.574135  1
  Br  Br15  1  0.887694  0.574173  0.665940  1
  Br  Br16  1  0.075117  0.215399  0.673098  1
  Br  Br17  1  0.327146  0.924920  0.784683  1
  Br  Br18  1  0.574246  0.665904  0.887695  1
  Br  Br19  1  0.784292  0.326894  0.924843  1
