# generated using pymatgen
data_Tb6Al24Os5PdPt2
_symmetry_space_group_name_H-M   'P 1'
_cell_length_a   8.82299855
_cell_length_b   8.84167665
_cell_length_c   9.56351089
_cell_angle_alpha   90.06524442
_cell_angle_beta   89.80230345
_cell_angle_gamma   119.48308049
_symmetry_Int_Tables_number   1
_chemical_formula_structural   Tb6Al24Os5PdPt2
_chemical_formula_sum   'Tb6 Al24 Os5 Pd1 Pt2'
_cell_volume   649.43371039
_cell_formula_units_Z   1
loop_
 _symmetry_equiv_pos_site_id
 _symmetry_equiv_pos_as_xyz
  1  'x, y, z'
loop_
 _atom_site_type_symbol
 _atom_site_label
 _atom_site_symmetry_multiplicity
 _atom_site_fract_x
 _atom_site_fract_y
 _atom_site_fract_z
 _atom_site_occupancy
  Tb  Tb0  1  0.187338  0.382360  0.250339  1
  Tb  Tb1  1  0.812662  0.617640  0.749661  1
  Tb  Tb2  1  0.614948  0.814232  0.251918  1
  Tb  Tb3  1  0.385052  0.185768  0.748082  1
  Tb  Tb4  1  0.193544  0.809693  0.250842  1
  Tb  Tb5  1  0.806456  0.190307  0.749158  1
  Al  Al6  1  0.335488  0.671371  0.028545  1
  Al  Al7  1  0.664512  0.328629  0.971455  1
  Al  Al8  1  0.669617  0.331001  0.527705  1
  Al  Al9  1  0.330383  0.668999  0.472295  1
  Al  Al10  1  0.157796  0.325431  0.574893  1
  Al  Al11  1  0.842204  0.674569  0.425107  1
  Al  Al12  1  0.673784  0.841319  0.575658  1
  Al  Al13  1  0.836750  0.676008  0.077374  1
  Al  Al14  1  0.326216  0.158681  0.424342  1
  Al  Al15  1  0.163250  0.323992  0.922626  1
  Al  Al16  1  0.164039  0.834982  0.575899  1
  Al  Al17  1  0.325727  0.158739  0.075660  1
  Al  Al18  1  0.835961  0.165018  0.424101  1
  Al  Al19  1  0.674273  0.841261  0.924340  1
  Al  Al20  1  0.831705  0.159104  0.077602  1
  Al  Al21  1  0.168295  0.840896  0.922398  1
  Al  Al22  1  0.560593  0.124689  0.249762  1
  Al  Al23  1  0.439407  0.875311  0.750238  1
  Al  Al24  1  0.873753  0.437716  0.252760  1
  Al  Al25  1  0.126247  0.562284  0.747240  1
  Al  Al26  1  0.562690  0.436732  0.249832  1
  Al  Al27  1  0.437310  0.563268  0.750168  1
  Al  Al28  1  0.998321  0.002838  0.250128  1
  Al  Al29  1  0.001679  0.997162  0.749872  1
  Os  Os30  1  0.500000  0.000000  0.000000  1
  Os  Os31  1  0.500000  0.000000  0.500000  1
  Os  Os32  1  0.000000  0.500000  0.500000  1
  Os  Os33  1  0.000000  0.000000  0.000000  1
  Os  Os34  1  0.000000  0.000000  0.500000  1
  Pd  Pd35  1  0.500000  0.500000  0.500000  1
  Pt  Pt36  1  0.000000  0.500000  0.000000  1
  Pt  Pt37  1  0.500000  0.500000  0.000000  1
