# generated using pymatgen
data_KLuSiS4
_symmetry_space_group_name_H-M   'P 1'
_cell_length_a   6.60179900
_cell_length_b   6.34184206
_cell_length_c   8.67517897
_cell_angle_alpha   72.42820614
_cell_angle_beta   90.00000000
_cell_angle_gamma   90.00000000
_symmetry_Int_Tables_number   1
_chemical_formula_structural   KLuSiS4
_chemical_formula_sum   'K2 Lu2 Si2 S8'
_cell_volume   346.26110258
_cell_formula_units_Z   2
loop_
 _symmetry_equiv_pos_site_id
 _symmetry_equiv_pos_as_xyz
  1  'x, y, z'
loop_
 _atom_site_type_symbol
 _atom_site_label
 _atom_site_symmetry_multiplicity
 _atom_site_fract_x
 _atom_site_fract_y
 _atom_site_fract_z
 _atom_site_occupancy
  K  K0  1  0.978389  0.729753  0.065154  1
  K  K1  1  0.478389  0.270247  0.934846  1
  Lu  Lu2  1  0.501033  0.230895  0.450889  1
  Lu  Lu3  1  0.001033  0.769105  0.549111  1
  Si  Si4  1  0.462620  0.779145  0.328559  1
  Si  Si5  1  0.962620  0.220855  0.671441  1
  S  S6  1  0.464407  0.578695  0.173825  1
  S  S7  1  0.229788  0.024130  0.284146  1
  S  S8  1  0.728506  0.980362  0.304308  1
  S  S9  1  0.902258  0.427627  0.432179  1
  S  S10  1  0.402258  0.572373  0.567821  1
  S  S11  1  0.228506  0.019638  0.695692  1
  S  S12  1  0.729788  0.975870  0.715854  1
  S  S13  1  0.964407  0.421305  0.826175  1
