# generated using pymatgen
data_Er3Sc2In4CuPt
_symmetry_space_group_name_H-M   'P 1'
_cell_length_a   3.55430800
_cell_length_b   7.90314395
_cell_length_c   17.74508321
_cell_angle_alpha   90.10421907
_cell_angle_beta   90.00000000
_cell_angle_gamma   90.00000000
_symmetry_Int_Tables_number   1
_chemical_formula_structural   Er3Sc2In4CuPt
_chemical_formula_sum   'Er6 Sc4 In8 Cu2 Pt2'
_cell_volume   498.46224935
_cell_formula_units_Z   2
loop_
 _symmetry_equiv_pos_site_id
 _symmetry_equiv_pos_as_xyz
  1  'x, y, z'
loop_
 _atom_site_type_symbol
 _atom_site_label
 _atom_site_symmetry_multiplicity
 _atom_site_fract_x
 _atom_site_fract_y
 _atom_site_fract_z
 _atom_site_occupancy
  Er  Er0  1  0.000000  0.242716  0.214440  1
  Er  Er1  1  0.000000  0.757284  0.785560  1
  Er  Er2  1  0.000000  0.263658  0.715266  1
  Er  Er3  1  0.000000  0.736342  0.284734  1
  Er  Er4  1  0.000000  0.000000  0.000000  1
  Er  Er5  1  0.000000  0.500000  0.500000  1
  Sc  Sc6  1  0.000000  0.120059  0.415725  1
  Sc  Sc7  1  0.000000  0.879941  0.584275  1
  Sc  Sc8  1  0.000000  0.380189  0.914168  1
  Sc  Sc9  1  0.000000  0.619811  0.085832  1
  In  In10  1  0.500000  0.406242  0.351154  1
  In  In11  1  0.500000  0.593758  0.648846  1
  In  In12  1  0.500000  0.084657  0.847977  1
  In  In13  1  0.500000  0.915343  0.152023  1
  In  In14  1  0.500000  0.308259  0.058821  1
  In  In15  1  0.500000  0.691741  0.941179  1
  In  In16  1  0.500000  0.191601  0.562012  1
  In  In17  1  0.500000  0.808399  0.437988  1
  Cu  Cu18  1  0.500000  0.032137  0.306441  1
  Cu  Cu19  1  0.500000  0.967863  0.693559  1
  Pt  Pt20  1  0.500000  0.469049  0.805033  1
  Pt  Pt21  1  0.500000  0.530951  0.194967  1
