# generated using pymatgen
data_Dy12Re(Si4Rh)3
_symmetry_space_group_name_H-M   'P 1'
_cell_length_a   4.22947600
_cell_length_b   10.73629197
_cell_length_c   12.38531170
_cell_angle_alpha   90.09840766
_cell_angle_beta   90.00000000
_cell_angle_gamma   90.00000000
_symmetry_Int_Tables_number   1
_chemical_formula_structural   Dy12Re(Si4Rh)3
_chemical_formula_sum   'Dy12 Re1 Si12 Rh3'
_cell_volume   562.40241738
_cell_formula_units_Z   1
loop_
 _symmetry_equiv_pos_site_id
 _symmetry_equiv_pos_as_xyz
  1  'x, y, z'
loop_
 _atom_site_type_symbol
 _atom_site_label
 _atom_site_symmetry_multiplicity
 _atom_site_fract_x
 _atom_site_fract_y
 _atom_site_fract_z
 _atom_site_occupancy
  Dy  Dy0  1  0.250000  0.878960  0.021007  1
  Dy  Dy1  1  0.250000  0.619831  0.522151  1
  Dy  Dy2  1  0.750000  0.118513  0.979093  1
  Dy  Dy3  1  0.750000  0.379860  0.479803  1
  Dy  Dy4  1  0.250000  0.921694  0.603498  1
  Dy  Dy5  1  0.250000  0.579854  0.105336  1
  Dy  Dy6  1  0.750000  0.079836  0.395126  1
  Dy  Dy7  1  0.750000  0.420536  0.896016  1
  Dy  Dy8  1  0.250000  0.665277  0.799535  1
  Dy  Dy9  1  0.250000  0.838662  0.300796  1
  Dy  Dy10  1  0.750000  0.339336  0.197745  1
  Dy  Dy11  1  0.750000  0.159104  0.699197  1
  Re  Re12  1  0.250000  0.391766  0.680367  1
  Si  Si13  1  0.250000  0.011966  0.822480  1
  Si  Si14  1  0.250000  0.486604  0.322093  1
  Si  Si15  1  0.750000  0.986799  0.178385  1
  Si  Si16  1  0.750000  0.509907  0.680453  1
  Si  Si17  1  0.250000  0.247992  0.840822  1
  Si  Si18  1  0.250000  0.252608  0.341228  1
  Si  Si19  1  0.750000  0.752462  0.158220  1
  Si  Si20  1  0.750000  0.750672  0.656985  1
  Si  Si21  1  0.250000  0.203523  0.542885  1
  Si  Si22  1  0.250000  0.297148  0.041406  1
  Si  Si23  1  0.750000  0.800322  0.458138  1
  Si  Si24  1  0.750000  0.698574  0.958420  1
  Rh  Rh25  1  0.250000  0.108577  0.182070  1
  Rh  Rh26  1  0.750000  0.610351  0.318249  1
  Rh  Rh27  1  0.750000  0.889269  0.818492  1
