# generated using pymatgen
data_Mn4Nb12Ga8CN3
_symmetry_space_group_name_H-M   'P 1'
_cell_length_a   8.26994861
_cell_length_b   8.26994880
_cell_length_c   8.26994870
_cell_angle_alpha   59.92046049
_cell_angle_beta   59.92045939
_cell_angle_gamma   59.92046204
_symmetry_Int_Tables_number   1
_chemical_formula_structural   Mn4Nb12Ga8CN3
_chemical_formula_sum   'Mn4 Nb12 Ga8 C1 N3'
_cell_volume   399.21712546
_cell_formula_units_Z   1
loop_
 _symmetry_equiv_pos_site_id
 _symmetry_equiv_pos_as_xyz
  1  'x, y, z'
loop_
 _atom_site_type_symbol
 _atom_site_label
 _atom_site_symmetry_multiplicity
 _atom_site_fract_x
 _atom_site_fract_y
 _atom_site_fract_z
 _atom_site_occupancy
  Mn  Mn0  1  0.125000  0.125000  0.125000  1
  Mn  Mn1  1  0.625000  0.125000  0.125000  1
  Mn  Mn2  1  0.125000  0.625000  0.125000  1
  Mn  Mn3  1  0.125000  0.125000  0.625000  1
  Nb  Nb4  1  0.693491  0.306051  0.693491  1
  Nb  Nb5  1  0.943949  0.556509  0.556509  1
  Nb  Nb6  1  0.555848  0.943276  0.943276  1
  Nb  Nb7  1  0.943276  0.555848  0.943276  1
  Nb  Nb8  1  0.556509  0.556509  0.943949  1
  Nb  Nb9  1  0.943276  0.943276  0.555848  1
  Nb  Nb10  1  0.693491  0.693491  0.306051  1
  Nb  Nb11  1  0.306051  0.693491  0.693491  1
  Nb  Nb12  1  0.694152  0.306724  0.306724  1
  Nb  Nb13  1  0.306724  0.306724  0.694152  1
  Nb  Nb14  1  0.556509  0.943949  0.556509  1
  Nb  Nb15  1  0.306724  0.694152  0.306724  1
  Ga  Ga16  1  0.336171  0.336171  0.336171  1
  Ga  Ga17  1  0.258654  0.913116  0.913116  1
  Ga  Ga18  1  0.913116  0.258654  0.913116  1
  Ga  Ga19  1  0.913116  0.913116  0.258654  1
  Ga  Ga20  1  0.336884  0.991346  0.336884  1
  Ga  Ga21  1  0.336884  0.336884  0.991346  1
  Ga  Ga22  1  0.991346  0.336884  0.336884  1
  Ga  Ga23  1  0.913829  0.913829  0.913829  1
  C  C24  1  0.625000  0.625000  0.625000  1
  N  N25  1  0.125000  0.625000  0.625000  1
  N  N26  1  0.625000  0.125000  0.625000  1
  N  N27  1  0.625000  0.625000  0.125000  1
