# generated using pymatgen
data_Hf6Al16Cu2Ir4Pd
_symmetry_space_group_name_H-M   'P 1'
_cell_length_a   8.69071382
_cell_length_b   8.71308577
_cell_length_c   8.69070012
_cell_angle_alpha   59.91470618
_cell_angle_beta   60.16710632
_cell_angle_gamma   59.91454778
_symmetry_Int_Tables_number   1
_chemical_formula_structural   Hf6Al16Cu2Ir4Pd
_chemical_formula_sum   'Hf6 Al16 Cu2 Ir4 Pd1'
_cell_volume   465.31775774
_cell_formula_units_Z   1
loop_
 _symmetry_equiv_pos_site_id
 _symmetry_equiv_pos_as_xyz
  1  'x, y, z'
loop_
 _atom_site_type_symbol
 _atom_site_label
 _atom_site_symmetry_multiplicity
 _atom_site_fract_x
 _atom_site_fract_y
 _atom_site_fract_z
 _atom_site_occupancy
  Hf  Hf0  1  0.689451  0.310566  0.310557  1
  Hf  Hf1  1  0.310549  0.689434  0.689443  1
  Hf  Hf2  1  0.327066  0.672942  0.327066  1
  Hf  Hf3  1  0.672934  0.327058  0.672934  1
  Hf  Hf4  1  0.310558  0.310566  0.689450  1
  Hf  Hf5  1  0.689442  0.689434  0.310550  1
  Al  Al6  1  0.338562  0.330957  0.338562  1
  Al  Al7  1  0.661438  0.669043  0.661438  1
  Al  Al8  1  0.330957  0.338561  0.991926  1
  Al  Al9  1  0.338550  0.991952  0.338550  1
  Al  Al10  1  0.669043  0.661439  0.008074  1
  Al  Al11  1  0.661450  0.008048  0.661450  1
  Al  Al12  1  0.991926  0.338561  0.330957  1
  Al  Al13  1  0.008074  0.661439  0.669043  1
  Al  Al14  1  0.125798  0.110887  0.125798  1
  Al  Al15  1  0.874202  0.889113  0.874202  1
  Al  Al16  1  0.110882  0.125807  0.637515  1
  Al  Al17  1  0.125806  0.637515  0.125806  1
  Al  Al18  1  0.889118  0.874193  0.362485  1
  Al  Al19  1  0.874194  0.362485  0.874194  1
  Al  Al20  1  0.637515  0.125807  0.110883  1
  Al  Al21  1  0.362485  0.874193  0.889117  1
  Cu  Cu22  1  0.000000  0.500000  0.000000  1
  Cu  Cu23  1  0.500000  0.000000  0.500000  1
  Ir  Ir24  1  0.500000  0.000000  0.000000  1
  Ir  Ir25  1  0.000000  0.500000  0.500000  1
  Ir  Ir26  1  0.000000  0.000000  0.500000  1
  Ir  Ir27  1  0.500000  0.500000  0.000000  1
  Pd  Pd28  1  0.000000  0.000000  0.000000  1
