# generated using pymatgen
data_KRb(B4Ir3)2
_symmetry_space_group_name_H-M   'P 1'
_cell_length_a   7.66729980
_cell_length_b   7.66730068
_cell_length_c   8.35695500
_cell_angle_alpha   90.00000000
_cell_angle_beta   90.00000000
_cell_angle_gamma   97.04637974
_symmetry_Int_Tables_number   1
_chemical_formula_structural   KRb(B4Ir3)2
_chemical_formula_sum   'K2 Rb2 B16 Ir12'
_cell_volume   487.57384829
_cell_formula_units_Z   2
loop_
 _symmetry_equiv_pos_site_id
 _symmetry_equiv_pos_as_xyz
  1  'x, y, z'
loop_
 _atom_site_type_symbol
 _atom_site_label
 _atom_site_symmetry_multiplicity
 _atom_site_fract_x
 _atom_site_fract_y
 _atom_site_fract_z
 _atom_site_occupancy
  K  K0  1  0.996969  0.003031  0.500000  1
  K  K1  1  0.496969  0.503031  0.500000  1
  Rb  Rb2  1  0.226646  0.273354  0.767280  1
  Rb  Rb3  1  0.726646  0.773354  0.232720  1
  B  B4  1  0.154315  0.161332  0.182721  1
  B  B5  1  0.838668  0.845685  0.817279  1
  B  B6  1  0.654315  0.661332  0.817279  1
  B  B7  1  0.338668  0.345685  0.182721  1
  B  B8  1  0.906407  0.414805  0.499569  1
  B  B9  1  0.585195  0.093593  0.500431  1
  B  B10  1  0.085195  0.593593  0.499569  1
  B  B11  1  0.406407  0.914805  0.500431  1
  B  B12  1  0.212394  0.948461  0.161436  1
  B  B13  1  0.051539  0.787606  0.838564  1
  B  B14  1  0.441475  0.719201  0.838352  1
  B  B15  1  0.280799  0.558525  0.161648  1
  B  B16  1  0.780799  0.058525  0.838352  1
  B  B17  1  0.941475  0.219201  0.161648  1
  B  B18  1  0.551539  0.287606  0.161436  1
  B  B19  1  0.712394  0.448461  0.838564  1
  Ir  Ir20  1  0.103280  0.396720  0.308300  1
  Ir  Ir21  1  0.603280  0.896720  0.691700  1
  Ir  Ir22  1  0.889277  0.610723  0.691389  1
  Ir  Ir23  1  0.389277  0.110723  0.308611  1
  Ir  Ir24  1  0.746752  0.253248  0.000000  1
  Ir  Ir25  1  0.246752  0.753248  0.000000  1
  Ir  Ir26  1  0.996952  0.003048  0.000000  1
  Ir  Ir27  1  0.496952  0.503048  0.000000  1
  Ir  Ir28  1  0.745992  0.253659  0.665532  1
  Ir  Ir29  1  0.746341  0.254008  0.334468  1
  Ir  Ir30  1  0.245992  0.753659  0.334468  1
  Ir  Ir31  1  0.246341  0.754008  0.665532  1
