# generated using pymatgen
data_Yb2PuThB16
_symmetry_space_group_name_H-M   'P 1'
_cell_length_a   7.14712595
_cell_length_b   7.14712623
_cell_length_c   4.05805700
_cell_angle_alpha   90.00000000
_cell_angle_beta   90.00000000
_cell_angle_gamma   90.57326263
_symmetry_Int_Tables_number   1
_chemical_formula_structural   Yb2PuThB16
_chemical_formula_sum   'Yb2 Pu1 Th1 B16'
_cell_volume   207.28090324
_cell_formula_units_Z   1
loop_
 _symmetry_equiv_pos_site_id
 _symmetry_equiv_pos_as_xyz
  1  'x, y, z'
loop_
 _atom_site_type_symbol
 _atom_site_label
 _atom_site_symmetry_multiplicity
 _atom_site_fract_x
 _atom_site_fract_y
 _atom_site_fract_z
 _atom_site_occupancy
  Yb  Yb0  1  0.684012  0.816194  0.000000  1
  Yb  Yb1  1  0.316194  0.184012  0.000000  1
  Pu  Pu2  1  0.813420  0.313420  0.000000  1
  Th  Th3  1  0.185915  0.685915  0.000000  1
  B  B4  1  0.327042  0.460275  0.500000  1
  B  B5  1  0.677995  0.536556  0.500000  1
  B  B6  1  0.540580  0.321424  0.500000  1
  B  B7  1  0.464545  0.674348  0.500000  1
  B  B8  1  0.997339  0.002653  0.202855  1
  B  B9  1  0.502653  0.497339  0.797145  1
  B  B10  1  0.997339  0.002653  0.797145  1
  B  B11  1  0.502653  0.497339  0.202855  1
  B  B12  1  0.587178  0.087178  0.500000  1
  B  B13  1  0.086200  0.413463  0.500000  1
  B  B14  1  0.913463  0.586200  0.500000  1
  B  B15  1  0.410867  0.910867  0.500000  1
  B  B16  1  0.036556  0.177995  0.500000  1
  B  B17  1  0.174348  0.964545  0.500000  1
  B  B18  1  0.821424  0.040580  0.500000  1
  B  B19  1  0.960275  0.827042  0.500000  1
