# generated using pymatgen
data_Tb2YbMnCrC6
_symmetry_space_group_name_H-M   'P 1'
_cell_length_a   8.10551417
_cell_length_b   8.08458557
_cell_length_c   5.02237000
_cell_angle_alpha   90.00000000
_cell_angle_beta   90.00000000
_cell_angle_gamma   120.11685906
_symmetry_Int_Tables_number   1
_chemical_formula_structural   Tb2YbMnCrC6
_chemical_formula_sum   'Tb4 Yb2 Mn2 Cr2 C12'
_cell_volume   284.68531070
_cell_formula_units_Z   2
loop_
 _symmetry_equiv_pos_site_id
 _symmetry_equiv_pos_as_xyz
  1  'x, y, z'
loop_
 _atom_site_type_symbol
 _atom_site_label
 _atom_site_symmetry_multiplicity
 _atom_site_fract_x
 _atom_site_fract_y
 _atom_site_fract_z
 _atom_site_occupancy
  Tb  Tb0  1  0.684646  0.067407  0.250000  1
  Tb  Tb1  1  0.311178  0.931609  0.750000  1
  Tb  Tb2  1  0.066893  0.384088  0.750000  1
  Tb  Tb3  1  0.382114  0.316424  0.250000  1
  Yb  Yb4  1  0.613080  0.682880  0.750000  1
  Yb  Yb5  1  0.927890  0.614000  0.250000  1
  Mn  Mn6  1  0.666497  0.329664  0.750000  1
  Mn  Mn7  1  0.336286  0.667981  0.250000  1
  Cr  Cr8  1  0.998698  0.998371  0.500031  1
  Cr  Cr9  1  0.998698  0.998371  0.999969  1
  C  C10  1  0.956136  0.769711  0.750000  1
  C  C11  1  0.189741  0.960261  0.250000  1
  C  C12  1  0.774800  0.818138  0.250000  1
  C  C13  1  0.230432  0.193012  0.750000  1
  C  C14  1  0.817169  0.040894  0.750000  1
  C  C15  1  0.038358  0.229763  0.250000  1
  C  C16  1  0.858242  0.575616  0.750000  1
  C  C17  1  0.283808  0.859854  0.250000  1
  C  C18  1  0.581067  0.717385  0.250000  1
  C  C19  1  0.425612  0.284299  0.750000  1
  C  C20  1  0.142111  0.425446  0.250000  1
  C  C21  1  0.716544  0.134825  0.750000  1
