# generated using pymatgen
data_YHo3Rh4F28
_symmetry_space_group_name_H-M   'P 1'
_cell_length_a   5.51649704
_cell_length_b   8.88655877
_cell_length_c   11.89444088
_cell_angle_alpha   62.63328773
_cell_angle_beta   90.01177873
_cell_angle_gamma   89.99819262
_symmetry_Int_Tables_number   1
_chemical_formula_structural   YHo3Rh4F28
_chemical_formula_sum   'Y1 Ho3 Rh4 F28'
_cell_volume   517.83856165
_cell_formula_units_Z   1
loop_
 _symmetry_equiv_pos_site_id
 _symmetry_equiv_pos_as_xyz
  1  'x, y, z'
loop_
 _atom_site_type_symbol
 _atom_site_label
 _atom_site_symmetry_multiplicity
 _atom_site_fract_x
 _atom_site_fract_y
 _atom_site_fract_z
 _atom_site_occupancy
  Y  Y0  1  0.238933  0.814128  0.765055  1
  Ho  Ho1  1  0.260990  0.814380  0.265065  1
  Ho  Ho2  1  0.738645  0.187089  0.734813  1
  Ho  Ho3  1  0.761020  0.185963  0.234853  1
  Rh  Rh4  1  0.757723  0.726061  0.044517  1
  Rh  Rh5  1  0.242307  0.273069  0.956623  1
  Rh  Rh6  1  0.257894  0.274464  0.455830  1
  Rh  Rh7  1  0.742602  0.725927  0.543053  1
  F  F8  1  0.940148  0.706299  0.414742  1
  F  F9  1  0.059583  0.293755  0.584072  1
  F  F10  1  0.440802  0.293189  0.084593  1
  F  F11  1  0.561138  0.705800  0.916269  1
  F  F12  1  0.466226  0.729647  0.136623  1
  F  F13  1  0.533681  0.270398  0.863911  1
  F  F14  1  0.967049  0.270859  0.363165  1
  F  F15  1  0.034357  0.728617  0.635150  1
  F  F16  1  0.952027  0.744957  0.174962  1
  F  F17  1  0.047009  0.254572  0.826047  1
  F  F18  1  0.453129  0.255690  0.325444  1
  F  F19  1  0.549689  0.743935  0.674246  1
  F  F20  1  0.768462  0.481597  0.140770  1
  F  F21  1  0.230656  0.517490  0.860038  1
  F  F22  1  0.268877  0.518892  0.359642  1
  F  F23  1  0.731277  0.481231  0.639762  1
  F  F24  1  0.943960  0.280181  0.044454  1
  F  F25  1  0.055929  0.718503  0.957570  1
  F  F26  1  0.443686  0.719363  0.455641  1
  F  F27  1  0.555844  0.280988  0.543860  1
  F  F28  1  0.741563  0.970384  0.449860  1
  F  F29  1  0.259031  0.030392  0.548675  1
  F  F30  1  0.241194  0.028577  0.050179  1
  F  F31  1  0.759203  0.970124  0.950620  1
  F  F32  1  0.585748  0.970785  0.231001  1
  F  F33  1  0.413216  0.031896  0.769403  1
  F  F34  1  0.085805  0.029466  0.269019  1
  F  F35  1  0.910593  0.971329  0.730474  1
