# generated using pymatgen
data_Y2GaTc2Ru
_symmetry_space_group_name_H-M   'P 1'
_cell_length_a   5.34210583
_cell_length_b   5.39597215
_cell_length_c   8.95313500
_cell_angle_alpha   90.00000000
_cell_angle_beta   90.00000000
_cell_angle_gamma   120.33411607
_symmetry_Int_Tables_number   1
_chemical_formula_structural   Y2GaTc2Ru
_chemical_formula_sum   'Y4 Ga2 Tc4 Ru2'
_cell_volume   222.74907631
_cell_formula_units_Z   2
loop_
 _symmetry_equiv_pos_site_id
 _symmetry_equiv_pos_as_xyz
  1  'x, y, z'
loop_
 _atom_site_type_symbol
 _atom_site_label
 _atom_site_symmetry_multiplicity
 _atom_site_fract_x
 _atom_site_fract_y
 _atom_site_fract_z
 _atom_site_occupancy
  Y  Y0  1  0.669310  0.334656  0.063568  1
  Y  Y1  1  0.669310  0.334656  0.436432  1
  Y  Y2  1  0.343537  0.671769  0.558421  1
  Y  Y3  1  0.343537  0.671769  0.941580  1
  Ga  Ga4  1  0.817005  0.164982  0.750000  1
  Ga  Ga5  1  0.817005  0.652020  0.750000  1
  Tc  Tc6  1  0.166817  0.335621  0.250000  1
  Tc  Tc7  1  0.166817  0.831196  0.250000  1
  Tc  Tc8  1  0.651676  0.825837  0.250000  1
  Tc  Tc9  1  0.315677  0.157838  0.750000  1
  Ru  Ru10  1  0.019656  0.009828  0.996119  1
  Ru  Ru11  1  0.019656  0.009828  0.503881  1
