# generated using pymatgen
data_LuZr(B4Ir3)2
_symmetry_space_group_name_H-M   'P 1'
_cell_length_a   7.65170500
_cell_length_b   7.65170446
_cell_length_c   3.53312700
_cell_angle_alpha   90.00000000
_cell_angle_beta   90.00000000
_cell_angle_gamma   120.00000666
_symmetry_Int_Tables_number   1
_chemical_formula_structural   LuZr(B4Ir3)2
_chemical_formula_sum   'Lu1 Zr1 B8 Ir6'
_cell_volume   179.14564573
_cell_formula_units_Z   1
loop_
 _symmetry_equiv_pos_site_id
 _symmetry_equiv_pos_as_xyz
  1  'x, y, z'
loop_
 _atom_site_type_symbol
 _atom_site_label
 _atom_site_symmetry_multiplicity
 _atom_site_fract_x
 _atom_site_fract_y
 _atom_site_fract_z
 _atom_site_occupancy
  Lu  Lu0  1  0.333333  0.666667  0.250000  1
  Zr  Zr1  1  0.666667  0.333333  0.750000  1
  B  B2  1  0.396511  0.948395  0.750000  1
  B  B3  1  0.051605  0.448116  0.750000  1
  B  B4  1  0.551884  0.603489  0.750000  1
  B  B5  1  0.602598  0.051575  0.250000  1
  B  B6  1  0.948425  0.551023  0.250000  1
  B  B7  1  0.448977  0.397402  0.250000  1
  B  B8  1  0.000000  0.000000  0.500574  1
  B  B9  1  0.000000  0.000000  0.999426  1
  Ir  Ir10  1  0.071335  0.743883  0.750000  1
  Ir  Ir11  1  0.256117  0.327452  0.750000  1
  Ir  Ir12  1  0.672548  0.928665  0.750000  1
  Ir  Ir13  1  0.926121  0.255252  0.250000  1
  Ir  Ir14  1  0.744748  0.670869  0.250000  1
  Ir  Ir15  1  0.329131  0.073879  0.250000  1
