# generated using pymatgen
data_ZnGa5Co2
_symmetry_space_group_name_H-M   'P 1'
_cell_length_a   6.32983600
_cell_length_b   6.32983600
_cell_length_c   6.31780600
_cell_angle_alpha   90.00000000
_cell_angle_beta   90.00000000
_cell_angle_gamma   90.00000000
_symmetry_Int_Tables_number   1
_chemical_formula_structural   ZnGa5Co2
_chemical_formula_sum   'Zn2 Ga10 Co4'
_cell_volume   253.13441972
_cell_formula_units_Z   2
loop_
 _symmetry_equiv_pos_site_id
 _symmetry_equiv_pos_as_xyz
  1  'x, y, z'
loop_
 _atom_site_type_symbol
 _atom_site_label
 _atom_site_symmetry_multiplicity
 _atom_site_fract_x
 _atom_site_fract_y
 _atom_site_fract_z
 _atom_site_occupancy
  Zn  Zn0  1  0.500000  0.000000  0.000000  1
  Zn  Zn1  1  0.500000  0.000000  0.500000  1
  Ga  Ga2  1  0.000000  0.500000  0.000000  1
  Ga  Ga3  1  0.000000  0.500000  0.500000  1
  Ga  Ga4  1  0.648682  0.337280  0.740108  1
  Ga  Ga5  1  0.837280  0.851318  0.759892  1
  Ga  Ga6  1  0.162720  0.148682  0.759892  1
  Ga  Ga7  1  0.351318  0.662720  0.740108  1
  Ga  Ga8  1  0.351318  0.662720  0.259892  1
  Ga  Ga9  1  0.648682  0.337280  0.259892  1
  Ga  Ga10  1  0.837280  0.851318  0.240108  1
  Ga  Ga11  1  0.162720  0.148682  0.240108  1
  Co  Co12  1  0.853077  0.157682  0.000000  1
  Co  Co13  1  0.657682  0.646923  0.500000  1
  Co  Co14  1  0.342318  0.353077  0.500000  1
  Co  Co15  1  0.146923  0.842318  0.000000  1
