# generated using pymatgen
data_Nd4Th2MgCo17P12
_symmetry_space_group_name_H-M   'P 1'
_cell_length_a   3.79289600
_cell_length_b   10.72267000
_cell_length_c   12.45595500
_cell_angle_alpha   90.00000000
_cell_angle_beta   90.00000000
_cell_angle_gamma   90.00000000
_symmetry_Int_Tables_number   1
_chemical_formula_structural   Nd4Th2MgCo17P12
_chemical_formula_sum   'Nd4 Th2 Mg1 Co17 P12'
_cell_volume   506.58334298
_cell_formula_units_Z   1
loop_
 _symmetry_equiv_pos_site_id
 _symmetry_equiv_pos_as_xyz
  1  'x, y, z'
loop_
 _atom_site_type_symbol
 _atom_site_label
 _atom_site_symmetry_multiplicity
 _atom_site_fract_x
 _atom_site_fract_y
 _atom_site_fract_z
 _atom_site_occupancy
  Nd  Nd0  1  0.500000  0.817851  0.206457  1
  Nd  Nd1  1  0.500000  0.182149  0.206457  1
  Nd  Nd2  1  0.000000  0.685017  0.795614  1
  Nd  Nd3  1  0.000000  0.314983  0.795614  1
  Th  Th4  1  0.000000  0.500000  0.527807  1
  Th  Th5  1  0.500000  0.000000  0.476362  1
  Mg  Mg6  1  0.500000  0.500000  0.149183  1
  Co  Co7  1  0.000000  0.000000  0.840451  1
  Co  Co8  1  0.500000  0.500000  0.700241  1
  Co  Co9  1  0.000000  0.000000  0.300575  1
  Co  Co10  1  0.000000  0.500000  0.985101  1
  Co  Co11  1  0.500000  0.000000  0.013563  1
  Co  Co12  1  0.500000  0.329314  0.992823  1
  Co  Co13  1  0.500000  0.670686  0.992823  1
  Co  Co14  1  0.000000  0.161851  0.001335  1
  Co  Co15  1  0.000000  0.838149  0.001335  1
  Co  Co16  1  0.500000  0.296813  0.433719  1
  Co  Co17  1  0.500000  0.703187  0.433719  1
  Co  Co18  1  0.000000  0.200298  0.570196  1
  Co  Co19  1  0.000000  0.799702  0.570196  1
  Co  Co20  1  0.500000  0.882720  0.709857  1
  Co  Co21  1  0.500000  0.117280  0.709857  1
  Co  Co22  1  0.000000  0.620180  0.295331  1
  Co  Co23  1  0.000000  0.379820  0.295331  1
  P  P24  1  0.500000  0.500000  0.884170  1
  P  P25  1  0.000000  0.000000  0.115188  1
  P  P26  1  0.500000  0.500000  0.347767  1
  P  P27  1  0.000000  0.000000  0.660801  1
  P  P28  1  0.500000  0.303456  0.616014  1
  P  P29  1  0.500000  0.696544  0.616014  1
  P  P30  1  0.000000  0.195342  0.387207  1
  P  P31  1  0.000000  0.804658  0.387207  1
  P  P32  1  0.500000  0.852114  0.893545  1
  P  P33  1  0.500000  0.147886  0.893545  1
  P  P34  1  0.000000  0.661196  0.097297  1
  P  P35  1  0.000000  0.338804  0.097297  1
