# generated using pymatgen
data_Dy3Sc3ZnTe2
_symmetry_space_group_name_H-M   'P 1'
_cell_length_a   8.00700200
_cell_length_b   8.00700188
_cell_length_c   4.06271400
_cell_angle_alpha   90.00000000
_cell_angle_beta   90.00000000
_cell_angle_gamma   120.00000050
_symmetry_Int_Tables_number   1
_chemical_formula_structural   Dy3Sc3ZnTe2
_chemical_formula_sum   'Dy3 Sc3 Zn1 Te2'
_cell_volume   225.57280891
_cell_formula_units_Z   1
loop_
 _symmetry_equiv_pos_site_id
 _symmetry_equiv_pos_as_xyz
  1  'x, y, z'
loop_
 _atom_site_type_symbol
 _atom_site_label
 _atom_site_symmetry_multiplicity
 _atom_site_fract_x
 _atom_site_fract_y
 _atom_site_fract_z
 _atom_site_occupancy
  Dy  Dy0  1  0.604806  0.000000  0.000000  1
  Dy  Dy1  1  0.395194  0.395194  0.000000  1
  Dy  Dy2  1  0.000000  0.604806  0.000000  1
  Sc  Sc3  1  0.238244  0.000000  0.500000  1
  Sc  Sc4  1  0.761756  0.761756  0.500000  1
  Sc  Sc5  1  0.000000  0.238244  0.500000  1
  Zn  Zn6  1  0.000000  0.000000  0.000000  1
  Te  Te7  1  0.333333  0.666667  0.500000  1
  Te  Te8  1  0.666667  0.333333  0.500000  1
