# generated using pymatgen
data_Dy3(Ho3Ru2)7
_symmetry_space_group_name_H-M   'P 1'
_cell_length_a   11.28160201
_cell_length_b   8.34534689
_cell_length_c   11.19945500
_cell_angle_alpha   56.50773733
_cell_angle_beta   90.00277288
_cell_angle_gamma   89.99954317
_symmetry_Int_Tables_number   1
_chemical_formula_structural   Dy3(Ho3Ru2)7
_chemical_formula_sum   'Dy3 Ho21 Ru14'
_cell_volume   879.34127585
_cell_formula_units_Z   1
loop_
 _symmetry_equiv_pos_site_id
 _symmetry_equiv_pos_as_xyz
  1  'x, y, z'
loop_
 _atom_site_type_symbol
 _atom_site_label
 _atom_site_symmetry_multiplicity
 _atom_site_fract_x
 _atom_site_fract_y
 _atom_site_fract_z
 _atom_site_occupancy
  Dy  Dy0  1  0.705986  0.240262  0.531850  1
  Dy  Dy1  1  0.206004  0.759678  0.968100  1
  Dy  Dy2  1  0.844655  0.507037  0.655359  1
  Ho  Ho3  1  0.344772  0.492962  0.844733  1
  Ho  Ho4  1  0.155262  0.492981  0.344817  1
  Ho  Ho5  1  0.655248  0.507053  0.155152  1
  Ho  Ho6  1  0.006402  0.852309  0.361536  1
  Ho  Ho7  1  0.506360  0.147778  0.138365  1
  Ho  Ho8  1  0.993733  0.147724  0.638386  1
  Ho  Ho9  1  0.493712  0.852202  0.861638  1
  Ho  Ho10  1  0.793886  0.240323  0.031864  1
  Ho  Ho11  1  0.293894  0.759628  0.468201  1
  Ho  Ho12  1  0.931077  0.776839  0.090059  1
  Ho  Ho13  1  0.431089  0.223190  0.409936  1
  Ho  Ho14  1  0.068860  0.223193  0.910003  1
  Ho  Ho15  1  0.568776  0.776752  0.590066  1
  Ho  Ho16  1  0.301625  0.243171  0.674751  1
  Ho  Ho17  1  0.801608  0.756879  0.825312  1
  Ho  Ho18  1  0.698329  0.757062  0.325097  1
  Ho  Ho19  1  0.198393  0.242995  0.174811  1
  Ho  Ho20  1  0.925556  0.279406  0.293644  1
  Ho  Ho21  1  0.425579  0.720614  0.206367  1
  Ho  Ho22  1  0.074507  0.720657  0.706292  1
  Ho  Ho23  1  0.574401  0.279348  0.793774  1
  Ru  Ru24  1  0.499915  0.500116  0.499979  1
  Ru  Ru25  1  0.999904  0.499876  0.000028  1
  Ru  Ru26  1  0.648484  0.923477  0.033725  1
  Ru  Ru27  1  0.148485  0.076504  0.466308  1
  Ru  Ru28  1  0.351567  0.076642  0.966287  1
  Ru  Ru29  1  0.851603  0.923479  0.533670  1
  Ru  Ru30  1  0.398265  0.485241  0.102976  1
  Ru  Ru31  1  0.898303  0.514787  0.396886  1
  Ru  Ru32  1  0.601788  0.514666  0.897095  1
  Ru  Ru33  1  0.101935  0.485317  0.602883  1
  Ru  Ru34  1  0.820586  0.098106  0.848837  1
  Ru  Ru35  1  0.320584  0.901705  0.651243  1
  Ru  Ru36  1  0.179439  0.901723  0.151398  1
  Ru  Ru37  1  0.679428  0.098318  0.348572  1
