# generated using pymatgen
data_YTh7(Ga5Ir9)2
_symmetry_space_group_name_H-M   'P 1'
_cell_length_a   5.61185300
_cell_length_b   5.61185202
_cell_length_c   24.04894300
_cell_angle_alpha   90.00000000
_cell_angle_beta   90.00000000
_cell_angle_gamma   119.99998807
_symmetry_Int_Tables_number   1
_chemical_formula_structural   YTh7(Ga5Ir9)2
_chemical_formula_sum   'Y1 Th7 Ga10 Ir18'
_cell_volume   655.90233071
_cell_formula_units_Z   1
loop_
 _symmetry_equiv_pos_site_id
 _symmetry_equiv_pos_as_xyz
  1  'x, y, z'
loop_
 _atom_site_type_symbol
 _atom_site_label
 _atom_site_symmetry_multiplicity
 _atom_site_fract_x
 _atom_site_fract_y
 _atom_site_fract_z
 _atom_site_occupancy
  Y  Y0  1  0.333333  0.666667  0.822024  1
  Th  Th1  1  0.333333  0.666667  0.531461  1
  Th  Th2  1  0.666667  0.333333  0.469367  1
  Th  Th3  1  0.666667  0.333333  0.030434  1
  Th  Th4  1  0.333333  0.666667  0.967674  1
  Th  Th5  1  0.333333  0.666667  0.680265  1
  Th  Th6  1  0.666667  0.333333  0.322937  1
  Th  Th7  1  0.666667  0.333333  0.176839  1
  Ga  Ga8  1  0.000000  0.000000  0.000202  1
  Ga  Ga9  1  0.000000  0.000000  0.500190  1
  Ga  Ga10  1  0.333333  0.666667  0.167380  1
  Ga  Ga11  1  0.666667  0.333333  0.832254  1
  Ga  Ga12  1  0.666667  0.333333  0.667203  1
  Ga  Ga13  1  0.333333  0.666667  0.332808  1
  Ga  Ga14  1  0.000000  0.000000  0.166290  1
  Ga  Ga15  1  0.000000  0.000000  0.833528  1
  Ga  Ga16  1  0.000000  0.000000  0.665908  1
  Ga  Ga17  1  0.000000  0.000000  0.333665  1
  Ir  Ir18  1  0.168772  0.337543  0.083983  1
  Ir  Ir19  1  0.831181  0.662363  0.916109  1
  Ir  Ir20  1  0.662457  0.831228  0.083983  1
  Ir  Ir21  1  0.831140  0.662280  0.584051  1
  Ir  Ir22  1  0.337637  0.168819  0.916109  1
  Ir  Ir23  1  0.168497  0.336992  0.416034  1
  Ir  Ir24  1  0.168772  0.831228  0.083983  1
  Ir  Ir25  1  0.337720  0.168860  0.584051  1
  Ir  Ir26  1  0.831181  0.168819  0.916109  1
  Ir  Ir27  1  0.663008  0.831503  0.416034  1
  Ir  Ir28  1  0.831140  0.168860  0.584051  1
  Ir  Ir29  1  0.168497  0.831503  0.416034  1
  Ir  Ir30  1  0.166258  0.332513  0.249996  1
  Ir  Ir31  1  0.833986  0.667974  0.749684  1
  Ir  Ir32  1  0.667487  0.833742  0.249996  1
  Ir  Ir33  1  0.332026  0.166014  0.749684  1
  Ir  Ir34  1  0.166258  0.833742  0.249996  1
  Ir  Ir35  1  0.833986  0.166014  0.749684  1
