# generated using pymatgen
data_Ta4Si4IrRuRh2
_symmetry_space_group_name_H-M   'P 1'
_cell_length_a   3.79957400
_cell_length_b   6.40573136
_cell_length_c   7.32989947
_cell_angle_alpha   90.39669532
_cell_angle_beta   90.00000000
_cell_angle_gamma   90.00000000
_symmetry_Int_Tables_number   1
_chemical_formula_structural   Ta4Si4IrRuRh2
_chemical_formula_sum   'Ta4 Si4 Ir1 Ru1 Rh2'
_cell_volume   178.39851600
_cell_formula_units_Z   1
loop_
 _symmetry_equiv_pos_site_id
 _symmetry_equiv_pos_as_xyz
  1  'x, y, z'
loop_
 _atom_site_type_symbol
 _atom_site_label
 _atom_site_symmetry_multiplicity
 _atom_site_fract_x
 _atom_site_fract_y
 _atom_site_fract_z
 _atom_site_occupancy
  Ta  Ta0  1  0.250000  0.524876  0.670893  1
  Ta  Ta1  1  0.750000  0.472583  0.329161  1
  Ta  Ta2  1  0.250000  0.025090  0.823170  1
  Ta  Ta3  1  0.750000  0.978562  0.176914  1
  Si  Si4  1  0.250000  0.269476  0.124465  1
  Si  Si5  1  0.750000  0.731023  0.878065  1
  Si  Si6  1  0.250000  0.769700  0.373728  1
  Si  Si7  1  0.750000  0.230911  0.623410  1
  Ir  Ir8  1  0.750000  0.850948  0.563726  1
  Ru  Ru9  1  0.250000  0.146398  0.437702  1
  Rh  Rh10  1  0.750000  0.353135  0.935419  1
  Rh  Rh11  1  0.250000  0.647297  0.063348  1
