# generated using pymatgen
data_La4Cu5Ni9
_symmetry_space_group_name_H-M   'P 1'
_cell_length_a   5.09813428
_cell_length_b   5.12090974
_cell_length_c   12.65428908
_cell_angle_alpha   78.32622655
_cell_angle_beta   78.40044534
_cell_angle_gamma   59.85210505
_symmetry_Int_Tables_number   1
_chemical_formula_structural   La4Cu5Ni9
_chemical_formula_sum   'La4 Cu5 Ni9'
_cell_volume   277.83360646
_cell_formula_units_Z   1
loop_
 _symmetry_equiv_pos_site_id
 _symmetry_equiv_pos_as_xyz
  1  'x, y, z'
loop_
 _atom_site_type_symbol
 _atom_site_label
 _atom_site_symmetry_multiplicity
 _atom_site_fract_x
 _atom_site_fract_y
 _atom_site_fract_z
 _atom_site_occupancy
  La  La0  1  0.948136  0.949034  0.153796  1
  La  La1  1  0.051864  0.050966  0.846204  1
  La  La2  1  0.853203  0.853238  0.440321  1
  La  La3  1  0.146797  0.146762  0.559679  1
  Cu  Cu4  1  0.718398  0.723514  0.834573  1
  Cu  Cu5  1  0.281602  0.276486  0.165427  1
  Cu  Cu6  1  0.607626  0.614180  0.164014  1
  Cu  Cu7  1  0.392374  0.385820  0.835986  1
  Cu  Cu8  1  0.000000  0.500000  0.000000  1
  Ni  Ni9  1  0.500000  0.500000  0.500000  1
  Ni  Ni10  1  0.500000  0.000000  0.000000  1
  Ni  Ni11  1  0.500000  0.500000  0.000000  1
  Ni  Ni12  1  0.391294  0.391734  0.327700  1
  Ni  Ni13  1  0.889489  0.391419  0.327673  1
  Ni  Ni14  1  0.391294  0.889273  0.327700  1
  Ni  Ni15  1  0.608706  0.608266  0.672300  1
  Ni  Ni16  1  0.110511  0.608581  0.672327  1
  Ni  Ni17  1  0.608706  0.110727  0.672300  1
