# generated using pymatgen
data_Hf2Mg3ScTa5NbN12
_symmetry_space_group_name_H-M   'P 1'
_cell_length_a   5.30358003
_cell_length_b   5.30664382
_cell_length_c   10.58678923
_cell_angle_alpha   89.98461599
_cell_angle_beta   89.99205638
_cell_angle_gamma   120.01024559
_symmetry_Int_Tables_number   1
_chemical_formula_structural   Hf2Mg3ScTa5NbN12
_chemical_formula_sum   'Hf2 Mg3 Sc1 Ta5 Nb1 N12'
_cell_volume   258.01151014
_cell_formula_units_Z   1
loop_
 _symmetry_equiv_pos_site_id
 _symmetry_equiv_pos_as_xyz
  1  'x, y, z'
loop_
 _atom_site_type_symbol
 _atom_site_label
 _atom_site_symmetry_multiplicity
 _atom_site_fract_x
 _atom_site_fract_y
 _atom_site_fract_z
 _atom_site_occupancy
  Hf  Hf0  1  0.000002  0.001087  0.499596  1
  Hf  Hf1  1  0.000050  0.000850  0.000161  1
  Mg  Mg2  1  0.332617  0.666086  0.499668  1
  Mg  Mg3  1  0.667382  0.333471  0.499637  1
  Mg  Mg4  1  0.667242  0.333425  0.000342  1
  Sc  Sc5  1  0.332598  0.666029  0.000217  1
  Ta  Ta6  1  0.662384  0.000112  0.749836  1
  Ta  Ta7  1  0.337786  0.337538  0.749848  1
  Ta  Ta8  1  0.663143  0.662612  0.250279  1
  Ta  Ta9  1  0.337096  0.999783  0.250278  1
  Ta  Ta10  1  0.999824  0.662740  0.749853  1
  Nb  Nb11  1  0.000078  0.336353  0.249821  1
  N  N12  1  0.667461  0.667646  0.624254  1
  N  N13  1  0.669153  0.666318  0.876061  1
  N  N14  1  0.337829  0.330603  0.123115  1
  N  N15  1  0.336726  0.332218  0.376744  1
  N  N16  1  0.333720  0.003026  0.876041  1
  N  N17  1  0.332469  0.000023  0.624234  1
  N  N18  1  0.000164  0.671742  0.376510  1
  N  N19  1  0.997336  0.670309  0.123385  1
  N  N20  1  0.665176  0.998488  0.123261  1
  N  N21  1  0.663127  0.995130  0.376736  1
  N  N22  1  0.996524  0.331073  0.876083  1
  N  N23  1  0.000114  0.333338  0.624039  1
