# generated using pymatgen
data_SrLa3(Si5Pt3)2
_symmetry_space_group_name_H-M   'P 1'
_cell_length_a   8.35890564
_cell_length_b   8.35747005
_cell_length_c   8.35747050
_cell_angle_alpha   136.91565812
_cell_angle_beta   105.44144812
_cell_angle_gamma   90.19201146
_symmetry_Int_Tables_number   1
_chemical_formula_structural   SrLa3(Si5Pt3)2
_chemical_formula_sum   'Sr1 La3 Si10 Pt6'
_cell_volume   366.65636758
_cell_formula_units_Z   1
loop_
 _symmetry_equiv_pos_site_id
 _symmetry_equiv_pos_as_xyz
  1  'x, y, z'
loop_
 _atom_site_type_symbol
 _atom_site_label
 _atom_site_symmetry_multiplicity
 _atom_site_fract_x
 _atom_site_fract_y
 _atom_site_fract_z
 _atom_site_occupancy
  Sr  Sr0  1  0.607778  0.871999  0.735779  1
  La  La1  1  0.861664  0.627809  0.233856  1
  La  La2  1  0.137616  0.371478  0.766138  1
  La  La3  1  0.395429  0.129304  0.266125  1
  Si  Si4  1  0.499833  0.751336  0.251189  1
  Si  Si5  1  0.499833  0.248643  0.748497  1
  Si  Si6  1  0.230829  0.980311  0.749522  1
  Si  Si7  1  0.768690  0.518712  0.749716  1
  Si  Si8  1  0.768690  0.018974  0.249978  1
  Si  Si9  1  0.230829  0.481305  0.250518  1
  Si  Si10  1  0.033537  0.886998  0.146539  1
  Si  Si11  1  0.966728  0.113633  0.853096  1
  Si  Si12  1  0.739349  0.386781  0.352568  1
  Si  Si13  1  0.259927  0.612697  0.647229  1
  Pt  Pt14  1  0.001033  0.749847  0.750562  1
  Pt  Pt15  1  0.001033  0.250472  0.251187  1
  Pt  Pt16  1  0.251537  0.864256  0.387282  1
  Pt  Pt17  1  0.746653  0.135250  0.611402  1
  Pt  Pt18  1  0.474834  0.364823  0.110011  1
  Pt  Pt19  1  0.524177  0.635369  0.888808  1
