# generated using pymatgen
data_DyTh7(Si3Rh)4
_symmetry_space_group_name_H-M   'P 1'
_cell_length_a   8.23375302
_cell_length_b   8.19508454
_cell_length_c   8.42025400
_cell_angle_alpha   90.00000000
_cell_angle_beta   90.00000000
_cell_angle_gamma   119.84476947
_symmetry_Int_Tables_number   1
_chemical_formula_structural   DyTh7(Si3Rh)4
_chemical_formula_sum   'Dy1 Th7 Si12 Rh4'
_cell_volume   492.81543411
_cell_formula_units_Z   1
loop_
 _symmetry_equiv_pos_site_id
 _symmetry_equiv_pos_as_xyz
  1  'x, y, z'
loop_
 _atom_site_type_symbol
 _atom_site_label
 _atom_site_symmetry_multiplicity
 _atom_site_fract_x
 _atom_site_fract_y
 _atom_site_fract_z
 _atom_site_occupancy
  Dy  Dy0  1  0.999830  0.499915  0.750000  1
  Th  Th1  1  0.000058  0.000029  0.250000  1
  Th  Th2  1  0.999978  0.999989  0.750000  1
  Th  Th3  1  0.499964  0.500039  0.250000  1
  Th  Th4  1  0.499964  0.999924  0.250000  1
  Th  Th5  1  0.000120  0.500060  0.250000  1
  Th  Th6  1  0.500058  0.499981  0.750000  1
  Th  Th7  1  0.500058  0.000077  0.750000  1
  Si  Si8  1  0.165421  0.831036  0.501925  1
  Si  Si9  1  0.165421  0.334385  0.501925  1
  Si  Si10  1  0.669229  0.834614  0.499352  1
  Si  Si11  1  0.834561  0.168982  0.501724  1
  Si  Si12  1  0.834561  0.665579  0.501724  1
  Si  Si13  1  0.330770  0.165384  0.499255  1
  Si  Si14  1  0.834561  0.168982  0.998276  1
  Si  Si15  1  0.834561  0.665579  0.998276  1
  Si  Si16  1  0.330770  0.165384  0.000745  1
  Si  Si17  1  0.165421  0.831036  0.998075  1
  Si  Si18  1  0.165421  0.334385  0.998075  1
  Si  Si19  1  0.669229  0.834614  0.000648  1
  Rh  Rh20  1  0.335588  0.667795  0.501987  1
  Rh  Rh21  1  0.664436  0.332217  0.501991  1
  Rh  Rh22  1  0.664436  0.332217  0.998009  1
  Rh  Rh23  1  0.335588  0.667795  0.998013  1
