# generated using pymatgen
data_AgSb(P2O7)2
_symmetry_space_group_name_H-M   'P 1'
_cell_length_a   8.56264943
_cell_length_b   4.85924327
_cell_length_c   7.19195716
_cell_angle_alpha   71.13680563
_cell_angle_beta   95.14546442
_cell_angle_gamma   92.43983145
_symmetry_Int_Tables_number   1
_chemical_formula_structural   AgSb(P2O7)2
_chemical_formula_sum   'Ag1 Sb1 P4 O14'
_cell_volume   282.00118709
_cell_formula_units_Z   1
loop_
 _symmetry_equiv_pos_site_id
 _symmetry_equiv_pos_as_xyz
  1  'x, y, z'
loop_
 _atom_site_type_symbol
 _atom_site_label
 _atom_site_symmetry_multiplicity
 _atom_site_fract_x
 _atom_site_fract_y
 _atom_site_fract_z
 _atom_site_occupancy
  Ag  Ag0  1  0.559085  0.784093  0.729083  1
  Sb  Sb1  1  0.053991  0.207191  0.286339  1
  P  P2  1  0.864715  0.600684  0.494414  1
  P  P3  1  0.261697  0.795706  0.102738  1
  P  P4  1  0.786581  0.230604  0.891454  1
  P  P5  1  0.372613  0.396284  0.494260  1
  O  O6  1  0.753632  0.942884  0.847999  1
  O  O7  1  0.333458  0.892928  0.913517  1
  O  O8  1  0.013103  0.806261  0.462058  1
  O  O9  1  0.709000  0.736412  0.445306  1
  O  O10  1  0.370290  0.588773  0.626806  1
  O  O11  1  0.637829  0.382526  0.907732  1
  O  O12  1  0.896375  0.432762  0.730801  1
  O  O13  1  0.386016  0.597256  0.270188  1
  O  O14  1  0.107437  0.603413  0.108883  1
  O  O15  1  0.885334  0.364071  0.393845  1
  O  O16  1  0.206644  0.248282  0.504196  1
  O  O17  1  0.508656  0.188523  0.529200  1
  O  O18  1  0.893833  0.146625  0.085063  1
  O  O19  1  0.222923  0.054723  0.176118  1
