# generated using pymatgen
data_LaDyHo4(SbO7)2
_symmetry_space_group_name_H-M   'P 1'
_cell_length_a   6.49077591
_cell_length_b   6.49077776
_cell_length_c   7.56219453
_cell_angle_alpha   89.94040646
_cell_angle_beta   90.05958799
_cell_angle_gamma   108.94551538
_symmetry_Int_Tables_number   1
_chemical_formula_structural   LaDyHo4(SbO7)2
_chemical_formula_sum   'La1 Dy1 Ho4 Sb2 O14'
_cell_volume   301.33730128
_cell_formula_units_Z   1
loop_
 _symmetry_equiv_pos_site_id
 _symmetry_equiv_pos_as_xyz
  1  'x, y, z'
loop_
 _atom_site_type_symbol
 _atom_site_label
 _atom_site_symmetry_multiplicity
 _atom_site_fract_x
 _atom_site_fract_y
 _atom_site_fract_z
 _atom_site_occupancy
  La  La0  1  0.502901  0.502901  0.500000  1
  Dy  Dy1  1  0.486374  0.486374  0.000000  1
  Ho  Ho2  1  0.998652  0.469370  0.751132  1
  Ho  Ho3  1  0.000394  0.531836  0.244427  1
  Ho  Ho4  1  0.531836  0.000394  0.755573  1
  Ho  Ho5  1  0.469370  0.998652  0.248868  1
  Sb  Sb6  1  0.999572  0.999572  0.500000  1
  Sb  Sb7  1  0.000496  0.000496  0.000000  1
  O  O8  1  0.641191  0.358547  0.759612  1
  O  O9  1  0.358547  0.641191  0.240388  1
  O  O10  1  0.929966  0.070622  0.749900  1
  O  O11  1  0.070622  0.929966  0.250100  1
  O  O12  1  0.932147  0.677900  0.528934  1
  O  O13  1  0.076844  0.323575  0.028219  1
  O  O14  1  0.323575  0.076844  0.971781  1
  O  O15  1  0.677900  0.932147  0.471066  1
  O  O16  1  0.365325  0.634246  0.761174  1
  O  O17  1  0.634246  0.365325  0.238826  1
  O  O18  1  0.935671  0.682382  0.967719  1
  O  O19  1  0.062801  0.319187  0.467280  1
  O  O20  1  0.319187  0.062801  0.532720  1
  O  O21  1  0.682382  0.935671  0.032281  1
