# generated using pymatgen
data_Zr6Fe15Si7Ru
_symmetry_space_group_name_H-M   'P 1'
_cell_length_a   8.12333571
_cell_length_b   8.12333591
_cell_length_c   8.14448071
_cell_angle_alpha   60.08584622
_cell_angle_beta   60.08584341
_cell_angle_gamma   60.00000003
_symmetry_Int_Tables_number   1
_chemical_formula_structural   Zr6Fe15Si7Ru
_chemical_formula_sum   'Zr6 Fe15 Si7 Ru1'
_cell_volume   380.52177497
_cell_formula_units_Z   1
loop_
 _symmetry_equiv_pos_site_id
 _symmetry_equiv_pos_as_xyz
  1  'x, y, z'
loop_
 _atom_site_type_symbol
 _atom_site_label
 _atom_site_symmetry_multiplicity
 _atom_site_fract_x
 _atom_site_fract_y
 _atom_site_fract_z
 _atom_site_occupancy
  Zr  Zr0  1  0.704621  0.704621  0.293800  1
  Zr  Zr1  1  0.296958  0.704621  0.293800  1
  Zr  Zr2  1  0.704621  0.296958  0.293800  1
  Zr  Zr3  1  0.292550  0.292550  0.707999  1
  Zr  Zr4  1  0.706902  0.292550  0.707999  1
  Zr  Zr5  1  0.292550  0.706902  0.707999  1
  Fe  Fe6  1  0.876909  0.366289  0.879894  1
  Fe  Fe7  1  0.366289  0.876909  0.879894  1
  Fe  Fe8  1  0.876909  0.876909  0.879894  1
  Fe  Fe9  1  0.122714  0.122714  0.631856  1
  Fe  Fe10  1  0.124104  0.633285  0.118507  1
  Fe  Fe11  1  0.633285  0.124104  0.118507  1
  Fe  Fe12  1  0.124104  0.124104  0.118507  1
  Fe  Fe13  1  0.676051  0.676051  0.971846  1
  Fe  Fe14  1  0.674182  0.971859  0.679776  1
  Fe  Fe15  1  0.971859  0.674182  0.679776  1
  Fe  Fe16  1  0.674182  0.674182  0.679776  1
  Fe  Fe17  1  0.323565  0.323565  0.029305  1
  Fe  Fe18  1  0.324154  0.028488  0.323203  1
  Fe  Fe19  1  0.028488  0.324154  0.323203  1
  Fe  Fe20  1  0.324154  0.324154  0.323203  1
  Si  Si21  1  0.004312  0.004312  0.987065  1
  Si  Si22  1  0.000503  0.000503  0.503594  1
  Si  Si23  1  0.495401  0.000503  0.503594  1
  Si  Si24  1  0.000503  0.495401  0.503594  1
  Si  Si25  1  0.499665  0.499665  0.000932  1
  Si  Si26  1  0.999738  0.499665  0.000932  1
  Si  Si27  1  0.499665  0.999738  0.000932  1
  Ru  Ru28  1  0.881063  0.881063  0.356812  1
