# generated using pymatgen
data_Ce2Al9Os2Pd
_symmetry_space_group_name_H-M   'P 1'
_cell_length_a   7.66280423
_cell_length_b   7.66280413
_cell_length_c   9.55192800
_cell_angle_alpha   90.00000000
_cell_angle_beta   90.00000000
_cell_angle_gamma   119.71416295
_symmetry_Int_Tables_number   1
_chemical_formula_structural   Ce2Al9Os2Pd
_chemical_formula_sum   'Ce4 Al18 Os4 Pd2'
_cell_volume   487.12545652
_cell_formula_units_Z   2
loop_
 _symmetry_equiv_pos_site_id
 _symmetry_equiv_pos_as_xyz
  1  'x, y, z'
loop_
 _atom_site_type_symbol
 _atom_site_label
 _atom_site_symmetry_multiplicity
 _atom_site_fract_x
 _atom_site_fract_y
 _atom_site_fract_z
 _atom_site_occupancy
  Ce  Ce0  1  0.996901  0.666740  0.250000  1
  Ce  Ce1  1  0.003099  0.333260  0.750000  1
  Ce  Ce2  1  0.666740  0.996901  0.250000  1
  Ce  Ce3  1  0.333260  0.003099  0.750000  1
  Al  Al4  1  0.132079  0.132079  0.250000  1
  Al  Al5  1  0.867921  0.867921  0.750000  1
  Al  Al6  1  0.004032  0.339409  0.074816  1
  Al  Al7  1  0.995968  0.660591  0.925184  1
  Al  Al8  1  0.995968  0.660591  0.574816  1
  Al  Al9  1  0.339409  0.004032  0.425184  1
  Al  Al10  1  0.004032  0.339409  0.425184  1
  Al  Al11  1  0.660591  0.995968  0.574816  1
  Al  Al12  1  0.660591  0.995968  0.925184  1
  Al  Al13  1  0.339409  0.004032  0.074816  1
  Al  Al14  1  0.340099  0.340099  0.551270  1
  Al  Al15  1  0.659901  0.659901  0.448730  1
  Al  Al16  1  0.659901  0.659901  0.051270  1
  Al  Al17  1  0.340099  0.340099  0.948730  1
  Al  Al18  1  0.338909  0.547987  0.250000  1
  Al  Al19  1  0.661091  0.452013  0.750000  1
  Al  Al20  1  0.547987  0.338909  0.250000  1
  Al  Al21  1  0.452013  0.661091  0.750000  1
  Os  Os22  1  0.672772  0.327228  0.000000  1
  Os  Os23  1  0.327228  0.672772  0.000000  1
  Os  Os24  1  0.327228  0.672772  0.500000  1
  Os  Os25  1  0.672772  0.327228  0.500000  1
  Pd  Pd26  1  0.000000  0.000000  0.000000  1
  Pd  Pd27  1  0.000000  0.000000  0.500000  1
