# generated using pymatgen
data_Sr4Al18Ir5Pt
_symmetry_space_group_name_H-M   'P 1'
_cell_length_a   7.64060061
_cell_length_b   7.64059981
_cell_length_c   9.85298907
_cell_angle_alpha   89.99662193
_cell_angle_beta   89.99662717
_cell_angle_gamma   119.24694059
_symmetry_Int_Tables_number   1
_chemical_formula_structural   Sr4Al18Ir5Pt
_chemical_formula_sum   'Sr4 Al18 Ir5 Pt1'
_cell_volume   501.87941663
_cell_formula_units_Z   1
loop_
 _symmetry_equiv_pos_site_id
 _symmetry_equiv_pos_as_xyz
  1  'x, y, z'
loop_
 _atom_site_type_symbol
 _atom_site_label
 _atom_site_symmetry_multiplicity
 _atom_site_fract_x
 _atom_site_fract_y
 _atom_site_fract_z
 _atom_site_occupancy
  Sr  Sr0  1  0.993421  0.670354  0.250937  1
  Sr  Sr1  1  0.005116  0.328528  0.749700  1
  Sr  Sr2  1  0.671472  0.994884  0.250300  1
  Sr  Sr3  1  0.329646  0.006579  0.749063  1
  Al  Al4  1  0.133398  0.133009  0.250240  1
  Al  Al5  1  0.866991  0.866602  0.749760  1
  Al  Al6  1  0.008563  0.335569  0.068205  1
  Al  Al7  1  0.999509  0.669043  0.931593  1
  Al  Al8  1  0.996923  0.664880  0.566965  1
  Al  Al9  1  0.335120  0.003077  0.433035  1
  Al  Al10  1  0.004575  0.335107  0.432770  1
  Al  Al11  1  0.664893  0.995425  0.567230  1
  Al  Al12  1  0.664431  0.991437  0.931795  1
  Al  Al13  1  0.330957  0.000491  0.068407  1
  Al  Al14  1  0.334917  0.335030  0.541297  1
  Al  Al15  1  0.664970  0.665083  0.458703  1
  Al  Al16  1  0.664152  0.667108  0.043641  1
  Al  Al17  1  0.332892  0.335848  0.956359  1
  Al  Al18  1  0.335648  0.542951  0.250372  1
  Al  Al19  1  0.665237  0.460635  0.746516  1
  Al  Al20  1  0.539365  0.334763  0.253484  1
  Al  Al21  1  0.457049  0.664352  0.749628  1
  Ir  Ir22  1  0.329852  0.670148  0.000000  1
  Ir  Ir23  1  0.330247  0.669753  0.500000  1
  Ir  Ir24  1  0.670194  0.329806  0.500000  1
  Ir  Ir25  1  0.999847  0.000153  0.000000  1
  Ir  Ir26  1  0.000156  0.999844  0.500000  1
  Pt  Pt27  1  0.670461  0.329539  0.000000  1
