# generated using pymatgen
data_NaIn(NO3)4
_symmetry_space_group_name_H-M   'P 1'
_cell_length_a   8.15984379
_cell_length_b   8.09050100
_cell_length_c   8.07213691
_cell_angle_alpha   90.00000000
_cell_angle_beta   89.85933624
_cell_angle_gamma   90.00000000
_symmetry_Int_Tables_number   1
_chemical_formula_structural   NaIn(NO3)4
_chemical_formula_sum   'Na2 In2 N8 O24'
_cell_volume   532.89846751
_cell_formula_units_Z   2
loop_
 _symmetry_equiv_pos_site_id
 _symmetry_equiv_pos_as_xyz
  1  'x, y, z'
loop_
 _atom_site_type_symbol
 _atom_site_label
 _atom_site_symmetry_multiplicity
 _atom_site_fract_x
 _atom_site_fract_y
 _atom_site_fract_z
 _atom_site_occupancy
  Na  Na0  1  0.500000  0.500000  0.500000  1
  Na  Na1  1  0.500000  0.000000  0.000000  1
  In  In2  1  0.000000  0.500000  0.000000  1
  In  In3  1  0.000000  0.000000  0.500000  1
  N  N4  1  0.689793  0.146643  0.333240  1
  N  N5  1  0.689793  0.353357  0.833240  1
  N  N6  1  0.845659  0.810879  0.824553  1
  N  N7  1  0.845659  0.689121  0.324553  1
  N  N8  1  0.154341  0.189121  0.175447  1
  N  N9  1  0.154341  0.310879  0.675447  1
  N  N10  1  0.310207  0.646643  0.166760  1
  N  N11  1  0.310207  0.853357  0.666760  1
  O  O12  1  0.578205  0.249405  0.826552  1
  O  O13  1  0.578205  0.250595  0.326552  1
  O  O14  1  0.707481  0.468234  0.731898  1
  O  O15  1  0.707481  0.031766  0.231898  1
  O  O16  1  0.740675  0.700825  0.434390  1
  O  O17  1  0.740675  0.799175  0.934390  1
  O  O18  1  0.794479  0.337720  0.957464  1
  O  O19  1  0.794479  0.162280  0.457464  1
  O  O20  1  0.835853  0.926458  0.716429  1
  O  O21  1  0.835853  0.573542  0.216429  1
  O  O22  1  0.966772  0.709661  0.814171  1
  O  O23  1  0.966772  0.790339  0.314171  1
  O  O24  1  0.033228  0.209661  0.685829  1
  O  O25  1  0.033228  0.290339  0.185829  1
  O  O26  1  0.164147  0.426458  0.783571  1
  O  O27  1  0.164147  0.073542  0.283571  1
  O  O28  1  0.205521  0.662280  0.042536  1
  O  O29  1  0.205521  0.837720  0.542536  1
  O  O30  1  0.259325  0.200825  0.065610  1
  O  O31  1  0.259325  0.299175  0.565610  1
  O  O32  1  0.292519  0.531766  0.268102  1
  O  O33  1  0.292519  0.968234  0.768102  1
  O  O34  1  0.421795  0.749405  0.673448  1
  O  O35  1  0.421795  0.750595  0.173448  1
