# generated using pymatgen
data_Ce2B10Rh
_symmetry_space_group_name_H-M   'P 1'
_cell_length_a   4.17678900
_cell_length_b   5.69937300
_cell_length_c   11.38967400
_cell_angle_alpha   90.00000000
_cell_angle_beta   90.00000000
_cell_angle_gamma   90.00000000
_symmetry_Int_Tables_number   1
_chemical_formula_structural   Ce2B10Rh
_chemical_formula_sum   'Ce4 B20 Rh2'
_cell_volume   271.13208313
_cell_formula_units_Z   2
loop_
 _symmetry_equiv_pos_site_id
 _symmetry_equiv_pos_as_xyz
  1  'x, y, z'
loop_
 _atom_site_type_symbol
 _atom_site_label
 _atom_site_symmetry_multiplicity
 _atom_site_fract_x
 _atom_site_fract_y
 _atom_site_fract_z
 _atom_site_occupancy
  Ce  Ce0  1  0.500000  0.299792  0.863251  1
  Ce  Ce1  1  0.500000  0.700208  0.136749  1
  Ce  Ce2  1  0.500000  0.799792  0.636749  1
  Ce  Ce3  1  0.500000  0.200208  0.363251  1
  B  B4  1  0.000000  0.118167  0.543193  1
  B  B5  1  0.000000  0.881833  0.456807  1
  B  B6  1  0.000000  0.618167  0.956807  1
  B  B7  1  0.000000  0.381833  0.043193  1
  B  B8  1  0.000000  0.139587  0.697779  1
  B  B9  1  0.000000  0.860413  0.302221  1
  B  B10  1  0.302105  0.216142  0.118782  1
  B  B11  1  0.302105  0.783858  0.881218  1
  B  B12  1  0.697895  0.716142  0.381218  1
  B  B13  1  0.697895  0.283858  0.618782  1
  B  B14  1  0.697895  0.783858  0.881218  1
  B  B15  1  0.697895  0.216142  0.118782  1
  B  B16  1  0.302105  0.283858  0.618782  1
  B  B17  1  0.302105  0.716142  0.381218  1
  B  B18  1  0.000000  0.051702  0.192573  1
  B  B19  1  0.000000  0.948298  0.807427  1
  B  B20  1  0.000000  0.551702  0.307427  1
  B  B21  1  0.000000  0.448298  0.692573  1
  B  B22  1  0.000000  0.360413  0.197779  1
  B  B23  1  0.000000  0.639587  0.802221  1
  Rh  Rh24  1  0.000000  0.500000  0.500000  1
  Rh  Rh25  1  0.000000  0.000000  0.000000  1
