# generated using pymatgen
data_Yb4Gd2Al17Si7Os8
_symmetry_space_group_name_H-M   'P 1'
_cell_length_a   8.68970623
_cell_length_b   8.67222732
_cell_length_c   9.59991100
_cell_angle_alpha   90.00000000
_cell_angle_beta   90.00000000
_cell_angle_gamma   120.15985091
_symmetry_Int_Tables_number   1
_chemical_formula_structural   Yb4Gd2Al17Si7Os8
_chemical_formula_sum   'Yb4 Gd2 Al17 Si7 Os8'
_cell_volume   625.50643927
_cell_formula_units_Z   1
loop_
 _symmetry_equiv_pos_site_id
 _symmetry_equiv_pos_as_xyz
  1  'x, y, z'
loop_
 _atom_site_type_symbol
 _atom_site_label
 _atom_site_symmetry_multiplicity
 _atom_site_fract_x
 _atom_site_fract_y
 _atom_site_fract_z
 _atom_site_occupancy
  Yb  Yb0  1  0.192260  0.387625  0.250000  1
  Yb  Yb1  1  0.805802  0.611613  0.750000  1
  Yb  Yb2  1  0.391059  0.192131  0.750000  1
  Yb  Yb3  1  0.800206  0.192520  0.750000  1
  Gd  Gd4  1  0.613280  0.808222  0.250000  1
  Gd  Gd5  1  0.193680  0.805464  0.250000  1
  Al  Al6  1  0.166059  0.333057  0.576276  1
  Al  Al7  1  0.833151  0.669087  0.421712  1
  Al  Al8  1  0.668603  0.834260  0.576811  1
  Al  Al9  1  0.833151  0.669087  0.078288  1
  Al  Al10  1  0.331889  0.167127  0.424220  1
  Al  Al11  1  0.166059  0.333057  0.923724  1
  Al  Al12  1  0.165500  0.833321  0.575862  1
  Al  Al13  1  0.331889  0.167127  0.075780  1
  Al  Al14  1  0.834863  0.165405  0.423724  1
  Al  Al15  1  0.668603  0.834260  0.923189  1
  Al  Al16  1  0.834863  0.165405  0.076276  1
  Al  Al17  1  0.165500  0.833321  0.924138  1
  Al  Al18  1  0.125704  0.565455  0.750000  1
  Al  Al19  1  0.563016  0.433097  0.250000  1
  Al  Al20  1  0.438337  0.566239  0.750000  1
  Al  Al21  1  0.999999  0.000173  0.250000  1
  Al  Al22  1  0.000631  0.002129  0.750000  1
  Si  Si23  1  0.333007  0.663395  0.039316  1
  Si  Si24  1  0.666207  0.335378  0.964227  1
  Si  Si25  1  0.666207  0.335378  0.535773  1
  Si  Si26  1  0.333007  0.663395  0.460684  1
  Si  Si27  1  0.566006  0.126959  0.250000  1
  Si  Si28  1  0.434927  0.871657  0.750000  1
  Si  Si29  1  0.873701  0.431455  0.250000  1
  Os  Os30  1  0.500745  0.000461  0.002815  1
  Os  Os31  1  0.998338  0.499905  0.008542  1
  Os  Os32  1  0.500745  0.000461  0.497185  1
  Os  Os33  1  0.501581  0.500790  0.001718  1
  Os  Os34  1  0.998338  0.499905  0.491458  1
  Os  Os35  1  0.501581  0.500790  0.498282  1
  Os  Os36  1  0.000756  0.000445  0.998616  1
  Os  Os37  1  0.000756  0.000445  0.501384  1
