# generated using pymatgen
data_Tb3GaCo2Ir
_symmetry_space_group_name_H-M   'P 1'
_cell_length_a   5.47082947
_cell_length_b   5.47082962
_cell_length_c   13.15330500
_cell_angle_alpha   90.00000000
_cell_angle_beta   90.00000000
_cell_angle_gamma   135.73172674
_symmetry_Int_Tables_number   1
_chemical_formula_structural   Tb3GaCo2Ir
_chemical_formula_sum   'Tb6 Ga2 Co4 Ir2'
_cell_volume   274.79474517
_cell_formula_units_Z   2
loop_
 _symmetry_equiv_pos_site_id
 _symmetry_equiv_pos_as_xyz
  1  'x, y, z'
loop_
 _atom_site_type_symbol
 _atom_site_label
 _atom_site_symmetry_multiplicity
 _atom_site_fract_x
 _atom_site_fract_y
 _atom_site_fract_z
 _atom_site_occupancy
  Tb  Tb0  1  0.793278  0.206722  0.396951  1
  Tb  Tb1  1  0.206722  0.793278  0.603049  1
  Tb  Tb2  1  0.793278  0.206722  0.103049  1
  Tb  Tb3  1  0.206722  0.793278  0.896951  1
  Tb  Tb4  1  0.507634  0.492366  0.250000  1
  Tb  Tb5  1  0.492366  0.507634  0.750000  1
  Ga  Ga6  1  0.500000  0.500000  0.500000  1
  Ga  Ga7  1  0.500000  0.500000  0.000000  1
  Co  Co8  1  0.079471  0.920529  0.412729  1
  Co  Co9  1  0.920529  0.079471  0.587271  1
  Co  Co10  1  0.079471  0.920529  0.087271  1
  Co  Co11  1  0.920529  0.079471  0.912729  1
  Ir  Ir12  1  0.212989  0.787011  0.250000  1
  Ir  Ir13  1  0.787011  0.212989  0.750000  1
