# generated using pymatgen
data_Y2Co9Re3Si7
_symmetry_space_group_name_H-M   'P 1'
_cell_length_a   3.75506800
_cell_length_b   9.18150065
_cell_length_c   9.18150100
_cell_angle_alpha   119.99999764
_cell_angle_beta   90.00000000
_cell_angle_gamma   90.00000000
_symmetry_Int_Tables_number   1
_chemical_formula_structural   Y2Co9Re3Si7
_chemical_formula_sum   'Y2 Co9 Re3 Si7'
_cell_volume   274.14214297
_cell_formula_units_Z   1
loop_
 _symmetry_equiv_pos_site_id
 _symmetry_equiv_pos_as_xyz
  1  'x, y, z'
loop_
 _atom_site_type_symbol
 _atom_site_label
 _atom_site_symmetry_multiplicity
 _atom_site_fract_x
 _atom_site_fract_y
 _atom_site_fract_z
 _atom_site_occupancy
  Y  Y0  1  0.000000  0.666667  0.333333  1
  Y  Y1  1  0.500000  0.333333  0.666667  1
  Co  Co2  1  0.000000  0.570919  0.945281  1
  Co  Co3  1  0.000000  0.374362  0.429081  1
  Co  Co4  1  0.000000  0.054719  0.625638  1
  Co  Co5  1  0.000000  0.876261  0.155055  1
  Co  Co6  1  0.000000  0.278794  0.123739  1
  Co  Co7  1  0.000000  0.844945  0.721206  1
  Co  Co8  1  0.500000  0.949796  0.383782  1
  Co  Co9  1  0.500000  0.433985  0.050204  1
  Co  Co10  1  0.500000  0.616218  0.566015  1
  Re  Re11  1  0.500000  0.783922  0.896327  1
  Re  Re12  1  0.500000  0.112405  0.216078  1
  Re  Re13  1  0.500000  0.103673  0.887595  1
  Si  Si14  1  0.000000  0.000000  0.000000  1
  Si  Si15  1  0.500000  0.708998  0.113636  1
  Si  Si16  1  0.500000  0.404638  0.291002  1
  Si  Si17  1  0.500000  0.886364  0.595362  1
  Si  Si18  1  0.000000  0.590516  0.702215  1
  Si  Si19  1  0.000000  0.111700  0.409484  1
  Si  Si20  1  0.000000  0.297785  0.888300  1
