# generated using pymatgen
data_Sr2(GaAg2)3
_symmetry_space_group_name_H-M   'P 1'
_cell_length_a   9.08129282
_cell_length_b   9.08129341
_cell_length_c   9.08129389
_cell_angle_alpha   56.22130948
_cell_angle_beta   56.22131064
_cell_angle_gamma   56.22130852
_symmetry_Int_Tables_number   1
_chemical_formula_structural   Sr2(GaAg2)3
_chemical_formula_sum   'Sr4 Ga6 Ag12'
_cell_volume   483.26290556
_cell_formula_units_Z   2
loop_
 _symmetry_equiv_pos_site_id
 _symmetry_equiv_pos_as_xyz
  1  'x, y, z'
loop_
 _atom_site_type_symbol
 _atom_site_label
 _atom_site_symmetry_multiplicity
 _atom_site_fract_x
 _atom_site_fract_y
 _atom_site_fract_z
 _atom_site_occupancy
  Sr  Sr0  1  0.409271  0.409271  0.409271  1
  Sr  Sr1  1  0.909271  0.909271  0.909271  1
  Sr  Sr2  1  0.590729  0.590729  0.590729  1
  Sr  Sr3  1  0.090729  0.090729  0.090729  1
  Ga  Ga4  1  0.056621  0.250000  0.443379  1
  Ga  Ga5  1  0.443379  0.056621  0.250000  1
  Ga  Ga6  1  0.250000  0.443379  0.056621  1
  Ga  Ga7  1  0.943379  0.750000  0.556621  1
  Ga  Ga8  1  0.556621  0.943379  0.750000  1
  Ga  Ga9  1  0.750000  0.556621  0.943379  1
  Ag  Ag10  1  0.974558  0.366598  0.703550  1
  Ag  Ag11  1  0.703550  0.974558  0.366598  1
  Ag  Ag12  1  0.366598  0.703550  0.974558  1
  Ag  Ag13  1  0.203550  0.866598  0.474558  1
  Ag  Ag14  1  0.474558  0.203550  0.866598  1
  Ag  Ag15  1  0.866598  0.474558  0.203550  1
  Ag  Ag16  1  0.025442  0.633402  0.296450  1
  Ag  Ag17  1  0.296450  0.025442  0.633402  1
  Ag  Ag18  1  0.633402  0.296450  0.025442  1
  Ag  Ag19  1  0.796450  0.133402  0.525442  1
  Ag  Ag20  1  0.525442  0.796450  0.133402  1
  Ag  Ag21  1  0.133402  0.525442  0.796450  1
