# generated using pymatgen
data_TbPa(AlPt)2
_symmetry_space_group_name_H-M   'P 1'
_cell_length_a   7.17642308
_cell_length_b   7.18938582
_cell_length_c   8.08171200
_cell_angle_alpha   90.00000000
_cell_angle_beta   90.00000000
_cell_angle_gamma   120.00323576
_symmetry_Int_Tables_number   1
_chemical_formula_structural   TbPa(AlPt)2
_chemical_formula_sum   'Tb3 Pa3 Al6 Pt6'
_cell_volume   361.09349530
_cell_formula_units_Z   3
loop_
 _symmetry_equiv_pos_site_id
 _symmetry_equiv_pos_as_xyz
  1  'x, y, z'
loop_
 _atom_site_type_symbol
 _atom_site_label
 _atom_site_symmetry_multiplicity
 _atom_site_fract_x
 _atom_site_fract_y
 _atom_site_fract_z
 _atom_site_occupancy
  Tb  Tb0  1  0.588343  0.001241  0.250000  1
  Tb  Tb1  1  0.416786  0.415121  0.250000  1
  Tb  Tb2  1  0.409588  0.411692  0.750000  1
  Pa  Pa3  1  0.998818  0.581338  0.750000  1
  Pa  Pa4  1  0.003484  0.579778  0.250000  1
  Pa  Pa5  1  0.579063  0.000827  0.750000  1
  Al  Al6  1  0.002519  0.234783  0.498206  1
  Al  Al7  1  0.754852  0.758419  0.001690  1
  Al  Al8  1  0.002519  0.234783  0.001794  1
  Al  Al9  1  0.242966  0.006681  0.499931  1
  Al  Al10  1  0.242966  0.006681  0.000069  1
  Al  Al11  1  0.754852  0.758419  0.498310  1
  Pt  Pt12  1  0.323155  0.674305  0.502975  1
  Pt  Pt13  1  0.682949  0.341279  0.503413  1
  Pt  Pt14  1  0.682949  0.341279  0.996587  1
  Pt  Pt15  1  0.001558  0.989163  0.250000  1
  Pt  Pt16  1  0.989477  0.989905  0.750000  1
  Pt  Pt17  1  0.323155  0.674305  0.997025  1
