# generated using pymatgen
data_Ce2NdEr5(AlRh)8
_symmetry_space_group_name_H-M   'P 1'
_cell_length_a   4.20668100
_cell_length_b   6.99912744
_cell_length_c   15.80216674
_cell_angle_alpha   91.63212967
_cell_angle_beta   90.00000000
_cell_angle_gamma   90.00000000
_symmetry_Int_Tables_number   1
_chemical_formula_structural   Ce2NdEr5(AlRh)8
_chemical_formula_sum   'Ce2 Nd1 Er5 Al8 Rh8'
_cell_volume   465.07596122
_cell_formula_units_Z   1
loop_
 _symmetry_equiv_pos_site_id
 _symmetry_equiv_pos_as_xyz
  1  'x, y, z'
loop_
 _atom_site_type_symbol
 _atom_site_label
 _atom_site_symmetry_multiplicity
 _atom_site_fract_x
 _atom_site_fract_y
 _atom_site_fract_z
 _atom_site_occupancy
  Ce  Ce0  1  0.250000  0.531684  0.721565  1
  Ce  Ce1  1  0.750000  0.469195  0.279950  1
  Nd  Nd2  1  0.750000  0.968646  0.219469  1
  Er  Er3  1  0.250000  0.157901  0.560868  1
  Er  Er4  1  0.750000  0.840771  0.442213  1
  Er  Er5  1  0.250000  0.655637  0.938827  1
  Er  Er6  1  0.750000  0.345995  0.058104  1
  Er  Er7  1  0.250000  0.032567  0.780867  1
  Al  Al8  1  0.250000  0.134061  0.354009  1
  Al  Al9  1  0.750000  0.869357  0.650443  1
  Al  Al10  1  0.250000  0.642433  0.143627  1
  Al  Al11  1  0.750000  0.353406  0.852941  1
  Al  Al12  1  0.250000  0.008151  0.060811  1
  Al  Al13  1  0.750000  0.993822  0.935197  1
  Al  Al14  1  0.250000  0.501586  0.441884  1
  Al  Al15  1  0.750000  0.497964  0.560851  1
  Rh  Rh16  1  0.750000  0.261555  0.431090  1
  Rh  Rh17  1  0.250000  0.738777  0.571932  1
  Rh  Rh18  1  0.750000  0.765945  0.062164  1
  Rh  Rh19  1  0.250000  0.229190  0.932083  1
  Rh  Rh20  1  0.750000  0.729203  0.812791  1
  Rh  Rh21  1  0.250000  0.276851  0.185870  1
  Rh  Rh22  1  0.750000  0.253627  0.683156  1
  Rh  Rh23  1  0.250000  0.741674  0.319289  1
