# generated using pymatgen
data_Li4Pr3PaSi8
_symmetry_space_group_name_H-M   'P 1'
_cell_length_a   3.85156100
_cell_length_b   7.69322123
_cell_length_c   10.45043900
_cell_angle_alpha   90.19428505
_cell_angle_beta   90.00000000
_cell_angle_gamma   90.00000000
_symmetry_Int_Tables_number   1
_chemical_formula_structural   Li4Pr3PaSi8
_chemical_formula_sum   'Li4 Pr3 Pa1 Si8'
_cell_volume   309.65424611
_cell_formula_units_Z   1
loop_
 _symmetry_equiv_pos_site_id
 _symmetry_equiv_pos_as_xyz
  1  'x, y, z'
loop_
 _atom_site_type_symbol
 _atom_site_label
 _atom_site_symmetry_multiplicity
 _atom_site_fract_x
 _atom_site_fract_y
 _atom_site_fract_z
 _atom_site_occupancy
  Li  Li0  1  0.250000  0.986190  0.391896  1
  Li  Li1  1  0.250000  0.497005  0.106760  1
  Li  Li2  1  0.750000  0.005888  0.606402  1
  Li  Li3  1  0.750000  0.506054  0.890103  1
  Pr  Pr4  1  0.250000  0.142124  0.864452  1
  Pr  Pr5  1  0.250000  0.636797  0.634145  1
  Pr  Pr6  1  0.750000  0.864212  0.137502  1
  Pa  Pa7  1  0.750000  0.361471  0.365406  1
  Si  Si8  1  0.250000  0.233804  0.560385  1
  Si  Si9  1  0.250000  0.730831  0.930403  1
  Si  Si10  1  0.750000  0.762474  0.428751  1
  Si  Si11  1  0.750000  0.278231  0.078992  1
  Si  Si12  1  0.250000  0.651379  0.320306  1
  Si  Si13  1  0.250000  0.172454  0.190394  1
  Si  Si14  1  0.750000  0.333873  0.673626  1
  Si  Si15  1  0.750000  0.837214  0.820477  1
