# generated using pymatgen
data_Lu3Sc5Se12
_symmetry_space_group_name_H-M   'P 1'
_cell_length_a   12.92235128
_cell_length_b   12.32849114
_cell_length_c   6.80233899
_cell_angle_alpha   79.25292165
_cell_angle_beta   69.60461132
_cell_angle_gamma   31.44638107
_symmetry_Int_Tables_number   1
_chemical_formula_structural   Lu3Sc5Se12
_chemical_formula_sum   'Lu3 Sc5 Se12'
_cell_volume   516.13214416
_cell_formula_units_Z   1
loop_
 _symmetry_equiv_pos_site_id
 _symmetry_equiv_pos_as_xyz
  1  'x, y, z'
loop_
 _atom_site_type_symbol
 _atom_site_label
 _atom_site_symmetry_multiplicity
 _atom_site_fract_x
 _atom_site_fract_y
 _atom_site_fract_z
 _atom_site_occupancy
  Lu  Lu0  1  0.502398  0.502398  0.997602  1
  Lu  Lu1  1  0.252660  0.252660  0.747340  1
  Lu  Lu2  1  0.747400  0.747400  0.252600  1
  Sc  Sc3  1  0.334028  0.334028  0.165972  1
  Sc  Sc4  1  0.166496  0.166496  0.333504  1
  Sc  Sc5  1  0.917394  0.917394  0.082606  1
  Sc  Sc6  1  0.082629  0.082629  0.917371  1
  Sc  Sc7  1  0.997806  0.997806  0.502194  1
  Se  Se8  1  0.010936  0.489369  0.489474  1
  Se  Se9  1  0.489369  0.010936  0.010221  1
  Se  Se10  1  0.237065  0.762911  0.755785  1
  Se  Se11  1  0.762911  0.237065  0.244240  1
  Se  Se12  1  0.669670  0.165480  0.839864  1
  Se  Se13  1  0.848924  0.314784  0.660598  1
  Se  Se14  1  0.314784  0.848924  0.175694  1
  Se  Se15  1  0.165480  0.669670  0.324987  1
  Se  Se16  1  0.585196  0.082984  0.403822  1
  Se  Se17  1  0.403740  0.928130  0.586256  1
  Se  Se18  1  0.928130  0.403740  0.081874  1
  Se  Se19  1  0.082984  0.585196  0.927999  1
