# generated using pymatgen
data_TbYb2Zr(Pt2O7)2
_symmetry_space_group_name_H-M   'P 1'
_cell_length_a   7.20985592
_cell_length_b   7.22205790
_cell_length_c   7.20985420
_cell_angle_alpha   60.16878564
_cell_angle_beta   59.87462476
_cell_angle_gamma   60.16879354
_symmetry_Int_Tables_number   1
_chemical_formula_structural   TbYb2Zr(Pt2O7)2
_chemical_formula_sum   'Tb1 Yb2 Zr1 Pt4 O14'
_cell_volume   265.88085025
_cell_formula_units_Z   1
loop_
 _symmetry_equiv_pos_site_id
 _symmetry_equiv_pos_as_xyz
  1  'x, y, z'
loop_
 _atom_site_type_symbol
 _atom_site_label
 _atom_site_symmetry_multiplicity
 _atom_site_fract_x
 _atom_site_fract_y
 _atom_site_fract_z
 _atom_site_occupancy
  Tb  Tb0  1  0.625000  0.625000  0.625000  1
  Yb  Yb1  1  0.625000  0.625000  0.125000  1
  Yb  Yb2  1  0.125000  0.625000  0.625000  1
  Zr  Zr3  1  0.625000  0.125000  0.625000  1
  Pt  Pt4  1  0.125000  0.125000  0.125000  1
  Pt  Pt5  1  0.625000  0.125000  0.125000  1
  Pt  Pt6  1  0.125000  0.625000  0.125000  1
  Pt  Pt7  1  0.125000  0.125000  0.625000  1
  O  O8  1  0.032236  0.462733  0.465663  1
  O  O9  1  0.784337  0.787267  0.217764  1
  O  O10  1  0.783238  0.203220  0.229599  1
  O  O11  1  0.466715  0.042824  0.466715  1
  O  O12  1  0.039115  0.459788  0.039115  1
  O  O13  1  0.739092  0.776763  0.739092  1
  O  O14  1  0.020401  0.046780  0.466762  1
  O  O15  1  0.210885  0.790212  0.210885  1
  O  O16  1  0.229599  0.203220  0.783238  1
  O  O17  1  0.510908  0.473237  0.510908  1
  O  O18  1  0.783285  0.207176  0.783285  1
  O  O19  1  0.466762  0.046780  0.020401  1
  O  O20  1  0.465663  0.462733  0.032236  1
  O  O21  1  0.217764  0.787267  0.784337  1
