# generated using pymatgen
data_Tm12Co8Si7Tc
_symmetry_space_group_name_H-M   'P 1'
_cell_length_a   5.42456200
_cell_length_b   7.52089420
_cell_length_c   12.52006263
_cell_angle_alpha   90.22266991
_cell_angle_beta   90.00000000
_cell_angle_gamma   90.00000000
_symmetry_Int_Tables_number   1
_chemical_formula_structural   Tm12Co8Si7Tc
_chemical_formula_sum   'Tm12 Co8 Si7 Tc1'
_cell_volume   510.78411021
_cell_formula_units_Z   1
loop_
 _symmetry_equiv_pos_site_id
 _symmetry_equiv_pos_as_xyz
  1  'x, y, z'
loop_
 _atom_site_type_symbol
 _atom_site_label
 _atom_site_symmetry_multiplicity
 _atom_site_fract_x
 _atom_site_fract_y
 _atom_site_fract_z
 _atom_site_occupancy
  Tm  Tm0  1  0.632966  0.252148  0.249157  1
  Tm  Tm1  1  0.368084  0.749671  0.747641  1
  Tm  Tm2  1  0.368084  0.750329  0.252359  1
  Tm  Tm3  1  0.632966  0.247852  0.750843  1
  Tm  Tm4  1  0.129684  0.390137  0.101814  1
  Tm  Tm5  1  0.861652  0.604207  0.898029  1
  Tm  Tm6  1  0.858152  0.603359  0.600526  1
  Tm  Tm7  1  0.858152  0.896641  0.399474  1
  Tm  Tm8  1  0.142372  0.393428  0.397883  1
  Tm  Tm9  1  0.142372  0.106572  0.602117  1
  Tm  Tm10  1  0.129684  0.109863  0.898186  1
  Tm  Tm11  1  0.861652  0.895793  0.101971  1
  Co  Co12  1  0.379771  0.025207  0.087811  1
  Co  Co13  1  0.624006  0.964988  0.911059  1
  Co  Co14  1  0.634424  0.972383  0.587032  1
  Co  Co15  1  0.634424  0.527617  0.412968  1
  Co  Co16  1  0.366109  0.026231  0.413498  1
  Co  Co17  1  0.366109  0.473769  0.586502  1
  Co  Co18  1  0.379771  0.474793  0.912189  1
  Co  Co19  1  0.624006  0.535012  0.088941  1
  Si  Si20  1  0.155823  0.098321  0.251153  1
  Si  Si21  1  0.848460  0.898734  0.748311  1
  Si  Si22  1  0.848460  0.601266  0.251689  1
  Si  Si23  1  0.155823  0.401679  0.748847  1
  Si  Si24  1  0.374233  0.750000  0.000000  1
  Si  Si25  1  0.386842  0.750000  0.500000  1
  Si  Si26  1  0.612584  0.250000  0.500000  1
  Tc  Tc27  1  0.623335  0.250000  0.000000  1
