# generated using pymatgen
data_Rb2ErSn11O24
_symmetry_space_group_name_H-M   'P 1'
_cell_length_a   7.82155053
_cell_length_b   7.89496058
_cell_length_c   9.64902800
_cell_angle_alpha   101.90097221
_cell_angle_beta   101.99703590
_cell_angle_gamma   87.57434722
_symmetry_Int_Tables_number   1
_chemical_formula_structural   Rb2ErSn11O24
_chemical_formula_sum   'Rb2 Er1 Sn11 O24'
_cell_volume   570.29393368
_cell_formula_units_Z   1
loop_
 _symmetry_equiv_pos_site_id
 _symmetry_equiv_pos_as_xyz
  1  'x, y, z'
loop_
 _atom_site_type_symbol
 _atom_site_label
 _atom_site_symmetry_multiplicity
 _atom_site_fract_x
 _atom_site_fract_y
 _atom_site_fract_z
 _atom_site_occupancy
  Rb  Rb0  1  0.001444  0.000128  0.216595  1
  Rb  Rb1  1  0.005126  0.003814  0.785748  1
  Er  Er2  1  0.492727  0.191362  0.947599  1
  Sn  Sn3  1  0.482372  0.182365  0.610346  1
  Sn  Sn4  1  0.484562  0.181619  0.278179  1
  Sn  Sn5  1  0.181627  0.515349  0.115354  1
  Sn  Sn6  1  0.186878  0.517088  0.450956  1
  Sn  Sn7  1  0.181797  0.517088  0.783567  1
  Sn  Sn8  1  0.815519  0.486186  0.218476  1
  Sn  Sn9  1  0.814984  0.481167  0.548797  1
  Sn  Sn10  1  0.812242  0.491591  0.882094  1
  Sn  Sn11  1  0.514386  0.817772  0.721878  1
  Sn  Sn12  1  0.509883  0.816593  0.054525  1
  Sn  Sn13  1  0.520343  0.816082  0.389587  1
  O  O14  1  0.357586  0.044621  0.075596  1
  O  O15  1  0.362982  0.048867  0.401011  1
  O  O16  1  0.361181  0.044668  0.726676  1
  O  O17  1  0.291516  0.375202  0.276844  1
  O  O18  1  0.283595  0.382404  0.943795  1
  O  O19  1  0.296091  0.380076  0.613698  1
  O  O20  1  0.050678  0.638575  0.280628  1
  O  O21  1  0.050474  0.637932  0.614959  1
  O  O22  1  0.045303  0.644949  0.949493  1
  O  O23  1  0.618764  0.295073  0.485643  1
  O  O24  1  0.630562  0.297876  0.808940  1
  O  O25  1  0.633505  0.293655  0.168134  1
  O  O26  1  0.377726  0.702896  0.182081  1
  O  O27  1  0.383235  0.701588  0.512505  1
  O  O28  1  0.371896  0.707484  0.845567  1
  O  O29  1  0.944901  0.363974  0.050159  1
  O  O30  1  0.953431  0.364111  0.386058  1
  O  O31  1  0.949570  0.365303  0.719585  1
  O  O32  1  0.705703  0.624922  0.718014  1
  O  O33  1  0.695654  0.615913  0.053920  1
  O  O34  1  0.707815  0.622480  0.389499  1
  O  O35  1  0.642008  0.933959  0.931051  1
  O  O36  1  0.640814  0.945894  0.264194  1
  O  O37  1  0.641119  0.949369  0.598248  1
