# generated using pymatgen
data_Hf3Al2CuC
_symmetry_space_group_name_H-M   'P 1'
_cell_length_a   8.55848434
_cell_length_b   8.55846016
_cell_length_c   8.55846800
_cell_angle_alpha   60.00009019
_cell_angle_beta   60.00004205
_cell_angle_gamma   60.00000983
_symmetry_Int_Tables_number   1
_chemical_formula_structural   Hf3Al2CuC
_chemical_formula_sum   'Hf12 Al8 Cu4 C4'
_cell_volume   443.27577063
_cell_formula_units_Z   4
loop_
 _symmetry_equiv_pos_site_id
 _symmetry_equiv_pos_as_xyz
  1  'x, y, z'
loop_
 _atom_site_type_symbol
 _atom_site_label
 _atom_site_symmetry_multiplicity
 _atom_site_fract_x
 _atom_site_fract_y
 _atom_site_fract_z
 _atom_site_occupancy
  Hf  Hf0  1  0.437884  0.437884  0.062116  1
  Hf  Hf1  1  0.062116  0.437884  0.062116  1
  Hf  Hf2  1  0.437884  0.062116  0.062116  1
  Hf  Hf3  1  0.062116  0.062116  0.437884  1
  Hf  Hf4  1  0.437884  0.062116  0.437884  1
  Hf  Hf5  1  0.062116  0.437884  0.437884  1
  Hf  Hf6  1  0.812116  0.812116  0.187884  1
  Hf  Hf7  1  0.187884  0.812116  0.187884  1
  Hf  Hf8  1  0.812116  0.187884  0.187884  1
  Hf  Hf9  1  0.187884  0.187884  0.812116  1
  Hf  Hf10  1  0.812116  0.187884  0.812116  1
  Hf  Hf11  1  0.187884  0.812116  0.812116  1
  Al  Al12  1  0.831068  0.831068  0.506796  1
  Al  Al13  1  0.831068  0.506796  0.831068  1
  Al  Al14  1  0.506796  0.831068  0.831068  1
  Al  Al15  1  0.831068  0.831068  0.831068  1
  Al  Al16  1  0.418932  0.418932  0.743204  1
  Al  Al17  1  0.418932  0.743204  0.418932  1
  Al  Al18  1  0.743204  0.418932  0.418932  1
  Al  Al19  1  0.418932  0.418932  0.418932  1
  Cu  Cu20  1  0.625000  0.625000  0.125000  1
  Cu  Cu21  1  0.625000  0.125000  0.625000  1
  Cu  Cu22  1  0.125000  0.625000  0.625000  1
  Cu  Cu23  1  0.625000  0.625000  0.625000  1
  C  C24  1  0.125000  0.125000  0.625000  1
  C  C25  1  0.125000  0.625000  0.125000  1
  C  C26  1  0.625000  0.125000  0.125000  1
  C  C27  1  0.125000  0.125000  0.125000  1
