# generated using pymatgen
data_CuAg2PtO4
_symmetry_space_group_name_H-M   'P 1'
_cell_length_a   3.08366200
_cell_length_b   5.57117106
_cell_length_c   6.48712453
_cell_angle_alpha   75.03637492
_cell_angle_beta   90.00000000
_cell_angle_gamma   90.00000000
_symmetry_Int_Tables_number   1
_chemical_formula_structural   CuAg2PtO4
_chemical_formula_sum   'Cu1 Ag2 Pt1 O4'
_cell_volume   107.66711096
_cell_formula_units_Z   1
loop_
 _symmetry_equiv_pos_site_id
 _symmetry_equiv_pos_as_xyz
  1  'x, y, z'
loop_
 _atom_site_type_symbol
 _atom_site_label
 _atom_site_symmetry_multiplicity
 _atom_site_fract_x
 _atom_site_fract_y
 _atom_site_fract_z
 _atom_site_occupancy
  Cu  Cu0  1  0.000000  0.500000  0.500000  1
  Ag  Ag1  1  0.000000  0.000000  0.000000  1
  Ag  Ag2  1  0.500000  0.500000  0.000000  1
  Pt  Pt3  1  0.500000  0.000000  0.500000  1
  O  O4  1  0.500000  0.372475  0.348280  1
  O  O5  1  0.000000  0.908972  0.331059  1
  O  O6  1  0.500000  0.627525  0.651720  1
  O  O7  1  0.000000  0.091028  0.668941  1
