# generated using pymatgen
data_Ho4TmPa3(ReB6)4
_symmetry_space_group_name_H-M   'P 1'
_cell_length_a   3.70043400
_cell_length_b   9.15898196
_cell_length_c   11.50828551
_cell_angle_alpha   90.16366762
_cell_angle_beta   90.00000000
_cell_angle_gamma   90.00000000
_symmetry_Int_Tables_number   1
_chemical_formula_structural   Ho4TmPa3(ReB6)4
_chemical_formula_sum   'Ho4 Tm1 Pa3 Re4 B24'
_cell_volume   390.03961784
_cell_formula_units_Z   1
loop_
 _symmetry_equiv_pos_site_id
 _symmetry_equiv_pos_as_xyz
  1  'x, y, z'
loop_
 _atom_site_type_symbol
 _atom_site_label
 _atom_site_symmetry_multiplicity
 _atom_site_fract_x
 _atom_site_fract_y
 _atom_site_fract_z
 _atom_site_occupancy
  Ho  Ho0  1  0.000000  0.179341  0.912928  1
  Ho  Ho1  1  0.000000  0.945463  0.374668  1
  Ho  Ho2  1  0.000000  0.055480  0.627521  1
  Ho  Ho3  1  0.000000  0.443626  0.124569  1
  Tm  Tm4  1  0.000000  0.553745  0.873848  1
  Pa  Pa5  1  0.000000  0.321652  0.413302  1
  Pa  Pa6  1  0.000000  0.677762  0.587528  1
  Pa  Pa7  1  0.000000  0.823294  0.085834  1
  Re  Re8  1  0.000000  0.638257  0.321815  1
  Re  Re9  1  0.000000  0.364388  0.675643  1
  Re  Re10  1  0.000000  0.137956  0.180528  1
  Re  Re11  1  0.000000  0.858982  0.821519  1
  B  B12  1  0.500000  0.553546  0.432598  1
  B  B13  1  0.500000  0.447270  0.566648  1
  B  B14  1  0.500000  0.052935  0.067641  1
  B  B15  1  0.500000  0.945447  0.933177  1
  B  B16  1  0.500000  0.748501  0.420342  1
  B  B17  1  0.500000  0.252112  0.580468  1
  B  B18  1  0.500000  0.247992  0.079236  1
  B  B19  1  0.500000  0.751260  0.920285  1
  B  B20  1  0.500000  0.792591  0.265557  1
  B  B21  1  0.500000  0.208296  0.734254  1
  B  B22  1  0.500000  0.292583  0.233297  1
  B  B23  1  0.500000  0.706535  0.766270  1
  B  B24  1  0.500000  0.632590  0.184492  1
  B  B25  1  0.500000  0.368226  0.814777  1
  B  B26  1  0.500000  0.132993  0.314995  1
  B  B27  1  0.500000  0.867069  0.686335  1
  B  B28  1  0.500000  0.982760  0.213002  1
  B  B29  1  0.500000  0.017485  0.787202  1
  B  B30  1  0.500000  0.482925  0.285849  1
  B  B31  1  0.500000  0.517038  0.714203  1
  B  B32  1  0.500000  0.608950  0.029684  1
  B  B33  1  0.500000  0.390860  0.968914  1
  B  B34  1  0.500000  0.111398  0.469827  1
  B  B35  1  0.500000  0.888692  0.531245  1
