# generated using pymatgen
data_Tm8In3Pt
_symmetry_space_group_name_H-M   'P 1'
_cell_length_a   10.37222000
_cell_length_b   10.37222085
_cell_length_c   6.90800500
_cell_angle_alpha   90.00000000
_cell_angle_beta   90.00000000
_cell_angle_gamma   119.99999728
_symmetry_Int_Tables_number   1
_chemical_formula_structural   Tm8In3Pt
_chemical_formula_sum   'Tm16 In6 Pt2'
_cell_volume   643.61589670
_cell_formula_units_Z   2
loop_
 _symmetry_equiv_pos_site_id
 _symmetry_equiv_pos_as_xyz
  1  'x, y, z'
loop_
 _atom_site_type_symbol
 _atom_site_label
 _atom_site_symmetry_multiplicity
 _atom_site_fract_x
 _atom_site_fract_y
 _atom_site_fract_z
 _atom_site_occupancy
  Tm  Tm0  1  0.531348  0.062696  0.795354  1
  Tm  Tm1  1  0.937304  0.468652  0.795354  1
  Tm  Tm2  1  0.531348  0.468652  0.795354  1
  Tm  Tm3  1  0.468652  0.937304  0.295354  1
  Tm  Tm4  1  0.062696  0.531348  0.295354  1
  Tm  Tm5  1  0.468652  0.531348  0.295354  1
  Tm  Tm6  1  0.824610  0.649218  0.501442  1
  Tm  Tm7  1  0.350782  0.175390  0.501442  1
  Tm  Tm8  1  0.824610  0.175390  0.501442  1
  Tm  Tm9  1  0.175390  0.350782  0.001442  1
  Tm  Tm10  1  0.649218  0.824610  0.001442  1
  Tm  Tm11  1  0.175390  0.824610  0.001442  1
  Tm  Tm12  1  0.666667  0.333333  0.170578  1
  Tm  Tm13  1  0.333333  0.666667  0.670578  1
  Tm  Tm14  1  0.000000  0.000000  0.775463  1
  Tm  Tm15  1  0.000000  0.000000  0.275463  1
  In  In16  1  0.837190  0.674382  0.037640  1
  In  In17  1  0.325618  0.162810  0.037640  1
  In  In18  1  0.837190  0.162810  0.037640  1
  In  In19  1  0.162810  0.325618  0.537640  1
  In  In20  1  0.674382  0.837190  0.537640  1
  In  In21  1  0.162810  0.837190  0.537640  1
  Pt  Pt22  1  0.666667  0.333333  0.568604  1
  Pt  Pt23  1  0.333333  0.666667  0.068604  1
