# generated using pymatgen
data_Dy3Mg(AlPt)4
_symmetry_space_group_name_H-M   'P 1'
_cell_length_a   4.35301300
_cell_length_b   6.86381828
_cell_length_c   7.72269981
_cell_angle_alpha   87.32727658
_cell_angle_beta   90.00000000
_cell_angle_gamma   90.00000000
_symmetry_Int_Tables_number   1
_chemical_formula_structural   Dy3Mg(AlPt)4
_chemical_formula_sum   'Dy3 Mg1 Al4 Pt4'
_cell_volume   230.49006310
_cell_formula_units_Z   1
loop_
 _symmetry_equiv_pos_site_id
 _symmetry_equiv_pos_as_xyz
  1  'x, y, z'
loop_
 _atom_site_type_symbol
 _atom_site_label
 _atom_site_symmetry_multiplicity
 _atom_site_fract_x
 _atom_site_fract_y
 _atom_site_fract_z
 _atom_site_occupancy
  Dy  Dy0  1  0.750000  0.525078  0.829974  1
  Dy  Dy1  1  0.750000  0.030018  0.680439  1
  Dy  Dy2  1  0.250000  0.971897  0.316769  1
  Mg  Mg3  1  0.250000  0.472885  0.177759  1
  Al  Al4  1  0.250000  0.850166  0.939304  1
  Al  Al5  1  0.750000  0.145802  0.064372  1
  Al  Al6  1  0.750000  0.640286  0.435304  1
  Al  Al7  1  0.250000  0.360926  0.555323  1
  Pt  Pt8  1  0.250000  0.725388  0.624093  1
  Pt  Pt9  1  0.750000  0.279155  0.373013  1
  Pt  Pt10  1  0.750000  0.771487  0.118787  1
  Pt  Pt11  1  0.250000  0.226913  0.884864  1
