# generated using pymatgen
data_Tb2SmMn(Co4P3)2
_symmetry_space_group_name_H-M   'P 1'
_cell_length_a   3.71252500
_cell_length_b   10.57896300
_cell_length_c   12.24850400
_cell_angle_alpha   90.00000000
_cell_angle_beta   90.00000000
_cell_angle_gamma   90.00000000
_symmetry_Int_Tables_number   1
_chemical_formula_structural   Tb2SmMn(Co4P3)2
_chemical_formula_sum   'Tb4 Sm2 Mn2 Co16 P12'
_cell_volume   481.05588659
_cell_formula_units_Z   2
loop_
 _symmetry_equiv_pos_site_id
 _symmetry_equiv_pos_as_xyz
  1  'x, y, z'
loop_
 _atom_site_type_symbol
 _atom_site_label
 _atom_site_symmetry_multiplicity
 _atom_site_fract_x
 _atom_site_fract_y
 _atom_site_fract_z
 _atom_site_occupancy
  Tb  Tb0  1  0.500000  0.817745  0.205017  1
  Tb  Tb1  1  0.500000  0.182255  0.205017  1
  Tb  Tb2  1  0.000000  0.682255  0.794983  1
  Tb  Tb3  1  0.000000  0.317745  0.794983  1
  Sm  Sm4  1  0.000000  0.500000  0.522771  1
  Sm  Sm5  1  0.500000  0.000000  0.477229  1
  Mn  Mn6  1  0.500000  0.500000  0.158019  1
  Mn  Mn7  1  0.000000  0.000000  0.841981  1
  Co  Co8  1  0.500000  0.500000  0.704149  1
  Co  Co9  1  0.000000  0.000000  0.295851  1
  Co  Co10  1  0.000000  0.500000  0.986323  1
  Co  Co11  1  0.500000  0.000000  0.013677  1
  Co  Co12  1  0.500000  0.333226  0.994568  1
  Co  Co13  1  0.500000  0.666774  0.994568  1
  Co  Co14  1  0.000000  0.166774  0.005432  1
  Co  Co15  1  0.000000  0.833226  0.005432  1
  Co  Co16  1  0.500000  0.296296  0.429803  1
  Co  Co17  1  0.500000  0.703704  0.429803  1
  Co  Co18  1  0.000000  0.203704  0.570197  1
  Co  Co19  1  0.000000  0.796296  0.570197  1
  Co  Co20  1  0.500000  0.880143  0.710453  1
  Co  Co21  1  0.500000  0.119857  0.710453  1
  Co  Co22  1  0.000000  0.619857  0.289547  1
  Co  Co23  1  0.000000  0.380143  0.289547  1
  P  P24  1  0.500000  0.500000  0.883631  1
  P  P25  1  0.000000  0.000000  0.116369  1
  P  P26  1  0.500000  0.500000  0.342911  1
  P  P27  1  0.000000  0.000000  0.657089  1
  P  P28  1  0.500000  0.308866  0.616254  1
  P  P29  1  0.500000  0.691134  0.616254  1
  P  P30  1  0.000000  0.191134  0.383746  1
  P  P31  1  0.000000  0.808866  0.383746  1
  P  P32  1  0.500000  0.847118  0.893801  1
  P  P33  1  0.500000  0.152882  0.893801  1
  P  P34  1  0.000000  0.652882  0.106199  1
  P  P35  1  0.000000  0.347118  0.106199  1
