# generated using pymatgen
data_SmEr(OsO3)6
_symmetry_space_group_name_H-M   'P 1'
_cell_length_a   7.40506900
_cell_length_b   5.23362183
_cell_length_c   8.23227378
_cell_angle_alpha   85.44212441
_cell_angle_beta   90.00000000
_cell_angle_gamma   90.00000000
_symmetry_Int_Tables_number   1
_chemical_formula_structural   SmEr(OsO3)6
_chemical_formula_sum   'Sm1 Er1 Os6 O18'
_cell_volume   318.03553829
_cell_formula_units_Z   1
loop_
 _symmetry_equiv_pos_site_id
 _symmetry_equiv_pos_as_xyz
  1  'x, y, z'
loop_
 _atom_site_type_symbol
 _atom_site_label
 _atom_site_symmetry_multiplicity
 _atom_site_fract_x
 _atom_site_fract_y
 _atom_site_fract_z
 _atom_site_occupancy
  Sm  Sm0  1  0.250000  0.973902  0.427611  1
  Er  Er1  1  0.750000  0.032217  0.573856  1
  Os  Os2  1  0.999334  0.001106  0.998969  1
  Os  Os3  1  0.500666  0.001106  0.998969  1
  Os  Os4  1  0.002729  0.540030  0.692653  1
  Os  Os5  1  0.497271  0.540030  0.692653  1
  Os  Os6  1  0.993816  0.463119  0.307635  1
  Os  Os7  1  0.506184  0.463119  0.307635  1
  O  O8  1  0.250000  0.912006  0.981364  1
  O  O9  1  0.933379  0.854578  0.786747  1
  O  O10  1  0.566621  0.854578  0.786747  1
  O  O11  1  0.955800  0.738884  0.472544  1
  O  O12  1  0.544200  0.738884  0.472544  1
  O  O13  1  0.250000  0.646590  0.670820  1
  O  O14  1  0.960227  0.688455  0.122614  1
  O  O15  1  0.539773  0.688455  0.122614  1
  O  O16  1  0.250000  0.575742  0.315125  1
  O  O17  1  0.750000  0.412526  0.688629  1
  O  O18  1  0.040617  0.314770  0.877445  1
  O  O19  1  0.459383  0.314770  0.877445  1
  O  O20  1  0.750000  0.332878  0.334482  1
  O  O21  1  0.032839  0.260056  0.529760  1
  O  O22  1  0.467161  0.260056  0.529760  1
  O  O23  1  0.062887  0.152537  0.208165  1
  O  O24  1  0.437113  0.152537  0.208165  1
  O  O25  1  0.750000  0.087064  0.015048  1
