# generated using pymatgen
data_Er4MnAl18IrPd4
_symmetry_space_group_name_H-M   'P 1'
_cell_length_a   7.57363599
_cell_length_b   7.57363526
_cell_length_c   9.42726418
_cell_angle_alpha   89.92372146
_cell_angle_beta   89.92372567
_cell_angle_gamma   119.32210542
_symmetry_Int_Tables_number   1
_chemical_formula_structural   Er4MnAl18IrPd4
_chemical_formula_sum   'Er4 Mn1 Al18 Ir1 Pd4'
_cell_volume   471.46547638
_cell_formula_units_Z   1
loop_
 _symmetry_equiv_pos_site_id
 _symmetry_equiv_pos_as_xyz
  1  'x, y, z'
loop_
 _atom_site_type_symbol
 _atom_site_label
 _atom_site_symmetry_multiplicity
 _atom_site_fract_x
 _atom_site_fract_y
 _atom_site_fract_z
 _atom_site_occupancy
  Er  Er0  1  0.994729  0.671525  0.248944  1
  Er  Er1  1  0.005271  0.328475  0.751056  1
  Er  Er2  1  0.671525  0.994729  0.248944  1
  Er  Er3  1  0.328475  0.005271  0.751056  1
  Mn  Mn4  1  0.000000  0.000000  0.000000  1
  Al  Al5  1  0.122832  0.122832  0.244918  1
  Al  Al6  1  0.877168  0.877168  0.755082  1
  Al  Al7  1  0.000103  0.326440  0.074648  1
  Al  Al8  1  0.999897  0.673560  0.925352  1
  Al  Al9  1  0.999848  0.667703  0.577309  1
  Al  Al10  1  0.332297  0.000152  0.422691  1
  Al  Al11  1  0.000152  0.332297  0.422691  1
  Al  Al12  1  0.667703  0.999848  0.577309  1
  Al  Al13  1  0.673560  0.999897  0.925352  1
  Al  Al14  1  0.326440  0.000103  0.074648  1
  Al  Al15  1  0.330309  0.330309  0.555362  1
  Al  Al16  1  0.669691  0.669691  0.444638  1
  Al  Al17  1  0.675654  0.675654  0.053200  1
  Al  Al18  1  0.324346  0.324346  0.946800  1
  Al  Al19  1  0.341229  0.547658  0.249486  1
  Al  Al20  1  0.658771  0.452342  0.750514  1
  Al  Al21  1  0.547658  0.341229  0.249486  1
  Al  Al22  1  0.452342  0.658771  0.750514  1
  Ir  Ir23  1  0.000000  0.000000  0.500000  1
  Pd  Pd24  1  0.672492  0.327508  0.000000  1
  Pd  Pd25  1  0.327508  0.672492  0.000000  1
  Pd  Pd26  1  0.327763  0.672237  0.500000  1
  Pd  Pd27  1  0.672237  0.327763  0.500000  1
