# generated using pymatgen
data_CaHoNpO6
_symmetry_space_group_name_H-M   'P 1'
_cell_length_a   5.50942400
_cell_length_b   7.84400193
_cell_length_c   11.88910352
_cell_angle_alpha   73.73192867
_cell_angle_beta   90.00000000
_cell_angle_gamma   90.00000000
_symmetry_Int_Tables_number   1
_chemical_formula_structural   CaHoNpO6
_chemical_formula_sum   'Ca4 Ho4 Np4 O24'
_cell_volume   493.22699057
_cell_formula_units_Z   4
loop_
 _symmetry_equiv_pos_site_id
 _symmetry_equiv_pos_as_xyz
  1  'x, y, z'
loop_
 _atom_site_type_symbol
 _atom_site_label
 _atom_site_symmetry_multiplicity
 _atom_site_fract_x
 _atom_site_fract_y
 _atom_site_fract_z
 _atom_site_occupancy
  Ca  Ca0  1  0.187780  0.795413  0.579095  1
  Ca  Ca1  1  0.812220  0.795413  0.079095  1
  Ca  Ca2  1  0.187780  0.204587  0.920905  1
  Ca  Ca3  1  0.812220  0.204587  0.420905  1
  Ho  Ho4  1  0.742694  0.000000  0.750000  1
  Ho  Ho5  1  0.257306  0.000000  0.250000  1
  Ho  Ho6  1  0.694998  0.500000  0.750000  1
  Ho  Ho7  1  0.305002  0.500000  0.250000  1
  Np  Np8  1  0.254071  0.723331  0.884809  1
  Np  Np9  1  0.745929  0.723331  0.384809  1
  Np  Np10  1  0.254071  0.276669  0.615191  1
  Np  Np11  1  0.745929  0.276669  0.115191  1
  O  O12  1  0.049250  0.937966  0.890590  1
  O  O13  1  0.541189  0.852203  0.927539  1
  O  O14  1  0.950750  0.937966  0.390590  1
  O  O15  1  0.454557  0.797648  0.730285  1
  O  O16  1  0.458811  0.852203  0.427539  1
  O  O17  1  0.962574  0.709084  0.770723  1
  O  O18  1  0.545443  0.797648  0.230285  1
  O  O19  1  0.858537  0.626795  0.551175  1
  O  O20  1  0.387883  0.488933  0.883720  1
  O  O21  1  0.037426  0.709084  0.270723  1
  O  O22  1  0.387883  0.511067  0.616280  1
  O  O23  1  0.858537  0.373205  0.948825  1
  O  O24  1  0.141463  0.626795  0.051175  1
  O  O25  1  0.612117  0.488933  0.383720  1
  O  O26  1  0.962574  0.290916  0.729277  1
  O  O27  1  0.612117  0.511067  0.116280  1
  O  O28  1  0.141463  0.373205  0.448825  1
  O  O29  1  0.454557  0.202352  0.769715  1
  O  O30  1  0.037426  0.290916  0.229277  1
  O  O31  1  0.541189  0.147797  0.572461  1
  O  O32  1  0.545443  0.202352  0.269715  1
  O  O33  1  0.049250  0.062034  0.609410  1
  O  O34  1  0.458811  0.147797  0.072461  1
  O  O35  1  0.950750  0.062034  0.109410  1
