# generated using pymatgen
data_SmEr2Zr(Co4P3)2
_symmetry_space_group_name_H-M   'P 1'
_cell_length_a   3.72850100
_cell_length_b   10.71106700
_cell_length_c   12.42181200
_cell_angle_alpha   90.00000000
_cell_angle_beta   90.00000000
_cell_angle_gamma   90.00000000
_symmetry_Int_Tables_number   1
_chemical_formula_structural   SmEr2Zr(Co4P3)2
_chemical_formula_sum   'Sm2 Er4 Zr2 Co16 P12'
_cell_volume   496.08026677
_cell_formula_units_Z   2
loop_
 _symmetry_equiv_pos_site_id
 _symmetry_equiv_pos_as_xyz
  1  'x, y, z'
loop_
 _atom_site_type_symbol
 _atom_site_label
 _atom_site_symmetry_multiplicity
 _atom_site_fract_x
 _atom_site_fract_y
 _atom_site_fract_z
 _atom_site_occupancy
  Sm  Sm0  1  0.750000  0.250000  0.469623  1
  Sm  Sm1  1  0.250000  0.750000  0.530377  1
  Er  Er2  1  0.250000  0.928152  0.796035  1
  Er  Er3  1  0.250000  0.571848  0.796035  1
  Er  Er4  1  0.750000  0.071848  0.203965  1
  Er  Er5  1  0.750000  0.428152  0.203965  1
  Zr  Zr6  1  0.250000  0.250000  0.843418  1
  Zr  Zr7  1  0.750000  0.750000  0.156582  1
  Co  Co8  1  0.250000  0.250000  0.293430  1
  Co  Co9  1  0.750000  0.750000  0.706570  1
  Co  Co10  1  0.750000  0.250000  0.014224  1
  Co  Co11  1  0.250000  0.750000  0.985776  1
  Co  Co12  1  0.250000  0.418427  0.007141  1
  Co  Co13  1  0.250000  0.081573  0.007141  1
  Co  Co14  1  0.750000  0.581573  0.992859  1
  Co  Co15  1  0.750000  0.918427  0.992859  1
  Co  Co16  1  0.250000  0.455058  0.567424  1
  Co  Co17  1  0.250000  0.044942  0.567424  1
  Co  Co18  1  0.750000  0.544942  0.432576  1
  Co  Co19  1  0.750000  0.955058  0.432576  1
  Co  Co20  1  0.250000  0.872510  0.296910  1
  Co  Co21  1  0.250000  0.627490  0.296910  1
  Co  Co22  1  0.750000  0.127490  0.703090  1
  Co  Co23  1  0.750000  0.372510  0.703090  1
  P  P24  1  0.250000  0.250000  0.115789  1
  P  P25  1  0.750000  0.750000  0.884211  1
  P  P26  1  0.250000  0.250000  0.639080  1
  P  P27  1  0.750000  0.750000  0.360920  1
  P  P28  1  0.250000  0.441763  0.382905  1
  P  P29  1  0.250000  0.058237  0.382905  1
  P  P30  1  0.750000  0.558237  0.617095  1
  P  P31  1  0.750000  0.941763  0.617095  1
  P  P32  1  0.250000  0.912368  0.106360  1
  P  P33  1  0.250000  0.587632  0.106360  1
  P  P34  1  0.750000  0.087632  0.893640  1
  P  P35  1  0.750000  0.412368  0.893640  1
