# generated using pymatgen
data_BaReSb12Ru2Au
_symmetry_space_group_name_H-M   'P 1'
_cell_length_a   8.29195084
_cell_length_b   8.27586084
_cell_length_c   8.26695618
_cell_angle_alpha   109.44946171
_cell_angle_beta   109.55253887
_cell_angle_gamma   109.60831067
_symmetry_Int_Tables_number   1
_chemical_formula_structural   BaReSb12Ru2Au
_chemical_formula_sum   'Ba1 Re1 Sb12 Ru2 Au1'
_cell_volume   435.64678009
_cell_formula_units_Z   1
loop_
 _symmetry_equiv_pos_site_id
 _symmetry_equiv_pos_as_xyz
  1  'x, y, z'
loop_
 _atom_site_type_symbol
 _atom_site_label
 _atom_site_symmetry_multiplicity
 _atom_site_fract_x
 _atom_site_fract_y
 _atom_site_fract_z
 _atom_site_occupancy
  Ba  Ba0  1  0.000000  0.000000  0.000000  1
  Re  Re1  1  0.500000  0.500000  0.500000  1
  Sb  Sb2  1  0.162973  0.804863  0.661201  1
  Sb  Sb3  1  0.158945  0.498531  0.337528  1
  Sb  Sb4  1  0.501174  0.661296  0.839981  1
  Sb  Sb5  1  0.339631  0.840526  0.178426  1
  Sb  Sb6  1  0.805322  0.641293  0.142947  1
  Sb  Sb7  1  0.641507  0.838070  0.498211  1
  Sb  Sb8  1  0.194678  0.358707  0.857053  1
  Sb  Sb9  1  0.660369  0.159474  0.821574  1
  Sb  Sb10  1  0.358493  0.161930  0.501789  1
  Sb  Sb11  1  0.498826  0.338704  0.160019  1
  Sb  Sb12  1  0.841055  0.501469  0.662472  1
  Sb  Sb13  1  0.837027  0.195137  0.338799  1
  Ru  Ru14  1  0.500000  0.000000  0.000000  1
  Ru  Ru15  1  0.000000  0.500000  0.000000  1
  Au  Au16  1  0.000000  0.000000  0.500000  1
