# generated using pymatgen
data_Eu4Zn3Sb4Pt
_symmetry_space_group_name_H-M   'P 1'
_cell_length_a   4.66389900
_cell_length_b   7.54022630
_cell_length_c   8.62121906
_cell_angle_alpha   88.68438462
_cell_angle_beta   90.00000000
_cell_angle_gamma   90.00000000
_symmetry_Int_Tables_number   1
_chemical_formula_structural   Eu4Zn3Sb4Pt
_chemical_formula_sum   'Eu4 Zn3 Sb4 Pt1'
_cell_volume   303.10122939
_cell_formula_units_Z   1
loop_
 _symmetry_equiv_pos_site_id
 _symmetry_equiv_pos_as_xyz
  1  'x, y, z'
loop_
 _atom_site_type_symbol
 _atom_site_label
 _atom_site_symmetry_multiplicity
 _atom_site_fract_x
 _atom_site_fract_y
 _atom_site_fract_z
 _atom_site_occupancy
  Eu  Eu0  1  0.750000  0.501929  0.815302  1
  Eu  Eu1  1  0.250000  0.009031  0.293299  1
  Eu  Eu2  1  0.750000  0.005651  0.711068  1
  Eu  Eu3  1  0.250000  0.491740  0.187587  1
  Zn  Zn4  1  0.250000  0.809336  0.914054  1
  Zn  Zn5  1  0.250000  0.328468  0.586832  1
  Zn  Zn6  1  0.750000  0.665784  0.411945  1
  Sb  Sb7  1  0.250000  0.715047  0.583297  1
  Sb  Sb8  1  0.250000  0.202802  0.912024  1
  Sb  Sb9  1  0.750000  0.282756  0.404699  1
  Sb  Sb10  1  0.750000  0.797225  0.094579  1
  Pt  Pt11  1  0.750000  0.190230  0.085314  1
