# generated using pymatgen
data_Nb4SiSe4
_symmetry_space_group_name_H-M   'P 1'
_cell_length_a   4.67736600
_cell_length_b   10.50617600
_cell_length_c   18.29056300
_cell_angle_alpha   90.00000000
_cell_angle_beta   90.00000000
_cell_angle_gamma   90.00000000
_symmetry_Int_Tables_number   1
_chemical_formula_structural   Nb4SiSe4
_chemical_formula_sum   'Nb16 Si4 Se16'
_cell_volume   898.82077076
_cell_formula_units_Z   4
loop_
 _symmetry_equiv_pos_site_id
 _symmetry_equiv_pos_as_xyz
  1  'x, y, z'
loop_
 _atom_site_type_symbol
 _atom_site_label
 _atom_site_symmetry_multiplicity
 _atom_site_fract_x
 _atom_site_fract_y
 _atom_site_fract_z
 _atom_site_occupancy
  Nb  Nb0  1  0.500000  0.566396  0.378190  1
  Nb  Nb1  1  0.500000  0.433604  0.621810  1
  Nb  Nb2  1  0.500000  0.066396  0.121810  1
  Nb  Nb3  1  0.500000  0.933604  0.878190  1
  Nb  Nb4  1  0.500000  0.712341  0.537910  1
  Nb  Nb5  1  0.500000  0.287659  0.462090  1
  Nb  Nb6  1  0.500000  0.212341  0.962090  1
  Nb  Nb7  1  0.500000  0.787659  0.037910  1
  Nb  Nb8  1  0.000000  0.696991  0.440592  1
  Nb  Nb9  1  0.000000  0.303009  0.559408  1
  Nb  Nb10  1  0.000000  0.196991  0.059408  1
  Nb  Nb11  1  0.000000  0.803009  0.940592  1
  Nb  Nb12  1  0.000000  0.396807  0.387001  1
  Nb  Nb13  1  0.000000  0.603193  0.612999  1
  Nb  Nb14  1  0.000000  0.896807  0.112999  1
  Nb  Nb15  1  0.000000  0.103193  0.887001  1
  Si  Si16  1  0.249995  0.500000  0.500000  1
  Si  Si17  1  0.750005  0.000000  0.000000  1
  Si  Si18  1  0.750005  0.500000  0.500000  1
  Si  Si19  1  0.249995  0.000000  0.000000  1
  Se  Se20  1  0.000000  0.841372  0.561150  1
  Se  Se21  1  0.000000  0.158628  0.438850  1
  Se  Se22  1  0.000000  0.341372  0.938850  1
  Se  Se23  1  0.000000  0.658628  0.061150  1
  Se  Se24  1  0.500000  0.334357  0.318355  1
  Se  Se25  1  0.500000  0.665643  0.681645  1
  Se  Se26  1  0.500000  0.834357  0.181645  1
  Se  Se27  1  0.500000  0.165643  0.818355  1
  Se  Se28  1  0.500000  0.817316  0.404477  1
  Se  Se29  1  0.500000  0.182684  0.595523  1
  Se  Se30  1  0.500000  0.317316  0.095523  1
  Se  Se31  1  0.500000  0.682684  0.904477  1
  Se  Se32  1  0.000000  0.606300  0.303914  1
  Se  Se33  1  0.000000  0.393700  0.696086  1
  Se  Se34  1  0.000000  0.106300  0.196086  1
  Se  Se35  1  0.000000  0.893700  0.803914  1
