# generated using pymatgen
data_U4Si10Ir5Ru
_symmetry_space_group_name_H-M   'P 1'
_cell_length_a   8.11976874
_cell_length_b   8.11976914
_cell_length_c   5.86867145
_cell_angle_alpha   68.88729624
_cell_angle_beta   68.88729460
_cell_angle_gamma   88.86369196
_symmetry_Int_Tables_number   1
_chemical_formula_structural   U4Si10Ir5Ru
_chemical_formula_sum   'U4 Si10 Ir5 Ru1'
_cell_volume   334.02645498
_cell_formula_units_Z   1
loop_
 _symmetry_equiv_pos_site_id
 _symmetry_equiv_pos_as_xyz
  1  'x, y, z'
loop_
 _atom_site_type_symbol
 _atom_site_label
 _atom_site_symmetry_multiplicity
 _atom_site_fract_x
 _atom_site_fract_y
 _atom_site_fract_z
 _atom_site_occupancy
  U  U0  1  0.861076  0.598352  0.769916  1
  U  U1  1  0.401648  0.138924  0.730084  1
  U  U2  1  0.138867  0.401616  0.229145  1
  U  U3  1  0.598384  0.861133  0.270855  1
  Si  Si4  1  0.046590  0.257853  0.850838  1
  Si  Si5  1  0.742147  0.953410  0.649162  1
  Si  Si6  1  0.953465  0.742095  0.154437  1
  Si  Si7  1  0.257905  0.046535  0.345563  1
  Si  Si8  1  0.225850  0.774150  0.750000  1
  Si  Si9  1  0.775667  0.224333  0.250000  1
  Si  Si10  1  0.499751  0.500249  0.750000  1
  Si  Si11  1  0.500200  0.499800  0.250000  1
  Si  Si12  1  0.774434  0.225566  0.750000  1
  Si  Si13  1  0.224046  0.775954  0.250000  1
  Ir  Ir14  1  0.244124  0.524888  0.613792  1
  Ir  Ir15  1  0.475112  0.755876  0.886208  1
  Ir  Ir16  1  0.755765  0.475089  0.384023  1
  Ir  Ir17  1  0.524911  0.244235  0.115977  1
  Ir  Ir18  1  0.000074  0.999926  0.750000  1
  Ru  Ru19  1  0.999983  0.000017  0.250000  1
