# generated using pymatgen
data_Nd12Ru(PtCl4)3
_symmetry_space_group_name_H-M   'P 1'
_cell_length_a   10.26370963
_cell_length_b   10.26371007
_cell_length_c   10.26371043
_cell_angle_alpha   109.22024993
_cell_angle_beta   109.22024022
_cell_angle_gamma   109.22025743
_symmetry_Int_Tables_number   1
_chemical_formula_structural   Nd12Ru(PtCl4)3
_chemical_formula_sum   'Nd12 Ru1 Pt3 Cl12'
_cell_volume   839.96661448
_cell_formula_units_Z   1
loop_
 _symmetry_equiv_pos_site_id
 _symmetry_equiv_pos_as_xyz
  1  'x, y, z'
loop_
 _atom_site_type_symbol
 _atom_site_label
 _atom_site_symmetry_multiplicity
 _atom_site_fract_x
 _atom_site_fract_y
 _atom_site_fract_z
 _atom_site_occupancy
  Nd  Nd0  1  0.260087  0.750000  0.239913  1
  Nd  Nd1  1  0.488775  0.750000  0.011225  1
  Nd  Nd2  1  0.242300  0.477392  0.484058  1
  Nd  Nd3  1  0.015942  0.022608  0.257700  1
  Nd  Nd4  1  0.239913  0.260087  0.750000  1
  Nd  Nd5  1  0.011225  0.488775  0.750000  1
  Nd  Nd6  1  0.484058  0.242300  0.477392  1
  Nd  Nd7  1  0.257700  0.015942  0.022608  1
  Nd  Nd8  1  0.750000  0.239913  0.260087  1
  Nd  Nd9  1  0.750000  0.011225  0.488775  1
  Nd  Nd10  1  0.477392  0.484058  0.242300  1
  Nd  Nd11  1  0.022608  0.257700  0.015942  1
  Ru  Ru12  1  0.250000  0.250000  0.250000  1
  Pt  Pt13  1  0.499049  0.000951  0.250000  1
  Pt  Pt14  1  0.250000  0.499049  0.000951  1
  Pt  Pt15  1  0.000951  0.250000  0.499049  1
  Cl  Cl16  1  0.250000  0.999677  0.500323  1
  Cl  Cl17  1  0.496937  0.499650  0.750042  1
  Cl  Cl18  1  0.250000  0.746162  0.753838  1
  Cl  Cl19  1  0.003063  0.749958  0.000350  1
  Cl  Cl20  1  0.999677  0.500323  0.250000  1
  Cl  Cl21  1  0.749958  0.000350  0.003063  1
  Cl  Cl22  1  0.746162  0.753838  0.250000  1
  Cl  Cl23  1  0.499650  0.750042  0.496937  1
  Cl  Cl24  1  0.500323  0.250000  0.999677  1
  Cl  Cl25  1  0.750042  0.496937  0.499650  1
  Cl  Cl26  1  0.753838  0.250000  0.746162  1
  Cl  Cl27  1  0.000350  0.003063  0.749958  1
