# generated using pymatgen
data_Ca3Ho(ReN3)4
_symmetry_space_group_name_H-M   'P 1'
_cell_length_a   7.41431909
_cell_length_b   7.41431771
_cell_length_c   6.27070606
_cell_angle_alpha   74.16374632
_cell_angle_beta   74.16375402
_cell_angle_gamma   83.89091823
_symmetry_Int_Tables_number   1
_chemical_formula_structural   Ca3Ho(ReN3)4
_chemical_formula_sum   'Ca3 Ho1 Re4 N12'
_cell_volume   318.85349934
_cell_formula_units_Z   1
loop_
 _symmetry_equiv_pos_site_id
 _symmetry_equiv_pos_as_xyz
  1  'x, y, z'
loop_
 _atom_site_type_symbol
 _atom_site_label
 _atom_site_symmetry_multiplicity
 _atom_site_fract_x
 _atom_site_fract_y
 _atom_site_fract_z
 _atom_site_occupancy
  Ca  Ca0  1  0.294773  0.705227  0.750000  1
  Ca  Ca1  1  0.088275  0.911725  0.250000  1
  Ca  Ca2  1  0.705997  0.294003  0.250000  1
  Ho  Ho3  1  0.909896  0.090104  0.750000  1
  Re  Re4  1  0.623474  0.796889  0.269021  1
  Re  Re5  1  0.203111  0.376526  0.230979  1
  Re  Re6  1  0.378218  0.203496  0.727304  1
  Re  Re7  1  0.796504  0.621782  0.772696  1
  N  N8  1  0.339466  0.352184  0.938958  1
  N  N9  1  0.007165  0.222383  0.352584  1
  N  N10  1  0.777617  0.992835  0.147416  1
  N  N11  1  0.216842  0.015110  0.833079  1
  N  N12  1  0.656864  0.639683  0.064726  1
  N  N13  1  0.879431  0.383182  0.821871  1
  N  N14  1  0.125449  0.612924  0.171597  1
  N  N15  1  0.984890  0.783158  0.666921  1
  N  N16  1  0.387076  0.874551  0.328403  1
  N  N17  1  0.647816  0.660534  0.561042  1
  N  N18  1  0.616818  0.120569  0.678129  1
  N  N19  1  0.360317  0.343136  0.435274  1
