# generated using pymatgen
data_Tm4CoNiC5
_symmetry_space_group_name_H-M   'P 1'
_cell_length_a   3.55317100
_cell_length_b   3.65079803
_cell_length_c   11.49699610
_cell_angle_alpha   90.01437794
_cell_angle_beta   90.00000000
_cell_angle_gamma   90.00000000
_symmetry_Int_Tables_number   1
_chemical_formula_structural   Tm4CoNiC5
_chemical_formula_sum   'Tm4 Co1 Ni1 C5'
_cell_volume   149.13799021
_cell_formula_units_Z   1
loop_
 _symmetry_equiv_pos_site_id
 _symmetry_equiv_pos_as_xyz
  1  'x, y, z'
loop_
 _atom_site_type_symbol
 _atom_site_label
 _atom_site_symmetry_multiplicity
 _atom_site_fract_x
 _atom_site_fract_y
 _atom_site_fract_z
 _atom_site_occupancy
  Tm  Tm0  1  0.500000  0.499602  0.202806  1
  Tm  Tm1  1  0.500000  0.498229  0.794918  1
  Tm  Tm2  1  0.500000  0.215229  0.502919  1
  Tm  Tm3  1  0.000000  0.000324  0.999137  1
  Co  Co4  1  0.000000  0.703698  0.616913  1
  Ni  Ni5  1  0.000000  0.696107  0.384331  1
  C  C6  1  0.000000  0.998570  0.228189  1
  C  C7  1  0.000000  0.993700  0.770378  1
  C  C8  1  0.000000  0.194514  0.332605  1
  C  C9  1  0.000000  0.203750  0.667270  1
  C  C10  1  0.500000  0.497774  0.000533  1
