# generated using pymatgen
data_Sc2Fe(BRu)4
_symmetry_space_group_name_H-M   'P 1'
_cell_length_a   3.00222800
_cell_length_b   8.40509460
_cell_length_c   9.91322039
_cell_angle_alpha   89.98064124
_cell_angle_beta   90.00000000
_cell_angle_gamma   90.00000000
_symmetry_Int_Tables_number   1
_chemical_formula_structural   Sc2Fe(BRu)4
_chemical_formula_sum   'Sc4 Fe2 B8 Ru8'
_cell_volume   250.15029169
_cell_formula_units_Z   2
loop_
 _symmetry_equiv_pos_site_id
 _symmetry_equiv_pos_as_xyz
  1  'x, y, z'
loop_
 _atom_site_type_symbol
 _atom_site_label
 _atom_site_symmetry_multiplicity
 _atom_site_fract_x
 _atom_site_fract_y
 _atom_site_fract_z
 _atom_site_occupancy
  Sc  Sc0  1  0.500000  0.841519  0.176269  1
  Sc  Sc1  1  0.500000  0.158481  0.823731  1
  Sc  Sc2  1  0.500000  0.658479  0.676108  1
  Sc  Sc3  1  0.500000  0.341521  0.323892  1
  Fe  Fe4  1  0.000000  0.000000  0.000000  1
  Fe  Fe5  1  0.000000  0.500000  0.500000  1
  B  B6  1  0.500000  0.966271  0.590604  1
  B  B7  1  0.500000  0.033729  0.409396  1
  B  B8  1  0.500000  0.862751  0.907066  1
  B  B9  1  0.500000  0.137249  0.092934  1
  B  B10  1  0.500000  0.637201  0.407105  1
  B  B11  1  0.500000  0.362799  0.592895  1
  B  B12  1  0.500000  0.466305  0.909354  1
  B  B13  1  0.500000  0.533695  0.090646  1
  Ru  Ru14  1  0.000000  0.662941  0.955295  1
  Ru  Ru15  1  0.000000  0.337059  0.044705  1
  Ru  Ru16  1  0.000000  0.836986  0.455310  1
  Ru  Ru17  1  0.000000  0.163014  0.544690  1
  Ru  Ru18  1  0.000000  0.406989  0.756837  1
  Ru  Ru19  1  0.000000  0.593011  0.243163  1
  Ru  Ru20  1  0.000000  0.906936  0.743149  1
  Ru  Ru21  1  0.000000  0.093064  0.256851  1
