# generated using pymatgen
data_Er4Si3Rh4
_symmetry_space_group_name_H-M   'P 1'
_cell_length_a   10.66940823
_cell_length_b   10.66940773
_cell_length_c   7.67123103
_cell_angle_alpha   71.28378874
_cell_angle_beta   71.28378972
_cell_angle_gamma   29.68508698
_symmetry_Int_Tables_number   1
_chemical_formula_structural   Er4Si3Rh4
_chemical_formula_sum   'Er8 Si6 Rh8'
_cell_volume   407.94552365
_cell_formula_units_Z   2
loop_
 _symmetry_equiv_pos_site_id
 _symmetry_equiv_pos_as_xyz
  1  'x, y, z'
loop_
 _atom_site_type_symbol
 _atom_site_label
 _atom_site_symmetry_multiplicity
 _atom_site_fract_x
 _atom_site_fract_y
 _atom_site_fract_z
 _atom_site_occupancy
  Er  Er0  1  0.210633  0.449186  0.399139  1
  Er  Er1  1  0.550814  0.789367  0.100861  1
  Er  Er2  1  0.449186  0.210633  0.899139  1
  Er  Er3  1  0.924615  0.210114  0.332133  1
  Er  Er4  1  0.789886  0.075385  0.167867  1
  Er  Er5  1  0.075385  0.789886  0.667867  1
  Er  Er6  1  0.210114  0.924615  0.832133  1
  Er  Er7  1  0.789367  0.550814  0.600861  1
  Si  Si8  1  0.640213  0.359787  0.750000  1
  Si  Si9  1  0.359787  0.640213  0.250000  1
  Si  Si10  1  0.295654  0.047267  0.445384  1
  Si  Si11  1  0.952733  0.704346  0.054616  1
  Si  Si12  1  0.704346  0.952733  0.554616  1
  Si  Si13  1  0.047267  0.295654  0.945384  1
  Rh  Rh14  1  0.298826  0.574690  0.019049  1
  Rh  Rh15  1  0.574690  0.298826  0.519049  1
  Rh  Rh16  1  0.701174  0.425310  0.980951  1
  Rh  Rh17  1  0.070141  0.371541  0.191647  1
  Rh  Rh18  1  0.628459  0.929859  0.308353  1
  Rh  Rh19  1  0.425310  0.701174  0.480951  1
  Rh  Rh20  1  0.929859  0.628459  0.808353  1
  Rh  Rh21  1  0.371541  0.070141  0.691647  1
