# generated using pymatgen
data_CsTbNd5(CBr6)2
_symmetry_space_group_name_H-M   'P 1'
_cell_length_a   9.14757904
_cell_length_b   9.15546237
_cell_length_c   9.63592293
_cell_angle_alpha   72.13034394
_cell_angle_beta   70.93405850
_cell_angle_gamma   72.75184450
_symmetry_Int_Tables_number   1
_chemical_formula_structural   CsTbNd5(CBr6)2
_chemical_formula_sum   'Cs1 Tb1 Nd5 C2 Br12'
_cell_volume   708.45334574
_cell_formula_units_Z   1
loop_
 _symmetry_equiv_pos_site_id
 _symmetry_equiv_pos_as_xyz
  1  'x, y, z'
loop_
 _atom_site_type_symbol
 _atom_site_label
 _atom_site_symmetry_multiplicity
 _atom_site_fract_x
 _atom_site_fract_y
 _atom_site_fract_z
 _atom_site_occupancy
  Cs  Cs0  1  0.998054  0.501613  0.000283  1
  Tb  Tb1  1  0.527046  0.883227  0.813528  1
  Nd  Nd2  1  0.474821  0.118132  0.179570  1
  Nd  Nd3  1  0.783044  0.033309  0.406091  1
  Nd  Nd4  1  0.595273  0.719950  0.472123  1
  Nd  Nd5  1  0.403883  0.279785  0.526269  1
  Nd  Nd6  1  0.217313  0.965566  0.596351  1
  C  C7  1  0.493487  0.025466  0.425659  1
  C  C8  1  0.507115  0.972682  0.576024  1
  Br  Br9  1  0.799099  0.163018  0.080663  1
  Br  Br10  1  0.583632  0.786133  0.135895  1
  Br  Br11  1  0.348402  0.435530  0.223966  1
  Br  Br12  1  0.134841  0.073869  0.293849  1
  Br  Br13  1  0.927067  0.722138  0.351138  1
  Br  Br14  1  0.717072  0.367805  0.429057  1
  Br  Br15  1  0.281808  0.631770  0.573397  1
  Br  Br16  1  0.071920  0.276961  0.649509  1
  Br  Br17  1  0.858576  0.925417  0.712298  1
  Br  Br18  1  0.647934  0.572218  0.778282  1
  Br  Br19  1  0.417646  0.206837  0.856138  1
  Br  Br20  1  0.211970  0.838574  0.919910  1
