# generated using pymatgen
data_PrNd2Zr(NiAs)4
_symmetry_space_group_name_H-M   'P 1'
_cell_length_a   4.07059700
_cell_length_b   4.07059689
_cell_length_c   15.78911900
_cell_angle_alpha   90.00000000
_cell_angle_beta   90.00000000
_cell_angle_gamma   120.00000898
_symmetry_Int_Tables_number   1
_chemical_formula_structural   PrNd2Zr(NiAs)4
_chemical_formula_sum   'Pr1 Nd2 Zr1 Ni4 As4'
_cell_volume   226.57119510
_cell_formula_units_Z   1
loop_
 _symmetry_equiv_pos_site_id
 _symmetry_equiv_pos_as_xyz
  1  'x, y, z'
loop_
 _atom_site_type_symbol
 _atom_site_label
 _atom_site_symmetry_multiplicity
 _atom_site_fract_x
 _atom_site_fract_y
 _atom_site_fract_z
 _atom_site_occupancy
  Pr  Pr0  1  0.000000  0.000000  0.750000  1
  Nd  Nd1  1  0.000000  0.000000  0.011404  1
  Nd  Nd2  1  0.000000  0.000000  0.488596  1
  Zr  Zr3  1  0.000000  0.000000  0.250000  1
  Ni  Ni4  1  0.333333  0.666667  0.163223  1
  Ni  Ni5  1  0.666667  0.333333  0.881976  1
  Ni  Ni6  1  0.666667  0.333333  0.618024  1
  Ni  Ni7  1  0.333333  0.666667  0.336777  1
  As  As8  1  0.333333  0.666667  0.619034  1
  As  As9  1  0.666667  0.333333  0.368694  1
  As  As10  1  0.666667  0.333333  0.131306  1
  As  As11  1  0.333333  0.666667  0.880966  1
