# generated using pymatgen
data_La10Nd6Cd4Fe3Cu
_symmetry_space_group_name_H-M   'P 1'
_cell_length_a   9.88875987
_cell_length_b   9.96671223
_cell_length_c   9.96671200
_cell_angle_alpha   60.00000742
_cell_angle_beta   59.73889798
_cell_angle_gamma   59.73890030
_symmetry_Int_Tables_number   1
_chemical_formula_structural   La10Nd6Cd4Fe3Cu
_chemical_formula_sum   'La10 Nd6 Cd4 Fe3 Cu1'
_cell_volume   691.83957993
_cell_formula_units_Z   1
loop_
 _symmetry_equiv_pos_site_id
 _symmetry_equiv_pos_as_xyz
  1  'x, y, z'
loop_
 _atom_site_type_symbol
 _atom_site_label
 _atom_site_symmetry_multiplicity
 _atom_site_fract_x
 _atom_site_fract_y
 _atom_site_fract_z
 _atom_site_occupancy
  La  La0  1  0.337224  0.352025  0.352025  1
  La  La1  1  0.337224  0.352025  0.958727  1
  La  La2  1  0.337224  0.958727  0.352025  1
  La  La3  1  0.966785  0.344405  0.344405  1
  La  La4  1  0.828460  0.189109  0.189109  1
  La  La5  1  0.189430  0.811541  0.811541  1
  La  La6  1  0.189430  0.811541  0.187488  1
  La  La7  1  0.828460  0.189109  0.793320  1
  La  La8  1  0.189430  0.187488  0.811541  1
  La  La9  1  0.828460  0.793320  0.189109  1
  Nd  Nd10  1  0.933023  0.565194  0.565194  1
  Nd  Nd11  1  0.561705  0.937003  0.937003  1
  Nd  Nd12  1  0.561705  0.937003  0.564290  1
  Nd  Nd13  1  0.933023  0.565194  0.936588  1
  Nd  Nd14  1  0.561705  0.564290  0.937003  1
  Nd  Nd15  1  0.933023  0.936588  0.565194  1
  Cd  Cd16  1  0.580280  0.579759  0.579759  1
  Cd  Cd17  1  0.580280  0.579759  0.260202  1
  Cd  Cd18  1  0.580280  0.260202  0.579759  1
  Cd  Cd19  1  0.259115  0.580295  0.580295  1
  Fe  Fe20  1  0.133634  0.137109  0.137109  1
  Fe  Fe21  1  0.133634  0.137109  0.592147  1
  Fe  Fe22  1  0.133634  0.592147  0.137109  1
  Cu  Cu23  1  0.582833  0.139055  0.139055  1
