# generated using pymatgen
data_Tb2Lu4Al24NiOs7
_symmetry_space_group_name_H-M   'P 1'
_cell_length_a   8.76056808
_cell_length_b   8.76056856
_cell_length_c   9.55091657
_cell_angle_alpha   89.96575303
_cell_angle_beta   90.03424550
_cell_angle_gamma   119.82960083
_symmetry_Int_Tables_number   1
_chemical_formula_structural   Tb2Lu4Al24NiOs7
_chemical_formula_sum   'Tb2 Lu4 Al24 Ni1 Os7'
_cell_volume   635.89189658
_cell_formula_units_Z   1
loop_
 _symmetry_equiv_pos_site_id
 _symmetry_equiv_pos_as_xyz
  1  'x, y, z'
loop_
 _atom_site_type_symbol
 _atom_site_label
 _atom_site_symmetry_multiplicity
 _atom_site_fract_x
 _atom_site_fract_y
 _atom_site_fract_z
 _atom_site_occupancy
  Tb  Tb0  1  0.192703  0.807297  0.250651  1
  Tb  Tb1  1  0.807297  0.192703  0.749349  1
  Lu  Lu2  1  0.195459  0.391469  0.250884  1
  Lu  Lu3  1  0.804541  0.608531  0.749116  1
  Lu  Lu4  1  0.608531  0.804541  0.250884  1
  Lu  Lu5  1  0.391469  0.195459  0.749116  1
  Al  Al6  1  0.333381  0.666619  0.018852  1
  Al  Al7  1  0.666619  0.333381  0.981148  1
  Al  Al8  1  0.666712  0.333288  0.518958  1
  Al  Al9  1  0.333288  0.666712  0.481042  1
  Al  Al10  1  0.163183  0.324835  0.576191  1
  Al  Al11  1  0.836817  0.675165  0.423809  1
  Al  Al12  1  0.675165  0.836817  0.576191  1
  Al  Al13  1  0.837414  0.676605  0.076726  1
  Al  Al14  1  0.324835  0.163183  0.423809  1
  Al  Al15  1  0.162586  0.323395  0.923274  1
  Al  Al16  1  0.162272  0.837728  0.577537  1
  Al  Al17  1  0.323395  0.162586  0.076726  1
  Al  Al18  1  0.837728  0.162272  0.422463  1
  Al  Al19  1  0.676605  0.837414  0.923274  1
  Al  Al20  1  0.838560  0.161440  0.078179  1
  Al  Al21  1  0.161440  0.838560  0.921821  1
  Al  Al22  1  0.562062  0.123344  0.250157  1
  Al  Al23  1  0.437938  0.876656  0.749843  1
  Al  Al24  1  0.876656  0.437938  0.250157  1
  Al  Al25  1  0.123344  0.562062  0.749843  1
  Al  Al26  1  0.560918  0.439082  0.250208  1
  Al  Al27  1  0.439082  0.560918  0.749792  1
  Al  Al28  1  0.997581  0.002419  0.243271  1
  Al  Al29  1  0.002419  0.997581  0.756729  1
  Ni  Ni30  1  0.000000  0.000000  0.000000  1
  Os  Os31  1  0.500000  0.000000  0.000000  1
  Os  Os32  1  0.000000  0.500000  0.000000  1
  Os  Os33  1  0.500000  0.000000  0.500000  1
  Os  Os34  1  0.500000  0.500000  0.000000  1
  Os  Os35  1  0.000000  0.500000  0.500000  1
  Os  Os36  1  0.500000  0.500000  0.500000  1
  Os  Os37  1  0.000000  0.000000  0.500000  1
