# generated using pymatgen
data_Er16MgHg3Pd4
_symmetry_space_group_name_H-M   'P 1'
_cell_length_a   9.59190450
_cell_length_b   9.60246871
_cell_length_c   9.60247000
_cell_angle_alpha   60.00000244
_cell_angle_beta   59.96356284
_cell_angle_gamma   59.96355603
_symmetry_Int_Tables_number   1
_chemical_formula_structural   Er16MgHg3Pd4
_chemical_formula_sum   'Er16 Mg1 Hg3 Pd4'
_cell_volume   625.05219920
_cell_formula_units_Z   1
loop_
 _symmetry_equiv_pos_site_id
 _symmetry_equiv_pos_as_xyz
  1  'x, y, z'
loop_
 _atom_site_type_symbol
 _atom_site_label
 _atom_site_symmetry_multiplicity
 _atom_site_fract_x
 _atom_site_fract_y
 _atom_site_fract_z
 _atom_site_occupancy
  Er  Er0  1  0.357032  0.353277  0.353277  1
  Er  Er1  1  0.357032  0.353277  0.936416  1
  Er  Er2  1  0.357032  0.936416  0.353277  1
  Er  Er3  1  0.925119  0.358294  0.358294  1
  Er  Er4  1  0.809678  0.189650  0.189650  1
  Er  Er5  1  0.185768  0.812891  0.812891  1
  Er  Er6  1  0.185768  0.812891  0.188450  1
  Er  Er7  1  0.809678  0.189650  0.811023  1
  Er  Er8  1  0.185768  0.188450  0.812891  1
  Er  Er9  1  0.809678  0.811023  0.189650  1
  Er  Er10  1  0.932832  0.566369  0.566369  1
  Er  Er11  1  0.565291  0.934399  0.934399  1
  Er  Er12  1  0.565291  0.934399  0.565912  1
  Er  Er13  1  0.932832  0.566369  0.934431  1
  Er  Er14  1  0.565291  0.565912  0.934399  1
  Er  Er15  1  0.932832  0.934431  0.566369  1
  Mg  Mg16  1  0.278612  0.573795  0.573795  1
  Hg  Hg17  1  0.583185  0.589131  0.589131  1
  Hg  Hg18  1  0.583185  0.589131  0.238552  1
  Hg  Hg19  1  0.583185  0.238552  0.589131  1
  Pd  Pd20  1  0.143157  0.146544  0.146544  1
  Pd  Pd21  1  0.143157  0.146544  0.563756  1
  Pd  Pd22  1  0.143157  0.563756  0.146544  1
  Pd  Pd23  1  0.565442  0.144852  0.144852  1
