# generated using pymatgen
data_Ho5Er(BC3)2
_symmetry_space_group_name_H-M   'P 1'
_cell_length_a   3.61448478
_cell_length_b   3.61448375
_cell_length_c   15.88507200
_cell_angle_alpha   90.00000000
_cell_angle_beta   90.00000000
_cell_angle_gamma   90.65980534
_symmetry_Int_Tables_number   1
_chemical_formula_structural   Ho5Er(BC3)2
_chemical_formula_sum   'Ho5 Er1 B2 C6'
_cell_volume   207.51670720
_cell_formula_units_Z   1
loop_
 _symmetry_equiv_pos_site_id
 _symmetry_equiv_pos_as_xyz
  1  'x, y, z'
loop_
 _atom_site_type_symbol
 _atom_site_label
 _atom_site_symmetry_multiplicity
 _atom_site_fract_x
 _atom_site_fract_y
 _atom_site_fract_z
 _atom_site_occupancy
  Ho  Ho0  1  0.584194  0.415805  0.102830  1
  Ho  Ho1  1  0.584194  0.415805  0.397170  1
  Ho  Ho2  1  0.415608  0.584391  0.602332  1
  Ho  Ho3  1  0.910905  0.089094  0.750000  1
  Ho  Ho4  1  0.415608  0.584391  0.897668  1
  Er  Er5  1  0.088836  0.911163  0.250000  1
  B  B6  1  0.000150  0.999850  0.000347  1
  B  B7  1  0.000150  0.999850  0.499653  1
  C  C8  1  0.097610  0.902388  0.086772  1
  C  C9  1  0.595203  0.404795  0.250000  1
  C  C10  1  0.097610  0.902388  0.413228  1
  C  C11  1  0.902094  0.097904  0.586076  1
  C  C12  1  0.405735  0.594263  0.750000  1
  C  C13  1  0.902094  0.097904  0.913923  1
