# generated using pymatgen
data_EuFeCoAs2
_symmetry_space_group_name_H-M   'P 1'
_cell_length_a   6.30565639
_cell_length_b   6.30565667
_cell_length_c   6.30565624
_cell_angle_alpha   143.91998687
_cell_angle_beta   143.91998837
_cell_angle_gamma   51.94695486
_symmetry_Int_Tables_number   1
_chemical_formula_structural   EuFeCoAs2
_chemical_formula_sum   'Eu1 Fe1 Co1 As2'
_cell_volume   86.46456556
_cell_formula_units_Z   1
loop_
 _symmetry_equiv_pos_site_id
 _symmetry_equiv_pos_as_xyz
  1  'x, y, z'
loop_
 _atom_site_type_symbol
 _atom_site_label
 _atom_site_symmetry_multiplicity
 _atom_site_fract_x
 _atom_site_fract_y
 _atom_site_fract_z
 _atom_site_occupancy
  Eu  Eu0  1  0.000000  0.000000  0.000000  1
  Fe  Fe1  1  0.750000  0.250000  0.500000  1
  Co  Co2  1  0.250000  0.750000  0.500000  1
  As  As3  1  0.639848  0.639848  0.000000  1
  As  As4  1  0.360152  0.360152  0.000000  1
