# generated using pymatgen
data_PrNd7(InSi2)4
_symmetry_space_group_name_H-M   'P 1'
_cell_length_a   4.35425100
_cell_length_b   7.53795312
_cell_length_c   14.74698348
_cell_angle_alpha   89.98440069
_cell_angle_beta   90.00000000
_cell_angle_gamma   90.00000000
_symmetry_Int_Tables_number   1
_chemical_formula_structural   PrNd7(InSi2)4
_chemical_formula_sum   'Pr1 Nd7 In4 Si8'
_cell_volume   484.02753706
_cell_formula_units_Z   1
loop_
 _symmetry_equiv_pos_site_id
 _symmetry_equiv_pos_as_xyz
  1  'x, y, z'
loop_
 _atom_site_type_symbol
 _atom_site_label
 _atom_site_symmetry_multiplicity
 _atom_site_fract_x
 _atom_site_fract_y
 _atom_site_fract_z
 _atom_site_occupancy
  Pr  Pr0  1  0.500000  0.884602  0.783792  1
  Nd  Nd1  1  0.500000  0.753515  0.036592  1
  Nd  Nd2  1  0.500000  0.247473  0.964327  1
  Nd  Nd3  1  0.500000  0.253108  0.463592  1
  Nd  Nd4  1  0.500000  0.746016  0.535475  1
  Nd  Nd5  1  0.500000  0.615326  0.283946  1
  Nd  Nd6  1  0.500000  0.384516  0.715527  1
  Nd  Nd7  1  0.500000  0.114738  0.216357  1
  In  In8  1  0.000000  0.939756  0.378899  1
  In  In9  1  0.000000  0.060984  0.620666  1
  In  In10  1  0.000000  0.438549  0.122127  1
  In  In11  1  0.000000  0.560198  0.878704  1
  Si  Si12  1  0.000000  0.554328  0.423314  1
  Si  Si13  1  0.000000  0.444579  0.575629  1
  Si  Si14  1  0.000000  0.055005  0.076807  1
  Si  Si15  1  0.000000  0.946839  0.924476  1
  Si  Si16  1  0.000000  0.818833  0.184695  1
  Si  Si17  1  0.000000  0.183018  0.816250  1
  Si  Si18  1  0.000000  0.318712  0.315422  1
  Si  Si19  1  0.000000  0.679901  0.683401  1
