# generated using pymatgen
data_Na4Ta5MoS12
_symmetry_space_group_name_H-M   'P 1'
_cell_length_a   14.99136018
_cell_length_b   14.99136011
_cell_length_c   14.99136008
_cell_angle_alpha   22.37423324
_cell_angle_beta   22.37423386
_cell_angle_gamma   22.37422628
_symmetry_Int_Tables_number   1
_chemical_formula_structural   Na4Ta5MoS12
_chemical_formula_sum   'Na4 Ta5 Mo1 S12'
_cell_volume   428.15152150
_cell_formula_units_Z   1
loop_
 _symmetry_equiv_pos_site_id
 _symmetry_equiv_pos_as_xyz
  1  'x, y, z'
loop_
 _atom_site_type_symbol
 _atom_site_label
 _atom_site_symmetry_multiplicity
 _atom_site_fract_x
 _atom_site_fract_y
 _atom_site_fract_z
 _atom_site_occupancy
  Na  Na0  1  0.916402  0.916402  0.916402  1
  Na  Na1  1  0.583079  0.583079  0.583079  1
  Na  Na2  1  0.417100  0.417100  0.417100  1
  Na  Na3  1  0.083597  0.083597  0.083597  1
  Ta  Ta4  1  0.666761  0.666761  0.666761  1
  Ta  Ta5  1  0.000034  0.000034  0.000034  1
  Ta  Ta6  1  0.833310  0.166718  0.500004  1
  Ta  Ta7  1  0.500004  0.833310  0.166718  1
  Ta  Ta8  1  0.166718  0.500004  0.833310  1
  Mo  Mo9  1  0.333181  0.333181  0.333181  1
  S  S10  1  0.968281  0.627692  0.298075  1
  S  S11  1  0.298075  0.968281  0.627692  1
  S  S12  1  0.627692  0.298075  0.968281  1
  S  S13  1  0.699023  0.369801  0.036918  1
  S  S14  1  0.036918  0.699023  0.369801  1
  S  S15  1  0.369801  0.036918  0.699023  1
  S  S16  1  0.870051  0.534763  0.202279  1
  S  S17  1  0.202279  0.870051  0.534763  1
  S  S18  1  0.534763  0.202279  0.870051  1
  S  S19  1  0.797808  0.465267  0.129854  1
  S  S20  1  0.129854  0.797808  0.465267  1
  S  S21  1  0.465267  0.129854  0.797808  1
