# generated using pymatgen
data_Zr10Tl4In2CuAs
_symmetry_space_group_name_H-M   'P 1'
_cell_length_a   8.80877408
_cell_length_b   8.80877480
_cell_length_c   5.89140300
_cell_angle_alpha   90.00060161
_cell_angle_beta   90.00060745
_cell_angle_gamma   119.94314911
_symmetry_Int_Tables_number   1
_chemical_formula_structural   Zr10Tl4In2CuAs
_chemical_formula_sum   'Zr10 Tl4 In2 Cu1 As1'
_cell_volume   396.12189716
_cell_formula_units_Z   1
loop_
 _symmetry_equiv_pos_site_id
 _symmetry_equiv_pos_as_xyz
  1  'x, y, z'
loop_
 _atom_site_type_symbol
 _atom_site_label
 _atom_site_symmetry_multiplicity
 _atom_site_fract_x
 _atom_site_fract_y
 _atom_site_fract_z
 _atom_site_occupancy
  Zr  Zr0  1  0.743273  0.743273  0.249853  1
  Zr  Zr1  1  0.256878  0.000192  0.249380  1
  Zr  Zr2  1  0.000192  0.256878  0.249380  1
  Zr  Zr3  1  0.256879  0.256879  0.750333  1
  Zr  Zr4  1  0.742776  0.001579  0.750573  1
  Zr  Zr5  1  0.001579  0.742776  0.750573  1
  Zr  Zr6  1  0.666671  0.332670  0.501207  1
  Zr  Zr7  1  0.332670  0.666671  0.501207  1
  Zr  Zr8  1  0.332629  0.666745  0.998787  1
  Zr  Zr9  1  0.666745  0.332629  0.998787  1
  Tl  Tl10  1  0.387930  0.387930  0.247929  1
  Tl  Tl11  1  0.611396  0.999897  0.247979  1
  Tl  Tl12  1  0.999897  0.611396  0.247979  1
  Tl  Tl13  1  0.612565  0.612565  0.752078  1
  In  In14  1  0.387884  0.000104  0.752098  1
  In  In15  1  0.000104  0.387884  0.752098  1
  Cu  Cu16  1  0.000154  0.000154  0.999045  1
  As  As17  1  0.999777  0.999777  0.500713  1
