# generated using pymatgen
data_Y3Cd3Hg2Pd
_symmetry_space_group_name_H-M   'P 1'
_cell_length_a   8.09389200
_cell_length_b   8.09389192
_cell_length_c   3.78084000
_cell_angle_alpha   90.00000000
_cell_angle_beta   90.00000000
_cell_angle_gamma   120.00000031
_symmetry_Int_Tables_number   1
_chemical_formula_structural   Y3Cd3Hg2Pd
_chemical_formula_sum   'Y3 Cd3 Hg2 Pd1'
_cell_volume   214.50318028
_cell_formula_units_Z   1
loop_
 _symmetry_equiv_pos_site_id
 _symmetry_equiv_pos_as_xyz
  1  'x, y, z'
loop_
 _atom_site_type_symbol
 _atom_site_label
 _atom_site_symmetry_multiplicity
 _atom_site_fract_x
 _atom_site_fract_y
 _atom_site_fract_z
 _atom_site_occupancy
  Y  Y0  1  0.609895  0.025190  0.000000  1
  Y  Y1  1  0.974810  0.584705  0.000000  1
  Y  Y2  1  0.415295  0.390105  0.000000  1
  Cd  Cd3  1  0.277830  0.000707  0.500000  1
  Cd  Cd4  1  0.999293  0.277122  0.500000  1
  Cd  Cd5  1  0.722878  0.722170  0.500000  1
  Hg  Hg6  1  0.333333  0.666667  0.500000  1
  Hg  Hg7  1  0.000000  0.000000  0.000000  1
  Pd  Pd8  1  0.666667  0.333333  0.500000  1
