# generated using pymatgen
data_GdTm3Np2O12
_symmetry_space_group_name_H-M   'P 1'
_cell_length_a   5.49246200
_cell_length_b   7.78602439
_cell_length_c   11.75197800
_cell_angle_alpha   73.64674443
_cell_angle_beta   90.00000000
_cell_angle_gamma   90.00000000
_symmetry_Int_Tables_number   1
_chemical_formula_structural   GdTm3Np2O12
_chemical_formula_sum   'Gd2 Tm6 Np4 O24'
_cell_volume   482.23495300
_cell_formula_units_Z   2
loop_
 _symmetry_equiv_pos_site_id
 _symmetry_equiv_pos_as_xyz
  1  'x, y, z'
loop_
 _atom_site_type_symbol
 _atom_site_label
 _atom_site_symmetry_multiplicity
 _atom_site_fract_x
 _atom_site_fract_y
 _atom_site_fract_z
 _atom_site_occupancy
  Gd  Gd0  1  0.302587  0.500000  0.750000  1
  Gd  Gd1  1  0.697413  0.500000  0.250000  1
  Tm  Tm2  1  0.186234  0.795793  0.079379  1
  Tm  Tm3  1  0.253923  0.000000  0.750000  1
  Tm  Tm4  1  0.746077  0.000000  0.250000  1
  Tm  Tm5  1  0.186234  0.204207  0.420621  1
  Tm  Tm6  1  0.813766  0.204207  0.920621  1
  Tm  Tm7  1  0.813766  0.795793  0.579379  1
  Np  Np8  1  0.743469  0.723186  0.886443  1
  Np  Np9  1  0.256531  0.723186  0.386443  1
  Np  Np10  1  0.743469  0.276814  0.613557  1
  Np  Np11  1  0.256531  0.276814  0.113557  1
  O  O12  1  0.879007  0.370880  0.445429  1
  O  O13  1  0.440925  0.849559  0.931388  1
  O  O14  1  0.879007  0.629120  0.054571  1
  O  O15  1  0.034062  0.281190  0.734430  1
  O  O16  1  0.965938  0.281190  0.234430  1
  O  O17  1  0.120993  0.370880  0.945429  1
  O  O18  1  0.617601  0.478917  0.884956  1
  O  O19  1  0.559075  0.150441  0.068612  1
  O  O20  1  0.120993  0.629120  0.554571  1
  O  O21  1  0.034062  0.718810  0.765570  1
  O  O22  1  0.451481  0.195964  0.275431  1
  O  O23  1  0.042981  0.947184  0.396669  1
  O  O24  1  0.440925  0.150441  0.568612  1
  O  O25  1  0.965938  0.718810  0.265570  1
  O  O26  1  0.957019  0.052816  0.603331  1
  O  O27  1  0.548519  0.195964  0.775431  1
  O  O28  1  0.548519  0.804036  0.724569  1
  O  O29  1  0.042981  0.052816  0.103331  1
  O  O30  1  0.617601  0.521083  0.615044  1
  O  O31  1  0.382399  0.521083  0.115044  1
  O  O32  1  0.451481  0.804036  0.224569  1
  O  O33  1  0.382399  0.478917  0.384956  1
  O  O34  1  0.559075  0.849559  0.431388  1
  O  O35  1  0.957019  0.947184  0.896669  1
