# generated using pymatgen
data_Tb2Dy3Bi2Ru
_symmetry_space_group_name_H-M   'P 1'
_cell_length_a   8.00282000
_cell_length_b   9.03999300
_cell_length_c   12.51874700
_cell_angle_alpha   90.00000000
_cell_angle_beta   90.00000000
_cell_angle_gamma   90.00000000
_symmetry_Int_Tables_number   1
_chemical_formula_structural   Tb2Dy3Bi2Ru
_chemical_formula_sum   'Tb8 Dy12 Bi8 Ru4'
_cell_volume   905.67421966
_cell_formula_units_Z   4
loop_
 _symmetry_equiv_pos_site_id
 _symmetry_equiv_pos_as_xyz
  1  'x, y, z'
loop_
 _atom_site_type_symbol
 _atom_site_label
 _atom_site_symmetry_multiplicity
 _atom_site_fract_x
 _atom_site_fract_y
 _atom_site_fract_z
 _atom_site_occupancy
  Tb  Tb0  1  0.376690  0.750000  0.692827  1
  Tb  Tb1  1  0.623310  0.250000  0.307173  1
  Tb  Tb2  1  0.876690  0.250000  0.807173  1
  Tb  Tb3  1  0.123310  0.750000  0.192827  1
  Tb  Tb4  1  0.945639  0.750000  0.504266  1
  Tb  Tb5  1  0.054361  0.250000  0.495734  1
  Tb  Tb6  1  0.445639  0.250000  0.995734  1
  Tb  Tb7  1  0.554361  0.750000  0.004266  1
  Dy  Dy8  1  0.843217  0.750000  0.793068  1
  Dy  Dy9  1  0.156783  0.250000  0.206932  1
  Dy  Dy10  1  0.343217  0.250000  0.706932  1
  Dy  Dy11  1  0.656783  0.750000  0.293068  1
  Dy  Dy12  1  0.674649  0.042438  0.563987  1
  Dy  Dy13  1  0.325351  0.957562  0.436013  1
  Dy  Dy14  1  0.174649  0.957562  0.936013  1
  Dy  Dy15  1  0.325351  0.542438  0.436013  1
  Dy  Dy16  1  0.825351  0.042438  0.063987  1
  Dy  Dy17  1  0.674649  0.457562  0.563987  1
  Dy  Dy18  1  0.825351  0.457562  0.063987  1
  Dy  Dy19  1  0.174649  0.542438  0.936013  1
  Bi  Bi20  1  0.570103  0.492681  0.827118  1
  Bi  Bi21  1  0.429897  0.507319  0.172882  1
  Bi  Bi22  1  0.070103  0.507319  0.672882  1
  Bi  Bi23  1  0.429897  0.992681  0.172882  1
  Bi  Bi24  1  0.929897  0.492681  0.327118  1
  Bi  Bi25  1  0.570103  0.007319  0.827118  1
  Bi  Bi26  1  0.929897  0.007319  0.327118  1
  Bi  Bi27  1  0.070103  0.992681  0.672882  1
  Ru  Ru28  1  0.573417  0.750000  0.510780  1
  Ru  Ru29  1  0.426583  0.250000  0.489220  1
  Ru  Ru30  1  0.073417  0.250000  0.989220  1
  Ru  Ru31  1  0.926583  0.750000  0.010780  1
