# generated using pymatgen
data_YLu2Mg(AlPt)4
_symmetry_space_group_name_H-M   'P 1'
_cell_length_a   4.32042200
_cell_length_b   6.76094483
_cell_length_c   7.73462202
_cell_angle_alpha   92.42116365
_cell_angle_beta   90.00000000
_cell_angle_gamma   90.00000000
_symmetry_Int_Tables_number   1
_chemical_formula_structural   YLu2Mg(AlPt)4
_chemical_formula_sum   'Y1 Lu2 Mg1 Al4 Pt4'
_cell_volume   225.72766333
_cell_formula_units_Z   1
loop_
 _symmetry_equiv_pos_site_id
 _symmetry_equiv_pos_as_xyz
  1  'x, y, z'
loop_
 _atom_site_type_symbol
 _atom_site_label
 _atom_site_symmetry_multiplicity
 _atom_site_fract_x
 _atom_site_fract_y
 _atom_site_fract_z
 _atom_site_occupancy
  Y  Y0  1  0.250000  0.528729  0.818725  1
  Lu  Lu1  1  0.750000  0.972683  0.329471  1
  Lu  Lu2  1  0.750000  0.468457  0.179788  1
  Mg  Mg3  1  0.250000  0.029272  0.673807  1
  Al  Al4  1  0.250000  0.137690  0.054818  1
  Al  Al5  1  0.250000  0.646677  0.441349  1
  Al  Al6  1  0.750000  0.859989  0.939603  1
  Al  Al7  1  0.750000  0.355640  0.560977  1
  Pt  Pt8  1  0.250000  0.269858  0.377124  1
  Pt  Pt9  1  0.250000  0.772151  0.131006  1
  Pt  Pt10  1  0.750000  0.735549  0.619718  1
  Pt  Pt11  1  0.750000  0.223304  0.873615  1
