# generated using pymatgen
data_Nd10Ga3SiSn2
_symmetry_space_group_name_H-M   'P 1'
_cell_length_a   9.08508251
_cell_length_b   9.08508251
_cell_length_c   9.06990980
_cell_angle_alpha   126.73601626
_cell_angle_beta   126.73602362
_cell_angle_gamma   78.79848417
_symmetry_Int_Tables_number   1
_chemical_formula_structural   Nd10Ga3SiSn2
_chemical_formula_sum   'Nd10 Ga3 Si1 Sn2'
_cell_volume   464.95353257
_cell_formula_units_Z   1
loop_
 _symmetry_equiv_pos_site_id
 _symmetry_equiv_pos_as_xyz
  1  'x, y, z'
loop_
 _atom_site_type_symbol
 _atom_site_label
 _atom_site_symmetry_multiplicity
 _atom_site_fract_x
 _atom_site_fract_y
 _atom_site_fract_z
 _atom_site_occupancy
  Nd  Nd0  1  0.503623  0.497532  0.001155  1
  Nd  Nd1  1  0.997532  0.003623  0.001155  1
  Nd  Nd2  1  0.531414  0.031414  0.849577  1
  Nd  Nd3  1  0.185589  0.685589  0.157168  1
  Nd  Nd4  1  0.021720  0.186781  0.496656  1
  Nd  Nd5  1  0.686781  0.521720  0.496656  1
  Nd  Nd6  1  0.471577  0.971577  0.157168  1
  Nd  Nd7  1  0.818166  0.318166  0.849577  1
  Nd  Nd8  1  0.974936  0.809875  0.496656  1
  Nd  Nd9  1  0.309875  0.474936  0.496656  1
  Ga  Ga10  1  0.122028  0.622028  0.744058  1
  Ga  Ga11  1  0.376634  0.124567  0.501202  1
  Ga  Ga12  1  0.624567  0.876634  0.501202  1
  Si  Si13  1  0.877629  0.377629  0.255256  1
  Sn  Sn14  1  0.248965  0.248965  0.997929  1
  Sn  Sn15  1  0.748965  0.748965  0.997929  1
