# generated using pymatgen
data_Mn6FeCoW4
_symmetry_space_group_name_H-M   'P 1'
_cell_length_a   4.67145500
_cell_length_b   4.67145414
_cell_length_c   7.83116100
_cell_angle_alpha   90.00000000
_cell_angle_beta   90.00000000
_cell_angle_gamma   119.99999900
_symmetry_Int_Tables_number   1
_chemical_formula_structural   Mn6FeCoW4
_chemical_formula_sum   'Mn6 Fe1 Co1 W4'
_cell_volume   147.99977265
_cell_formula_units_Z   1
loop_
 _symmetry_equiv_pos_site_id
 _symmetry_equiv_pos_as_xyz
  1  'x, y, z'
loop_
 _atom_site_type_symbol
 _atom_site_label
 _atom_site_symmetry_multiplicity
 _atom_site_fract_x
 _atom_site_fract_y
 _atom_site_fract_z
 _atom_site_occupancy
  Mn  Mn0  1  0.827339  0.172661  0.750203  1
  Mn  Mn1  1  0.827339  0.654676  0.750203  1
  Mn  Mn2  1  0.345324  0.172661  0.750203  1
  Mn  Mn3  1  0.172661  0.827339  0.249797  1
  Mn  Mn4  1  0.172661  0.345324  0.249797  1
  Mn  Mn5  1  0.654676  0.827339  0.249797  1
  Fe  Fe6  1  0.000000  0.000000  0.000000  1
  Co  Co7  1  0.000000  0.000000  0.500000  1
  W  W8  1  0.333333  0.666667  0.933706  1
  W  W9  1  0.666667  0.333333  0.066294  1
  W  W10  1  0.666667  0.333333  0.432787  1
  W  W11  1  0.333333  0.666667  0.567213  1
