# generated using pymatgen
data_Sm2Y3TmRh18
_symmetry_space_group_name_H-M   'P 1'
_cell_length_a   5.29172700
_cell_length_b   5.29172761
_cell_length_c   17.51869800
_cell_angle_alpha   90.00000000
_cell_angle_beta   90.00000000
_cell_angle_gamma   119.99998996
_symmetry_Int_Tables_number   1
_chemical_formula_structural   Sm2Y3TmRh18
_chemical_formula_sum   'Sm2 Y3 Tm1 Rh18'
_cell_volume   424.84196908
_cell_formula_units_Z   1
loop_
 _symmetry_equiv_pos_site_id
 _symmetry_equiv_pos_as_xyz
  1  'x, y, z'
loop_
 _atom_site_type_symbol
 _atom_site_label
 _atom_site_symmetry_multiplicity
 _atom_site_fract_x
 _atom_site_fract_y
 _atom_site_fract_z
 _atom_site_occupancy
  Sm  Sm0  1  0.333333  0.666667  0.750500  1
  Sm  Sm1  1  0.666667  0.333333  0.249939  1
  Y  Y2  1  0.666667  0.333333  0.041082  1
  Y  Y3  1  0.666667  0.333333  0.458146  1
  Y  Y4  1  0.333333  0.666667  0.541854  1
  Tm  Tm5  1  0.333333  0.666667  0.957517  1
  Rh  Rh6  1  0.167285  0.832715  0.374494  1
  Rh  Rh7  1  0.167285  0.334570  0.374494  1
  Rh  Rh8  1  0.665430  0.832715  0.374494  1
  Rh  Rh9  1  0.832713  0.167287  0.625603  1
  Rh  Rh10  1  0.832713  0.665427  0.625603  1
  Rh  Rh11  1  0.334573  0.167287  0.625603  1
  Rh  Rh12  1  0.832521  0.167479  0.875427  1
  Rh  Rh13  1  0.832521  0.665043  0.875427  1
  Rh  Rh14  1  0.334957  0.167479  0.875427  1
  Rh  Rh15  1  0.167541  0.832459  0.124933  1
  Rh  Rh16  1  0.167541  0.335082  0.124933  1
  Rh  Rh17  1  0.664918  0.832459  0.124933  1
  Rh  Rh18  1  0.333333  0.666667  0.249843  1
  Rh  Rh19  1  0.666667  0.333333  0.750161  1
  Rh  Rh20  1  0.000000  0.000000  0.249464  1
  Rh  Rh21  1  0.000000  0.000000  0.750239  1
  Rh  Rh22  1  0.000000  0.000000  0.500023  1
  Rh  Rh23  1  0.000000  0.000000  0.999862  1
