# generated using pymatgen
data_Th2Co4GeAs3
_symmetry_space_group_name_H-M   'P 1'
_cell_length_a   4.14817000
_cell_length_b   4.14817400
_cell_length_c   9.52591300
_cell_angle_alpha   90.00000000
_cell_angle_beta   90.00000000
_cell_angle_gamma   90.00000000
_symmetry_Int_Tables_number   1
_chemical_formula_structural   Th2Co4GeAs3
_chemical_formula_sum   'Th2 Co4 Ge1 As3'
_cell_volume   163.91553751
_cell_formula_units_Z   1
loop_
 _symmetry_equiv_pos_site_id
 _symmetry_equiv_pos_as_xyz
  1  'x, y, z'
loop_
 _atom_site_type_symbol
 _atom_site_label
 _atom_site_symmetry_multiplicity
 _atom_site_fract_x
 _atom_site_fract_y
 _atom_site_fract_z
 _atom_site_occupancy
  Th  Th0  1  0.000000  0.500000  0.246152  1
  Th  Th1  1  0.500000  0.000000  0.753848  1
  Co  Co2  1  0.000000  0.000000  0.000000  1
  Co  Co3  1  0.500000  0.500000  0.000000  1
  Co  Co4  1  0.000000  0.500000  0.619921  1
  Co  Co5  1  0.500000  0.000000  0.380079  1
  Ge  Ge6  1  0.000000  0.000000  0.500000  1
  As  As7  1  0.500000  0.500000  0.500000  1
  As  As8  1  0.000000  0.500000  0.868254  1
  As  As9  1  0.500000  0.000000  0.131746  1
