# generated using pymatgen
data_Cs4V2Co2SeS7
_symmetry_space_group_name_H-M   'P 1'
_cell_length_a   14.42099680
_cell_length_b   12.89257987
_cell_length_c   7.64430646
_cell_angle_alpha   86.24409353
_cell_angle_beta   63.11216201
_cell_angle_gamma   31.90612204
_symmetry_Int_Tables_number   1
_chemical_formula_structural   Cs4V2Co2SeS7
_chemical_formula_sum   'Cs4 V2 Co2 Se1 S7'
_cell_volume   494.02574446
_cell_formula_units_Z   1
loop_
 _symmetry_equiv_pos_site_id
 _symmetry_equiv_pos_as_xyz
  1  'x, y, z'
loop_
 _atom_site_type_symbol
 _atom_site_label
 _atom_site_symmetry_multiplicity
 _atom_site_fract_x
 _atom_site_fract_y
 _atom_site_fract_z
 _atom_site_occupancy
  Cs  Cs0  1  0.569524  0.580321  0.922053  1
  Cs  Cs1  1  0.926217  0.924713  0.574185  1
  Cs  Cs2  1  0.323448  0.323750  0.676853  1
  Cs  Cs3  1  0.682996  0.671800  0.318453  1
  V  V4  1  0.749993  0.750339  0.749817  1
  V  V5  1  0.502964  0.495727  0.499127  1
  Co  Co6  1  0.997562  0.998017  0.008815  1
  Co  Co7  1  0.250104  0.250027  0.250126  1
  Se  Se8  1  0.210561  0.893392  0.607226  1
  S  S9  1  0.296249  0.605817  0.877481  1
  S  S10  1  0.609293  0.290347  0.220228  1
  S  S11  1  0.880435  0.215105  0.296818  1
  S  S12  1  0.370558  0.032022  0.955445  1
  S  S13  1  0.956591  0.640278  0.371136  1
  S  S14  1  0.640874  0.957189  0.033015  1
  S  S15  1  0.032631  0.371156  0.639220  1
