# generated using pymatgen
data_Cs2TbDy5(CBr6)2
_symmetry_space_group_name_H-M   'P 1'
_cell_length_a   8.81878979
_cell_length_b   8.85766445
_cell_length_c   9.46008272
_cell_angle_alpha   71.09676928
_cell_angle_beta   84.98397564
_cell_angle_gamma   89.25638547
_symmetry_Int_Tables_number   1
_chemical_formula_structural   Cs2TbDy5(CBr6)2
_chemical_formula_sum   'Cs2 Tb1 Dy5 C2 Br12'
_cell_volume   696.33956220
_cell_formula_units_Z   1
loop_
 _symmetry_equiv_pos_site_id
 _symmetry_equiv_pos_as_xyz
  1  'x, y, z'
loop_
 _atom_site_type_symbol
 _atom_site_label
 _atom_site_symmetry_multiplicity
 _atom_site_fract_x
 _atom_site_fract_y
 _atom_site_fract_z
 _atom_site_occupancy
  Cs  Cs0  1  0.467270  0.365571  0.330565  1
  Cs  Cs1  1  0.532680  0.634460  0.669447  1
  Tb  Tb2  1  0.915590  0.744377  0.004414  1
  Dy  Dy3  1  0.084315  0.254936  0.995400  1
  Dy  Dy4  1  0.744119  0.085865  0.001080  1
  Dy  Dy5  1  0.255835  0.913775  0.998956  1
  Dy  Dy6  1  0.973466  0.887072  0.323920  1
  Dy  Dy7  1  0.026586  0.113144  0.676085  1
  C  C8  1  0.006558  0.027286  0.920347  1
  C  C9  1  0.993803  0.973719  0.079555  1
  Br  Br10  1  0.075045  0.196198  0.327631  1
  Br  Br11  1  0.925067  0.804329  0.671232  1
  Br  Br12  1  0.204670  0.593051  0.001029  1
  Br  Br13  1  0.797006  0.405903  0.998883  1
  Br  Br14  1  0.402457  0.199082  0.001862  1
  Br  Br15  1  0.596023  0.801446  0.998120  1
  Br  Br16  1  0.667781  0.001123  0.324711  1
  Br  Br17  1  0.332105  0.998923  0.675217  1
  Br  Br18  1  0.279897  0.776871  0.321250  1
  Br  Br19  1  0.720018  0.223028  0.678872  1
  Br  Br20  1  0.852773  0.590516  0.327026  1
  Br  Br21  1  0.146933  0.409325  0.674397  1
