# generated using pymatgen
data_Y2Er2CdPd
_symmetry_space_group_name_H-M   'P 1'
_cell_length_a   9.66247653
_cell_length_b   9.66247772
_cell_length_c   9.68193500
_cell_angle_alpha   59.93336170
_cell_angle_beta   59.93335761
_cell_angle_gamma   60.13327733
_symmetry_Int_Tables_number   1
_chemical_formula_structural   Y2Er2CdPd
_chemical_formula_sum   'Y8 Er8 Cd4 Pd4'
_cell_volume   639.17617958
_cell_formula_units_Z   4
loop_
 _symmetry_equiv_pos_site_id
 _symmetry_equiv_pos_as_xyz
  1  'x, y, z'
loop_
 _atom_site_type_symbol
 _atom_site_label
 _atom_site_symmetry_multiplicity
 _atom_site_fract_x
 _atom_site_fract_y
 _atom_site_fract_z
 _atom_site_occupancy
  Y  Y0  1  0.189486  0.189486  0.810514  1
  Y  Y1  1  0.810514  0.810514  0.189486  1
  Y  Y2  1  0.935323  0.564677  0.564677  1
  Y  Y3  1  0.564677  0.935323  0.935323  1
  Y  Y4  1  0.564677  0.935323  0.564677  1
  Y  Y5  1  0.935323  0.564677  0.935323  1
  Y  Y6  1  0.564362  0.564362  0.935638  1
  Y  Y7  1  0.935638  0.935638  0.564362  1
  Er  Er8  1  0.353887  0.353887  0.352851  1
  Er  Er9  1  0.353887  0.353887  0.939375  1
  Er  Er10  1  0.352851  0.939375  0.353887  1
  Er  Er11  1  0.939375  0.352851  0.353887  1
  Er  Er12  1  0.810365  0.189635  0.189635  1
  Er  Er13  1  0.189635  0.810365  0.810365  1
  Er  Er14  1  0.189635  0.810365  0.189635  1
  Er  Er15  1  0.810365  0.189635  0.810365  1
  Cd  Cd16  1  0.581841  0.581841  0.581935  1
  Cd  Cd17  1  0.581841  0.581841  0.254383  1
  Cd  Cd18  1  0.581935  0.254383  0.581841  1
  Cd  Cd19  1  0.254383  0.581935  0.581841  1
  Pd  Pd20  1  0.144336  0.144336  0.147195  1
  Pd  Pd21  1  0.144336  0.144336  0.564132  1
  Pd  Pd22  1  0.147195  0.564132  0.144336  1
  Pd  Pd23  1  0.564132  0.147195  0.144336  1
