# generated using pymatgen
data_LuHf(NbRe8)3
_symmetry_space_group_name_H-M   'P 1'
_cell_length_a   8.46181862
_cell_length_b   8.46181979
_cell_length_c   8.46181900
_cell_angle_alpha   109.50034128
_cell_angle_beta   109.50035128
_cell_angle_gamma   109.50034896
_symmetry_Int_Tables_number   1
_chemical_formula_structural   LuHf(NbRe8)3
_chemical_formula_sum   'Lu1 Hf1 Nb3 Re24'
_cell_volume   465.90793170
_cell_formula_units_Z   1
loop_
 _symmetry_equiv_pos_site_id
 _symmetry_equiv_pos_as_xyz
  1  'x, y, z'
loop_
 _atom_site_type_symbol
 _atom_site_label
 _atom_site_symmetry_multiplicity
 _atom_site_fract_x
 _atom_site_fract_y
 _atom_site_fract_z
 _atom_site_occupancy
  Lu  Lu0  1  0.998940  0.998940  0.998940  1
  Hf  Hf1  1  0.371019  0.371019  0.371019  1
  Nb  Nb2  1  0.629537  0.000093  0.000093  1
  Nb  Nb3  1  0.000093  0.629537  0.000093  1
  Nb  Nb4  1  0.000093  0.000093  0.629537  1
  Re  Re5  1  0.399205  0.682286  0.000804  1
  Re  Re6  1  0.717163  0.318697  0.318697  1
  Re  Re7  1  0.399205  0.000804  0.682286  1
  Re  Re8  1  0.682286  0.399205  0.000804  1
  Re  Re9  1  0.000804  0.399205  0.682286  1
  Re  Re10  1  0.318697  0.717163  0.318697  1
  Re  Re11  1  0.318697  0.318697  0.717163  1
  Re  Re12  1  0.000804  0.682286  0.399205  1
  Re  Re13  1  0.682286  0.000804  0.399205  1
  Re  Re14  1  0.604284  0.604284  0.280681  1
  Re  Re15  1  0.280681  0.604284  0.604284  1
  Re  Re16  1  0.604284  0.280681  0.604284  1
  Re  Re17  1  0.376993  0.194396  0.999350  1
  Re  Re18  1  0.180403  0.803622  0.803622  1
  Re  Re19  1  0.376993  0.999350  0.194396  1
  Re  Re20  1  0.194396  0.376993  0.999350  1
  Re  Re21  1  0.999350  0.376993  0.194396  1
  Re  Re22  1  0.803622  0.180403  0.803622  1
  Re  Re23  1  0.803622  0.803622  0.180403  1
  Re  Re24  1  0.999350  0.194396  0.376993  1
  Re  Re25  1  0.194396  0.999350  0.376993  1
  Re  Re26  1  0.622541  0.622541  0.817711  1
  Re  Re27  1  0.817711  0.622541  0.622541  1
  Re  Re28  1  0.622541  0.817711  0.622541  1
