# generated using pymatgen
data_Pr10Sn2PPb4Au
_symmetry_space_group_name_H-M   'P 1'
_cell_length_a   9.61546963
_cell_length_b   9.61546957
_cell_length_c   7.02841086
_cell_angle_alpha   89.90932086
_cell_angle_beta   89.90932008
_cell_angle_gamma   120.09955172
_symmetry_Int_Tables_number   1
_chemical_formula_structural   Pr10Sn2PPb4Au
_chemical_formula_sum   'Pr10 Sn2 P1 Pb4 Au1'
_cell_volume   562.19897829
_cell_formula_units_Z   1
loop_
 _symmetry_equiv_pos_site_id
 _symmetry_equiv_pos_as_xyz
  1  'x, y, z'
loop_
 _atom_site_type_symbol
 _atom_site_label
 _atom_site_symmetry_multiplicity
 _atom_site_fract_x
 _atom_site_fract_y
 _atom_site_fract_z
 _atom_site_occupancy
  Pr  Pr0  1  0.250085  0.001985  0.732624  1
  Pr  Pr1  1  0.749915  0.998015  0.267376  1
  Pr  Pr2  1  0.001985  0.250085  0.732624  1
  Pr  Pr3  1  0.998015  0.749915  0.267376  1
  Pr  Pr4  1  0.748681  0.748681  0.732211  1
  Pr  Pr5  1  0.251319  0.251319  0.267789  1
  Pr  Pr6  1  0.335315  0.664685  0.500000  1
  Pr  Pr7  1  0.664685  0.335315  0.500000  1
  Pr  Pr8  1  0.664618  0.335382  0.000000  1
  Pr  Pr9  1  0.335382  0.664618  0.000000  1
  Sn  Sn10  1  0.393710  0.393710  0.748156  1
  Sn  Sn11  1  0.606290  0.606290  0.251844  1
  P  P12  1  0.000000  0.000000  0.500000  1
  Pb  Pb13  1  0.606557  0.000220  0.749333  1
  Pb  Pb14  1  0.393443  0.999780  0.250667  1
  Pb  Pb15  1  0.000220  0.606557  0.749333  1
  Pb  Pb16  1  0.999780  0.393443  0.250667  1
  Au  Au17  1  0.000000  0.000000  0.000000  1
