# generated using pymatgen
data_Ho3Th(CdNi2)2
_symmetry_space_group_name_H-M   'P 1'
_cell_length_a   7.46432978
_cell_length_b   7.46433007
_cell_length_c   3.65854100
_cell_angle_alpha   90.00000000
_cell_angle_beta   90.00000000
_cell_angle_gamma   91.36388691
_symmetry_Int_Tables_number   1
_chemical_formula_structural   Ho3Th(CdNi2)2
_chemical_formula_sum   'Ho3 Th1 Cd2 Ni4'
_cell_volume   203.78232987
_cell_formula_units_Z   1
loop_
 _symmetry_equiv_pos_site_id
 _symmetry_equiv_pos_as_xyz
  1  'x, y, z'
loop_
 _atom_site_type_symbol
 _atom_site_label
 _atom_site_symmetry_multiplicity
 _atom_site_fract_x
 _atom_site_fract_y
 _atom_site_fract_z
 _atom_site_occupancy
  Ho  Ho0  1  0.826393  0.671343  0.500000  1
  Ho  Ho1  1  0.171343  0.326393  0.500000  1
  Ho  Ho2  1  0.674583  0.174583  0.500000  1
  Th  Th3  1  0.326839  0.826839  0.500000  1
  Cd  Cd4  1  0.990070  0.005215  0.000000  1
  Cd  Cd5  1  0.505215  0.490070  0.000000  1
  Ni  Ni6  1  0.376129  0.116472  0.000000  1
  Ni  Ni7  1  0.885974  0.385974  0.000000  1
  Ni  Ni8  1  0.126983  0.626983  0.000000  1
  Ni  Ni9  1  0.616472  0.876129  0.000000  1
