# generated using pymatgen
data_Ho3(SiRh)2
_symmetry_space_group_name_H-M   'P 1'
_cell_length_a   5.57757400
_cell_length_b   7.75919100
_cell_length_c   12.96962400
_cell_angle_alpha   90.00000000
_cell_angle_beta   90.00000000
_cell_angle_gamma   90.00000000
_symmetry_Int_Tables_number   1
_chemical_formula_structural   Ho3(SiRh)2
_chemical_formula_sum   'Ho12 Si8 Rh8'
_cell_volume   561.29240959
_cell_formula_units_Z   4
loop_
 _symmetry_equiv_pos_site_id
 _symmetry_equiv_pos_as_xyz
  1  'x, y, z'
loop_
 _atom_site_type_symbol
 _atom_site_label
 _atom_site_symmetry_multiplicity
 _atom_site_fract_x
 _atom_site_fract_y
 _atom_site_fract_z
 _atom_site_occupancy
  Ho  Ho0  1  0.629980  0.252381  0.250000  1
  Ho  Ho1  1  0.370020  0.747619  0.750000  1
  Ho  Ho2  1  0.370020  0.752381  0.250000  1
  Ho  Ho3  1  0.629980  0.247619  0.750000  1
  Ho  Ho4  1  0.139007  0.394107  0.102119  1
  Ho  Ho5  1  0.860993  0.605893  0.897881  1
  Ho  Ho6  1  0.860993  0.605893  0.602119  1
  Ho  Ho7  1  0.860993  0.894107  0.397881  1
  Ho  Ho8  1  0.139007  0.394107  0.397881  1
  Ho  Ho9  1  0.139007  0.105893  0.602119  1
  Ho  Ho10  1  0.139007  0.105893  0.897881  1
  Ho  Ho11  1  0.860993  0.894107  0.102119  1
  Si  Si12  1  0.137094  0.106561  0.250000  1
  Si  Si13  1  0.862906  0.893439  0.750000  1
  Si  Si14  1  0.862906  0.606561  0.250000  1
  Si  Si15  1  0.137094  0.393439  0.750000  1
  Si  Si16  1  0.629183  0.250000  0.000000  1
  Si  Si17  1  0.370817  0.750000  0.000000  1
  Si  Si18  1  0.370817  0.750000  0.500000  1
  Si  Si19  1  0.629183  0.250000  0.500000  1
  Rh  Rh20  1  0.366491  0.033939  0.091793  1
  Rh  Rh21  1  0.633509  0.966061  0.908207  1
  Rh  Rh22  1  0.633509  0.966061  0.591793  1
  Rh  Rh23  1  0.633509  0.533939  0.408207  1
  Rh  Rh24  1  0.366491  0.033939  0.408207  1
  Rh  Rh25  1  0.366491  0.466061  0.591793  1
  Rh  Rh26  1  0.366491  0.466061  0.908207  1
  Rh  Rh27  1  0.633509  0.533939  0.091793  1
