# generated using pymatgen
data_Lu3Sc3CrBi2
_symmetry_space_group_name_H-M   'P 1'
_cell_length_a   7.89879800
_cell_length_b   7.89879650
_cell_length_c   4.20332400
_cell_angle_alpha   90.00000000
_cell_angle_beta   90.00000000
_cell_angle_gamma   120.00000626
_symmetry_Int_Tables_number   1
_chemical_formula_structural   Lu3Sc3CrBi2
_chemical_formula_sum   'Lu3 Sc3 Cr1 Bi2'
_cell_volume   227.11478355
_cell_formula_units_Z   1
loop_
 _symmetry_equiv_pos_site_id
 _symmetry_equiv_pos_as_xyz
  1  'x, y, z'
loop_
 _atom_site_type_symbol
 _atom_site_label
 _atom_site_symmetry_multiplicity
 _atom_site_fract_x
 _atom_site_fract_y
 _atom_site_fract_z
 _atom_site_occupancy
  Lu  Lu0  1  0.615992  0.000000  0.000000  1
  Lu  Lu1  1  0.000000  0.615992  0.000000  1
  Lu  Lu2  1  0.384008  0.384008  0.000000  1
  Sc  Sc3  1  0.226955  0.000000  0.500000  1
  Sc  Sc4  1  0.000000  0.226955  0.500000  1
  Sc  Sc5  1  0.773045  0.773045  0.500000  1
  Cr  Cr6  1  0.000000  0.000000  0.000000  1
  Bi  Bi7  1  0.333333  0.666667  0.500000  1
  Bi  Bi8  1  0.666667  0.333333  0.500000  1
