# generated using pymatgen
data_Nd4Cu3Pd
_symmetry_space_group_name_H-M   'P 1'
_cell_length_a   4.55085900
_cell_length_b   5.70054167
_cell_length_c   7.36004743
_cell_angle_alpha   89.63490792
_cell_angle_beta   90.00000000
_cell_angle_gamma   90.00000000
_symmetry_Int_Tables_number   1
_chemical_formula_structural   Nd4Cu3Pd
_chemical_formula_sum   'Nd4 Cu3 Pd1'
_cell_volume   190.93313380
_cell_formula_units_Z   1
loop_
 _symmetry_equiv_pos_site_id
 _symmetry_equiv_pos_as_xyz
  1  'x, y, z'
loop_
 _atom_site_type_symbol
 _atom_site_label
 _atom_site_symmetry_multiplicity
 _atom_site_fract_x
 _atom_site_fract_y
 _atom_site_fract_z
 _atom_site_occupancy
  Nd  Nd0  1  0.000000  0.631498  0.320653  1
  Nd  Nd1  1  0.000000  0.869317  0.820779  1
  Nd  Nd2  1  0.500000  0.367853  0.678929  1
  Nd  Nd3  1  0.500000  0.130557  0.179730  1
  Cu  Cu4  1  0.000000  0.383456  0.966005  1
  Cu  Cu5  1  0.500000  0.871574  0.537124  1
  Cu  Cu6  1  0.500000  0.618532  0.033832  1
  Pd  Pd7  1  0.000000  0.127214  0.462948  1
