# generated using pymatgen
data_Ho3ErOs5W3
_symmetry_space_group_name_H-M   'P 1'
_cell_length_a   5.43208063
_cell_length_b   5.43201778
_cell_length_c   8.54494300
_cell_angle_alpha   90.00118963
_cell_angle_beta   89.99962296
_cell_angle_gamma   116.99244001
_symmetry_Int_Tables_number   1
_chemical_formula_structural   Ho3ErOs5W3
_chemical_formula_sum   'Ho3 Er1 Os5 W3'
_cell_volume   224.67080305
_cell_formula_units_Z   1
loop_
 _symmetry_equiv_pos_site_id
 _symmetry_equiv_pos_as_xyz
  1  'x, y, z'
loop_
 _atom_site_type_symbol
 _atom_site_label
 _atom_site_symmetry_multiplicity
 _atom_site_fract_x
 _atom_site_fract_y
 _atom_site_fract_z
 _atom_site_occupancy
  Ho  Ho0  1  0.334166  0.665841  0.437857  1
  Ho  Ho1  1  0.665163  0.334844  0.567048  1
  Ho  Ho2  1  0.665158  0.334835  0.933039  1
  Er  Er3  1  0.334016  0.665987  0.061952  1
  Os  Os4  1  0.832545  0.664486  0.249761  1
  Os  Os5  1  0.335507  0.167451  0.249752  1
  Os  Os6  1  0.179908  0.820064  0.750382  1
  Os  Os7  1  0.165585  0.339471  0.750254  1
  Os  Os8  1  0.660554  0.834419  0.750239  1
  W  W9  1  0.002389  0.997586  0.505258  1
  W  W10  1  0.002423  0.997584  0.994655  1
  W  W11  1  0.822585  0.177434  0.249802  1
