# generated using pymatgen
data_SrTb5TmCoI12
_symmetry_space_group_name_H-M   'P 1'
_cell_length_a   9.75593529
_cell_length_b   9.83241681
_cell_length_c   9.83246949
_cell_angle_alpha   106.14481344
_cell_angle_beta   106.41230211
_cell_angle_gamma   106.20345029
_symmetry_Int_Tables_number   1
_chemical_formula_structural   SrTb5TmCoI12
_chemical_formula_sum   'Sr1 Tb5 Tm1 Co1 I12'
_cell_volume   800.93737785
_cell_formula_units_Z   1
loop_
 _symmetry_equiv_pos_site_id
 _symmetry_equiv_pos_as_xyz
  1  'x, y, z'
loop_
 _atom_site_type_symbol
 _atom_site_label
 _atom_site_symmetry_multiplicity
 _atom_site_fract_x
 _atom_site_fract_y
 _atom_site_fract_z
 _atom_site_occupancy
  Sr  Sr0  1  0.499816  0.499954  0.500219  1
  Tb  Tb1  1  0.092709  0.292569  0.019889  1
  Tb  Tb2  1  0.278935  0.019004  0.089264  1
  Tb  Tb3  1  0.980739  0.906910  0.706483  1
  Tb  Tb4  1  0.907311  0.707642  0.980500  1
  Tb  Tb5  1  0.721284  0.981499  0.912552  1
  Tm  Tm6  1  0.019121  0.091247  0.286637  1
  Co  Co7  1  0.000181  0.000018  0.999910  1
  I  I8  1  0.132781  0.444307  0.367762  1
  I  I9  1  0.448491  0.366509  0.136040  1
  I  I10  1  0.364503  0.134731  0.446352  1
  I  I11  1  0.865448  0.551798  0.632694  1
  I  I12  1  0.551615  0.633532  0.864468  1
  I  I13  1  0.631766  0.865084  0.553855  1
  I  I14  1  0.681736  0.073541  0.223909  1
  I  I15  1  0.073020  0.222807  0.675866  1
  I  I16  1  0.224902  0.678981  0.074488  1
  I  I17  1  0.322611  0.927503  0.779409  1
  I  I18  1  0.927900  0.781318  0.323683  1
  I  I19  1  0.775132  0.321046  0.926018  1
