# generated using pymatgen
data_Pr2Er2P7Ir8
_symmetry_space_group_name_H-M   'P 1'
_cell_length_a   3.95253100
_cell_length_b   12.80988767
_cell_length_c   13.18411946
_cell_angle_alpha   80.90907359
_cell_angle_beta   90.00000000
_cell_angle_gamma   90.00000000
_symmetry_Int_Tables_number   1
_chemical_formula_structural   Pr2Er2P7Ir8
_chemical_formula_sum   'Pr4 Er4 P14 Ir16'
_cell_volume   659.14648693
_cell_formula_units_Z   2
loop_
 _symmetry_equiv_pos_site_id
 _symmetry_equiv_pos_as_xyz
  1  'x, y, z'
loop_
 _atom_site_type_symbol
 _atom_site_label
 _atom_site_symmetry_multiplicity
 _atom_site_fract_x
 _atom_site_fract_y
 _atom_site_fract_z
 _atom_site_occupancy
  Pr  Pr0  1  0.750000  0.720208  0.898574  1
  Pr  Pr1  1  0.250000  0.106164  0.786655  1
  Pr  Pr2  1  0.750000  0.893836  0.213345  1
  Pr  Pr3  1  0.250000  0.279792  0.101426  1
  Er  Er4  1  0.750000  0.792028  0.559724  1
  Er  Er5  1  0.250000  0.207972  0.440276  1
  Er  Er6  1  0.750000  0.479448  0.705468  1
  Er  Er7  1  0.250000  0.520552  0.294532  1
  P  P8  1  0.250000  0.906942  0.412311  1
  P  P9  1  0.750000  0.472352  0.130317  1
  P  P10  1  0.250000  0.527648  0.869683  1
  P  P11  1  0.750000  0.093058  0.587689  1
  P  P12  1  0.250000  0.741969  0.083232  1
  P  P13  1  0.750000  0.258031  0.916768  1
  P  P14  1  0.750000  0.158941  0.284850  1
  P  P15  1  0.250000  0.841059  0.715150  1
  P  P16  1  0.250000  0.051211  0.100625  1
  P  P17  1  0.750000  0.948789  0.899375  1
  P  P18  1  0.250000  0.317408  0.686191  1
  P  P19  1  0.750000  0.682592  0.313809  1
  P  P20  1  0.250000  0.607931  0.566101  1
  P  P21  1  0.750000  0.392069  0.433899  1
  Ir  Ir22  1  0.250000  0.990649  0.575721  1
  Ir  Ir23  1  0.750000  0.009351  0.424279  1
  Ir  Ir24  1  0.250000  0.660310  0.727085  1
  Ir  Ir25  1  0.750000  0.339690  0.272915  1
  Ir  Ir26  1  0.250000  0.549131  0.050449  1
  Ir  Ir27  1  0.750000  0.450869  0.949551  1
  Ir  Ir28  1  0.250000  0.064741  0.274096  1
  Ir  Ir29  1  0.750000  0.935259  0.725904  1
  Ir  Ir30  1  0.250000  0.422511  0.521979  1
  Ir  Ir31  1  0.750000  0.577489  0.478021  1
  Ir  Ir32  1  0.250000  0.914590  0.997786  1
  Ir  Ir33  1  0.750000  0.085410  0.002214  1
  Ir  Ir34  1  0.250000  0.728185  0.397645  1
  Ir  Ir35  1  0.750000  0.271815  0.602355  1
  Ir  Ir36  1  0.250000  0.344362  0.855025  1
  Ir  Ir37  1  0.750000  0.655638  0.144975  1
