# generated using pymatgen
data_YbHo3(GaRu)4
_symmetry_space_group_name_H-M   'P 1'
_cell_length_a   7.25922827
_cell_length_b   4.48849600
_cell_length_c   7.04046269
_cell_angle_alpha   90.00000000
_cell_angle_beta   89.68834839
_cell_angle_gamma   90.00000000
_symmetry_Int_Tables_number   1
_chemical_formula_structural   YbHo3(GaRu)4
_chemical_formula_sum   'Yb1 Ho3 Ga4 Ru4'
_cell_volume   229.39612244
_cell_formula_units_Z   1
loop_
 _symmetry_equiv_pos_site_id
 _symmetry_equiv_pos_as_xyz
  1  'x, y, z'
loop_
 _atom_site_type_symbol
 _atom_site_label
 _atom_site_symmetry_multiplicity
 _atom_site_fract_x
 _atom_site_fract_y
 _atom_site_fract_z
 _atom_site_occupancy
  Yb  Yb0  1  0.983331  0.250000  0.806255  1
  Ho  Ho1  1  0.019333  0.750001  0.197550  1
  Ho  Ho2  1  0.521616  0.750001  0.302351  1
  Ho  Ho3  1  0.481251  0.250000  0.696545  1
  Ga  Ga4  1  0.304368  0.250000  0.108116  1
  Ga  Ga5  1  0.803732  0.250000  0.393211  1
  Ga  Ga6  1  0.193709  0.750001  0.607351  1
  Ga  Ga7  1  0.698253  0.750001  0.894196  1
  Ru  Ru8  1  0.654283  0.250000  0.062922  1
  Ru  Ru9  1  0.157169  0.250000  0.435315  1
  Ru  Ru10  1  0.839115  0.750001  0.561265  1
  Ru  Ru11  1  0.343842  0.750001  0.934921  1
