# generated using pymatgen
data_YbY6Cd(Co3Sn11)2
_symmetry_space_group_name_H-M   'P 1'
_cell_length_a   9.69333600
_cell_length_b   9.69333717
_cell_length_c   10.04991300
_cell_angle_alpha   90.00000000
_cell_angle_beta   90.00000000
_cell_angle_gamma   120.00000282
_symmetry_Int_Tables_number   1
_chemical_formula_structural   YbY6Cd(Co3Sn11)2
_chemical_formula_sum   'Yb1 Y6 Cd1 Co6 Sn22'
_cell_volume   817.78569215
_cell_formula_units_Z   1
loop_
 _symmetry_equiv_pos_site_id
 _symmetry_equiv_pos_as_xyz
  1  'x, y, z'
loop_
 _atom_site_type_symbol
 _atom_site_label
 _atom_site_symmetry_multiplicity
 _atom_site_fract_x
 _atom_site_fract_y
 _atom_site_fract_z
 _atom_site_occupancy
  Yb  Yb0  1  0.000000  0.000000  0.000000  1
  Y  Y1  1  0.043352  0.521677  0.306618  1
  Y  Y2  1  0.478323  0.956648  0.306618  1
  Y  Y3  1  0.478323  0.521677  0.306618  1
  Y  Y4  1  0.956648  0.478323  0.693382  1
  Y  Y5  1  0.521677  0.043352  0.693382  1
  Y  Y6  1  0.521677  0.478323  0.693382  1
  Cd  Cd7  1  0.000000  0.000000  0.500000  1
  Co  Co8  1  0.168742  0.831258  0.802029  1
  Co  Co9  1  0.662516  0.831258  0.802029  1
  Co  Co10  1  0.168742  0.337484  0.802029  1
  Co  Co11  1  0.831258  0.168742  0.197971  1
  Co  Co12  1  0.337484  0.168742  0.197971  1
  Co  Co13  1  0.831258  0.662516  0.197971  1
  Sn  Sn14  1  0.115957  0.884043  0.269939  1
  Sn  Sn15  1  0.768087  0.884043  0.269939  1
  Sn  Sn16  1  0.115957  0.231913  0.269939  1
  Sn  Sn17  1  0.884043  0.115957  0.730061  1
  Sn  Sn18  1  0.231913  0.115957  0.730061  1
  Sn  Sn19  1  0.884043  0.768087  0.730061  1
  Sn  Sn20  1  0.344841  0.000000  0.000000  1
  Sn  Sn21  1  0.655159  0.655159  0.000000  1
  Sn  Sn22  1  0.000000  0.344841  0.000000  1
  Sn  Sn23  1  0.344841  0.344841  0.000000  1
  Sn  Sn24  1  0.000000  0.655159  0.000000  1
  Sn  Sn25  1  0.655159  0.000000  0.000000  1
  Sn  Sn26  1  0.782518  0.565037  0.452361  1
  Sn  Sn27  1  0.782518  0.217482  0.452361  1
  Sn  Sn28  1  0.434963  0.217482  0.452361  1
  Sn  Sn29  1  0.217482  0.434963  0.547639  1
  Sn  Sn30  1  0.217482  0.782518  0.547639  1
  Sn  Sn31  1  0.565037  0.782518  0.547639  1
  Sn  Sn32  1  0.666667  0.333333  0.181556  1
  Sn  Sn33  1  0.333333  0.666667  0.818444  1
  Sn  Sn34  1  0.666667  0.333333  0.885132  1
  Sn  Sn35  1  0.333333  0.666667  0.114868  1
