# generated using pymatgen
data_TmFe3NiP3Ru
_symmetry_space_group_name_H-M   'P 1'
_cell_length_a   3.70560100
_cell_length_b   10.19990600
_cell_length_c   11.96845100
_cell_angle_alpha   90.00000000
_cell_angle_beta   90.00000000
_cell_angle_gamma   90.00000000
_symmetry_Int_Tables_number   1
_chemical_formula_structural   TmFe3NiP3Ru
_chemical_formula_sum   'Tm4 Fe12 Ni4 P12 Ru4'
_cell_volume   452.36893181
_cell_formula_units_Z   4
loop_
 _symmetry_equiv_pos_site_id
 _symmetry_equiv_pos_as_xyz
  1  'x, y, z'
loop_
 _atom_site_type_symbol
 _atom_site_label
 _atom_site_symmetry_multiplicity
 _atom_site_fract_x
 _atom_site_fract_y
 _atom_site_fract_z
 _atom_site_occupancy
  Tm  Tm0  1  0.250000  0.581600  0.707424  1
  Tm  Tm1  1  0.250000  0.918400  0.207424  1
  Tm  Tm2  1  0.750000  0.418400  0.292576  1
  Tm  Tm3  1  0.750000  0.081600  0.792576  1
  Fe  Fe4  1  0.250000  0.221911  0.170521  1
  Fe  Fe5  1  0.250000  0.278089  0.670521  1
  Fe  Fe6  1  0.750000  0.778089  0.829479  1
  Fe  Fe7  1  0.750000  0.721911  0.329479  1
  Fe  Fe8  1  0.250000  0.882810  0.700563  1
  Fe  Fe9  1  0.250000  0.617190  0.200563  1
  Fe  Fe10  1  0.750000  0.117190  0.299437  1
  Fe  Fe11  1  0.750000  0.382810  0.799437  1
  Fe  Fe12  1  0.250000  0.463090  0.934795  1
  Fe  Fe13  1  0.250000  0.036910  0.434795  1
  Fe  Fe14  1  0.750000  0.536910  0.065205  1
  Fe  Fe15  1  0.750000  0.963090  0.565205  1
  Ni  Ni16  1  0.250000  0.408882  0.484493  1
  Ni  Ni17  1  0.250000  0.091118  0.984493  1
  Ni  Ni18  1  0.750000  0.591118  0.515507  1
  Ni  Ni19  1  0.750000  0.908882  0.015507  1
  P  P20  1  0.250000  0.424166  0.113315  1
  P  P21  1  0.250000  0.075834  0.613315  1
  P  P22  1  0.750000  0.575834  0.886685  1
  P  P23  1  0.750000  0.924166  0.386685  1
  P  P24  1  0.250000  0.272906  0.856170  1
  P  P25  1  0.250000  0.227094  0.356170  1
  P  P26  1  0.750000  0.727094  0.143830  1
  P  P27  1  0.750000  0.772906  0.643830  1
  P  P28  1  0.250000  0.602887  0.384330  1
  P  P29  1  0.250000  0.897113  0.884330  1
  P  P30  1  0.750000  0.397113  0.615670  1
  P  P31  1  0.750000  0.102887  0.115670  1
  Ru  Ru32  1  0.250000  0.709727  0.992131  1
  Ru  Ru33  1  0.250000  0.790273  0.492131  1
  Ru  Ru34  1  0.750000  0.290273  0.007869  1
  Ru  Ru35  1  0.750000  0.209727  0.507869  1
