# generated using pymatgen
data_Dy6Y2Ti11Si16Pt
_symmetry_space_group_name_H-M   'P 1'
_cell_length_a   7.05021861
_cell_length_b   7.05045072
_cell_length_c   12.86810252
_cell_angle_alpha   89.82478411
_cell_angle_beta   90.17245824
_cell_angle_gamma   89.69787697
_symmetry_Int_Tables_number   1
_chemical_formula_structural   Dy6Y2Ti11Si16Pt
_chemical_formula_sum   'Dy6 Y2 Ti11 Si16 Pt1'
_cell_volume   639.62277606
_cell_formula_units_Z   1
loop_
 _symmetry_equiv_pos_site_id
 _symmetry_equiv_pos_as_xyz
  1  'x, y, z'
loop_
 _atom_site_type_symbol
 _atom_site_label
 _atom_site_symmetry_multiplicity
 _atom_site_fract_x
 _atom_site_fract_y
 _atom_site_fract_z
 _atom_site_occupancy
  Dy  Dy0  1  0.659764  0.996395  0.966992  1
  Dy  Dy1  1  0.158777  0.503114  0.782118  1
  Dy  Dy2  1  0.841921  0.498972  0.285553  1
  Dy  Dy3  1  0.503113  0.158734  0.217917  1
  Dy  Dy4  1  0.498920  0.841964  0.714455  1
  Dy  Dy5  1  0.343511  0.001105  0.468462  1
  Y  Y6  1  0.996174  0.659882  0.032974  1
  Y  Y7  1  0.001431  0.343296  0.531451  1
  Ti  Ti8  1  0.345325  0.506044  0.375521  1
  Ti  Ti9  1  0.850907  0.994935  0.377122  1
  Ti  Ti10  1  0.006874  0.150667  0.125148  1
  Ti  Ti11  1  0.995083  0.850974  0.622839  1
  Ti  Ti12  1  0.506008  0.345322  0.624426  1
  Ti  Ti13  1  0.150757  0.006958  0.874790  1
  Ti  Ti14  1  0.824219  0.173447  0.748706  1
  Ti  Ti15  1  0.173583  0.824357  0.251454  1
  Ti  Ti16  1  0.326926  0.326693  0.999965  1
  Ti  Ti17  1  0.492467  0.649984  0.127503  1
  Ti  Ti18  1  0.649889  0.492432  0.872395  1
  Si  Si19  1  0.055656  0.714433  0.435332  1
  Si  Si20  1  0.951997  0.291168  0.934502  1
  Si  Si21  1  0.714246  0.055420  0.564679  1
  Si  Si22  1  0.208556  0.452547  0.184990  1
  Si  Si23  1  0.790124  0.549935  0.684726  1
  Si  Si24  1  0.452691  0.208364  0.815154  1
  Si  Si25  1  0.549739  0.790262  0.315352  1
  Si  Si26  1  0.291494  0.952235  0.065504  1
  Si  Si27  1  0.798291  0.867975  0.185920  1
  Si  Si28  1  0.291343  0.626858  0.567384  1
  Si  Si29  1  0.704732  0.369107  0.066149  1
  Si  Si30  1  0.626560  0.291164  0.432567  1
  Si  Si31  1  0.369515  0.705010  0.933794  1
  Si  Si32  1  0.131508  0.202573  0.316247  1
  Si  Si33  1  0.202769  0.131260  0.683797  1
  Si  Si34  1  0.867661  0.798494  0.814127  1
  Pt  Pt35  1  0.667465  0.667914  0.499986  1
