# generated using pymatgen
data_LuAl4Cu2Si
_symmetry_space_group_name_H-M   'P 1'
_cell_length_a   5.82649100
_cell_length_b   5.82649100
_cell_length_c   7.87660200
_cell_angle_alpha   90.00000000
_cell_angle_beta   90.00000000
_cell_angle_gamma   90.00000000
_symmetry_Int_Tables_number   1
_chemical_formula_structural   LuAl4Cu2Si
_chemical_formula_sum   'Lu2 Al8 Cu4 Si2'
_cell_volume   267.39486400
_cell_formula_units_Z   2
loop_
 _symmetry_equiv_pos_site_id
 _symmetry_equiv_pos_as_xyz
  1  'x, y, z'
loop_
 _atom_site_type_symbol
 _atom_site_label
 _atom_site_symmetry_multiplicity
 _atom_site_fract_x
 _atom_site_fract_y
 _atom_site_fract_z
 _atom_site_occupancy
  Lu  Lu0  1  0.750000  0.250000  0.500000  1
  Lu  Lu1  1  0.250000  0.750000  0.500000  1
  Al  Al2  1  0.494449  0.494449  0.176263  1
  Al  Al3  1  0.005551  0.494449  0.176263  1
  Al  Al4  1  0.494449  0.005551  0.176263  1
  Al  Al5  1  0.005551  0.005551  0.176263  1
  Al  Al6  1  0.994449  0.994449  0.823738  1
  Al  Al7  1  0.505550  0.994449  0.823738  1
  Al  Al8  1  0.994449  0.505550  0.823738  1
  Al  Al9  1  0.505550  0.505550  0.823738  1
  Cu  Cu10  1  0.750000  0.250000  0.000000  1
  Cu  Cu11  1  0.250000  0.750000  0.000000  1
  Cu  Cu12  1  0.250000  0.250000  0.354424  1
  Cu  Cu13  1  0.750000  0.750000  0.645575  1
  Si  Si14  1  0.750000  0.750000  0.360508  1
  Si  Si15  1  0.250000  0.250000  0.639491  1
