# generated using pymatgen
data_Pa4AgTe12
_symmetry_space_group_name_H-M   'P 1'
_cell_length_a   7.52494712
_cell_length_b   7.52494739
_cell_length_c   11.50544944
_cell_angle_alpha   71.38188745
_cell_angle_beta   71.38188715
_cell_angle_gamma   68.27036230
_symmetry_Int_Tables_number   1
_chemical_formula_structural   Pa4AgTe12
_chemical_formula_sum   'Pa4 Ag1 Te12'
_cell_volume   558.36923782
_cell_formula_units_Z   1
loop_
 _symmetry_equiv_pos_site_id
 _symmetry_equiv_pos_as_xyz
  1  'x, y, z'
loop_
 _atom_site_type_symbol
 _atom_site_label
 _atom_site_symmetry_multiplicity
 _atom_site_fract_x
 _atom_site_fract_y
 _atom_site_fract_z
 _atom_site_occupancy
  Pa  Pa0  1  0.808203  0.808203  0.836044  1
  Pa  Pa1  1  0.311554  0.311554  0.839749  1
  Pa  Pa2  1  0.693721  0.188225  0.163507  1
  Pa  Pa3  1  0.188225  0.693721  0.163507  1
  Ag  Ag4  1  0.819089  0.819089  0.527147  1
  Te  Te5  1  0.023583  0.023583  0.309816  1
  Te  Te6  1  0.505423  0.505423  0.321118  1
  Te  Te7  1  0.473915  0.990686  0.686511  1
  Te  Te8  1  0.990686  0.473915  0.686511  1
  Te  Te9  1  0.264030  0.264030  0.322052  1
  Te  Te10  1  0.755389  0.755389  0.314185  1
  Te  Te11  1  0.237394  0.737680  0.682707  1
  Te  Te12  1  0.737680  0.237394  0.682707  1
  Te  Te13  1  0.020659  0.020659  0.945174  1
  Te  Te14  1  0.519647  0.519647  0.946247  1
  Te  Te15  1  0.483087  0.979013  0.053710  1
  Te  Te16  1  0.979013  0.483087  0.053710  1
