# generated using pymatgen
data_NiSb2Cl2O3
_symmetry_space_group_name_H-M   'P 1'
_cell_length_a   7.87521981
_cell_length_b   8.84507672
_cell_length_c   10.70256942
_cell_angle_alpha   65.98899357
_cell_angle_beta   81.80583956
_cell_angle_gamma   93.65641619
_symmetry_Int_Tables_number   1
_chemical_formula_structural   NiSb2Cl2O3
_chemical_formula_sum   'Ni4 Sb8 Cl8 O12'
_cell_volume   667.90367072
_cell_formula_units_Z   4
loop_
 _symmetry_equiv_pos_site_id
 _symmetry_equiv_pos_as_xyz
  1  'x, y, z'
loop_
 _atom_site_type_symbol
 _atom_site_label
 _atom_site_symmetry_multiplicity
 _atom_site_fract_x
 _atom_site_fract_y
 _atom_site_fract_z
 _atom_site_occupancy
  Ni  Ni0  1  0.522180  0.609060  0.089412  1
  Ni  Ni1  1  0.478466  0.890859  0.410750  1
  Ni  Ni2  1  0.521366  0.108742  0.589804  1
  Ni  Ni3  1  0.477867  0.391266  0.910325  1
  Sb  Sb4  1  0.698215  0.045311  0.924337  1
  Sb  Sb5  1  0.698231  0.545015  0.424486  1
  Sb  Sb6  1  0.301880  0.954746  0.075652  1
  Sb  Sb7  1  0.301733  0.454883  0.575501  1
  Sb  Sb8  1  0.711177  0.792745  0.734526  1
  Sb  Sb9  1  0.711137  0.292620  0.234660  1
  Sb  Sb10  1  0.288970  0.207285  0.265364  1
  Sb  Sb11  1  0.288722  0.707244  0.765506  1
  Cl  Cl12  1  0.771008  0.936538  0.289801  1
  Cl  Cl13  1  0.770776  0.436689  0.789591  1
  Cl  Cl14  1  0.228761  0.063360  0.710483  1
  Cl  Cl15  1  0.229316  0.563505  0.210095  1
  Cl  Cl16  1  0.840429  0.212401  0.468334  1
  Cl  Cl17  1  0.840556  0.712318  0.968173  1
  Cl  Cl18  1  0.159535  0.787690  0.531721  1
  Cl  Cl19  1  0.159566  0.287705  0.031615  1
  O  O20  1  0.478875  0.652606  0.436270  1
  O  O21  1  0.478780  0.152653  0.936236  1
  O  O22  1  0.521041  0.347273  0.563721  1
  O  O23  1  0.521362  0.847408  0.063690  1
  O  O24  1  0.358469  0.003396  0.234601  1
  O  O25  1  0.358256  0.503488  0.734506  1
  O  O26  1  0.641654  0.996580  0.765403  1
  O  O27  1  0.641748  0.496604  0.265391  1
  O  O28  1  0.497606  0.145703  0.381967  1
  O  O29  1  0.497668  0.645750  0.881854  1
  O  O30  1  0.502206  0.854292  0.618173  1
  O  O31  1  0.502439  0.354263  0.118050  1
