# generated using pymatgen
data_Ba4LuWO8
_symmetry_space_group_name_H-M   'P 1'
_cell_length_a   7.40341466
_cell_length_b   7.40341238
_cell_length_c   5.99954900
_cell_angle_alpha   90.00000000
_cell_angle_beta   90.00000000
_cell_angle_gamma   132.20414158
_symmetry_Int_Tables_number   1
_chemical_formula_structural   Ba4LuWO8
_chemical_formula_sum   'Ba4 Lu1 W1 O8'
_cell_volume   243.58908336
_cell_formula_units_Z   1
loop_
 _symmetry_equiv_pos_site_id
 _symmetry_equiv_pos_as_xyz
  1  'x, y, z'
loop_
 _atom_site_type_symbol
 _atom_site_label
 _atom_site_symmetry_multiplicity
 _atom_site_fract_x
 _atom_site_fract_y
 _atom_site_fract_z
 _atom_site_occupancy
  Ba  Ba0  1  0.354523  0.645477  0.000000  1
  Ba  Ba1  1  0.856356  0.143644  0.500000  1
  Ba  Ba2  1  0.143644  0.856356  0.500000  1
  Ba  Ba3  1  0.645477  0.354523  0.000000  1
  Lu  Lu4  1  0.000000  0.000000  0.000000  1
  W  W5  1  0.500000  0.500000  0.500000  1
  O  O6  1  0.256095  0.256095  0.737603  1
  O  O7  1  0.743905  0.743905  0.262397  1
  O  O8  1  0.743905  0.743905  0.737603  1
  O  O9  1  0.256095  0.256095  0.262397  1
  O  O10  1  0.163822  0.836178  0.000000  1
  O  O11  1  0.647064  0.352936  0.500000  1
  O  O12  1  0.352936  0.647064  0.500000  1
  O  O13  1  0.836178  0.163822  0.000000  1
