# generated using pymatgen
data_Ho16NiAg4Ir3
_symmetry_space_group_name_H-M   'P 1'
_cell_length_a   9.40652222
_cell_length_b   9.40652354
_cell_length_c   9.40652381
_cell_angle_alpha   60.92856838
_cell_angle_beta   60.92856405
_cell_angle_gamma   60.92856753
_symmetry_Int_Tables_number   1
_chemical_formula_structural   Ho16NiAg4Ir3
_chemical_formula_sum   'Ho16 Ni1 Ag4 Ir3'
_cell_volume   600.85078215
_cell_formula_units_Z   1
loop_
 _symmetry_equiv_pos_site_id
 _symmetry_equiv_pos_as_xyz
  1  'x, y, z'
loop_
 _atom_site_type_symbol
 _atom_site_label
 _atom_site_symmetry_multiplicity
 _atom_site_fract_x
 _atom_site_fract_y
 _atom_site_fract_z
 _atom_site_occupancy
  Ho  Ho0  1  0.603674  0.603674  0.603674  1
  Ho  Ho1  1  0.600615  0.600615  0.192007  1
  Ho  Ho2  1  0.600615  0.192007  0.600615  1
  Ho  Ho3  1  0.192007  0.600615  0.600615  1
  Ho  Ho4  1  0.063843  0.438184  0.438184  1
  Ho  Ho5  1  0.437526  0.061744  0.061744  1
  Ho  Ho6  1  0.438184  0.063843  0.438184  1
  Ho  Ho7  1  0.061744  0.437526  0.061744  1
  Ho  Ho8  1  0.438184  0.438184  0.063843  1
  Ho  Ho9  1  0.061744  0.061744  0.437526  1
  Ho  Ho10  1  0.186552  0.812637  0.812637  1
  Ho  Ho11  1  0.816071  0.186007  0.186007  1
  Ho  Ho12  1  0.812637  0.186552  0.812637  1
  Ho  Ho13  1  0.186007  0.816071  0.186007  1
  Ho  Ho14  1  0.812637  0.812637  0.186552  1
  Ho  Ho15  1  0.186007  0.186007  0.816071  1
  Ni  Ni16  1  0.392020  0.392020  0.392020  1
  Ag  Ag17  1  0.832651  0.832651  0.832651  1
  Ag  Ag18  1  0.833447  0.833447  0.503721  1
  Ag  Ag19  1  0.833447  0.503721  0.833447  1
  Ag  Ag20  1  0.503721  0.833447  0.833447  1
  Ir  Ir21  1  0.393458  0.393458  0.819754  1
  Ir  Ir22  1  0.393458  0.819754  0.393458  1
  Ir  Ir23  1  0.819754  0.393458  0.393458  1
