# generated using pymatgen
data_Dy3BiIr3RhO14
_symmetry_space_group_name_H-M   'P 1'
_cell_length_a   7.29338924
_cell_length_b   7.27917900
_cell_length_c   7.27917867
_cell_angle_alpha   59.73993617
_cell_angle_beta   59.88160639
_cell_angle_gamma   59.88160165
_symmetry_Int_Tables_number   1
_chemical_formula_structural   Dy3BiIr3RhO14
_chemical_formula_sum   'Dy3 Bi1 Ir3 Rh1 O14'
_cell_volume   272.23368269
_cell_formula_units_Z   1
loop_
 _symmetry_equiv_pos_site_id
 _symmetry_equiv_pos_as_xyz
  1  'x, y, z'
loop_
 _atom_site_type_symbol
 _atom_site_label
 _atom_site_symmetry_multiplicity
 _atom_site_fract_x
 _atom_site_fract_y
 _atom_site_fract_z
 _atom_site_occupancy
  Dy  Dy0  1  0.125000  0.625000  0.125000  1
  Dy  Dy1  1  0.625000  0.125000  0.125000  1
  Dy  Dy2  1  0.125000  0.125000  0.625000  1
  Bi  Bi3  1  0.125000  0.125000  0.125000  1
  Ir  Ir4  1  0.625000  0.625000  0.625000  1
  Ir  Ir5  1  0.625000  0.625000  0.125000  1
  Ir  Ir6  1  0.625000  0.125000  0.625000  1
  Rh  Rh7  1  0.125000  0.625000  0.625000  1
  O  O8  1  0.254607  0.252793  0.252793  1
  O  O9  1  0.291244  0.706195  0.285856  1
  O  O10  1  0.958756  0.964144  0.543805  1
  O  O11  1  0.541171  0.960908  0.536819  1
  O  O12  1  0.708829  0.713181  0.289092  1
  O  O13  1  0.960155  0.537015  0.537015  1
  O  O14  1  0.708829  0.289092  0.713181  1
  O  O15  1  0.291244  0.285856  0.706195  1
  O  O16  1  0.702498  0.290606  0.290606  1
  O  O17  1  0.289845  0.712985  0.712985  1
  O  O18  1  0.958756  0.543805  0.964144  1
  O  O19  1  0.541171  0.536819  0.960908  1
  O  O20  1  0.995393  0.997207  0.997207  1
  O  O21  1  0.547502  0.959394  0.959394  1
