# generated using pymatgen
data_Pr9Y(IrPt)3
_symmetry_space_group_name_H-M   'P 1'
_cell_length_a   11.46906768
_cell_length_b   11.45745400
_cell_length_c   6.54585286
_cell_angle_alpha   90.00000000
_cell_angle_beta   90.15830859
_cell_angle_gamma   90.00000000
_symmetry_Int_Tables_number   1
_chemical_formula_structural   Pr9Y(IrPt)3
_chemical_formula_sum   'Pr18 Y2 Ir6 Pt6'
_cell_volume   860.16312188
_cell_formula_units_Z   2
loop_
 _symmetry_equiv_pos_site_id
 _symmetry_equiv_pos_as_xyz
  1  'x, y, z'
loop_
 _atom_site_type_symbol
 _atom_site_label
 _atom_site_symmetry_multiplicity
 _atom_site_fract_x
 _atom_site_fract_y
 _atom_site_fract_z
 _atom_site_occupancy
  Pr  Pr0  1  0.295373  0.092028  0.374950  1
  Pr  Pr1  1  0.295373  0.907972  0.874950  1
  Pr  Pr2  1  0.703820  0.088439  0.874143  1
  Pr  Pr3  1  0.703820  0.911561  0.374143  1
  Pr  Pr4  1  0.585067  0.789150  0.875407  1
  Pr  Pr5  1  0.585067  0.210850  0.375407  1
  Pr  Pr6  1  0.409544  0.790479  0.381374  1
  Pr  Pr7  1  0.409544  0.209521  0.881374  1
  Pr  Pr8  1  0.212447  0.412926  0.619976  1
  Pr  Pr9  1  0.212447  0.587074  0.119976  1
  Pr  Pr10  1  0.792552  0.411188  0.123227  1
  Pr  Pr11  1  0.792552  0.588812  0.623227  1
  Pr  Pr12  1  0.912755  0.704701  0.125283  1
  Pr  Pr13  1  0.912755  0.295299  0.625283  1
  Pr  Pr14  1  0.093363  0.703712  0.625742  1
  Pr  Pr15  1  0.093363  0.296288  0.125742  1
  Pr  Pr16  1  0.999844  0.998784  0.499910  1
  Pr  Pr17  1  0.999844  0.001216  0.999910  1
  Y  Y18  1  0.496774  0.498721  0.000201  1
  Y  Y19  1  0.496774  0.501279  0.500201  1
  Ir  Ir20  1  0.353043  0.351761  0.250072  1
  Ir  Ir21  1  0.353043  0.648239  0.750072  1
  Ir  Ir22  1  0.500122  0.998927  0.115018  1
  Ir  Ir23  1  0.500122  0.001073  0.615018  1
  Ir  Ir24  1  0.999009  0.500183  0.884959  1
  Ir  Ir25  1  0.999009  0.499817  0.384959  1
  Pt  Pt26  1  0.844649  0.154286  0.250123  1
  Pt  Pt27  1  0.844649  0.845714  0.750123  1
  Pt  Pt28  1  0.153547  0.154661  0.749356  1
  Pt  Pt29  1  0.153547  0.845339  0.249356  1
  Pt  Pt30  1  0.648092  0.352644  0.750262  1
  Pt  Pt31  1  0.648092  0.647356  0.250262  1
