# generated using pymatgen
data_Ce2Ho6Si12Ir3Rh
_symmetry_space_group_name_H-M   'P 1'
_cell_length_a   8.16215800
_cell_length_b   8.16215785
_cell_length_c   7.97968100
_cell_angle_alpha   90.00000000
_cell_angle_beta   90.00000000
_cell_angle_gamma   120.00000062
_symmetry_Int_Tables_number   1
_chemical_formula_structural   Ce2Ho6Si12Ir3Rh
_chemical_formula_sum   'Ce2 Ho6 Si12 Ir3 Rh1'
_cell_volume   460.39027973
_cell_formula_units_Z   1
loop_
 _symmetry_equiv_pos_site_id
 _symmetry_equiv_pos_as_xyz
  1  'x, y, z'
loop_
 _atom_site_type_symbol
 _atom_site_label
 _atom_site_symmetry_multiplicity
 _atom_site_fract_x
 _atom_site_fract_y
 _atom_site_fract_z
 _atom_site_occupancy
  Ce  Ce0  1  0.000000  0.000000  0.249047  1
  Ce  Ce1  1  0.000000  0.000000  0.750219  1
  Ho  Ho2  1  0.509604  0.490396  0.250290  1
  Ho  Ho3  1  0.509604  0.019209  0.250290  1
  Ho  Ho4  1  0.980791  0.490396  0.250290  1
  Ho  Ho5  1  0.491296  0.508704  0.749722  1
  Ho  Ho6  1  0.491296  0.982591  0.749722  1
  Ho  Ho7  1  0.017409  0.508704  0.749722  1
  Si  Si8  1  0.167149  0.832851  0.500035  1
  Si  Si9  1  0.167149  0.334296  0.500035  1
  Si  Si10  1  0.665704  0.832851  0.500035  1
  Si  Si11  1  0.832900  0.167100  0.499453  1
  Si  Si12  1  0.832900  0.665801  0.499453  1
  Si  Si13  1  0.334199  0.167100  0.499453  1
  Si  Si14  1  0.833089  0.166911  0.000255  1
  Si  Si15  1  0.833089  0.666179  0.000255  1
  Si  Si16  1  0.333821  0.166911  0.000255  1
  Si  Si17  1  0.167813  0.832187  0.998859  1
  Si  Si18  1  0.167813  0.335623  0.998859  1
  Si  Si19  1  0.664377  0.832187  0.998859  1
  Ir  Ir20  1  0.333333  0.666667  0.469879  1
  Ir  Ir21  1  0.666667  0.333333  0.531872  1
  Ir  Ir22  1  0.666667  0.333333  0.967597  1
  Rh  Rh23  1  0.333333  0.666667  0.035548  1
