# generated using pymatgen
data_Nb8TcRu4W3
_symmetry_space_group_name_H-M   'P 1'
_cell_length_a   6.39248100
_cell_length_b   6.39409200
_cell_length_c   6.47821800
_cell_angle_alpha   89.99902060
_cell_angle_beta   90.00211023
_cell_angle_gamma   90.00039433
_symmetry_Int_Tables_number   1
_chemical_formula_structural   Nb8TcRu4W3
_chemical_formula_sum   'Nb8 Tc1 Ru4 W3'
_cell_volume   264.79140553
_cell_formula_units_Z   1
loop_
 _symmetry_equiv_pos_site_id
 _symmetry_equiv_pos_as_xyz
  1  'x, y, z'
loop_
 _atom_site_type_symbol
 _atom_site_label
 _atom_site_symmetry_multiplicity
 _atom_site_fract_x
 _atom_site_fract_y
 _atom_site_fract_z
 _atom_site_occupancy
  Nb  Nb0  1  0.000311  0.000101  0.250103  1
  Nb  Nb1  1  0.000328  0.499937  0.250114  1
  Nb  Nb2  1  0.500046  0.000069  0.250164  1
  Nb  Nb3  1  0.500062  0.499892  0.250156  1
  Nb  Nb4  1  0.499674  0.000117  0.749853  1
  Nb  Nb5  1  0.499656  0.499927  0.749849  1
  Nb  Nb6  1  0.999966  0.000076  0.749885  1
  Nb  Nb7  1  0.999950  0.499884  0.749886  1
  Tc  Tc8  1  0.250082  0.250001  0.999980  1
  Ru  Ru9  1  0.750046  0.249998  0.999998  1
  Ru  Ru10  1  0.249931  0.750000  0.999999  1
  Ru  Ru11  1  0.250068  0.750000  0.499997  1
  Ru  Ru12  1  0.749942  0.249999  0.500003  1
  W  W13  1  0.749935  0.749997  0.000018  1
  W  W14  1  0.249946  0.249998  0.500002  1
  W  W15  1  0.750055  0.750001  0.499996  1
