# generated using pymatgen
data_Ho2Er6Tc3B24Ru
_symmetry_space_group_name_H-M   'P 1'
_cell_length_a   3.65444500
_cell_length_b   9.11428399
_cell_length_c   11.49357400
_cell_angle_alpha   89.91984609
_cell_angle_beta   90.00000000
_cell_angle_gamma   90.00000000
_symmetry_Int_Tables_number   1
_chemical_formula_structural   Ho2Er6Tc3B24Ru
_chemical_formula_sum   'Ho2 Er6 Tc3 B24 Ru1'
_cell_volume   382.82356014
_cell_formula_units_Z   1
loop_
 _symmetry_equiv_pos_site_id
 _symmetry_equiv_pos_as_xyz
  1  'x, y, z'
loop_
 _atom_site_type_symbol
 _atom_site_label
 _atom_site_symmetry_multiplicity
 _atom_site_fract_x
 _atom_site_fract_y
 _atom_site_fract_z
 _atom_site_occupancy
  Ho  Ho0  1  0.000000  0.323621  0.413884  1
  Ho  Ho1  1  0.000000  0.675107  0.584090  1
  Er  Er2  1  0.000000  0.823046  0.087327  1
  Er  Er3  1  0.000000  0.177921  0.914473  1
  Er  Er4  1  0.000000  0.942732  0.370161  1
  Er  Er5  1  0.000000  0.057607  0.630625  1
  Er  Er6  1  0.000000  0.443212  0.129947  1
  Er  Er7  1  0.000000  0.557647  0.869369  1
  Tc  Tc8  1  0.000000  0.638644  0.320403  1
  Tc  Tc9  1  0.000000  0.361362  0.680215  1
  Tc  Tc10  1  0.000000  0.138029  0.178226  1
  B  B11  1  0.500000  0.553093  0.432907  1
  B  B12  1  0.500000  0.446604  0.566840  1
  B  B13  1  0.500000  0.053009  0.066579  1
  B  B14  1  0.500000  0.946123  0.932959  1
  B  B15  1  0.500000  0.748966  0.418885  1
  B  B16  1  0.500000  0.250459  0.581310  1
  B  B17  1  0.500000  0.249529  0.080846  1
  B  B18  1  0.500000  0.751265  0.918756  1
  B  B19  1  0.500000  0.792209  0.265441  1
  B  B20  1  0.500000  0.207959  0.735364  1
  B  B21  1  0.500000  0.292074  0.234488  1
  B  B22  1  0.500000  0.708921  0.765286  1
  B  B23  1  0.500000  0.631306  0.185247  1
  B  B24  1  0.500000  0.368873  0.815294  1
  B  B25  1  0.500000  0.130555  0.314255  1
  B  B26  1  0.500000  0.868763  0.685570  1
  B  B27  1  0.500000  0.981575  0.211841  1
  B  B28  1  0.500000  0.016931  0.788298  1
  B  B29  1  0.500000  0.482076  0.287735  1
  B  B30  1  0.500000  0.517805  0.711925  1
  B  B31  1  0.500000  0.602372  0.028090  1
  B  B32  1  0.500000  0.399354  0.971632  1
  B  B33  1  0.500000  0.101370  0.472109  1
  B  B34  1  0.500000  0.898327  0.528670  1
  Ru  Ru35  1  0.000000  0.861556  0.820951  1
