# generated using pymatgen
data_Gd2Ho5Er(WO6)4
_symmetry_space_group_name_H-M   'P 1'
_cell_length_a   5.40428101
_cell_length_b   7.71116730
_cell_length_c   11.48031033
_cell_angle_alpha   75.35559394
_cell_angle_beta   90.00052546
_cell_angle_gamma   89.99293755
_symmetry_Int_Tables_number   1
_chemical_formula_structural   Gd2Ho5Er(WO6)4
_chemical_formula_sum   'Gd2 Ho5 Er1 W4 O24'
_cell_volume   462.88031817
_cell_formula_units_Z   1
loop_
 _symmetry_equiv_pos_site_id
 _symmetry_equiv_pos_as_xyz
  1  'x, y, z'
loop_
 _atom_site_type_symbol
 _atom_site_label
 _atom_site_symmetry_multiplicity
 _atom_site_fract_x
 _atom_site_fract_y
 _atom_site_fract_z
 _atom_site_occupancy
  Gd  Gd0  1  0.684893  0.499991  0.250001  1
  Gd  Gd1  1  0.315140  0.499924  0.750075  1
  Ho  Ho2  1  0.184067  0.204557  0.422371  1
  Ho  Ho3  1  0.184052  0.795500  0.077602  1
  Ho  Ho4  1  0.815920  0.795434  0.577628  1
  Ho  Ho5  1  0.741358  0.000018  0.249949  1
  Ho  Ho6  1  0.258644  0.000038  0.750045  1
  Er  Er7  1  0.815896  0.204713  0.922261  1
  W  W8  1  0.255614  0.274516  0.115098  1
  W  W9  1  0.255629  0.725466  0.384812  1
  W  W10  1  0.744349  0.725416  0.884831  1
  W  W11  1  0.744412  0.274525  0.615242  1
  O  O12  1  0.457278  0.206240  0.273459  1
  O  O13  1  0.457280  0.793746  0.226516  1
  O  O14  1  0.542707  0.793726  0.726519  1
  O  O15  1  0.543244  0.206194  0.773812  1
  O  O16  1  0.043481  0.059619  0.104162  1
  O  O17  1  0.043702  0.940521  0.395665  1
  O  O18  1  0.955947  0.941069  0.895719  1
  O  O19  1  0.956314  0.059496  0.604323  1
  O  O20  1  0.982961  0.285406  0.229590  1
  O  O21  1  0.982929  0.714586  0.270414  1
  O  O22  1  0.017072  0.714641  0.770434  1
  O  O23  1  0.016866  0.285309  0.729830  1
  O  O24  1  0.851292  0.363339  0.452573  1
  O  O25  1  0.851291  0.636675  0.047413  1
  O  O26  1  0.148721  0.636656  0.547425  1
  O  O27  1  0.148016  0.363030  0.952519  1
  O  O28  1  0.644116  0.509295  0.613579  1
  O  O29  1  0.644457  0.490285  0.886470  1
  O  O30  1  0.355885  0.490689  0.386406  1
  O  O31  1  0.355839  0.509267  0.113568  1
  O  O32  1  0.464316  0.153806  0.569663  1
  O  O33  1  0.464278  0.846162  0.930367  1
  O  O34  1  0.535692  0.846227  0.430372  1
  O  O35  1  0.536342  0.153921  0.069287  1
