# generated using pymatgen
data_Yb11Sm(GeIr)8
_symmetry_space_group_name_H-M   'P 1'
_cell_length_a   5.70095691
_cell_length_b   7.59640347
_cell_length_c   13.32157100
_cell_angle_alpha   89.84390802
_cell_angle_beta   90.37160890
_cell_angle_gamma   90.45290819
_symmetry_Int_Tables_number   1
_chemical_formula_structural   Yb11Sm(GeIr)8
_chemical_formula_sum   'Yb11 Sm1 Ge8 Ir8'
_cell_volume   576.88197671
_cell_formula_units_Z   1
loop_
 _symmetry_equiv_pos_site_id
 _symmetry_equiv_pos_as_xyz
  1  'x, y, z'
loop_
 _atom_site_type_symbol
 _atom_site_label
 _atom_site_symmetry_multiplicity
 _atom_site_fract_x
 _atom_site_fract_y
 _atom_site_fract_z
 _atom_site_occupancy
  Yb  Yb0  1  0.625366  0.246791  0.251818  1
  Yb  Yb1  1  0.372944  0.755898  0.749252  1
  Yb  Yb2  1  0.372564  0.743312  0.252152  1
  Yb  Yb3  1  0.628624  0.255715  0.749349  1
  Yb  Yb4  1  0.140661  0.396163  0.096239  1
  Yb  Yb5  1  0.852787  0.600276  0.899674  1
  Yb  Yb6  1  0.856612  0.605242  0.597084  1
  Yb  Yb7  1  0.852731  0.896680  0.403150  1
  Yb  Yb8  1  0.143360  0.396027  0.404103  1
  Yb  Yb9  1  0.144678  0.103796  0.597167  1
  Yb  Yb10  1  0.150528  0.105186  0.901086  1
  Sm  Sm11  1  0.853724  0.892705  0.095811  1
  Ge  Ge12  1  0.132947  0.093861  0.250966  1
  Ge  Ge13  1  0.868662  0.905055  0.750232  1
  Ge  Ge14  1  0.867229  0.597651  0.251191  1
  Ge  Ge15  1  0.135810  0.403297  0.749172  1
  Ge  Ge16  1  0.622263  0.251470  0.000031  1
  Ge  Ge17  1  0.373408  0.749069  0.998320  1
  Ge  Ge18  1  0.384272  0.749484  0.499292  1
  Ge  Ge19  1  0.617660  0.250493  0.501166  1
  Ir  Ir20  1  0.360067  0.033041  0.094595  1
  Ir  Ir21  1  0.642470  0.966481  0.906508  1
  Ir  Ir22  1  0.641233  0.967665  0.594025  1
  Ir  Ir23  1  0.642206  0.532073  0.407156  1
  Ir  Ir24  1  0.356337  0.033506  0.407658  1
  Ir  Ir25  1  0.359688  0.467825  0.593609  1
  Ir  Ir26  1  0.361020  0.465571  0.906159  1
  Ir  Ir27  1  0.640147  0.535669  0.093034  1
