# generated using pymatgen
data_Lu8Sc4Co4TcSb
_symmetry_space_group_name_H-M   'P 1'
_cell_length_a   7.98836586
_cell_length_b   7.98836443
_cell_length_c   7.98836586
_cell_angle_alpha   111.33032211
_cell_angle_beta   111.04067445
_cell_angle_gamma   106.09466033
_symmetry_Int_Tables_number   1
_chemical_formula_structural   Lu8Sc4Co4TcSb
_chemical_formula_sum   'Lu8 Sc4 Co4 Tc1 Sb1'
_cell_volume   391.40357930
_cell_formula_units_Z   1
loop_
 _symmetry_equiv_pos_site_id
 _symmetry_equiv_pos_as_xyz
  1  'x, y, z'
loop_
 _atom_site_type_symbol
 _atom_site_label
 _atom_site_symmetry_multiplicity
 _atom_site_fract_x
 _atom_site_fract_y
 _atom_site_fract_z
 _atom_site_occupancy
  Lu  Lu0  1  0.185054  0.276693  0.461748  1
  Lu  Lu1  1  0.814946  0.723307  0.538252  1
  Lu  Lu2  1  0.185054  0.723307  0.908362  1
  Lu  Lu3  1  0.814946  0.276693  0.091638  1
  Lu  Lu4  1  0.310489  0.615599  0.305111  1
  Lu  Lu5  1  0.689511  0.384401  0.694889  1
  Lu  Lu6  1  0.310489  0.005378  0.694889  1
  Lu  Lu7  1  0.689511  0.994622  0.305111  1
  Sc  Sc8  1  0.416725  0.218946  0.197778  1
  Sc  Sc9  1  0.583275  0.781054  0.802222  1
  Sc  Sc10  1  0.021168  0.218946  0.802222  1
  Sc  Sc11  1  0.978832  0.781054  0.197778  1
  Co  Co12  1  0.368895  0.000000  0.368895  1
  Co  Co13  1  0.631105  0.000000  0.631105  1
  Co  Co14  1  0.113207  0.613207  0.500000  1
  Co  Co15  1  0.886793  0.386793  0.500000  1
  Tc  Tc16  1  0.000000  0.000000  0.000000  1
  Sb  Sb17  1  0.500000  0.500000  0.000000  1
