# generated using pymatgen
data_Tm3Zr(Rh5Pb)2
_symmetry_space_group_name_H-M   'P 1'
_cell_length_a   5.73433571
_cell_length_b   5.73433509
_cell_length_c   8.46207301
_cell_angle_alpha   89.99728369
_cell_angle_beta   89.99728489
_cell_angle_gamma   96.29678508
_symmetry_Int_Tables_number   1
_chemical_formula_structural   Tm3Zr(Rh5Pb)2
_chemical_formula_sum   'Tm3 Zr1 Rh10 Pb2'
_cell_volume   276.57630046
_cell_formula_units_Z   1
loop_
 _symmetry_equiv_pos_site_id
 _symmetry_equiv_pos_as_xyz
  1  'x, y, z'
loop_
 _atom_site_type_symbol
 _atom_site_label
 _atom_site_symmetry_multiplicity
 _atom_site_fract_x
 _atom_site_fract_y
 _atom_site_fract_z
 _atom_site_occupancy
  Tm  Tm0  1  0.778324  0.221676  0.500000  1
  Tm  Tm1  1  0.221772  0.778228  0.000000  1
  Tm  Tm2  1  0.221999  0.778001  0.500000  1
  Zr  Zr3  1  0.783676  0.216324  0.000000  1
  Rh  Rh4  1  0.736037  0.738434  0.000695  1
  Rh  Rh5  1  0.736972  0.737080  0.499204  1
  Rh  Rh6  1  0.261566  0.263963  0.999305  1
  Rh  Rh7  1  0.262920  0.263028  0.500796  1
  Rh  Rh8  1  0.502563  0.003204  0.754232  1
  Rh  Rh9  1  0.502957  0.001985  0.245849  1
  Rh  Rh10  1  0.997944  0.002876  0.246034  1
  Rh  Rh11  1  0.997124  0.002056  0.753966  1
  Rh  Rh12  1  0.998015  0.497043  0.754151  1
  Rh  Rh13  1  0.996796  0.497437  0.245768  1
  Pb  Pb14  1  0.502185  0.500850  0.750635  1
  Pb  Pb15  1  0.499150  0.497815  0.249365  1
