# generated using pymatgen
data_Tb4Fe3CoTe2
_symmetry_space_group_name_H-M   'P 1'
_cell_length_a   3.96872000
_cell_length_b   3.96872007
_cell_length_c   16.34299400
_cell_angle_alpha   90.00000000
_cell_angle_beta   90.00000000
_cell_angle_gamma   119.99998274
_symmetry_Int_Tables_number   1
_chemical_formula_structural   Tb4Fe3CoTe2
_chemical_formula_sum   'Tb4 Fe3 Co1 Te2'
_cell_volume   222.92729988
_cell_formula_units_Z   1
loop_
 _symmetry_equiv_pos_site_id
 _symmetry_equiv_pos_as_xyz
  1  'x, y, z'
loop_
 _atom_site_type_symbol
 _atom_site_label
 _atom_site_symmetry_multiplicity
 _atom_site_fract_x
 _atom_site_fract_y
 _atom_site_fract_z
 _atom_site_occupancy
  Tb  Tb0  1  0.000000  0.000000  0.117297  1
  Tb  Tb1  1  0.000000  0.000000  0.617549  1
  Tb  Tb2  1  0.000000  0.000000  0.382870  1
  Tb  Tb3  1  0.000000  0.000000  0.882752  1
  Fe  Fe4  1  0.666667  0.333333  0.998060  1
  Fe  Fe5  1  0.333333  0.666667  0.001970  1
  Fe  Fe6  1  0.666667  0.333333  0.503176  1
  Co  Co7  1  0.333333  0.666667  0.496210  1
  Te  Te8  1  0.666667  0.333333  0.250598  1
  Te  Te9  1  0.333333  0.666667  0.749518  1
