# generated using pymatgen
data_Mn4Al2Pd9Pt
_symmetry_space_group_name_H-M   'P 1'
_cell_length_a   4.10065700
_cell_length_b   5.45983001
_cell_length_c   10.68963902
_cell_angle_alpha   90.00646421
_cell_angle_beta   90.00000000
_cell_angle_gamma   90.00000000
_symmetry_Int_Tables_number   1
_chemical_formula_structural   Mn4Al2Pd9Pt
_chemical_formula_sum   'Mn4 Al2 Pd9 Pt1'
_cell_volume   239.32915211
_cell_formula_units_Z   1
loop_
 _symmetry_equiv_pos_site_id
 _symmetry_equiv_pos_as_xyz
  1  'x, y, z'
loop_
 _atom_site_type_symbol
 _atom_site_label
 _atom_site_symmetry_multiplicity
 _atom_site_fract_x
 _atom_site_fract_y
 _atom_site_fract_z
 _atom_site_occupancy
  Mn  Mn0  1  0.500000  0.175998  0.361921  1
  Mn  Mn1  1  0.500000  0.823898  0.637854  1
  Mn  Mn2  1  0.500000  0.675860  0.137690  1
  Mn  Mn3  1  0.500000  0.323943  0.862363  1
  Al  Al4  1  0.000000  0.000404  0.000161  1
  Al  Al5  1  0.000000  0.500018  0.499965  1
  Pd  Pd6  1  0.500000  0.815755  0.891450  1
  Pd  Pd7  1  0.500000  0.683795  0.392006  1
  Pd  Pd8  1  0.500000  0.316249  0.608151  1
  Pd  Pd9  1  0.000000  0.999916  0.500077  1
  Pd  Pd10  1  0.000000  0.500539  0.999898  1
  Pd  Pd11  1  0.000000  0.917477  0.240183  1
  Pd  Pd12  1  0.000000  0.082329  0.760220  1
  Pd  Pd13  1  0.000000  0.417747  0.260509  1
  Pd  Pd14  1  0.000000  0.582480  0.739624  1
  Pt  Pt15  1  0.500000  0.183593  0.107930  1
