# generated using pymatgen
data_Pr5ErTl4In2O18
_symmetry_space_group_name_H-M   'P 1'
_cell_length_a   6.66393630
_cell_length_b   6.66416288
_cell_length_c   12.55735391
_cell_angle_alpha   90.02165770
_cell_angle_beta   90.02139521
_cell_angle_gamma   119.97220981
_symmetry_Int_Tables_number   1
_chemical_formula_structural   Pr5ErTl4In2O18
_chemical_formula_sum   'Pr5 Er1 Tl4 In2 O18'
_cell_volume   483.08842494
_cell_formula_units_Z   1
loop_
 _symmetry_equiv_pos_site_id
 _symmetry_equiv_pos_as_xyz
  1  'x, y, z'
loop_
 _atom_site_type_symbol
 _atom_site_label
 _atom_site_symmetry_multiplicity
 _atom_site_fract_x
 _atom_site_fract_y
 _atom_site_fract_z
 _atom_site_occupancy
  Pr  Pr0  1  0.331484  0.673570  0.232024  1
  Pr  Pr1  1  0.994843  0.000144  0.264119  1
  Pr  Pr2  1  0.005207  0.000249  0.768222  1
  Pr  Pr3  1  0.341854  0.673371  0.727658  1
  Pr  Pr4  1  0.668768  0.327143  0.729605  1
  Er  Er5  1  0.656786  0.324504  0.228261  1
  Tl  Tl6  1  0.996533  0.663538  0.493050  1
  Tl  Tl7  1  0.998502  0.335201  0.997765  1
  Tl  Tl8  1  0.336963  0.333860  0.493079  1
  Tl  Tl9  1  0.665255  0.662874  0.997837  1
  In  In10  1  0.335428  0.001474  0.998274  1
  In  In11  1  0.667814  0.003351  0.493456  1
  O  O12  1  0.004161  0.692794  0.666014  1
  O  O13  1  0.980173  0.625225  0.322703  1
  O  O14  1  0.004922  0.361150  0.826802  1
  O  O15  1  0.984199  0.310683  0.170275  1
  O  O16  1  0.333797  0.682248  0.030011  1
  O  O17  1  0.984658  0.000489  0.460305  1
  O  O18  1  0.015262  0.000105  0.967842  1
  O  O19  1  0.348667  0.682579  0.520762  1
  O  O20  1  0.310163  0.309426  0.666059  1
  O  O21  1  0.370650  0.358629  0.322667  1
  O  O22  1  0.313737  0.011766  0.170026  1
  O  O23  1  0.643694  0.639541  0.826895  1
  O  O24  1  0.685891  0.674985  0.170366  1
  O  O25  1  0.365670  0.000263  0.828401  1
  O  O26  1  0.666702  0.318330  0.528777  1
  O  O27  1  0.652066  0.318008  0.031433  1
  O  O28  1  0.636452  0.015999  0.324025  1
  O  O29  1  0.699700  0.998500  0.665806  1
