# generated using pymatgen
data_Sc2U2ReB12Mo
_symmetry_space_group_name_H-M   'P 1'
_cell_length_a   3.62226000
_cell_length_b   8.97673120
_cell_length_c   11.33398726
_cell_angle_alpha   90.02432828
_cell_angle_beta   90.00000000
_cell_angle_gamma   90.00000000
_symmetry_Int_Tables_number   1
_chemical_formula_structural   Sc2U2ReB12Mo
_chemical_formula_sum   'Sc4 U4 Re2 B24 Mo2'
_cell_volume   368.53651255
_cell_formula_units_Z   2
loop_
 _symmetry_equiv_pos_site_id
 _symmetry_equiv_pos_as_xyz
  1  'x, y, z'
loop_
 _atom_site_type_symbol
 _atom_site_label
 _atom_site_symmetry_multiplicity
 _atom_site_fract_x
 _atom_site_fract_y
 _atom_site_fract_z
 _atom_site_occupancy
  Sc  Sc0  1  0.000000  0.945549  0.374367  1
  Sc  Sc1  1  0.000000  0.054451  0.625633  1
  Sc  Sc2  1  0.000000  0.446031  0.125866  1
  Sc  Sc3  1  0.000000  0.553969  0.874134  1
  U  U4  1  0.000000  0.321695  0.414252  1
  U  U5  1  0.000000  0.678305  0.585748  1
  U  U6  1  0.000000  0.820893  0.086461  1
  U  U7  1  0.000000  0.179107  0.913539  1
  Re  Re8  1  0.000000  0.139867  0.179489  1
  Re  Re9  1  0.000000  0.860133  0.820511  1
  B  B10  1  0.500000  0.553066  0.434387  1
  B  B11  1  0.500000  0.446934  0.565613  1
  B  B12  1  0.500000  0.053586  0.065994  1
  B  B13  1  0.500000  0.946414  0.934006  1
  B  B14  1  0.500000  0.753135  0.420892  1
  B  B15  1  0.500000  0.246865  0.579108  1
  B  B16  1  0.500000  0.253175  0.080050  1
  B  B17  1  0.500000  0.746825  0.919950  1
  B  B18  1  0.500000  0.796244  0.263973  1
  B  B19  1  0.500000  0.203756  0.736027  1
  B  B20  1  0.500000  0.294708  0.235490  1
  B  B21  1  0.500000  0.705292  0.764510  1
  B  B22  1  0.500000  0.631368  0.181706  1
  B  B23  1  0.500000  0.368632  0.818294  1
  B  B24  1  0.500000  0.130654  0.317344  1
  B  B25  1  0.500000  0.869346  0.682656  1
  B  B26  1  0.500000  0.981268  0.213755  1
  B  B27  1  0.500000  0.018732  0.786245  1
  B  B28  1  0.500000  0.479911  0.285892  1
  B  B29  1  0.500000  0.520089  0.714108  1
  B  B30  1  0.500000  0.602097  0.027479  1
  B  B31  1  0.500000  0.397903  0.972521  1
  B  B32  1  0.500000  0.101604  0.471536  1
  B  B33  1  0.500000  0.898396  0.528464  1
  Mo  Mo34  1  0.000000  0.640589  0.319321  1
  Mo  Mo35  1  0.000000  0.359411  0.680679  1
