# generated using pymatgen
data_Pr19TmSi15Cl
_symmetry_space_group_name_H-M   'P 1'
_cell_length_a   7.94547151
_cell_length_b   7.87637066
_cell_length_c   15.30023672
_cell_angle_alpha   89.44731898
_cell_angle_beta   89.05763832
_cell_angle_gamma   90.68412760
_symmetry_Int_Tables_number   1
_chemical_formula_structural   Pr19TmSi15Cl
_chemical_formula_sum   'Pr19 Tm1 Si15 Cl1'
_cell_volume   957.26729676
_cell_formula_units_Z   1
loop_
 _symmetry_equiv_pos_site_id
 _symmetry_equiv_pos_as_xyz
  1  'x, y, z'
loop_
 _atom_site_type_symbol
 _atom_site_label
 _atom_site_symmetry_multiplicity
 _atom_site_fract_x
 _atom_site_fract_y
 _atom_site_fract_z
 _atom_site_occupancy
  Pr  Pr0  1  0.187043  0.805889  0.249236  1
  Pr  Pr1  1  0.794812  0.189562  0.753214  1
  Pr  Pr2  1  0.688377  0.687642  0.497642  1
  Pr  Pr3  1  0.381108  0.003165  0.442251  1
  Pr  Pr4  1  0.498538  0.861021  0.701311  1
  Pr  Pr5  1  0.509986  0.123131  0.196386  1
  Pr  Pr6  1  0.874255  0.483151  0.299234  1
  Pr  Pr7  1  0.124301  0.517788  0.802393  1
  Pr  Pr8  1  0.634989  0.987215  0.953274  1
  Pr  Pr9  1  0.995820  0.381918  0.546384  1
  Pr  Pr10  1  0.994620  0.623966  0.051690  1
  Pr  Pr11  1  0.141321  0.990182  0.873905  1
  Pr  Pr12  1  0.518046  0.630804  0.124374  1
  Pr  Pr13  1  0.474156  0.362359  0.631969  1
  Pr  Pr14  1  0.637440  0.520848  0.877119  1
  Pr  Pr15  1  0.366747  0.476722  0.375328  1
  Pr  Pr16  1  0.871150  0.019329  0.377198  1
  Pr  Pr17  1  0.984860  0.126208  0.122744  1
  Pr  Pr18  1  0.018445  0.874359  0.621962  1
  Tm  Tm19  1  0.314643  0.310853  0.998596  1
  Si  Si20  1  0.333011  0.695585  0.949579  1
  Si  Si21  1  0.659866  0.303285  0.453927  1
  Si  Si22  1  0.700103  0.334513  0.050278  1
  Si  Si23  1  0.302870  0.664698  0.552166  1
  Si  Si24  1  0.804130  0.830930  0.202529  1
  Si  Si25  1  0.167863  0.193503  0.295518  1
  Si  Si26  1  0.844850  0.805055  0.797952  1
  Si  Si27  1  0.290588  0.927541  0.056989  1
  Si  Si28  1  0.575527  0.783714  0.308087  1
  Si  Si29  1  0.447084  0.210920  0.828319  1
  Si  Si30  1  0.790542  0.578360  0.688071  1
  Si  Si31  1  0.214159  0.419729  0.185812  1
  Si  Si32  1  0.703968  0.074035  0.561644  1
  Si  Si33  1  0.934130  0.292710  0.941056  1
  Si  Si34  1  0.076844  0.711406  0.441704  1
  Cl  Cl35  1  0.143807  0.197905  0.690162  1
