# generated using pymatgen
data_CeZr(IO3)8
_symmetry_space_group_name_H-M   'P 1'
_cell_length_a   8.72512900
_cell_length_b   8.72512900
_cell_length_c   7.64293900
_cell_angle_alpha   90.00000000
_cell_angle_beta   90.00000000
_cell_angle_gamma   90.00000000
_symmetry_Int_Tables_number   1
_chemical_formula_structural   CeZr(IO3)8
_chemical_formula_sum   'Ce1 Zr1 I8 O24'
_cell_volume   581.84071298
_cell_formula_units_Z   1
loop_
 _symmetry_equiv_pos_site_id
 _symmetry_equiv_pos_as_xyz
  1  'x, y, z'
loop_
 _atom_site_type_symbol
 _atom_site_label
 _atom_site_symmetry_multiplicity
 _atom_site_fract_x
 _atom_site_fract_y
 _atom_site_fract_z
 _atom_site_occupancy
  Ce  Ce0  1  0.000000  0.500000  0.056051  1
  Zr  Zr1  1  0.500000  0.000000  0.950320  1
  I  I2  1  0.749398  0.731087  0.723556  1
  I  I3  1  0.768913  0.249398  0.723556  1
  I  I4  1  0.285167  0.762466  0.274954  1
  I  I5  1  0.262466  0.214833  0.274954  1
  I  I6  1  0.737534  0.785167  0.274954  1
  I  I7  1  0.714833  0.237534  0.274954  1
  I  I8  1  0.250602  0.268913  0.723556  1
  I  I9  1  0.231087  0.750602  0.723556  1
  O  O10  1  0.206136  0.598547  0.892292  1
  O  O11  1  0.098547  0.293864  0.892292  1
  O  O12  1  0.901453  0.706136  0.892292  1
  O  O13  1  0.793864  0.401453  0.892292  1
  O  O14  1  0.300128  0.913954  0.100505  1
  O  O15  1  0.413954  0.199872  0.100505  1
  O  O16  1  0.586046  0.800128  0.100505  1
  O  O17  1  0.699872  0.086046  0.100505  1
  O  O18  1  0.430444  0.797779  0.786004  1
  O  O19  1  0.297779  0.069556  0.786004  1
  O  O20  1  0.734291  0.389462  0.549995  1
  O  O21  1  0.889462  0.765709  0.549995  1
  O  O22  1  0.110538  0.234291  0.549995  1
  O  O23  1  0.265709  0.610538  0.549995  1
  O  O24  1  0.744269  0.092891  0.445423  1
  O  O25  1  0.592891  0.755731  0.445423  1
  O  O26  1  0.407109  0.244269  0.445423  1
  O  O27  1  0.255731  0.907109  0.445423  1
  O  O28  1  0.915426  0.287283  0.225679  1
  O  O29  1  0.787283  0.584574  0.225679  1
  O  O30  1  0.212717  0.415426  0.225679  1
  O  O31  1  0.084574  0.712717  0.225679  1
  O  O32  1  0.569556  0.202221  0.786004  1
  O  O33  1  0.702221  0.930444  0.786004  1
