# generated using pymatgen
data_Ho3Tm(InGa2)2
_symmetry_space_group_name_H-M   'P 1'
_cell_length_a   7.18267565
_cell_length_b   7.18267565
_cell_length_c   4.41302900
_cell_angle_alpha   90.00000000
_cell_angle_beta   90.00000000
_cell_angle_gamma   90.16729246
_symmetry_Int_Tables_number   1
_chemical_formula_structural   Ho3Tm(InGa2)2
_chemical_formula_sum   'Ho3 Tm1 In2 Ga4'
_cell_volume   227.67085648
_cell_formula_units_Z   1
loop_
 _symmetry_equiv_pos_site_id
 _symmetry_equiv_pos_as_xyz
  1  'x, y, z'
loop_
 _atom_site_type_symbol
 _atom_site_label
 _atom_site_symmetry_multiplicity
 _atom_site_fract_x
 _atom_site_fract_y
 _atom_site_fract_z
 _atom_site_occupancy
  Ho  Ho0  1  0.827681  0.672543  0.500000  1
  Ho  Ho1  1  0.172543  0.327681  0.500000  1
  Ho  Ho2  1  0.672058  0.172058  0.500000  1
  Tm  Tm3  1  0.327731  0.827731  0.500000  1
  In  In4  1  0.000111  0.999884  0.000000  1
  In  In5  1  0.499884  0.500111  0.000000  1
  Ga  Ga6  1  0.126498  0.626498  0.000000  1
  Ga  Ga7  1  0.625679  0.873852  0.000000  1
  Ga  Ga8  1  0.373852  0.125679  0.000000  1
  Ga  Ga9  1  0.873963  0.373963  0.000000  1
