# generated using pymatgen
data_Hf2Sc4As5PRu6
_symmetry_space_group_name_H-M   'P 1'
_cell_length_a   7.66432239
_cell_length_b   7.66298097
_cell_length_c   7.66432231
_cell_angle_alpha   127.94855579
_cell_angle_beta   121.55759356
_cell_angle_gamma   82.05481850
_symmetry_Int_Tables_number   1
_chemical_formula_structural   Hf2Sc4As5PRu6
_chemical_formula_sum   'Hf2 Sc4 As5 P1 Ru6'
_cell_volume   290.95663713
_cell_formula_units_Z   1
loop_
 _symmetry_equiv_pos_site_id
 _symmetry_equiv_pos_as_xyz
  1  'x, y, z'
loop_
 _atom_site_type_symbol
 _atom_site_label
 _atom_site_symmetry_multiplicity
 _atom_site_fract_x
 _atom_site_fract_y
 _atom_site_fract_z
 _atom_site_occupancy
  Hf  Hf0  1  0.050175  0.254183  0.704007  1
  Hf  Hf1  1  0.947520  0.652271  0.204752  1
  Sc  Sc2  1  0.465235  0.684969  0.719734  1
  Sc  Sc3  1  0.532721  0.257894  0.225173  1
  Sc  Sc4  1  0.750361  0.836647  0.586286  1
  Sc  Sc5  1  0.251282  0.843609  0.092326  1
  As  As6  1  0.726176  0.227640  0.001463  1
  As  As7  1  0.331919  0.588900  0.252092  1
  As  As8  1  0.667219  0.920221  0.255450  1
  As  As9  1  0.164771  0.920221  0.753002  1
  As  As10  1  0.836808  0.588900  0.756981  1
  P  P11  1  0.275025  0.263561  0.488538  1
  Ru  Ru12  1  0.480536  0.492374  0.972222  1
  Ru  Ru13  1  0.020153  0.492374  0.511838  1
  Ru  Ru14  1  0.100393  0.255008  0.113292  1
  Ru  Ru15  1  0.915532  0.012910  0.170451  1
  Ru  Ru16  1  0.342460  0.012910  0.597378  1
  Ru  Ru17  1  0.641716  0.255008  0.654615  1
