# generated using pymatgen
data_Yb2Sc2ReB12Ru
_symmetry_space_group_name_H-M   'P 1'
_cell_length_a   3.54913100
_cell_length_b   9.01759145
_cell_length_c   11.35967722
_cell_angle_alpha   90.05316895
_cell_angle_beta   90.00000000
_cell_angle_gamma   90.00000000
_symmetry_Int_Tables_number   1
_chemical_formula_structural   Yb2Sc2ReB12Ru
_chemical_formula_sum   'Yb4 Sc4 Re2 B24 Ru2'
_cell_volume   363.56192073
_cell_formula_units_Z   2
loop_
 _symmetry_equiv_pos_site_id
 _symmetry_equiv_pos_as_xyz
  1  'x, y, z'
loop_
 _atom_site_type_symbol
 _atom_site_label
 _atom_site_symmetry_multiplicity
 _atom_site_fract_x
 _atom_site_fract_y
 _atom_site_fract_z
 _atom_site_occupancy
  Yb  Yb0  1  0.000000  0.325310  0.415873  1
  Yb  Yb1  1  0.000000  0.674690  0.584127  1
  Yb  Yb2  1  0.000000  0.823294  0.085529  1
  Yb  Yb3  1  0.000000  0.176706  0.914471  1
  Sc  Sc4  1  0.000000  0.943003  0.367101  1
  Sc  Sc5  1  0.000000  0.056997  0.632899  1
  Sc  Sc6  1  0.000000  0.444500  0.132976  1
  Sc  Sc7  1  0.000000  0.555500  0.867024  1
  Re  Re8  1  0.000000  0.144051  0.183681  1
  Re  Re9  1  0.000000  0.855949  0.816319  1
  B  B10  1  0.500000  0.555063  0.432095  1
  B  B11  1  0.500000  0.444937  0.567905  1
  B  B12  1  0.500000  0.054682  0.067349  1
  B  B13  1  0.500000  0.945318  0.932651  1
  B  B14  1  0.500000  0.753690  0.417207  1
  B  B15  1  0.500000  0.246310  0.582793  1
  B  B16  1  0.500000  0.255254  0.081345  1
  B  B17  1  0.500000  0.744746  0.918655  1
  B  B18  1  0.500000  0.795415  0.263915  1
  B  B19  1  0.500000  0.204585  0.736085  1
  B  B20  1  0.500000  0.297450  0.237348  1
  B  B21  1  0.500000  0.702550  0.762652  1
  B  B22  1  0.500000  0.630763  0.183263  1
  B  B23  1  0.500000  0.369237  0.816737  1
  B  B24  1  0.500000  0.130298  0.318811  1
  B  B25  1  0.500000  0.869702  0.681189  1
  B  B26  1  0.500000  0.981692  0.213026  1
  B  B27  1  0.500000  0.018308  0.786974  1
  B  B28  1  0.500000  0.484112  0.287426  1
  B  B29  1  0.500000  0.515888  0.712574  1
  B  B30  1  0.500000  0.593266  0.024971  1
  B  B31  1  0.500000  0.406734  0.975029  1
  B  B32  1  0.500000  0.092785  0.475138  1
  B  B33  1  0.500000  0.907215  0.524862  1
  Ru  Ru34  1  0.000000  0.643228  0.317817  1
  Ru  Ru35  1  0.000000  0.356772  0.682183  1
