# generated using pymatgen
data_LaPr6Y3Si8O3
_symmetry_space_group_name_H-M   'P 1'
_cell_length_a   10.71957700
_cell_length_b   10.71957812
_cell_length_c   4.51040000
_cell_angle_alpha   90.00000000
_cell_angle_beta   90.00000000
_cell_angle_gamma   119.99999964
_symmetry_Int_Tables_number   1
_chemical_formula_structural   LaPr6Y3Si8O3
_chemical_formula_sum   'La1 Pr6 Y3 Si8 O3'
_cell_volume   448.84979735
_cell_formula_units_Z   1
loop_
 _symmetry_equiv_pos_site_id
 _symmetry_equiv_pos_as_xyz
  1  'x, y, z'
loop_
 _atom_site_type_symbol
 _atom_site_label
 _atom_site_symmetry_multiplicity
 _atom_site_fract_x
 _atom_site_fract_y
 _atom_site_fract_z
 _atom_site_occupancy
  La  La0  1  0.000000  0.000000  0.000000  1
  Pr  Pr1  1  0.211776  0.788224  0.000000  1
  Pr  Pr2  1  0.576450  0.788224  0.000000  1
  Pr  Pr3  1  0.788224  0.576450  0.000000  1
  Pr  Pr4  1  0.211776  0.423550  0.000000  1
  Pr  Pr5  1  0.423550  0.211776  0.000000  1
  Pr  Pr6  1  0.788224  0.211776  0.000000  1
  Y  Y7  1  0.000000  0.500000  0.500000  1
  Y  Y8  1  0.500000  0.500000  0.500000  1
  Y  Y9  1  0.500000  0.000000  0.500000  1
  Si  Si10  1  0.000000  0.776433  0.500000  1
  Si  Si11  1  0.000000  0.223567  0.500000  1
  Si  Si12  1  0.223567  0.223567  0.500000  1
  Si  Si13  1  0.776433  0.000000  0.500000  1
  Si  Si14  1  0.333333  0.666667  0.500000  1
  Si  Si15  1  0.223567  0.000000  0.500000  1
  Si  Si16  1  0.666667  0.333333  0.500000  1
  Si  Si17  1  0.776433  0.776433  0.500000  1
  O  O18  1  0.000000  0.500000  0.000000  1
  O  O19  1  0.500000  0.500000  0.000000  1
  O  O20  1  0.500000  0.000000  0.000000  1
