# generated using pymatgen
data_Dy5B5P7Ir19
_symmetry_space_group_name_H-M   'P 1'
_cell_length_a   12.34951884
_cell_length_b   12.40211575
_cell_length_c   3.96023000
_cell_angle_alpha   90.00000000
_cell_angle_beta   90.00000000
_cell_angle_gamma   120.21878547
_symmetry_Int_Tables_number   1
_chemical_formula_structural   Dy5B5P7Ir19
_chemical_formula_sum   'Dy5 B5 P7 Ir19'
_cell_volume   524.12535929
_cell_formula_units_Z   1
loop_
 _symmetry_equiv_pos_site_id
 _symmetry_equiv_pos_as_xyz
  1  'x, y, z'
loop_
 _atom_site_type_symbol
 _atom_site_label
 _atom_site_symmetry_multiplicity
 _atom_site_fract_x
 _atom_site_fract_y
 _atom_site_fract_z
 _atom_site_occupancy
  Dy  Dy0  1  0.333501  0.666041  0.500000  1
  Dy  Dy1  1  0.660215  0.336500  0.500000  1
  Dy  Dy2  1  0.000845  0.813555  0.000000  1
  Dy  Dy3  1  0.189055  0.186013  0.000000  1
  Dy  Dy4  1  0.812396  0.995822  0.000000  1
  B  B5  1  0.514464  0.694548  0.000000  1
  B  B6  1  0.306743  0.821053  0.000000  1
  B  B7  1  0.182805  0.487326  0.000000  1
  B  B8  1  0.482401  0.182831  0.000000  1
  B  B9  1  0.693407  0.517912  0.000000  1
  P  P10  1  0.000368  0.637812  0.500000  1
  P  P11  1  0.364676  0.363691  0.500000  1
  P  P12  1  0.632821  0.994013  0.500000  1
  P  P13  1  0.820593  0.309801  0.000000  1
  P  P14  1  0.001880  0.182176  0.500000  1
  P  P15  1  0.815353  0.815165  0.500000  1
  P  P16  1  0.185057  0.997947  0.500000  1
  Ir  Ir17  1  0.501874  0.864601  0.000000  1
  Ir  Ir18  1  0.139283  0.637808  0.000000  1
  Ir  Ir19  1  0.364205  0.500081  0.000000  1
  Ir  Ir20  1  0.497206  0.365242  0.000000  1
  Ir  Ir21  1  0.868835  0.511390  0.000000  1
  Ir  Ir22  1  0.627179  0.130839  0.000000  1
  Ir  Ir23  1  0.004296  0.456827  0.500000  1
  Ir  Ir24  1  0.545922  0.546783  0.500000  1
  Ir  Ir25  1  0.451398  0.996615  0.500000  1
  Ir  Ir26  1  0.004556  0.297114  0.000000  1
  Ir  Ir27  1  0.700305  0.701200  0.000000  1
  Ir  Ir28  1  0.298409  0.998980  0.000000  1
  Ir  Ir29  1  0.617717  0.799003  0.500000  1
  Ir  Ir30  1  0.199253  0.816279  0.500000  1
  Ir  Ir31  1  0.183932  0.380762  0.500000  1
  Ir  Ir32  1  0.382226  0.181515  0.500000  1
  Ir  Ir33  1  0.800090  0.619948  0.500000  1
  Ir  Ir34  1  0.815582  0.193864  0.500000  1
  Ir  Ir35  1  0.001152  0.998942  0.500000  1
