# generated using pymatgen
data_Sm2NbRh3
_symmetry_space_group_name_H-M   'P 1'
_cell_length_a   5.28039147
_cell_length_b   5.28039130
_cell_length_c   5.28039078
_cell_angle_alpha   66.21384425
_cell_angle_beta   66.21384101
_cell_angle_gamma   66.21383957
_symmetry_Int_Tables_number   1
_chemical_formula_structural   Sm2NbRh3
_chemical_formula_sum   'Sm2 Nb1 Rh3'
_cell_volume   118.07923028
_cell_formula_units_Z   1
loop_
 _symmetry_equiv_pos_site_id
 _symmetry_equiv_pos_as_xyz
  1  'x, y, z'
loop_
 _atom_site_type_symbol
 _atom_site_label
 _atom_site_symmetry_multiplicity
 _atom_site_fract_x
 _atom_site_fract_y
 _atom_site_fract_z
 _atom_site_occupancy
  Sm  Sm0  1  0.871858  0.871858  0.871858  1
  Sm  Sm1  1  0.128142  0.128142  0.128142  1
  Nb  Nb2  1  0.500000  0.500000  0.500000  1
  Rh  Rh3  1  0.000000  0.500000  0.500000  1
  Rh  Rh4  1  0.500000  0.500000  0.000000  1
  Rh  Rh5  1  0.500000  0.000000  0.500000  1
