# generated using pymatgen
data_Ho(Al3Cr)3
_symmetry_space_group_name_H-M   'P 1'
_cell_length_a   5.07456453
_cell_length_b   6.85245167
_cell_length_c   6.86068013
_cell_angle_alpha   98.12038995
_cell_angle_beta   112.42563535
_cell_angle_gamma   68.26750357
_symmetry_Int_Tables_number   1
_chemical_formula_structural   Ho(Al3Cr)3
_chemical_formula_sum   'Ho1 Al9 Cr3'
_cell_volume   204.85186080
_cell_formula_units_Z   1
loop_
 _symmetry_equiv_pos_site_id
 _symmetry_equiv_pos_as_xyz
  1  'x, y, z'
loop_
 _atom_site_type_symbol
 _atom_site_label
 _atom_site_symmetry_multiplicity
 _atom_site_fract_x
 _atom_site_fract_y
 _atom_site_fract_z
 _atom_site_occupancy
  Ho  Ho0  1  0.000000  0.000000  0.000000  1
  Al  Al1  1  0.730124  0.774868  0.214316  1
  Al  Al2  1  0.269876  0.225132  0.785684  1
  Al  Al3  1  0.495008  0.774868  0.785684  1
  Al  Al4  1  0.504992  0.225132  0.214316  1
  Al  Al5  1  0.665747  0.351284  0.666229  1
  Al  Al6  1  0.334253  0.648716  0.333771  1
  Al  Al7  1  0.982968  0.351284  0.333771  1
  Al  Al8  1  0.017032  0.648716  0.666229  1
  Al  Al9  1  0.500000  0.000000  0.500000  1
  Cr  Cr10  1  0.000000  0.000000  0.500000  1
  Cr  Cr11  1  0.500000  0.500000  0.000000  1
  Cr  Cr12  1  0.000000  0.500000  0.000000  1
