# generated using pymatgen
data_Ba8Sr2CrReN10
_symmetry_space_group_name_H-M   'P 1'
_cell_length_a   8.05609569
_cell_length_b   8.05609490
_cell_length_c   9.15612831
_cell_angle_alpha   76.27321442
_cell_angle_beta   76.27321303
_cell_angle_gamma   95.88294872
_symmetry_Int_Tables_number   1
_chemical_formula_structural   Ba8Sr2CrReN10
_chemical_formula_sum   'Ba8 Sr2 Cr1 Re1 N10'
_cell_volume   552.78158871
_cell_formula_units_Z   1
loop_
 _symmetry_equiv_pos_site_id
 _symmetry_equiv_pos_as_xyz
  1  'x, y, z'
loop_
 _atom_site_type_symbol
 _atom_site_label
 _atom_site_symmetry_multiplicity
 _atom_site_fract_x
 _atom_site_fract_y
 _atom_site_fract_z
 _atom_site_occupancy
  Ba  Ba0  1  0.666136  0.671496  0.005841  1
  Ba  Ba1  1  0.328504  0.333864  0.994159  1
  Ba  Ba2  1  0.926850  0.914797  0.216422  1
  Ba  Ba3  1  0.085203  0.073150  0.783578  1
  Ba  Ba4  1  0.555398  0.085949  0.741327  1
  Ba  Ba5  1  0.914051  0.444602  0.258673  1
  Ba  Ba6  1  0.427611  0.898837  0.257515  1
  Ba  Ba7  1  0.101163  0.572389  0.742485  1
  Sr  Sr8  1  0.400558  0.403903  0.381745  1
  Sr  Sr9  1  0.596097  0.599442  0.618255  1
  Cr  Cr10  1  0.245935  0.754065  0.000000  1
  Re  Re11  1  0.753480  0.246520  0.000000  1
  N  N12  1  0.653625  0.652464  0.319112  1
  N  N13  1  0.347536  0.346375  0.680888  1
  N  N14  1  0.713116  0.020799  0.989181  1
  N  N15  1  0.979201  0.286884  0.010819  1
  N  N16  1  0.286344  0.971978  0.006261  1
  N  N17  1  0.028022  0.713656  0.993739  1
  N  N18  1  0.387466  0.723614  0.832190  1
  N  N19  1  0.276386  0.612534  0.167809  1
  N  N20  1  0.602323  0.275007  0.174467  1
  N  N21  1  0.724993  0.397677  0.825532  1
