# generated using pymatgen
data_AcNd7(Gd3Si4)4
_symmetry_space_group_name_H-M   'P 1'
_cell_length_a   7.78910968
_cell_length_b   7.79760529
_cell_length_c   15.02916300
_cell_angle_alpha   89.99099886
_cell_angle_beta   89.90512378
_cell_angle_gamma   89.89460205
_symmetry_Int_Tables_number   1
_chemical_formula_structural   AcNd7(Gd3Si4)4
_chemical_formula_sum   'Ac1 Nd7 Gd12 Si16'
_cell_volume   912.81449101
_cell_formula_units_Z   1
loop_
 _symmetry_equiv_pos_site_id
 _symmetry_equiv_pos_as_xyz
  1  'x, y, z'
loop_
 _atom_site_type_symbol
 _atom_site_label
 _atom_site_symmetry_multiplicity
 _atom_site_fract_x
 _atom_site_fract_y
 _atom_site_fract_z
 _atom_site_occupancy
  Ac  Ac0  1  0.363692  0.018668  0.454925  1
  Nd  Nd1  1  0.491841  0.873871  0.701151  1
  Nd  Nd2  1  0.509333  0.125478  0.197292  1
  Nd  Nd3  1  0.873217  0.489147  0.300448  1
  Nd  Nd4  1  0.128217  0.509724  0.799477  1
  Nd  Nd5  1  0.626671  0.988799  0.948728  1
  Nd  Nd6  1  0.009581  0.374759  0.552375  1
  Nd  Nd7  1  0.990158  0.625765  0.049428  1
  Gd  Gd8  1  0.311390  0.312300  0.999196  1
  Gd  Gd9  1  0.187071  0.810302  0.249822  1
  Gd  Gd10  1  0.814612  0.187766  0.750328  1
  Gd  Gd11  1  0.687481  0.690208  0.500474  1
  Gd  Gd12  1  0.133058  0.984215  0.875588  1
  Gd  Gd13  1  0.516535  0.631938  0.124949  1
  Gd  Gd14  1  0.486816  0.369904  0.628092  1
  Gd  Gd15  1  0.630804  0.516201  0.874145  1
  Gd  Gd16  1  0.369117  0.482962  0.373076  1
  Gd  Gd17  1  0.867049  0.016529  0.375033  1
  Gd  Gd18  1  0.982601  0.131055  0.122634  1
  Gd  Gd19  1  0.015798  0.865914  0.626074  1
  Si  Si20  1  0.198401  0.162125  0.698977  1
  Si  Si21  1  0.335268  0.694351  0.950099  1
  Si  Si22  1  0.670807  0.310225  0.451971  1
  Si  Si23  1  0.694631  0.335980  0.049270  1
  Si  Si24  1  0.300330  0.657904  0.552367  1
  Si  Si25  1  0.805741  0.834765  0.199102  1
  Si  Si26  1  0.161608  0.198131  0.295149  1
  Si  Si27  1  0.835649  0.804497  0.801380  1
  Si  Si28  1  0.284644  0.924850  0.060346  1
  Si  Si29  1  0.575060  0.784010  0.309420  1
  Si  Si30  1  0.426004  0.213829  0.810701  1
  Si  Si31  1  0.785724  0.575178  0.690513  1
  Si  Si32  1  0.213577  0.426691  0.186941  1
  Si  Si33  1  0.720612  0.077944  0.563003  1
  Si  Si34  1  0.925611  0.285935  0.938560  1
  Si  Si35  1  0.071289  0.708082  0.438965  1
