# generated using pymatgen
data_LaYb9(PrRu2)2
_symmetry_space_group_name_H-M   'P 1'
_cell_length_a   6.34175424
_cell_length_b   7.59289877
_cell_length_c   9.43569290
_cell_angle_alpha   89.83724654
_cell_angle_beta   89.82519822
_cell_angle_gamma   89.10848210
_symmetry_Int_Tables_number   1
_chemical_formula_structural   LaYb9(PrRu2)2
_chemical_formula_sum   'La1 Yb9 Pr2 Ru4'
_cell_volume   454.29140874
_cell_formula_units_Z   1
loop_
 _symmetry_equiv_pos_site_id
 _symmetry_equiv_pos_as_xyz
  1  'x, y, z'
loop_
 _atom_site_type_symbol
 _atom_site_label
 _atom_site_symmetry_multiplicity
 _atom_site_fract_x
 _atom_site_fract_y
 _atom_site_fract_z
 _atom_site_occupancy
  La  La0  1  0.353992  0.951737  0.749543  1
  Yb  Yb1  1  0.156206  0.168540  0.431704  1
  Yb  Yb2  1  0.656325  0.332482  0.568443  1
  Yb  Yb3  1  0.841713  0.832518  0.932476  1
  Yb  Yb4  1  0.661861  0.330258  0.932170  1
  Yb  Yb5  1  0.842434  0.832425  0.567336  1
  Yb  Yb6  1  0.342471  0.668127  0.434948  1
  Yb  Yb7  1  0.158136  0.167559  0.067421  1
  Yb  Yb8  1  0.636369  0.038649  0.250314  1
  Yb  Yb9  1  0.131518  0.457964  0.749952  1
  Pr  Pr10  1  0.341823  0.667157  0.070001  1
  Pr  Pr11  1  0.870140  0.540217  0.251748  1
  Ru  Ru12  1  0.039199  0.869048  0.251083  1
  Ru  Ru13  1  0.462181  0.384624  0.244089  1
  Ru  Ru14  1  0.988582  0.114898  0.746445  1
  Ru  Ru15  1  0.517049  0.643796  0.752327  1
