# generated using pymatgen
data_Yb4ScTa2CrO12
_symmetry_space_group_name_H-M   'P 1'
_cell_length_a   5.61555305
_cell_length_b   5.42026743
_cell_length_c   9.45650536
_cell_angle_alpha   55.30444971
_cell_angle_beta   89.74752453
_cell_angle_gamma   89.99951063
_symmetry_Int_Tables_number   1
_chemical_formula_structural   Yb4ScTa2CrO12
_chemical_formula_sum   'Yb4 Sc1 Ta2 Cr1 O12'
_cell_volume   236.65133785
_cell_formula_units_Z   1
loop_
 _symmetry_equiv_pos_site_id
 _symmetry_equiv_pos_as_xyz
  1  'x, y, z'
loop_
 _atom_site_type_symbol
 _atom_site_label
 _atom_site_symmetry_multiplicity
 _atom_site_fract_x
 _atom_site_fract_y
 _atom_site_fract_z
 _atom_site_occupancy
  Yb  Yb0  1  0.440966  0.228498  0.756905  1
  Yb  Yb1  1  0.559034  0.771502  0.243095  1
  Yb  Yb2  1  0.945852  0.764020  0.753106  1
  Yb  Yb3  1  0.054148  0.235980  0.246894  1
  Sc  Sc4  1  0.500000  0.000000  0.500000  1
  Ta  Ta5  1  0.000000  0.500000  0.500000  1
  Ta  Ta6  1  0.500000  0.500000  0.000000  1
  Cr  Cr7  1  0.000000  0.000000  0.000000  1
  O  O8  1  0.032812  0.350626  0.748814  1
  O  O9  1  0.967188  0.649374  0.251186  1
  O  O10  1  0.534963  0.641454  0.756632  1
  O  O11  1  0.465037  0.358546  0.243368  1
  O  O12  1  0.704293  0.842890  0.951699  1
  O  O13  1  0.295707  0.157110  0.048301  1
  O  O14  1  0.192575  0.150163  0.552929  1
  O  O15  1  0.807425  0.849837  0.447071  1
  O  O16  1  0.209237  0.755427  0.946865  1
  O  O17  1  0.790763  0.244573  0.053135  1
  O  O18  1  0.706440  0.252854  0.557070  1
  O  O19  1  0.293560  0.747146  0.442930  1
