# generated using pymatgen
data_Nd8CdCoNiHg
_symmetry_space_group_name_H-M   'P 1'
_cell_length_a   9.84446225
_cell_length_b   9.84434177
_cell_length_c   9.87502300
_cell_angle_alpha   59.89687030
_cell_angle_beta   59.89731792
_cell_angle_gamma   59.95256596
_symmetry_Int_Tables_number   1
_chemical_formula_structural   Nd8CdCoNiHg
_chemical_formula_sum   'Nd16 Cd2 Co2 Ni2 Hg2'
_cell_volume   675.41249467
_cell_formula_units_Z   2
loop_
 _symmetry_equiv_pos_site_id
 _symmetry_equiv_pos_as_xyz
  1  'x, y, z'
loop_
 _atom_site_type_symbol
 _atom_site_label
 _atom_site_symmetry_multiplicity
 _atom_site_fract_x
 _atom_site_fract_y
 _atom_site_fract_z
 _atom_site_occupancy
  Nd  Nd0  1  0.596596  0.596611  0.600021  1
  Nd  Nd1  1  0.596551  0.596559  0.206824  1
  Nd  Nd2  1  0.596226  0.205950  0.598859  1
  Nd  Nd3  1  0.205982  0.596265  0.598820  1
  Nd  Nd4  1  0.064845  0.437755  0.441306  1
  Nd  Nd5  1  0.437683  0.064725  0.056249  1
  Nd  Nd6  1  0.437702  0.064825  0.441293  1
  Nd  Nd7  1  0.064749  0.437731  0.056198  1
  Nd  Nd8  1  0.437976  0.438005  0.062090  1
  Nd  Nd9  1  0.057658  0.057625  0.442343  1
  Nd  Nd10  1  0.188720  0.809391  0.814350  1
  Nd  Nd11  1  0.809357  0.188701  0.187550  1
  Nd  Nd12  1  0.809400  0.188675  0.814400  1
  Nd  Nd13  1  0.188749  0.809342  0.187562  1
  Nd  Nd14  1  0.810783  0.810816  0.189199  1
  Nd  Nd15  1  0.187306  0.187307  0.812663  1
  Cd  Cd16  1  0.830137  0.510783  0.829546  1
  Cd  Cd17  1  0.510791  0.830145  0.829538  1
  Co  Co18  1  0.392886  0.392872  0.390410  1
  Co  Co19  1  0.392888  0.392876  0.823811  1
  Ni  Ni20  1  0.393255  0.824301  0.391226  1
  Ni  Ni21  1  0.824295  0.393253  0.391229  1
  Hg  Hg22  1  0.832730  0.832744  0.834516  1
  Hg  Hg23  1  0.832736  0.832746  0.499996  1
