# generated using pymatgen
data_MgNi21B6Mo
_symmetry_space_group_name_H-M   'P 1'
_cell_length_a   7.42883540
_cell_length_b   7.42883496
_cell_length_c   7.42883600
_cell_angle_alpha   59.99999536
_cell_angle_beta   59.99999731
_cell_angle_gamma   59.99999625
_symmetry_Int_Tables_number   1
_chemical_formula_structural   MgNi21B6Mo
_chemical_formula_sum   'Mg1 Ni21 B6 Mo1'
_cell_volume   289.89931046
_cell_formula_units_Z   1
loop_
 _symmetry_equiv_pos_site_id
 _symmetry_equiv_pos_as_xyz
  1  'x, y, z'
loop_
 _atom_site_type_symbol
 _atom_site_label
 _atom_site_symmetry_multiplicity
 _atom_site_fract_x
 _atom_site_fract_y
 _atom_site_fract_z
 _atom_site_occupancy
  Mg  Mg0  1  0.250000  0.250000  0.250000  1
  Ni  Ni1  1  0.341632  0.997817  0.997817  1
  Ni  Ni2  1  0.662735  0.997817  0.997817  1
  Ni  Ni3  1  0.997817  0.341632  0.662735  1
  Ni  Ni4  1  0.997817  0.662735  0.341632  1
  Ni  Ni5  1  0.997817  0.341632  0.997817  1
  Ni  Ni6  1  0.662735  0.997817  0.341632  1
  Ni  Ni7  1  0.997817  0.662735  0.997817  1
  Ni  Ni8  1  0.341632  0.997817  0.662735  1
  Ni  Ni9  1  0.997817  0.997817  0.341632  1
  Ni  Ni10  1  0.997817  0.997817  0.662735  1
  Ni  Ni11  1  0.662735  0.341632  0.997817  1
  Ni  Ni12  1  0.341632  0.662735  0.997817  1
  Ni  Ni13  1  0.386551  0.386551  0.386551  1
  Ni  Ni14  1  0.618012  0.618012  0.618012  1
  Ni  Ni15  1  0.386551  0.386551  0.840347  1
  Ni  Ni16  1  0.386551  0.840347  0.386551  1
  Ni  Ni17  1  0.618012  0.618012  0.145964  1
  Ni  Ni18  1  0.618012  0.145964  0.618012  1
  Ni  Ni19  1  0.840347  0.386551  0.386551  1
  Ni  Ni20  1  0.145964  0.618012  0.618012  1
  Ni  Ni21  1  0.000000  0.000000  0.000000  1
  B  B22  1  0.730119  0.269881  0.269881  1
  B  B23  1  0.269881  0.730119  0.730119  1
  B  B24  1  0.269881  0.730119  0.269881  1
  B  B25  1  0.730119  0.269881  0.730119  1
  B  B26  1  0.269881  0.269881  0.730119  1
  B  B27  1  0.730119  0.730119  0.269881  1
  Mo  Mo28  1  0.750000  0.750000  0.750000  1
