# generated using pymatgen
data_NdY3Mn2(Co2B)6
_symmetry_space_group_name_H-M   'P 1'
_cell_length_a   5.11294614
_cell_length_b   5.10220738
_cell_length_c   12.69763600
_cell_angle_alpha   89.99918884
_cell_angle_beta   89.99914414
_cell_angle_gamma   119.92399863
_symmetry_Int_Tables_number   1
_chemical_formula_structural   NdY3Mn2(Co2B)6
_chemical_formula_sum   'Nd1 Y3 Mn2 Co12 B6'
_cell_volume   287.08792060
_cell_formula_units_Z   1
loop_
 _symmetry_equiv_pos_site_id
 _symmetry_equiv_pos_as_xyz
  1  'x, y, z'
loop_
 _atom_site_type_symbol
 _atom_site_label
 _atom_site_symmetry_multiplicity
 _atom_site_fract_x
 _atom_site_fract_y
 _atom_site_fract_z
 _atom_site_occupancy
  Nd  Nd0  1  0.000095  0.000046  0.999894  1
  Y  Y1  1  0.999957  0.999981  0.499960  1
  Y  Y2  1  0.999967  0.999990  0.261735  1
  Y  Y3  1  0.999960  0.999982  0.738406  1
  Mn  Mn4  1  0.333622  0.666733  0.999936  1
  Mn  Mn5  1  0.666728  0.333486  0.999917  1
  Co  Co6  1  0.500064  0.000157  0.160632  1
  Co  Co7  1  0.500063  0.499914  0.160547  1
  Co  Co8  1  0.999835  0.499920  0.160684  1
  Co  Co9  1  0.500029  0.000107  0.839357  1
  Co  Co10  1  0.500020  0.499921  0.839415  1
  Co  Co11  1  0.999861  0.499927  0.839314  1
  Co  Co12  1  0.499931  0.999929  0.386326  1
  Co  Co13  1  0.499940  0.500004  0.386345  1
  Co  Co14  1  0.000017  0.500010  0.386410  1
  Co  Co15  1  0.499931  0.999930  0.613665  1
  Co  Co16  1  0.499931  0.500009  0.613649  1
  Co  Co17  1  0.000019  0.500013  0.613618  1
  B  B18  1  0.333344  0.666682  0.499977  1
  B  B19  1  0.666579  0.333286  0.499971  1
  B  B20  1  0.332903  0.666384  0.270599  1
  B  B21  1  0.667053  0.333603  0.270558  1
  B  B22  1  0.666888  0.333476  0.729576  1
  B  B23  1  0.333065  0.666510  0.729510  1
