# generated using pymatgen
data_Sm8Dy2B2Br15
_symmetry_space_group_name_H-M   'P 1'
_cell_length_a   9.23146220
_cell_length_b   9.99390252
_cell_length_c   10.86652429
_cell_angle_alpha   91.27856720
_cell_angle_beta   114.53996164
_cell_angle_gamma   110.74883308
_symmetry_Int_Tables_number   1
_chemical_formula_structural   Sm8Dy2B2Br15
_chemical_formula_sum   'Sm8 Dy2 B2 Br15'
_cell_volume   835.73150820
_cell_formula_units_Z   1
loop_
 _symmetry_equiv_pos_site_id
 _symmetry_equiv_pos_as_xyz
  1  'x, y, z'
loop_
 _atom_site_type_symbol
 _atom_site_label
 _atom_site_symmetry_multiplicity
 _atom_site_fract_x
 _atom_site_fract_y
 _atom_site_fract_z
 _atom_site_occupancy
  Sm  Sm0  1  0.799926  0.408542  0.275810  1
  Sm  Sm1  1  0.200074  0.591458  0.724190  1
  Sm  Sm2  1  0.674286  0.746751  0.821503  1
  Sm  Sm3  1  0.325714  0.253249  0.178497  1
  Sm  Sm4  1  0.525734  0.703992  0.095807  1
  Sm  Sm5  1  0.474266  0.296008  0.904193  1
  Sm  Sm6  1  0.585907  0.038332  0.323953  1
  Sm  Sm7  1  0.414093  0.961668  0.676047  1
  Dy  Dy8  1  0.718990  0.073523  0.047625  1
  Dy  Dy9  1  0.281010  0.926477  0.952375  1
  B  B10  1  0.467602  0.821929  0.878405  1
  B  B11  1  0.532398  0.178071  0.121595  1
  Br  Br12  1  0.000000  0.000000  0.000000  1
  Br  Br13  1  0.637887  0.882849  0.583598  1
  Br  Br14  1  0.362113  0.117151  0.416402  1
  Br  Br15  1  0.883880  0.298843  0.529048  1
  Br  Br16  1  0.116120  0.701157  0.470952  1
  Br  Br17  1  0.285259  0.762936  0.174830  1
  Br  Br18  1  0.714741  0.237064  0.825170  1
  Br  Br19  1  0.050082  0.337576  0.223041  1
  Br  Br20  1  0.161352  0.054218  0.706020  1
  Br  Br21  1  0.838648  0.945782  0.293980  1
  Br  Br22  1  0.228018  0.408993  0.942798  1
  Br  Br23  1  0.771982  0.591007  0.057202  1
  Br  Br24  1  0.407672  0.461695  0.657293  1
  Br  Br25  1  0.592328  0.538305  0.342707  1
  Br  Br26  1  0.949918  0.662424  0.776959  1
