# generated using pymatgen
data_DyHo2Er4P12Ir17
_symmetry_space_group_name_H-M   'P 1'
_cell_length_a   12.71760700
_cell_length_b   12.99248167
_cell_length_c   3.97520900
_cell_angle_alpha   90.00000000
_cell_angle_beta   90.00000000
_cell_angle_gamma   119.30258644
_symmetry_Int_Tables_number   1
_chemical_formula_structural   DyHo2Er4P12Ir17
_chemical_formula_sum   'Dy1 Ho2 Er4 P12 Ir17'
_cell_volume   572.79268361
_cell_formula_units_Z   1
loop_
 _symmetry_equiv_pos_site_id
 _symmetry_equiv_pos_as_xyz
  1  'x, y, z'
loop_
 _atom_site_type_symbol
 _atom_site_label
 _atom_site_symmetry_multiplicity
 _atom_site_fract_x
 _atom_site_fract_y
 _atom_site_fract_z
 _atom_site_occupancy
  Dy  Dy0  1  0.810446  0.000000  0.000000  1
  Ho  Ho1  1  0.996983  0.444523  0.500000  1
  Ho  Ho2  1  0.552460  0.555477  0.500000  1
  Er  Er3  1  0.330826  0.662492  0.500000  1
  Er  Er4  1  0.668335  0.337508  0.500000  1
  Er  Er5  1  0.001422  0.816311  0.000000  1
  Er  Er6  1  0.185112  0.183689  0.000000  1
  P  P7  1  0.010072  0.659385  0.500000  1
  P  P8  1  0.350687  0.340615  0.500000  1
  P  P9  1  0.643875  0.000000  0.500000  1
  P  P10  1  0.515639  0.690365  0.000000  1
  P  P11  1  0.309505  0.825111  0.000000  1
  P  P12  1  0.168263  0.481792  0.000000  1
  P  P13  1  0.484395  0.174889  0.000000  1
  P  P14  1  0.686472  0.518208  0.000000  1
  P  P15  1  0.825275  0.309635  0.000000  1
  P  P16  1  0.999409  0.174479  0.500000  1
  P  P17  1  0.824930  0.825521  0.500000  1
  P  P18  1  0.181014  0.000000  0.500000  1
  Ir  Ir19  1  0.503703  0.865449  0.000000  1
  Ir  Ir20  1  0.125047  0.646194  0.000000  1
  Ir  Ir21  1  0.357484  0.500516  0.000000  1
  Ir  Ir22  1  0.478854  0.353806  0.000000  1
  Ir  Ir23  1  0.856970  0.499484  0.000000  1
  Ir  Ir24  1  0.638255  0.134551  0.000000  1
  Ir  Ir25  1  0.464750  0.000000  0.500000  1
  Ir  Ir26  1  0.996301  0.271421  0.000000  1
  Ir  Ir27  1  0.724881  0.728579  0.000000  1
  Ir  Ir28  1  0.286086  0.000000  0.000000  1
  Ir  Ir29  1  0.623443  0.810616  0.500000  1
  Ir  Ir30  1  0.207146  0.828735  0.500000  1
  Ir  Ir31  1  0.180559  0.363757  0.500000  1
  Ir  Ir32  1  0.378411  0.171265  0.500000  1
  Ir  Ir33  1  0.816802  0.636243  0.500000  1
  Ir  Ir34  1  0.812827  0.189384  0.500000  1
  Ir  Ir35  1  0.003363  0.000000  0.500000  1
