# generated using pymatgen
data_Dy5(TcB3)2
_symmetry_space_group_name_H-M   'P 1'
_cell_length_a   5.53750501
_cell_length_b   5.53750620
_cell_length_c   8.50346455
_cell_angle_alpha   70.99789610
_cell_angle_beta   70.99789113
_cell_angle_gamma   59.99999347
_symmetry_Int_Tables_number   1
_chemical_formula_structural   Dy5(TcB3)2
_chemical_formula_sum   'Dy5 Tc2 B6'
_cell_volume   209.24801727
_cell_formula_units_Z   1
loop_
 _symmetry_equiv_pos_site_id
 _symmetry_equiv_pos_as_xyz
  1  'x, y, z'
loop_
 _atom_site_type_symbol
 _atom_site_label
 _atom_site_symmetry_multiplicity
 _atom_site_fract_x
 _atom_site_fract_y
 _atom_site_fract_z
 _atom_site_occupancy
  Dy  Dy0  1  0.000000  0.000000  0.000000  1
  Dy  Dy1  1  0.247867  0.247867  0.256399  1
  Dy  Dy2  1  0.752133  0.752133  0.743601  1
  Dy  Dy3  1  0.418575  0.418575  0.744275  1
  Dy  Dy4  1  0.581425  0.581425  0.255725  1
  Tc  Tc5  1  0.111244  0.111244  0.666268  1
  Tc  Tc6  1  0.888756  0.888756  0.333732  1
  B  B7  1  0.170997  0.829003  0.500000  1
  B  B8  1  0.829003  0.500000  0.500000  1
  B  B9  1  0.500000  0.170997  0.500000  1
  B  B10  1  0.170997  0.500000  0.500000  1
  B  B11  1  0.500000  0.829003  0.500000  1
  B  B12  1  0.829003  0.170997  0.500000  1
