# generated using pymatgen
data_Hf4In4Co2Hg
_symmetry_space_group_name_H-M   'P 1'
_cell_length_a   3.27533500
_cell_length_b   7.46925005
_cell_length_c   9.08509104
_cell_angle_alpha   85.35446823
_cell_angle_beta   90.00000000
_cell_angle_gamma   90.00000000
_symmetry_Int_Tables_number   1
_chemical_formula_structural   Hf4In4Co2Hg
_chemical_formula_sum   'Hf4 In4 Co2 Hg1'
_cell_volume   221.53019457
_cell_formula_units_Z   1
loop_
 _symmetry_equiv_pos_site_id
 _symmetry_equiv_pos_as_xyz
  1  'x, y, z'
loop_
 _atom_site_type_symbol
 _atom_site_label
 _atom_site_symmetry_multiplicity
 _atom_site_fract_x
 _atom_site_fract_y
 _atom_site_fract_z
 _atom_site_occupancy
  Hf  Hf0  1  0.500000  0.803843  0.438349  1
  Hf  Hf1  1  0.500000  0.181529  0.160550  1
  Hf  Hf2  1  0.500000  0.196157  0.561651  1
  Hf  Hf3  1  0.500000  0.818471  0.839450  1
  In  In4  1  0.000000  0.540383  0.667179  1
  In  In5  1  0.000000  0.159762  0.861793  1
  In  In6  1  0.000000  0.840238  0.138207  1
  In  In7  1  0.000000  0.459617  0.332821  1
  Co  Co8  1  0.000000  0.076271  0.365221  1
  Co  Co9  1  0.000000  0.923729  0.634779  1
  Hg  Hg10  1  0.000000  0.500000  0.000000  1
