# generated using pymatgen
data_DyTh2(SnRu)3
_symmetry_space_group_name_H-M   'P 1'
_cell_length_a   7.53539300
_cell_length_b   7.31094485
_cell_length_c   4.10597400
_cell_angle_alpha   90.00000000
_cell_angle_beta   90.00000000
_cell_angle_gamma   119.01949624
_symmetry_Int_Tables_number   1
_chemical_formula_structural   DyTh2(SnRu)3
_chemical_formula_sum   'Dy1 Th2 Sn3 Ru3'
_cell_volume   197.80302124
_cell_formula_units_Z   1
loop_
 _symmetry_equiv_pos_site_id
 _symmetry_equiv_pos_as_xyz
  1  'x, y, z'
loop_
 _atom_site_type_symbol
 _atom_site_label
 _atom_site_symmetry_multiplicity
 _atom_site_fract_x
 _atom_site_fract_y
 _atom_site_fract_z
 _atom_site_occupancy
  Dy  Dy0  1  0.000000  0.590071  0.500000  1
  Th  Th1  1  0.412974  0.414176  0.500000  1
  Th  Th2  1  0.587026  0.001202  0.500000  1
  Sn  Sn3  1  0.763815  0.748102  0.000000  1
  Sn  Sn4  1  0.000000  0.265184  0.000000  1
  Sn  Sn5  1  0.236185  0.984287  0.000000  1
  Ru  Ru6  1  0.358085  0.671208  0.000000  1
  Ru  Ru7  1  0.000000  0.012649  0.500000  1
  Ru  Ru8  1  0.641915  0.313122  0.000000  1
