# generated using pymatgen
data_NdDy5C2Cl7
_symmetry_space_group_name_H-M   'P 1'
_cell_length_a   10.22112408
_cell_length_b   10.22112303
_cell_length_c   11.63839000
_cell_angle_alpha   56.45365640
_cell_angle_beta   56.45366031
_cell_angle_gamma   21.13424703
_symmetry_Int_Tables_number   1
_chemical_formula_structural   NdDy5C2Cl7
_chemical_formula_sum   'Nd1 Dy5 C2 Cl7'
_cell_volume   362.56582299
_cell_formula_units_Z   1
loop_
 _symmetry_equiv_pos_site_id
 _symmetry_equiv_pos_as_xyz
  1  'x, y, z'
loop_
 _atom_site_type_symbol
 _atom_site_label
 _atom_site_symmetry_multiplicity
 _atom_site_fract_x
 _atom_site_fract_y
 _atom_site_fract_z
 _atom_site_occupancy
  Nd  Nd0  1  0.223145  0.223145  0.857043  1
  Dy  Dy1  1  0.317999  0.317999  0.358948  1
  Dy  Dy2  1  0.128462  0.128462  0.441548  1
  Dy  Dy3  1  0.870999  0.870999  0.559848  1
  Dy  Dy4  1  0.683013  0.683013  0.640898  1
  Dy  Dy5  1  0.775320  0.775320  0.150030  1
  C  C6  1  0.280015  0.280015  0.605467  1
  C  C7  1  0.721433  0.721433  0.388029  1
  Cl  Cl8  1  0.169033  0.169033  0.166285  1
  Cl  Cl9  1  0.838359  0.838359  0.835624  1
  Cl  Cl10  1  0.060143  0.060143  0.712898  1
  Cl  Cl11  1  0.940410  0.940410  0.285089  1
  Cl  Cl12  1  0.500798  0.500798  0.498503  1
  Cl  Cl13  1  0.388751  0.388751  0.067529  1
  Cl  Cl14  1  0.602121  0.602121  0.932262  1
