# generated using pymatgen
data_Ca2HoTl(BO4)2
_symmetry_space_group_name_H-M   'P 1'
_cell_length_a   3.60358100
_cell_length_b   9.78975285
_cell_length_c   10.49932005
_cell_angle_alpha   90.73796352
_cell_angle_beta   90.00000000
_cell_angle_gamma   90.00000000
_symmetry_Int_Tables_number   1
_chemical_formula_structural   Ca2HoTl(BO4)2
_chemical_formula_sum   'Ca4 Ho2 Tl2 B4 O16'
_cell_volume   370.36604717
_cell_formula_units_Z   2
loop_
 _symmetry_equiv_pos_site_id
 _symmetry_equiv_pos_as_xyz
  1  'x, y, z'
loop_
 _atom_site_type_symbol
 _atom_site_label
 _atom_site_symmetry_multiplicity
 _atom_site_fract_x
 _atom_site_fract_y
 _atom_site_fract_z
 _atom_site_occupancy
  Ca  Ca0  1  0.250000  0.657809  0.082233  1
  Ca  Ca1  1  0.750000  0.342191  0.917767  1
  Ca  Ca2  1  0.750000  0.177857  0.411425  1
  Ca  Ca3  1  0.250000  0.822143  0.588575  1
  Ho  Ho4  1  0.750000  0.586555  0.389664  1
  Ho  Ho5  1  0.250000  0.413445  0.610336  1
  Tl  Tl6  1  0.250000  0.071730  0.118766  1
  Tl  Tl7  1  0.750000  0.928270  0.881234  1
  B  B8  1  0.250000  0.376084  0.190155  1
  B  B9  1  0.750000  0.623916  0.809845  1
  B  B10  1  0.750000  0.859709  0.307034  1
  B  B11  1  0.250000  0.140291  0.692966  1
  O  O12  1  0.250000  0.498008  0.260050  1
  O  O13  1  0.750000  0.501992  0.739950  1
  O  O14  1  0.750000  0.993895  0.262950  1
  O  O15  1  0.250000  0.006105  0.737050  1
  O  O16  1  0.250000  0.250942  0.256884  1
  O  O17  1  0.750000  0.749058  0.743116  1
  O  O18  1  0.750000  0.746146  0.226447  1
  O  O19  1  0.250000  0.253854  0.773553  1
  O  O20  1  0.250000  0.381952  0.059537  1
  O  O21  1  0.750000  0.618048  0.940463  1
  O  O22  1  0.750000  0.838692  0.438910  1
  O  O23  1  0.250000  0.161308  0.561090  1
  O  O24  1  0.250000  0.612059  0.509878  1
  O  O25  1  0.750000  0.387941  0.490122  1
  O  O26  1  0.750000  0.122486  0.997784  1
  O  O27  1  0.250000  0.877514  0.002216  1
