# generated using pymatgen
data_Lu3Mg3Sc2(B6Ir)4
_symmetry_space_group_name_H-M   'P 1'
_cell_length_a   3.51175400
_cell_length_b   8.88208598
_cell_length_c   11.24325205
_cell_angle_alpha   89.92866479
_cell_angle_beta   90.00000000
_cell_angle_gamma   90.00000000
_symmetry_Int_Tables_number   1
_chemical_formula_structural   Lu3Mg3Sc2(B6Ir)4
_chemical_formula_sum   'Lu3 Mg3 Sc2 B24 Ir4'
_cell_volume   350.69588390
_cell_formula_units_Z   1
loop_
 _symmetry_equiv_pos_site_id
 _symmetry_equiv_pos_as_xyz
  1  'x, y, z'
loop_
 _atom_site_type_symbol
 _atom_site_label
 _atom_site_symmetry_multiplicity
 _atom_site_fract_x
 _atom_site_fract_y
 _atom_site_fract_z
 _atom_site_occupancy
  Lu  Lu0  1  0.000000  0.181108  0.913678  1
  Lu  Lu1  1  0.000000  0.818373  0.085340  1
  Lu  Lu2  1  0.000000  0.681702  0.585309  1
  Mg  Mg3  1  0.000000  0.948799  0.381724  1
  Mg  Mg4  1  0.000000  0.053139  0.618484  1
  Mg  Mg5  1  0.000000  0.552995  0.878654  1
  Sc  Sc6  1  0.000000  0.316210  0.415815  1
  Sc  Sc7  1  0.000000  0.445412  0.123306  1
  B  B8  1  0.500000  0.370538  0.817958  1
  B  B9  1  0.500000  0.980504  0.215542  1
  B  B10  1  0.500000  0.554906  0.434856  1
  B  B11  1  0.500000  0.294112  0.237249  1
  B  B12  1  0.500000  0.205402  0.734631  1
  B  B13  1  0.500000  0.102859  0.472327  1
  B  B14  1  0.500000  0.795403  0.264991  1
  B  B15  1  0.500000  0.444262  0.564307  1
  B  B16  1  0.500000  0.245934  0.577381  1
  B  B17  1  0.500000  0.479975  0.286544  1
  B  B18  1  0.500000  0.705686  0.763941  1
  B  B19  1  0.500000  0.755124  0.421822  1
  B  B20  1  0.500000  0.519349  0.714030  1
  B  B21  1  0.500000  0.899407  0.527317  1
  B  B22  1  0.500000  0.054488  0.065504  1
  B  B23  1  0.500000  0.602168  0.027459  1
  B  B24  1  0.500000  0.745921  0.920183  1
  B  B25  1  0.500000  0.019309  0.784699  1
  B  B26  1  0.500000  0.397995  0.972340  1
  B  B27  1  0.500000  0.944993  0.933760  1
  B  B28  1  0.500000  0.630136  0.180936  1
  B  B29  1  0.500000  0.253497  0.078613  1
  B  B30  1  0.500000  0.871646  0.680229  1
  B  B31  1  0.500000  0.130216  0.321013  1
  Ir  Ir32  1  0.000000  0.138084  0.181295  1
  Ir  Ir33  1  0.000000  0.359947  0.680906  1
  Ir  Ir34  1  0.000000  0.859567  0.818872  1
  Ir  Ir35  1  0.000000  0.640831  0.318992  1
