# generated using pymatgen
data_La3Hg3Pd2Rh
_symmetry_space_group_name_H-M   'P 1'
_cell_length_a   7.83124000
_cell_length_b   7.83124019
_cell_length_c   4.05166800
_cell_angle_alpha   90.00000000
_cell_angle_beta   90.00000000
_cell_angle_gamma   119.99999921
_symmetry_Int_Tables_number   1
_chemical_formula_structural   La3Hg3Pd2Rh
_chemical_formula_sum   'La3 Hg3 Pd2 Rh1'
_cell_volume   215.19172380
_cell_formula_units_Z   1
loop_
 _symmetry_equiv_pos_site_id
 _symmetry_equiv_pos_as_xyz
  1  'x, y, z'
loop_
 _atom_site_type_symbol
 _atom_site_label
 _atom_site_symmetry_multiplicity
 _atom_site_fract_x
 _atom_site_fract_y
 _atom_site_fract_z
 _atom_site_occupancy
  La  La0  1  0.410284  0.399976  0.500000  1
  La  La1  1  0.600024  0.010308  0.500000  1
  La  La2  1  0.989692  0.589716  0.500000  1
  Hg  Hg3  1  0.742074  0.742426  0.000000  1
  Hg  Hg4  1  0.257574  0.999648  0.000000  1
  Hg  Hg5  1  0.000352  0.257926  0.000000  1
  Pd  Pd6  1  0.333333  0.666667  0.000000  1
  Pd  Pd7  1  0.000000  0.000000  0.500000  1
  Rh  Rh8  1  0.666667  0.333333  0.000000  1
