# generated using pymatgen
data_Lu5ZnNiSb
_symmetry_space_group_name_H-M   'P 1'
_cell_length_a   8.29748466
_cell_length_b   8.29748498
_cell_length_c   8.47605563
_cell_angle_alpha   124.93339409
_cell_angle_beta   124.93339300
_cell_angle_gamma   80.21831813
_symmetry_Int_Tables_number   1
_chemical_formula_structural   Lu5ZnNiSb
_chemical_formula_sum   'Lu10 Zn2 Ni2 Sb2'
_cell_volume   381.22075641
_cell_formula_units_Z   2
loop_
 _symmetry_equiv_pos_site_id
 _symmetry_equiv_pos_as_xyz
  1  'x, y, z'
loop_
 _atom_site_type_symbol
 _atom_site_label
 _atom_site_symmetry_multiplicity
 _atom_site_fract_x
 _atom_site_fract_y
 _atom_site_fract_z
 _atom_site_occupancy
  Lu  Lu0  1  0.000000  0.000000  0.000000  1
  Lu  Lu1  1  0.500000  0.500000  0.000000  1
  Lu  Lu2  1  0.785391  0.285391  0.791502  1
  Lu  Lu3  1  0.214609  0.714609  0.208498  1
  Lu  Lu4  1  0.493888  0.993888  0.208498  1
  Lu  Lu5  1  0.308234  0.467133  0.500000  1
  Lu  Lu6  1  0.032867  0.191766  0.500000  1
  Lu  Lu7  1  0.506112  0.006112  0.791502  1
  Lu  Lu8  1  0.691766  0.532867  0.500000  1
  Lu  Lu9  1  0.967133  0.808234  0.500000  1
  Zn  Zn10  1  0.134122  0.634122  0.768244  1
  Zn  Zn11  1  0.865878  0.365878  0.231756  1
  Ni  Ni12  1  0.630216  0.869784  0.500000  1
  Ni  Ni13  1  0.369784  0.130216  0.500000  1
  Sb  Sb14  1  0.250000  0.250000  0.000000  1
  Sb  Sb15  1  0.750000  0.750000  0.000000  1
