# generated using pymatgen
data_Tb3Th(MgIr)4
_symmetry_space_group_name_H-M   'P 1'
_cell_length_a   7.10156611
_cell_length_b   4.10138800
_cell_length_c   8.61464200
_cell_angle_alpha   90.00000000
_cell_angle_beta   90.64652258
_cell_angle_gamma   90.00000000
_symmetry_Int_Tables_number   1
_chemical_formula_structural   Tb3Th(MgIr)4
_chemical_formula_sum   'Tb3 Th1 Mg4 Ir4'
_cell_volume   250.89648403
_cell_formula_units_Z   1
loop_
 _symmetry_equiv_pos_site_id
 _symmetry_equiv_pos_as_xyz
  1  'x, y, z'
loop_
 _atom_site_type_symbol
 _atom_site_label
 _atom_site_symmetry_multiplicity
 _atom_site_fract_x
 _atom_site_fract_y
 _atom_site_fract_z
 _atom_site_occupancy
  Tb  Tb0  1  0.959243  0.250000  0.176730  1
  Tb  Tb1  1  0.462079  0.250000  0.318878  1
  Tb  Tb2  1  0.037815  0.750000  0.827220  1
  Th  Th3  1  0.537083  0.750000  0.679512  1
  Mg  Mg4  1  0.871691  0.250000  0.558521  1
  Mg  Mg5  1  0.360309  0.250000  0.945125  1
  Mg  Mg6  1  0.136220  0.750000  0.437287  1
  Mg  Mg7  1  0.634467  0.750000  0.061827  1
  Ir  Ir8  1  0.745174  0.250000  0.863880  1
  Ir  Ir9  1  0.259388  0.250000  0.627511  1
  Ir  Ir10  1  0.246396  0.750000  0.128500  1
  Ir  Ir11  1  0.750135  0.750000  0.375012  1
