# generated using pymatgen
data_Sn15IrOsRhO14
_symmetry_space_group_name_H-M   'P 1'
_cell_length_a   7.32798453
_cell_length_b   7.32797191
_cell_length_c   13.20309527
_cell_angle_alpha   73.52171766
_cell_angle_beta   73.52169915
_cell_angle_gamma   59.38897816
_symmetry_Int_Tables_number   1
_chemical_formula_structural   Sn15IrOsRhO14
_chemical_formula_sum   'Sn15 Ir1 Os1 Rh1 O14'
_cell_volume   576.74646813
_cell_formula_units_Z   1
loop_
 _symmetry_equiv_pos_site_id
 _symmetry_equiv_pos_as_xyz
  1  'x, y, z'
loop_
 _atom_site_type_symbol
 _atom_site_label
 _atom_site_symmetry_multiplicity
 _atom_site_fract_x
 _atom_site_fract_y
 _atom_site_fract_z
 _atom_site_occupancy
  Sn  Sn0  1  0.326258  0.853932  0.086444  1
  Sn  Sn1  1  0.424686  0.902745  0.349449  1
  Sn  Sn2  1  0.902745  0.424685  0.349449  1
  Sn  Sn3  1  0.982436  0.982435  0.617250  1
  Sn  Sn4  1  0.090125  0.568131  0.840883  1
  Sn  Sn5  1  0.568131  0.090126  0.840879  1
  Sn  Sn6  1  0.846446  0.846446  0.083573  1
  Sn  Sn7  1  0.567097  0.567095  0.853496  1
  Sn  Sn8  1  0.902979  0.902979  0.342369  1
  Sn  Sn9  1  0.000093  0.508670  0.572439  1
  Sn  Sn10  1  0.508670  0.000093  0.572439  1
  Sn  Sn11  1  0.512819  0.512819  0.579876  1
  Sn  Sn12  1  0.098015  0.098018  0.822564  1
  Sn  Sn13  1  0.853932  0.326259  0.086444  1
  Sn  Sn14  1  0.324817  0.324816  0.109711  1
  Ir  Ir15  1  0.116389  0.116388  0.231902  1
  Os  Os16  1  0.302452  0.302454  0.693687  1
  Rh  Rh17  1  0.707501  0.707502  0.968519  1
  O  O18  1  0.769493  0.769492  0.259025  1
  O  O19  1  0.775143  0.226883  0.823186  1
  O  O20  1  0.226884  0.775145  0.823186  1
  O  O21  1  0.031895  0.571462  0.404112  1
  O  O22  1  0.571463  0.031895  0.404113  1
  O  O23  1  0.659353  0.659353  0.623815  1
  O  O24  1  0.571764  0.571762  0.411231  1
  O  O25  1  0.366905  0.366905  0.942861  1
  O  O26  1  0.879273  0.879273  0.519253  1
  O  O27  1  0.064427  0.064427  0.990009  1
  O  O28  1  0.304964  0.878946  0.531138  1
  O  O29  1  0.878946  0.304964  0.531138  1
  O  O30  1  0.189348  0.643262  0.121016  1
  O  O31  1  0.643263  0.189348  0.121016  1
