# generated using pymatgen
data_Eu20Cd3Hg3Ru2
_symmetry_space_group_name_H-M   'P 1'
_cell_length_a   10.21507700
_cell_length_b   10.21507709
_cell_length_c   10.42829900
_cell_angle_alpha   90.00000000
_cell_angle_beta   90.00000000
_cell_angle_gamma   120.00000294
_symmetry_Int_Tables_number   1
_chemical_formula_structural   Eu20Cd3Hg3Ru2
_chemical_formula_sum   'Eu20 Cd3 Hg3 Ru2'
_cell_volume   942.38287763
_cell_formula_units_Z   1
loop_
 _symmetry_equiv_pos_site_id
 _symmetry_equiv_pos_as_xyz
  1  'x, y, z'
loop_
 _atom_site_type_symbol
 _atom_site_label
 _atom_site_symmetry_multiplicity
 _atom_site_fract_x
 _atom_site_fract_y
 _atom_site_fract_z
 _atom_site_occupancy
  Eu  Eu0  1  0.000000  0.000000  0.488871  1
  Eu  Eu1  1  0.000000  0.000000  0.011129  1
  Eu  Eu2  1  0.208769  0.791231  0.434771  1
  Eu  Eu3  1  0.208769  0.417540  0.434771  1
  Eu  Eu4  1  0.582460  0.791231  0.434771  1
  Eu  Eu5  1  0.791144  0.208856  0.564592  1
  Eu  Eu6  1  0.791144  0.582286  0.564592  1
  Eu  Eu7  1  0.417714  0.208856  0.564592  1
  Eu  Eu8  1  0.791144  0.208856  0.935408  1
  Eu  Eu9  1  0.791144  0.582286  0.935408  1
  Eu  Eu10  1  0.417714  0.208856  0.935408  1
  Eu  Eu11  1  0.208769  0.791231  0.065229  1
  Eu  Eu12  1  0.208769  0.417540  0.065229  1
  Eu  Eu13  1  0.582460  0.791231  0.065229  1
  Eu  Eu14  1  0.539014  0.460986  0.250000  1
  Eu  Eu15  1  0.539014  0.078030  0.250000  1
  Eu  Eu16  1  0.921970  0.460986  0.250000  1
  Eu  Eu17  1  0.460714  0.539286  0.750000  1
  Eu  Eu18  1  0.460714  0.921428  0.750000  1
  Eu  Eu19  1  0.078572  0.539286  0.750000  1
  Cd  Cd20  1  0.112418  0.887582  0.750000  1
  Cd  Cd21  1  0.112418  0.224837  0.750000  1
  Cd  Cd22  1  0.775163  0.887582  0.750000  1
  Hg  Hg23  1  0.879431  0.120569  0.250000  1
  Hg  Hg24  1  0.879431  0.758862  0.250000  1
  Hg  Hg25  1  0.241138  0.120569  0.250000  1
  Ru  Ru26  1  0.333333  0.666667  0.250000  1
  Ru  Ru27  1  0.666667  0.333333  0.750000  1
