# generated using pymatgen
data_Cs2Pr5Nd(CBr6)2
_symmetry_space_group_name_H-M   'P 1'
_cell_length_a   9.15099611
_cell_length_b   9.18298155
_cell_length_c   9.84160641
_cell_angle_alpha   69.66158394
_cell_angle_beta   85.98641942
_cell_angle_gamma   89.35910258
_symmetry_Int_Tables_number   1
_chemical_formula_structural   Cs2Pr5Nd(CBr6)2
_chemical_formula_sum   'Cs2 Pr5 Nd1 C2 Br12'
_cell_volume   773.48585091
_cell_formula_units_Z   1
loop_
 _symmetry_equiv_pos_site_id
 _symmetry_equiv_pos_as_xyz
  1  'x, y, z'
loop_
 _atom_site_type_symbol
 _atom_site_label
 _atom_site_symmetry_multiplicity
 _atom_site_fract_x
 _atom_site_fract_y
 _atom_site_fract_z
 _atom_site_occupancy
  Cs  Cs0  1  0.474825  0.348835  0.334166  1
  Cs  Cs1  1  0.525081  0.651286  0.665796  1
  Pr  Pr2  1  0.913526  0.737868  0.003813  1
  Pr  Pr3  1  0.086427  0.262144  0.996269  1
  Pr  Pr4  1  0.737062  0.088039  0.000646  1
  Pr  Pr5  1  0.263011  0.912123  0.998977  1
  Pr  Pr6  1  0.979306  0.876765  0.327331  1
  Nd  Nd7  1  0.020956  0.122714  0.674085  1
  C  C8  1  0.004728  0.028291  0.923551  1
  C  C9  1  0.995365  0.971848  0.076097  1
  Br  Br10  1  0.086405  0.189031  0.327400  1
  Br  Br11  1  0.914082  0.813144  0.673657  1
  Br  Br12  1  0.206916  0.590857  0.000875  1
  Br  Br13  1  0.793083  0.409199  0.998938  1
  Br  Br14  1  0.405902  0.202051  0.005229  1
  Br  Br15  1  0.594064  0.798073  0.994548  1
  Br  Br16  1  0.671632  0.995279  0.327164  1
  Br  Br17  1  0.325963  0.005641  0.672526  1
  Br  Br18  1  0.286623  0.762057  0.323905  1
  Br  Br19  1  0.716216  0.236827  0.675519  1
  Br  Br20  1  0.848913  0.582630  0.326472  1
  Br  Br21  1  0.149911  0.415299  0.673035  1
