# generated using pymatgen
data_CaNd16Tm3Pb16
_symmetry_space_group_name_H-M   'P 1'
_cell_length_a   8.35978700
_cell_length_b   8.46406801
_cell_length_c   16.12157900
_cell_angle_alpha   90.00000000
_cell_angle_beta   90.00000000
_cell_angle_gamma   89.99800983
_symmetry_Int_Tables_number   1
_chemical_formula_structural   CaNd16Tm3Pb16
_chemical_formula_sum   'Ca1 Nd16 Tm3 Pb16'
_cell_volume   1140.72755339
_cell_formula_units_Z   1
loop_
 _symmetry_equiv_pos_site_id
 _symmetry_equiv_pos_as_xyz
  1  'x, y, z'
loop_
 _atom_site_type_symbol
 _atom_site_label
 _atom_site_symmetry_multiplicity
 _atom_site_fract_x
 _atom_site_fract_y
 _atom_site_fract_z
 _atom_site_occupancy
  Ca  Ca0  1  0.292436  0.003843  0.250000  1
  Nd  Nd1  1  0.374936  0.841118  0.879510  1
  Nd  Nd2  1  0.875263  0.658196  0.619733  1
  Nd  Nd3  1  0.622577  0.158956  0.381186  1
  Nd  Nd4  1  0.124298  0.340515  0.118835  1
  Nd  Nd5  1  0.622577  0.158956  0.118814  1
  Nd  Nd6  1  0.124298  0.340515  0.381165  1
  Nd  Nd7  1  0.374936  0.841118  0.620490  1
  Nd  Nd8  1  0.875263  0.658196  0.880267  1
  Nd  Nd9  1  0.531093  0.321421  0.900275  1
  Nd  Nd10  1  0.031295  0.177929  0.600139  1
  Nd  Nd11  1  0.470057  0.679734  0.401385  1
  Nd  Nd12  1  0.970335  0.821311  0.098403  1
  Nd  Nd13  1  0.470057  0.679734  0.098615  1
  Nd  Nd14  1  0.970335  0.821311  0.401597  1
  Nd  Nd15  1  0.531093  0.321421  0.599725  1
  Nd  Nd16  1  0.031295  0.177929  0.899861  1
  Tm  Tm17  1  0.207953  0.504626  0.750000  1
  Tm  Tm18  1  0.707850  0.996515  0.750000  1
  Tm  Tm19  1  0.793123  0.495400  0.250000  1
  Pb  Pb20  1  0.282354  0.033088  0.042559  1
  Pb  Pb21  1  0.782405  0.468723  0.454068  1
  Pb  Pb22  1  0.717502  0.968220  0.545595  1
  Pb  Pb23  1  0.217707  0.531243  0.954114  1
  Pb  Pb24  1  0.717502  0.968220  0.954405  1
  Pb  Pb25  1  0.217707  0.531243  0.545886  1
  Pb  Pb26  1  0.282354  0.033088  0.457441  1
  Pb  Pb27  1  0.782405  0.468723  0.045932  1
  Pb  Pb28  1  0.570491  0.623794  0.750000  1
  Pb  Pb29  1  0.069744  0.876291  0.750000  1
  Pb  Pb30  1  0.429516  0.382603  0.250000  1
  Pb  Pb31  1  0.925094  0.122751  0.250000  1
  Pb  Pb32  1  0.341023  0.153328  0.750000  1
  Pb  Pb33  1  0.840984  0.346807  0.750000  1
  Pb  Pb34  1  0.665557  0.846301  0.250000  1
  Pb  Pb35  1  0.156584  0.646831  0.250000  1
