# generated using pymatgen
data_Y2Co9Tc3AsP6
_symmetry_space_group_name_H-M   'P 1'
_cell_length_a   3.71899800
_cell_length_b   9.09642758
_cell_length_c   9.09152923
_cell_angle_alpha   119.95646564
_cell_angle_beta   90.00000000
_cell_angle_gamma   90.00000000
_symmetry_Int_Tables_number   1
_chemical_formula_structural   Y2Co9Tc3AsP6
_chemical_formula_sum   'Y2 Co9 Tc3 As1 P6'
_cell_volume   266.47393280
_cell_formula_units_Z   1
loop_
 _symmetry_equiv_pos_site_id
 _symmetry_equiv_pos_as_xyz
  1  'x, y, z'
loop_
 _atom_site_type_symbol
 _atom_site_label
 _atom_site_symmetry_multiplicity
 _atom_site_fract_x
 _atom_site_fract_y
 _atom_site_fract_z
 _atom_site_occupancy
  Y  Y0  1  0.000000  0.667119  0.334032  1
  Y  Y1  1  0.500000  0.334114  0.660737  1
  Co  Co2  1  0.000000  0.575154  0.939894  1
  Co  Co3  1  0.000000  0.372637  0.434785  1
  Co  Co4  1  0.000000  0.051171  0.617864  1
  Co  Co5  1  0.000000  0.879511  0.158319  1
  Co  Co6  1  0.000000  0.279490  0.128411  1
  Co  Co7  1  0.000000  0.840780  0.719416  1
  Co  Co8  1  0.500000  0.944872  0.381562  1
  Co  Co9  1  0.500000  0.443384  0.062396  1
  Co  Co10  1  0.500000  0.616542  0.562689  1
  Tc  Tc11  1  0.500000  0.781242  0.902278  1
  Tc  Tc12  1  0.500000  0.122007  0.221579  1
  Tc  Tc13  1  0.500000  0.091709  0.880368  1
  As  As14  1  0.000000  0.298593  0.884945  1
  P  P15  1  0.000000  0.999994  0.999861  1
  P  P16  1  0.500000  0.709543  0.116279  1
  P  P17  1  0.500000  0.407916  0.293456  1
  P  P18  1  0.500000  0.883216  0.591583  1
  P  P19  1  0.000000  0.590614  0.700212  1
  P  P20  1  0.000000  0.110391  0.409334  1
