# generated using pymatgen
data_HfZr5Ga6PdPt5
_symmetry_space_group_name_H-M   'P 1'
_cell_length_a   7.20614531
_cell_length_b   7.22262836
_cell_length_c   7.13089300
_cell_angle_alpha   90.00000000
_cell_angle_beta   90.00000000
_cell_angle_gamma   120.16040046
_symmetry_Int_Tables_number   1
_chemical_formula_structural   HfZr5Ga6PdPt5
_chemical_formula_sum   'Hf1 Zr5 Ga6 Pd1 Pt5'
_cell_volume   320.89918445
_cell_formula_units_Z   1
loop_
 _symmetry_equiv_pos_site_id
 _symmetry_equiv_pos_as_xyz
  1  'x, y, z'
loop_
 _atom_site_type_symbol
 _atom_site_label
 _atom_site_symmetry_multiplicity
 _atom_site_fract_x
 _atom_site_fract_y
 _atom_site_fract_z
 _atom_site_occupancy
  Hf  Hf0  1  0.976925  0.384152  0.250000  1
  Zr  Zr1  1  0.616847  0.593091  0.250000  1
  Zr  Zr2  1  0.026338  0.414885  0.750000  1
  Zr  Zr3  1  0.407509  0.024065  0.250000  1
  Zr  Zr4  1  0.390591  0.973865  0.750000  1
  Zr  Zr5  1  0.584751  0.609645  0.750000  1
  Ga  Ga6  1  0.266946  0.267696  0.502053  1
  Ga  Ga7  1  0.731755  0.998395  0.501514  1
  Ga  Ga8  1  0.000682  0.734256  0.501070  1
  Ga  Ga9  1  0.731755  0.998395  0.998486  1
  Ga  Ga10  1  0.266946  0.267696  0.997947  1
  Ga  Ga11  1  0.000682  0.734256  0.998930  1
  Pd  Pd12  1  0.000276  0.000277  0.750000  1
  Pt  Pt13  1  0.329798  0.663952  0.461621  1
  Pt  Pt14  1  0.000934  0.004575  0.250000  1
  Pt  Pt15  1  0.329798  0.663952  0.038379  1
  Pt  Pt16  1  0.668732  0.333423  0.529924  1
  Pt  Pt17  1  0.668732  0.333423  0.970076  1
