# generated using pymatgen
data_AcZn5Au3
_symmetry_space_group_name_H-M   'P 1'
_cell_length_a   4.32271200
_cell_length_b   12.38188900
_cell_length_c   13.18510900
_cell_angle_alpha   90.00000000
_cell_angle_beta   90.00000000
_cell_angle_gamma   90.00000000
_symmetry_Int_Tables_number   1
_chemical_formula_structural   AcZn5Au3
_chemical_formula_sum   'Ac4 Zn20 Au12'
_cell_volume   705.71107409
_cell_formula_units_Z   4
loop_
 _symmetry_equiv_pos_site_id
 _symmetry_equiv_pos_as_xyz
  1  'x, y, z'
loop_
 _atom_site_type_symbol
 _atom_site_label
 _atom_site_symmetry_multiplicity
 _atom_site_fract_x
 _atom_site_fract_y
 _atom_site_fract_z
 _atom_site_occupancy
  Ac  Ac0  1  0.250000  0.895671  0.297350  1
  Ac  Ac1  1  0.750000  0.104329  0.702650  1
  Ac  Ac2  1  0.750000  0.395671  0.202650  1
  Ac  Ac3  1  0.250000  0.604329  0.797350  1
  Zn  Zn4  1  0.250000  0.409359  0.999770  1
  Zn  Zn5  1  0.750000  0.590641  0.000230  1
  Zn  Zn6  1  0.750000  0.909359  0.500230  1
  Zn  Zn7  1  0.250000  0.090641  0.499770  1
  Zn  Zn8  1  0.250000  0.601581  0.324676  1
  Zn  Zn9  1  0.750000  0.398419  0.675324  1
  Zn  Zn10  1  0.750000  0.101581  0.175324  1
  Zn  Zn11  1  0.250000  0.898419  0.824676  1
  Zn  Zn12  1  0.250000  0.007838  0.065684  1
  Zn  Zn13  1  0.750000  0.992162  0.934316  1
  Zn  Zn14  1  0.750000  0.507838  0.434316  1
  Zn  Zn15  1  0.250000  0.492162  0.565684  1
  Zn  Zn16  1  0.250000  0.780249  0.025757  1
  Zn  Zn17  1  0.750000  0.219751  0.974243  1
  Zn  Zn18  1  0.750000  0.280249  0.474243  1
  Zn  Zn19  1  0.250000  0.719751  0.525757  1
  Zn  Zn20  1  0.250000  0.191060  0.303083  1
  Zn  Zn21  1  0.750000  0.808940  0.696917  1
  Zn  Zn22  1  0.750000  0.691060  0.196917  1
  Zn  Zn23  1  0.250000  0.308940  0.803083  1
  Au  Au24  1  0.250000  0.588941  0.120221  1
  Au  Au25  1  0.750000  0.411059  0.879779  1
  Au  Au26  1  0.750000  0.088941  0.379779  1
  Au  Au27  1  0.250000  0.911059  0.620221  1
  Au  Au28  1  0.250000  0.219554  0.102524  1
  Au  Au29  1  0.750000  0.780446  0.897476  1
  Au  Au30  1  0.750000  0.719554  0.397476  1
  Au  Au31  1  0.250000  0.280446  0.602524  1
  Au  Au32  1  0.250000  0.385301  0.387134  1
  Au  Au33  1  0.750000  0.614699  0.612866  1
  Au  Au34  1  0.750000  0.885301  0.112866  1
  Au  Au35  1  0.250000  0.114699  0.887134  1
