# generated using pymatgen
data_TiNb6PbS12
_symmetry_space_group_name_H-M   'P 1'
_cell_length_a   5.81301500
_cell_length_b   5.81301604
_cell_length_c   13.72395400
_cell_angle_alpha   90.00000000
_cell_angle_beta   90.00000000
_cell_angle_gamma   120.00001114
_symmetry_Int_Tables_number   1
_chemical_formula_structural   TiNb6PbS12
_chemical_formula_sum   'Ti1 Nb6 Pb1 S12'
_cell_volume   401.61766031
_cell_formula_units_Z   1
loop_
 _symmetry_equiv_pos_site_id
 _symmetry_equiv_pos_as_xyz
  1  'x, y, z'
loop_
 _atom_site_type_symbol
 _atom_site_label
 _atom_site_symmetry_multiplicity
 _atom_site_fract_x
 _atom_site_fract_y
 _atom_site_fract_z
 _atom_site_occupancy
  Ti  Ti0  1  0.666667  0.333333  0.750000  1
  Nb  Nb1  1  0.000000  0.000000  0.524723  1
  Nb  Nb2  1  0.000000  0.000000  0.975277  1
  Nb  Nb3  1  0.333333  0.666667  0.975533  1
  Nb  Nb4  1  0.666667  0.333333  0.977278  1
  Nb  Nb5  1  0.666667  0.333333  0.522722  1
  Nb  Nb6  1  0.333333  0.666667  0.524467  1
  Pb  Pb7  1  0.333333  0.666667  0.250000  1
  S  S8  1  0.331063  0.328988  0.408800  1
  S  S9  1  0.671012  0.002076  0.408800  1
  S  S10  1  0.997924  0.668937  0.408800  1
  S  S11  1  0.333701  0.333110  0.639333  1
  S  S12  1  0.999409  0.666299  0.639333  1
  S  S13  1  0.666890  0.000591  0.639333  1
  S  S14  1  0.666890  0.666299  0.860667  1
  S  S15  1  0.333701  0.000591  0.860667  1
  S  S16  1  0.999409  0.333110  0.860667  1
  S  S17  1  0.671012  0.668937  0.091200  1
  S  S18  1  0.997924  0.328988  0.091200  1
  S  S19  1  0.331063  0.002076  0.091200  1
