# generated using pymatgen
data_Tb6Dy3Er11Pb16
_symmetry_space_group_name_H-M   'P 1'
_cell_length_a   8.19428267
_cell_length_b   8.27631346
_cell_length_c   15.59370350
_cell_angle_alpha   89.97915198
_cell_angle_beta   90.02059221
_cell_angle_gamma   90.25078117
_symmetry_Int_Tables_number   1
_chemical_formula_structural   Tb6Dy3Er11Pb16
_chemical_formula_sum   'Tb6 Dy3 Er11 Pb16'
_cell_volume   1057.53056309
_cell_formula_units_Z   1
loop_
 _symmetry_equiv_pos_site_id
 _symmetry_equiv_pos_as_xyz
  1  'x, y, z'
loop_
 _atom_site_type_symbol
 _atom_site_label
 _atom_site_symmetry_multiplicity
 _atom_site_fract_x
 _atom_site_fract_y
 _atom_site_fract_z
 _atom_site_occupancy
  Tb  Tb0  1  0.465013  0.676802  0.400819  1
  Tb  Tb1  1  0.964169  0.824092  0.100101  1
  Tb  Tb2  1  0.465413  0.676531  0.099273  1
  Tb  Tb3  1  0.964822  0.823668  0.400539  1
  Tb  Tb4  1  0.534199  0.322796  0.598970  1
  Tb  Tb5  1  0.035140  0.176502  0.900506  1
  Dy  Dy6  1  0.876122  0.658314  0.878640  1
  Dy  Dy7  1  0.535836  0.323158  0.900546  1
  Dy  Dy8  1  0.035860  0.176127  0.599526  1
  Er  Er9  1  0.374414  0.842313  0.878562  1
  Er  Er10  1  0.875118  0.657889  0.621675  1
  Er  Er11  1  0.625159  0.157463  0.378592  1
  Er  Er12  1  0.124449  0.342503  0.121737  1
  Er  Er13  1  0.624748  0.157727  0.121765  1
  Er  Er14  1  0.124414  0.341671  0.378198  1
  Er  Er15  1  0.374900  0.842541  0.621151  1
  Er  Er16  1  0.207941  0.504448  0.749672  1
  Er  Er17  1  0.707210  0.995428  0.749658  1
  Er  Er18  1  0.792305  0.495252  0.250137  1
  Er  Er19  1  0.292481  0.004610  0.250102  1
  Pb  Pb20  1  0.283121  0.035657  0.043220  1
  Pb  Pb21  1  0.783503  0.465003  0.456661  1
  Pb  Pb22  1  0.716970  0.964751  0.542780  1
  Pb  Pb23  1  0.218386  0.533490  0.956868  1
  Pb  Pb24  1  0.715238  0.965795  0.957233  1
  Pb  Pb25  1  0.215454  0.534993  0.542991  1
  Pb  Pb26  1  0.283476  0.036193  0.457138  1
  Pb  Pb27  1  0.783647  0.464257  0.043610  1
  Pb  Pb28  1  0.569459  0.626438  0.749519  1
  Pb  Pb29  1  0.070458  0.874455  0.749733  1
  Pb  Pb30  1  0.430195  0.373501  0.250209  1
  Pb  Pb31  1  0.929624  0.126345  0.249833  1
  Pb  Pb32  1  0.346614  0.154089  0.750111  1
  Pb  Pb33  1  0.846830  0.345247  0.749418  1
  Pb  Pb34  1  0.653610  0.845926  0.250321  1
  Pb  Pb35  1  0.153700  0.654026  0.250187  1
