# generated using pymatgen
data_Nd10In8Ir3Pd
_symmetry_space_group_name_H-M   'P 1'
_cell_length_a   3.81304100
_cell_length_b   8.26678562
_cell_length_c   18.68108113
_cell_angle_alpha   90.08051126
_cell_angle_beta   90.00000000
_cell_angle_gamma   90.00000000
_symmetry_Int_Tables_number   1
_chemical_formula_structural   Nd10In8Ir3Pd
_chemical_formula_sum   'Nd10 In8 Ir3 Pd1'
_cell_volume   588.85684545
_cell_formula_units_Z   1
loop_
 _symmetry_equiv_pos_site_id
 _symmetry_equiv_pos_as_xyz
  1  'x, y, z'
loop_
 _atom_site_type_symbol
 _atom_site_label
 _atom_site_symmetry_multiplicity
 _atom_site_fract_x
 _atom_site_fract_y
 _atom_site_fract_z
 _atom_site_occupancy
  Nd  Nd0  1  0.000000  0.499836  0.501065  1
  Nd  Nd1  1  0.000000  0.999844  0.999436  1
  Nd  Nd2  1  0.000000  0.728984  0.278648  1
  Nd  Nd3  1  0.000000  0.258692  0.721319  1
  Nd  Nd4  1  0.000000  0.758709  0.777932  1
  Nd  Nd5  1  0.000000  0.253259  0.219379  1
  Nd  Nd6  1  0.000000  0.614076  0.086430  1
  Nd  Nd7  1  0.000000  0.385923  0.910171  1
  Nd  Nd8  1  0.000000  0.885409  0.589699  1
  Nd  Nd9  1  0.000000  0.115821  0.416011  1
  In  In10  1  0.500000  0.709358  0.929685  1
  In  In11  1  0.500000  0.290794  0.068959  1
  In  In12  1  0.500000  0.789758  0.430847  1
  In  In13  1  0.500000  0.208259  0.569880  1
  In  In14  1  0.500000  0.568420  0.649988  1
  In  In15  1  0.500000  0.425391  0.350906  1
  In  In16  1  0.500000  0.927445  0.150488  1
  In  In17  1  0.500000  0.068167  0.850192  1
  Ir  Ir18  1  0.500000  0.515422  0.195572  1
  Ir  Ir19  1  0.500000  0.489732  0.803710  1
  Ir  Ir20  1  0.500000  0.989881  0.696440  1
  Pd  Pd21  1  0.500000  0.016821  0.303244  1
