# generated using pymatgen
data_Dy2Ho3Co16(MoP4)3
_symmetry_space_group_name_H-M   'P 1'
_cell_length_a   12.05999800
_cell_length_b   12.05999881
_cell_length_c   3.70160600
_cell_angle_alpha   90.00000000
_cell_angle_beta   90.00000000
_cell_angle_gamma   120.00000325
_symmetry_Int_Tables_number   1
_chemical_formula_structural   Dy2Ho3Co16(MoP4)3
_chemical_formula_sum   'Dy2 Ho3 Co16 Mo3 P12'
_cell_volume   466.24620379
_cell_formula_units_Z   1
loop_
 _symmetry_equiv_pos_site_id
 _symmetry_equiv_pos_as_xyz
  1  'x, y, z'
loop_
 _atom_site_type_symbol
 _atom_site_label
 _atom_site_symmetry_multiplicity
 _atom_site_fract_x
 _atom_site_fract_y
 _atom_site_fract_z
 _atom_site_occupancy
  Dy  Dy0  1  0.666667  0.333333  0.000000  1
  Dy  Dy1  1  0.333333  0.666667  0.000000  1
  Ho  Ho2  1  0.814737  0.814737  0.500000  1
  Ho  Ho3  1  0.185263  0.000000  0.500000  1
  Ho  Ho4  1  0.000000  0.185263  0.500000  1
  Co  Co5  1  0.872945  0.355388  0.500000  1
  Co  Co6  1  0.644612  0.517557  0.500000  1
  Co  Co7  1  0.482443  0.127055  0.500000  1
  Co  Co8  1  0.355388  0.872945  0.500000  1
  Co  Co9  1  0.517557  0.644612  0.500000  1
  Co  Co10  1  0.127055  0.482443  0.500000  1
  Co  Co11  1  0.802357  0.177437  0.000000  1
  Co  Co12  1  0.822563  0.624919  0.000000  1
  Co  Co13  1  0.375081  0.197643  0.000000  1
  Co  Co14  1  0.177437  0.802357  0.000000  1
  Co  Co15  1  0.624919  0.822563  0.000000  1
  Co  Co16  1  0.197643  0.375081  0.000000  1
  Co  Co17  1  0.280205  0.280205  0.500000  1
  Co  Co18  1  0.719795  0.000000  0.500000  1
  Co  Co19  1  0.000000  0.719795  0.500000  1
  Co  Co20  1  0.000000  0.000000  0.000000  1
  Mo  Mo21  1  0.446023  0.446023  0.000000  1
  Mo  Mo22  1  0.553977  0.000000  0.000000  1
  Mo  Mo23  1  0.000000  0.553977  0.000000  1
  P  P24  1  0.686338  0.165795  0.500000  1
  P  P25  1  0.834205  0.520544  0.500000  1
  P  P26  1  0.479456  0.313662  0.500000  1
  P  P27  1  0.165795  0.686338  0.500000  1
  P  P28  1  0.520544  0.834205  0.500000  1
  P  P29  1  0.313662  0.479456  0.500000  1
  P  P30  1  0.178202  0.178202  0.000000  1
  P  P31  1  0.821798  0.000000  0.000000  1
  P  P32  1  0.000000  0.821798  0.000000  1
  P  P33  1  0.639110  0.639110  0.000000  1
  P  P34  1  0.360890  0.000000  0.000000  1
  P  P35  1  0.000000  0.360890  0.000000  1
