# generated using pymatgen
data_Sc2TcC2
_symmetry_space_group_name_H-M   'P 1'
_cell_length_a   5.41750400
_cell_length_b   5.41750400
_cell_length_c   9.36630400
_cell_angle_alpha   90.00000000
_cell_angle_beta   90.00000000
_cell_angle_gamma   90.00000000
_symmetry_Int_Tables_number   1
_chemical_formula_structural   Sc2TcC2
_chemical_formula_sum   'Sc8 Tc4 C8'
_cell_volume   274.89493046
_cell_formula_units_Z   4
loop_
 _symmetry_equiv_pos_site_id
 _symmetry_equiv_pos_as_xyz
  1  'x, y, z'
loop_
 _atom_site_type_symbol
 _atom_site_label
 _atom_site_symmetry_multiplicity
 _atom_site_fract_x
 _atom_site_fract_y
 _atom_site_fract_z
 _atom_site_occupancy
  Sc  Sc0  1  0.202583  0.797417  0.156230  1
  Sc  Sc1  1  0.797417  0.202583  0.843770  1
  Sc  Sc2  1  0.202583  0.797417  0.843770  1
  Sc  Sc3  1  0.297417  0.297417  0.343770  1
  Sc  Sc4  1  0.702583  0.702583  0.343770  1
  Sc  Sc5  1  0.297417  0.297417  0.656230  1
  Sc  Sc6  1  0.797417  0.202583  0.156230  1
  Sc  Sc7  1  0.702583  0.702583  0.656230  1
  Tc  Tc8  1  0.320162  0.320162  0.000000  1
  Tc  Tc9  1  0.179838  0.820162  0.500000  1
  Tc  Tc10  1  0.679838  0.679838  0.000000  1
  Tc  Tc11  1  0.820162  0.179838  0.500000  1
  C  C12  1  0.000000  0.500000  0.500000  1
  C  C13  1  0.000000  0.000000  0.330162  1
  C  C14  1  0.500000  0.000000  0.000000  1
  C  C15  1  0.000000  0.000000  0.669838  1
  C  C16  1  0.500000  0.500000  0.830162  1
  C  C17  1  0.500000  0.500000  0.169838  1
  C  C18  1  0.500000  0.000000  0.500000  1
  C  C19  1  0.000000  0.500000  0.000000  1
