# generated using pymatgen
data_YbLu5(Si3Ru)8
_symmetry_space_group_name_H-M   'P 1'
_cell_length_a   10.09266465
_cell_length_b   10.09266392
_cell_length_c   8.08740756
_cell_angle_alpha   89.99562724
_cell_angle_beta   90.00437401
_cell_angle_gamma   132.70314514
_symmetry_Int_Tables_number   1
_chemical_formula_structural   YbLu5(Si3Ru)8
_chemical_formula_sum   'Yb1 Lu5 Si24 Ru8'
_cell_volume   605.39085387
_cell_formula_units_Z   1
loop_
 _symmetry_equiv_pos_site_id
 _symmetry_equiv_pos_as_xyz
  1  'x, y, z'
loop_
 _atom_site_type_symbol
 _atom_site_label
 _atom_site_symmetry_multiplicity
 _atom_site_fract_x
 _atom_site_fract_y
 _atom_site_fract_z
 _atom_site_occupancy
  Yb  Yb0  1  0.001802  0.501802  0.750000  1
  Lu  Lu1  1  0.500277  0.500229  0.499921  1
  Lu  Lu2  1  0.000229  0.000277  0.000079  1
  Lu  Lu3  1  0.502740  0.002740  0.750000  1
  Lu  Lu4  1  0.997844  0.497844  0.250000  1
  Lu  Lu5  1  0.498621  0.998621  0.250000  1
  Si  Si6  1  0.795531  0.205811  0.500307  1
  Si  Si7  1  0.294629  0.704638  0.000123  1
  Si  Si8  1  0.204638  0.794629  0.499877  1
  Si  Si9  1  0.705811  0.295531  0.999693  1
  Si  Si10  1  0.332498  0.333078  0.832687  1
  Si  Si11  1  0.668192  0.667544  0.166786  1
  Si  Si12  1  0.167544  0.168192  0.333214  1
  Si  Si13  1  0.833078  0.832498  0.667313  1
  Si  Si14  1  0.123681  0.889155  0.729123  1
  Si  Si15  1  0.110532  0.877036  0.271716  1
  Si  Si16  1  0.612545  0.379328  0.227532  1
  Si  Si17  1  0.620767  0.386110  0.771244  1
  Si  Si18  1  0.879328  0.112545  0.272468  1
  Si  Si19  1  0.886110  0.120767  0.728756  1
  Si  Si20  1  0.389155  0.623681  0.770877  1
  Si  Si21  1  0.377036  0.610532  0.228284  1
  Si  Si22  1  0.343863  0.111385  0.505348  1
  Si  Si23  1  0.887136  0.652265  0.493043  1
  Si  Si24  1  0.389065  0.156451  0.003688  1
  Si  Si25  1  0.846509  0.612577  0.996882  1
  Si  Si26  1  0.656451  0.889065  0.496312  1
  Si  Si27  1  0.112577  0.346509  0.503118  1
  Si  Si28  1  0.611385  0.843863  0.994652  1
  Si  Si29  1  0.152265  0.387136  0.006957  1
  Ru  Ru30  1  0.666203  0.326724  0.497957  1
  Ru  Ru31  1  0.172824  0.832906  0.002094  1
  Ru  Ru32  1  0.332906  0.672824  0.497906  1
  Ru  Ru33  1  0.826724  0.166203  0.002043  1
  Ru  Ru34  1  0.126483  0.127068  0.628122  1
  Ru  Ru35  1  0.873412  0.872541  0.372638  1
  Ru  Ru36  1  0.372541  0.373412  0.127362  1
  Ru  Ru37  1  0.627068  0.626483  0.871878  1
