# generated using pymatgen
data_La2Ho6GaPd24
_symmetry_space_group_name_H-M   'P 1'
_cell_length_a   8.39373174
_cell_length_b   8.39373174
_cell_length_c   8.39373174
_cell_angle_alpha   90.14652902
_cell_angle_beta   89.85347098
_cell_angle_gamma   89.85347098
_symmetry_Int_Tables_number   1
_chemical_formula_structural   La2Ho6GaPd24
_chemical_formula_sum   'La2 Ho6 Ga1 Pd24'
_cell_volume   591.37231341
_cell_formula_units_Z   1
loop_
 _symmetry_equiv_pos_site_id
 _symmetry_equiv_pos_as_xyz
  1  'x, y, z'
loop_
 _atom_site_type_symbol
 _atom_site_label
 _atom_site_symmetry_multiplicity
 _atom_site_fract_x
 _atom_site_fract_y
 _atom_site_fract_z
 _atom_site_occupancy
  La  La0  1  0.252755  0.747245  0.747245  1
  La  La1  1  0.747245  0.252755  0.252755  1
  Ho  Ho2  1  0.252147  0.251823  0.251823  1
  Ho  Ho3  1  0.747853  0.748177  0.748177  1
  Ho  Ho4  1  0.748177  0.747853  0.251823  1
  Ho  Ho5  1  0.748177  0.251823  0.747853  1
  Ho  Ho6  1  0.251823  0.252147  0.748177  1
  Ho  Ho7  1  0.251823  0.748177  0.252147  1
  Ga  Ga8  1  0.000000  0.000000  0.000000  1
  Pd  Pd9  1  0.260719  0.497983  0.003474  1
  Pd  Pd10  1  0.739281  0.502017  0.996526  1
  Pd  Pd11  1  0.003474  0.260719  0.502017  1
  Pd  Pd12  1  0.497983  0.260719  0.996526  1
  Pd  Pd13  1  0.996526  0.739281  0.497983  1
  Pd  Pd14  1  0.502017  0.739281  0.003474  1
  Pd  Pd15  1  0.497983  0.996526  0.260719  1
  Pd  Pd16  1  0.260719  0.003474  0.497983  1
  Pd  Pd17  1  0.502017  0.003474  0.739281  1
  Pd  Pd18  1  0.739281  0.996526  0.502017  1
  Pd  Pd19  1  0.003474  0.502017  0.260719  1
  Pd  Pd20  1  0.996526  0.497983  0.739281  1
  Pd  Pd21  1  0.253498  0.496909  0.496909  1
  Pd  Pd22  1  0.746502  0.503091  0.503091  1
  Pd  Pd23  1  0.496909  0.253498  0.503091  1
  Pd  Pd24  1  0.503091  0.746502  0.496909  1
  Pd  Pd25  1  0.496909  0.503091  0.253498  1
  Pd  Pd26  1  0.503091  0.496909  0.746502  1
  Pd  Pd27  1  0.292441  0.003014  0.003014  1
  Pd  Pd28  1  0.707559  0.996986  0.996986  1
  Pd  Pd29  1  0.003014  0.292441  0.996986  1
  Pd  Pd30  1  0.996986  0.707559  0.003014  1
  Pd  Pd31  1  0.003014  0.996986  0.292441  1
  Pd  Pd32  1  0.996986  0.003014  0.707559  1
