# generated using pymatgen
data_TiNb3(VAs)4
_symmetry_space_group_name_H-M   'P 1'
_cell_length_a   3.52997300
_cell_length_b   6.57371991
_cell_length_c   7.94382008
_cell_angle_alpha   90.26691901
_cell_angle_beta   90.00000000
_cell_angle_gamma   90.00000000
_symmetry_Int_Tables_number   1
_chemical_formula_structural   TiNb3(VAs)4
_chemical_formula_sum   'Ti1 Nb3 V4 As4'
_cell_volume   184.33477206
_cell_formula_units_Z   1
loop_
 _symmetry_equiv_pos_site_id
 _symmetry_equiv_pos_as_xyz
  1  'x, y, z'
loop_
 _atom_site_type_symbol
 _atom_site_label
 _atom_site_symmetry_multiplicity
 _atom_site_fract_x
 _atom_site_fract_y
 _atom_site_fract_z
 _atom_site_occupancy
  Ti  Ti0  1  0.250000  0.043658  0.331826  1
  Nb  Nb1  1  0.250000  0.541895  0.167791  1
  Nb  Nb2  1  0.750000  0.452820  0.833124  1
  Nb  Nb3  1  0.750000  0.956957  0.667762  1
  V  V4  1  0.250000  0.631220  0.555510  1
  V  V5  1  0.750000  0.371846  0.442963  1
  V  V6  1  0.750000  0.868113  0.057343  1
  V  V7  1  0.250000  0.133263  0.942467  1
  As  As8  1  0.250000  0.754719  0.860237  1
  As  As9  1  0.750000  0.239597  0.145597  1
  As  As10  1  0.750000  0.752520  0.359329  1
  As  As11  1  0.250000  0.253392  0.636050  1
