# generated using pymatgen
data_Pr3Tl(SeO3)6
_symmetry_space_group_name_H-M   'P 1'
_cell_length_a   7.34026847
_cell_length_b   8.39419520
_cell_length_c   9.32980100
_cell_angle_alpha   70.75479791
_cell_angle_beta   70.07130190
_cell_angle_gamma   66.18964742
_symmetry_Int_Tables_number   1
_chemical_formula_structural   Pr3Tl(SeO3)6
_chemical_formula_sum   'Pr3 Tl1 Se6 O18'
_cell_volume   481.96156703
_cell_formula_units_Z   1
loop_
 _symmetry_equiv_pos_site_id
 _symmetry_equiv_pos_as_xyz
  1  'x, y, z'
loop_
 _atom_site_type_symbol
 _atom_site_label
 _atom_site_symmetry_multiplicity
 _atom_site_fract_x
 _atom_site_fract_y
 _atom_site_fract_z
 _atom_site_occupancy
  Pr  Pr0  1  0.331593  0.733951  0.590502  1
  Pr  Pr1  1  0.664065  0.274272  0.406903  1
  Pr  Pr2  1  0.741737  0.731036  0.804190  1
  Tl  Tl3  1  0.267166  0.256602  0.190039  1
  Se  Se4  1  0.421612  0.787225  0.196703  1
  Se  Se5  1  0.566369  0.226869  0.803986  1
  Se  Se6  1  0.154944  0.733602  0.974065  1
  Se  Se7  1  0.858685  0.243923  0.035686  1
  Se  Se8  1  0.888246  0.760367  0.417948  1
  Se  Se9  1  0.113523  0.244226  0.572910  1
  O  O10  1  0.641129  0.796647  0.058712  1
  O  O11  1  0.344462  0.206756  0.941051  1
  O  O12  1  0.363917  0.949089  0.301282  1
  O  O13  1  0.635656  0.063821  0.700865  1
  O  O14  1  0.501563  0.607668  0.347015  1
  O  O15  1  0.483291  0.405766  0.654003  1
  O  O16  1  0.171557  0.558137  0.132973  1
  O  O17  1  0.841551  0.418135  0.877612  1
  O  O18  1  0.403522  0.703966  0.857633  1
  O  O19  1  0.606295  0.290949  0.148755  1
  O  O20  1  0.337426  0.250100  0.424229  1
  O  O21  1  0.660682  0.752193  0.559588  1
  O  O22  1  0.964943  0.296452  0.443722  1
  O  O23  1  0.027977  0.711136  0.555807  1
  O  O24  1  0.152140  0.023612  0.652205  1
  O  O25  1  0.847750  0.980917  0.345571  1
  O  O26  1  0.938614  0.306090  0.160565  1
  O  O27  1  0.069586  0.686495  0.845479  1
