# generated using pymatgen
data_DyTm2Cd3Si2Au
_symmetry_space_group_name_H-M   'P 1'
_cell_length_a   7.21609146
_cell_length_b   7.21609166
_cell_length_c   4.30925600
_cell_angle_alpha   90.00000000
_cell_angle_beta   90.00000000
_cell_angle_gamma   120.04091163
_symmetry_Int_Tables_number   1
_chemical_formula_structural   DyTm2Cd3Si2Au
_chemical_formula_sum   'Dy1 Tm2 Cd3 Si2 Au1'
_cell_volume   194.24856100
_cell_formula_units_Z   1
loop_
 _symmetry_equiv_pos_site_id
 _symmetry_equiv_pos_as_xyz
  1  'x, y, z'
loop_
 _atom_site_type_symbol
 _atom_site_label
 _atom_site_symmetry_multiplicity
 _atom_site_fract_x
 _atom_site_fract_y
 _atom_site_fract_z
 _atom_site_occupancy
  Dy  Dy0  1  0.417517  0.417517  0.000000  1
  Tm  Tm1  1  0.583113  0.000302  0.000000  1
  Tm  Tm2  1  0.000302  0.583113  0.000000  1
  Cd  Cd3  1  0.255422  0.999653  0.500000  1
  Cd  Cd4  1  0.999653  0.255422  0.500000  1
  Cd  Cd5  1  0.744972  0.744972  0.500000  1
  Si  Si6  1  0.332891  0.667314  0.500000  1
  Si  Si7  1  0.667314  0.332891  0.500000  1
  Au  Au8  1  0.998815  0.998815  0.000000  1
