# generated using pymatgen
data_Ho10Tl3Bi3S2
_symmetry_space_group_name_H-M   'P 1'
_cell_length_a   9.13610400
_cell_length_b   9.13610387
_cell_length_c   6.58264900
_cell_angle_alpha   90.00000000
_cell_angle_beta   90.00000000
_cell_angle_gamma   120.00000049
_symmetry_Int_Tables_number   1
_chemical_formula_structural   Ho10Tl3Bi3S2
_chemical_formula_sum   'Ho10 Tl3 Bi3 S2'
_cell_volume   475.83172118
_cell_formula_units_Z   1
loop_
 _symmetry_equiv_pos_site_id
 _symmetry_equiv_pos_as_xyz
  1  'x, y, z'
loop_
 _atom_site_type_symbol
 _atom_site_label
 _atom_site_symmetry_multiplicity
 _atom_site_fract_x
 _atom_site_fract_y
 _atom_site_fract_z
 _atom_site_occupancy
  Ho  Ho0  1  0.757441  0.757441  0.750000  1
  Ho  Ho1  1  0.242559  0.000000  0.750000  1
  Ho  Ho2  1  0.000000  0.242559  0.750000  1
  Ho  Ho3  1  0.244289  0.244289  0.250000  1
  Ho  Ho4  1  0.755711  0.000000  0.250000  1
  Ho  Ho5  1  0.000000  0.755711  0.250000  1
  Ho  Ho6  1  0.666667  0.333333  0.005049  1
  Ho  Ho7  1  0.333333  0.666667  0.005049  1
  Ho  Ho8  1  0.333333  0.666667  0.494951  1
  Ho  Ho9  1  0.666667  0.333333  0.494951  1
  Tl  Tl10  1  0.605513  0.605513  0.250000  1
  Tl  Tl11  1  0.394487  0.000000  0.250000  1
  Tl  Tl12  1  0.000000  0.394487  0.250000  1
  Bi  Bi13  1  0.396785  0.396785  0.750000  1
  Bi  Bi14  1  0.603215  0.000000  0.750000  1
  Bi  Bi15  1  0.000000  0.603215  0.750000  1
  S  S16  1  0.000000  0.000000  0.998841  1
  S  S17  1  0.000000  0.000000  0.501159  1
