# generated using pymatgen
data_Dy4Lu(GeB4)2
_symmetry_space_group_name_H-M   'P 1'
_cell_length_a   7.22950900
_cell_length_b   7.22950900
_cell_length_c   8.08146500
_cell_angle_alpha   90.00000000
_cell_angle_beta   90.00000000
_cell_angle_gamma   90.00000000
_symmetry_Int_Tables_number   1
_chemical_formula_structural   Dy4Lu(GeB4)2
_chemical_formula_sum   'Dy8 Lu2 Ge4 B16'
_cell_volume   422.38423648
_cell_formula_units_Z   2
loop_
 _symmetry_equiv_pos_site_id
 _symmetry_equiv_pos_as_xyz
  1  'x, y, z'
loop_
 _atom_site_type_symbol
 _atom_site_label
 _atom_site_symmetry_multiplicity
 _atom_site_fract_x
 _atom_site_fract_y
 _atom_site_fract_z
 _atom_site_occupancy
  Dy  Dy0  1  0.680354  0.180354  0.222671  1
  Dy  Dy1  1  0.319646  0.819646  0.777329  1
  Dy  Dy2  1  0.319646  0.819646  0.222671  1
  Dy  Dy3  1  0.819646  0.680354  0.222671  1
  Dy  Dy4  1  0.819646  0.680354  0.777329  1
  Dy  Dy5  1  0.680354  0.180354  0.777329  1
  Dy  Dy6  1  0.180354  0.319646  0.777329  1
  Dy  Dy7  1  0.180354  0.319646  0.222671  1
  Lu  Lu8  1  0.000000  0.000000  0.500000  1
  Lu  Lu9  1  0.500000  0.500000  0.500000  1
  Ge  Ge10  1  0.121301  0.621301  0.500000  1
  Ge  Ge11  1  0.878699  0.378699  0.500000  1
  Ge  Ge12  1  0.378699  0.121301  0.500000  1
  Ge  Ge13  1  0.621301  0.878699  0.500000  1
  B  B14  1  0.172093  0.039329  0.000000  1
  B  B15  1  0.827907  0.960671  0.000000  1
  B  B16  1  0.960671  0.172093  0.000000  1
  B  B17  1  0.327907  0.539329  0.000000  1
  B  B18  1  0.039329  0.827907  0.000000  1
  B  B19  1  0.672093  0.460671  0.000000  1
  B  B20  1  0.539329  0.672093  0.000000  1
  B  B21  1  0.460671  0.327907  0.000000  1
  B  B22  1  0.090417  0.590417  0.000000  1
  B  B23  1  0.909583  0.409583  0.000000  1
  B  B24  1  0.409583  0.090417  0.000000  1
  B  B25  1  0.590417  0.909583  0.000000  1
  B  B26  1  0.000000  0.000000  0.163327  1
  B  B27  1  0.000000  0.000000  0.836673  1
  B  B28  1  0.500000  0.500000  0.836673  1
  B  B29  1  0.500000  0.500000  0.163327  1
