# generated using pymatgen
data_Tb2(SeO3)3
_symmetry_space_group_name_H-M   'P 1'
_cell_length_a   7.14637857
_cell_length_b   8.19915284
_cell_length_c   9.13549582
_cell_angle_alpha   71.32174665
_cell_angle_beta   69.98128627
_cell_angle_gamma   66.09399199
_symmetry_Int_Tables_number   1
_chemical_formula_structural   Tb2(SeO3)3
_chemical_formula_sum   'Tb4 Se6 O18'
_cell_volume   449.41398085
_cell_formula_units_Z   2
loop_
 _symmetry_equiv_pos_site_id
 _symmetry_equiv_pos_as_xyz
  1  'x, y, z'
loop_
 _atom_site_type_symbol
 _atom_site_label
 _atom_site_symmetry_multiplicity
 _atom_site_fract_x
 _atom_site_fract_y
 _atom_site_fract_z
 _atom_site_occupancy
  Tb  Tb0  1  0.334746  0.727379  0.589919  1
  Tb  Tb1  1  0.665254  0.272621  0.410081  1
  Tb  Tb2  1  0.741494  0.735481  0.798426  1
  Tb  Tb3  1  0.258506  0.264519  0.201574  1
  Se  Se4  1  0.427567  0.774956  0.198706  1
  Se  Se5  1  0.572433  0.225044  0.801294  1
  Se  Se6  1  0.148323  0.749802  0.964386  1
  Se  Se7  1  0.851677  0.250198  0.035614  1
  Se  Se8  1  0.886521  0.760517  0.414819  1
  Se  Se9  1  0.113479  0.239483  0.585181  1
  O  O10  1  0.648181  0.791710  0.052152  1
  O  O11  1  0.351819  0.208290  0.947848  1
  O  O12  1  0.361161  0.942343  0.304224  1
  O  O13  1  0.638839  0.057657  0.695776  1
  O  O14  1  0.517567  0.594564  0.350916  1
  O  O15  1  0.482433  0.405436  0.649084  1
  O  O16  1  0.166850  0.567449  0.119617  1
  O  O17  1  0.833150  0.432551  0.880383  1
  O  O18  1  0.407219  0.710587  0.849177  1
  O  O19  1  0.592781  0.289413  0.150823  1
  O  O20  1  0.342940  0.252381  0.437303  1
  O  O21  1  0.657060  0.747619  0.562697  1
  O  O22  1  0.967858  0.292134  0.445862  1
  O  O23  1  0.032142  0.707866  0.554138  1
  O  O24  1  0.159270  0.013064  0.653232  1
  O  O25  1  0.840730  0.986936  0.346768  1
  O  O26  1  0.932650  0.306021  0.167228  1
  O  O27  1  0.067350  0.693979  0.832772  1
