# generated using pymatgen
data_Dy3Y6Tm7(CdIr)4
_symmetry_space_group_name_H-M   'P 1'
_cell_length_a   9.59652030
_cell_length_b   9.59440691
_cell_length_c   9.59440700
_cell_angle_alpha   59.99999624
_cell_angle_beta   60.00728094
_cell_angle_gamma   60.00728128
_symmetry_Int_Tables_number   1
_chemical_formula_structural   Dy3Y6Tm7(CdIr)4
_chemical_formula_sum   'Dy3 Y6 Tm7 Cd4 Ir4'
_cell_volume   624.71629490
_cell_formula_units_Z   1
loop_
 _symmetry_equiv_pos_site_id
 _symmetry_equiv_pos_as_xyz
  1  'x, y, z'
loop_
 _atom_site_type_symbol
 _atom_site_label
 _atom_site_symmetry_multiplicity
 _atom_site_fract_x
 _atom_site_fract_y
 _atom_site_fract_z
 _atom_site_occupancy
  Dy  Dy0  1  0.349418  0.349575  0.349575  1
  Dy  Dy1  1  0.349418  0.349575  0.951434  1
  Dy  Dy2  1  0.349418  0.951434  0.349575  1
  Y  Y3  1  0.938524  0.561468  0.561468  1
  Y  Y4  1  0.562208  0.938097  0.938097  1
  Y  Y5  1  0.562208  0.938097  0.561597  1
  Y  Y6  1  0.938524  0.561468  0.938540  1
  Y  Y7  1  0.562208  0.561597  0.938097  1
  Y  Y8  1  0.938524  0.938540  0.561468  1
  Tm  Tm9  1  0.953225  0.348925  0.348925  1
  Tm  Tm10  1  0.812151  0.187969  0.187969  1
  Tm  Tm11  1  0.187314  0.812392  0.812392  1
  Tm  Tm12  1  0.187314  0.812392  0.187902  1
  Tm  Tm13  1  0.812151  0.187969  0.811911  1
  Tm  Tm14  1  0.187314  0.187902  0.812392  1
  Tm  Tm15  1  0.812151  0.811911  0.187969  1
  Cd  Cd16  1  0.580543  0.579982  0.579982  1
  Cd  Cd17  1  0.580543  0.579982  0.259495  1
  Cd  Cd18  1  0.580543  0.259495  0.579982  1
  Cd  Cd19  1  0.259320  0.580227  0.580227  1
  Ir  Ir20  1  0.140103  0.142062  0.142062  1
  Ir  Ir21  1  0.140103  0.142062  0.575775  1
  Ir  Ir22  1  0.140103  0.575775  0.142062  1
  Ir  Ir23  1  0.576674  0.141109  0.141109  1
