# generated using pymatgen
data_DyY3Tm4CdHgIr2
_symmetry_space_group_name_H-M   'P 1'
_cell_length_a   9.56417040
_cell_length_b   9.56417089
_cell_length_c   9.56281300
_cell_angle_alpha   60.00469990
_cell_angle_beta   60.00469821
_cell_angle_gamma   60.00693764
_symmetry_Int_Tables_number   1
_chemical_formula_structural   DyY3Tm4CdHgIr2
_chemical_formula_sum   'Dy2 Y6 Tm8 Cd2 Hg2 Ir4'
_cell_volume   618.61281054
_cell_formula_units_Z   2
loop_
 _symmetry_equiv_pos_site_id
 _symmetry_equiv_pos_as_xyz
  1  'x, y, z'
loop_
 _atom_site_type_symbol
 _atom_site_label
 _atom_site_symmetry_multiplicity
 _atom_site_fract_x
 _atom_site_fract_y
 _atom_site_fract_z
 _atom_site_occupancy
  Dy  Dy0  1  0.349622  0.349622  0.348434  1
  Dy  Dy1  1  0.349622  0.349622  0.952323  1
  Y  Y2  1  0.938912  0.560525  0.560760  1
  Y  Y3  1  0.560525  0.938912  0.939802  1
  Y  Y4  1  0.560525  0.938912  0.560760  1
  Y  Y5  1  0.938912  0.560525  0.939802  1
  Y  Y6  1  0.560762  0.560762  0.939238  1
  Y  Y7  1  0.939677  0.939677  0.560323  1
  Tm  Tm8  1  0.350317  0.950872  0.349407  1
  Tm  Tm9  1  0.950872  0.350317  0.349407  1
  Tm  Tm10  1  0.811070  0.187322  0.190041  1
  Tm  Tm11  1  0.187322  0.811070  0.811567  1
  Tm  Tm12  1  0.187322  0.811070  0.190041  1
  Tm  Tm13  1  0.811070  0.187322  0.811567  1
  Tm  Tm14  1  0.187863  0.187863  0.812137  1
  Tm  Tm15  1  0.810313  0.810313  0.189687  1
  Cd  Cd16  1  0.580429  0.258848  0.580363  1
  Cd  Cd17  1  0.258848  0.580429  0.580363  1
  Hg  Hg18  1  0.583324  0.583324  0.584446  1
  Hg  Hg19  1  0.583324  0.583324  0.248908  1
  Ir  Ir20  1  0.141224  0.141224  0.142559  1
  Ir  Ir21  1  0.141224  0.141224  0.574994  1
  Ir  Ir22  1  0.140244  0.576684  0.141537  1
  Ir  Ir23  1  0.576684  0.140244  0.141537  1
