# generated using pymatgen
data_CsB(SeO4)2
_symmetry_space_group_name_H-M   'P 1'
_cell_length_a   8.84757000
_cell_length_b   6.89252716
_cell_length_c   8.50792707
_cell_angle_alpha   75.11005362
_cell_angle_beta   90.00000000
_cell_angle_gamma   90.00000000
_symmetry_Int_Tables_number   1
_chemical_formula_structural   CsB(SeO4)2
_chemical_formula_sum   'Cs2 B2 Se4 O16'
_cell_volume   501.40965554
_cell_formula_units_Z   2
loop_
 _symmetry_equiv_pos_site_id
 _symmetry_equiv_pos_as_xyz
  1  'x, y, z'
loop_
 _atom_site_type_symbol
 _atom_site_label
 _atom_site_symmetry_multiplicity
 _atom_site_fract_x
 _atom_site_fract_y
 _atom_site_fract_z
 _atom_site_occupancy
  Cs  Cs0  1  0.569820  0.500000  0.750000  1
  Cs  Cs1  1  0.430180  0.500000  0.250000  1
  B  B2  1  0.965484  0.000000  0.250000  1
  B  B3  1  0.034516  0.000000  0.750000  1
  Se  Se4  1  0.205144  0.897956  0.493959  1
  Se  Se5  1  0.205144  0.102044  0.006041  1
  Se  Se6  1  0.794856  0.102044  0.506041  1
  Se  Se7  1  0.794856  0.897956  0.993959  1
  O  O8  1  0.272385  0.124061  0.426138  1
  O  O9  1  0.272385  0.875939  0.073862  1
  O  O10  1  0.727615  0.875939  0.573862  1
  O  O11  1  0.727615  0.124061  0.926138  1
  O  O12  1  0.051336  0.855497  0.378563  1
  O  O13  1  0.051336  0.144503  0.121437  1
  O  O14  1  0.948664  0.144503  0.621437  1
  O  O15  1  0.948664  0.855497  0.878563  1
  O  O16  1  0.129959  0.855981  0.688638  1
  O  O17  1  0.129959  0.144019  0.811362  1
  O  O18  1  0.870041  0.144019  0.311362  1
  O  O19  1  0.870041  0.855981  0.188638  1
  O  O20  1  0.318241  0.707989  0.507099  1
  O  O21  1  0.318241  0.292011  0.992901  1
  O  O22  1  0.681759  0.292011  0.492901  1
  O  O23  1  0.681759  0.707989  0.007099  1
