# generated using pymatgen
data_Gd3Tc4BiF28
_symmetry_space_group_name_H-M   'P 1'
_cell_length_a   5.68321643
_cell_length_b   9.11915539
_cell_length_c   12.24564900
_cell_angle_alpha   62.19176928
_cell_angle_beta   90.04061867
_cell_angle_gamma   89.94189429
_symmetry_Int_Tables_number   1
_chemical_formula_structural   Gd3Tc4BiF28
_chemical_formula_sum   'Gd3 Tc4 Bi1 F28'
_cell_volume   561.35126149
_cell_formula_units_Z   1
loop_
 _symmetry_equiv_pos_site_id
 _symmetry_equiv_pos_as_xyz
  1  'x, y, z'
loop_
 _atom_site_type_symbol
 _atom_site_label
 _atom_site_symmetry_multiplicity
 _atom_site_fract_x
 _atom_site_fract_y
 _atom_site_fract_z
 _atom_site_occupancy
  Gd  Gd0  1  0.258725  0.191162  0.735892  1
  Gd  Gd1  1  0.240816  0.187008  0.235567  1
  Gd  Gd2  1  0.741732  0.813900  0.264122  1
  Tc  Tc3  1  0.756986  0.271732  0.958055  1
  Tc  Tc4  1  0.257106  0.726591  0.541301  1
  Tc  Tc5  1  0.242947  0.726212  0.044233  1
  Tc  Tc6  1  0.742594  0.274816  0.456576  1
  Bi  Bi7  1  0.762265  0.818750  0.762585  1
  F  F8  1  0.439518  0.706965  0.920735  1
  F  F9  1  0.944063  0.291072  0.580643  1
  F  F10  1  0.555579  0.290017  0.081177  1
  F  F11  1  0.055955  0.708931  0.417416  1
  F  F12  1  0.456137  0.279469  0.546405  1
  F  F13  1  0.952777  0.719436  0.957538  1
  F  F14  1  0.545624  0.720100  0.453376  1
  F  F15  1  0.044798  0.278590  0.046331  1
  F  F16  1  0.769849  0.512340  0.861348  1
  F  F17  1  0.268968  0.482631  0.638507  1
  F  F18  1  0.231202  0.482486  0.140660  1
  F  F19  1  0.730774  0.517196  0.360346  1
  F  F20  1  0.758002  0.028660  0.053716  1
  F  F21  1  0.258093  0.969057  0.446552  1
  F  F22  1  0.242406  0.968606  0.946868  1
  F  F23  1  0.742510  0.031102  0.551223  1
  F  F24  1  0.976254  0.729375  0.633289  1
  F  F25  1  0.478340  0.268022  0.863293  1
  F  F26  1  0.020358  0.269356  0.362933  1
  F  F27  1  0.521655  0.730595  0.138103  1
  F  F28  1  0.046259  0.745332  0.170404  1
  F  F29  1  0.545053  0.255372  0.331103  1
  F  F30  1  0.953991  0.253166  0.831381  1
  F  F31  1  0.447795  0.744015  0.668948  1
  F  F32  1  0.416924  0.971730  0.231689  1
  F  F33  1  0.916955  0.029624  0.268329  1
  F  F34  1  0.588367  0.033402  0.769279  1
  F  F35  1  0.088625  0.973182  0.730077  1
