# generated using pymatgen
data_CaHo3TmZn5
_symmetry_space_group_name_H-M   'P 1'
_cell_length_a   3.60406100
_cell_length_b   3.60406100
_cell_length_c   17.72018800
_cell_angle_alpha   90.00000000
_cell_angle_beta   90.00000000
_cell_angle_gamma   90.00000000
_symmetry_Int_Tables_number   1
_chemical_formula_structural   CaHo3TmZn5
_chemical_formula_sum   'Ca1 Ho3 Tm1 Zn5'
_cell_volume   230.17205284
_cell_formula_units_Z   1
loop_
 _symmetry_equiv_pos_site_id
 _symmetry_equiv_pos_as_xyz
  1  'x, y, z'
loop_
 _atom_site_type_symbol
 _atom_site_label
 _atom_site_symmetry_multiplicity
 _atom_site_fract_x
 _atom_site_fract_y
 _atom_site_fract_z
 _atom_site_occupancy
  Ca  Ca0  1  0.000000  0.000000  0.001438  1
  Ho  Ho1  1  0.000000  0.000000  0.399495  1
  Ho  Ho2  1  0.000000  0.000000  0.598828  1
  Ho  Ho3  1  0.000000  0.000000  0.798014  1
  Tm  Tm4  1  0.000000  0.000000  0.202421  1
  Zn  Zn5  1  0.500000  0.500000  0.111701  1
  Zn  Zn6  1  0.500000  0.500000  0.298884  1
  Zn  Zn7  1  0.500000  0.500000  0.499410  1
  Zn  Zn8  1  0.500000  0.500000  0.697348  1
  Zn  Zn9  1  0.500000  0.500000  0.892462  1
