# generated using pymatgen
data_Eu(Ti3Se4)4
_symmetry_space_group_name_H-M   'P 1'
_cell_length_a   7.21552270
_cell_length_b   9.87310683
_cell_length_c   10.49995546
_cell_angle_alpha   117.99504503
_cell_angle_beta   110.09783400
_cell_angle_gamma   90.03035731
_symmetry_Int_Tables_number   1
_chemical_formula_structural   Eu(Ti3Se4)4
_chemical_formula_sum   'Eu1 Ti12 Se16'
_cell_volume   608.34163504
_cell_formula_units_Z   1
loop_
 _symmetry_equiv_pos_site_id
 _symmetry_equiv_pos_as_xyz
  1  'x, y, z'
loop_
 _atom_site_type_symbol
 _atom_site_label
 _atom_site_symmetry_multiplicity
 _atom_site_fract_x
 _atom_site_fract_y
 _atom_site_fract_z
 _atom_site_occupancy
  Eu  Eu0  1  0.000000  0.000000  0.000000  1
  Ti  Ti1  1  0.557771  0.359970  0.868460  1
  Ti  Ti2  1  0.061294  0.363165  0.870012  1
  Ti  Ti3  1  0.372474  0.130068  0.490805  1
  Ti  Ti4  1  0.869110  0.131362  0.492491  1
  Ti  Ti5  1  0.442227  0.507369  0.638769  1
  Ti  Ti6  1  0.946207  0.509136  0.639112  1
  Ti  Ti7  1  0.938706  0.636835  0.129988  1
  Ti  Ti8  1  0.442229  0.640030  0.131540  1
  Ti  Ti9  1  0.130890  0.868638  0.507509  1
  Ti  Ti10  1  0.627526  0.869932  0.509195  1
  Ti  Ti11  1  0.053793  0.490864  0.360888  1
  Ti  Ti12  1  0.557773  0.492631  0.361231  1
  Se  Se13  1  0.977778  0.048923  0.703239  1
  Se  Se14  1  0.474706  0.049785  0.700953  1
  Se  Se15  1  0.798311  0.298882  0.348619  1
  Se  Se16  1  0.298525  0.297088  0.345368  1
  Se  Se17  1  0.102075  0.655920  0.952212  1
  Se  Se18  1  0.599761  0.650880  0.950160  1
  Se  Se19  1  0.525294  0.950215  0.299047  1
  Se  Se20  1  0.022222  0.951077  0.296761  1
  Se  Se21  1  0.701475  0.702912  0.654632  1
  Se  Se22  1  0.201689  0.701118  0.651381  1
  Se  Se23  1  0.400239  0.349120  0.049840  1
  Se  Se24  1  0.897925  0.344080  0.047788  1
  Se  Se25  1  0.792584  0.667795  0.334340  1
  Se  Se26  1  0.291405  0.665675  0.332980  1
  Se  Se27  1  0.708595  0.334325  0.667020  1
  Se  Se28  1  0.207416  0.332205  0.665660  1
