# generated using pymatgen
data_Tb5Dy5Si5As
_symmetry_space_group_name_H-M   'P 1'
_cell_length_a   8.46364315
_cell_length_b   8.48251430
_cell_length_c   6.35127800
_cell_angle_alpha   90.00000000
_cell_angle_beta   90.00000000
_cell_angle_gamma   119.94767487
_symmetry_Int_Tables_number   1
_chemical_formula_structural   Tb5Dy5Si5As
_chemical_formula_sum   'Tb5 Dy5 Si5 As1'
_cell_volume   395.09582872
_cell_formula_units_Z   1
loop_
 _symmetry_equiv_pos_site_id
 _symmetry_equiv_pos_as_xyz
  1  'x, y, z'
loop_
 _atom_site_type_symbol
 _atom_site_label
 _atom_site_symmetry_multiplicity
 _atom_site_fract_x
 _atom_site_fract_y
 _atom_site_fract_z
 _atom_site_occupancy
  Tb  Tb0  1  0.996709  0.753288  0.750000  1
  Tb  Tb1  1  0.755775  0.755595  0.250000  1
  Tb  Tb2  1  0.757799  0.000045  0.750000  1
  Tb  Tb3  1  0.243330  0.246664  0.750000  1
  Tb  Tb4  1  0.243478  0.000034  0.250000  1
  Dy  Dy5  1  0.000214  0.244504  0.250000  1
  Dy  Dy6  1  0.332991  0.664014  0.498773  1
  Dy  Dy7  1  0.669006  0.335934  0.001225  1
  Dy  Dy8  1  0.669006  0.335934  0.498775  1
  Dy  Dy9  1  0.332991  0.664014  0.001227  1
  Si  Si10  1  0.393627  0.392968  0.250000  1
  Si  Si11  1  0.000780  0.606854  0.250000  1
  Si  Si12  1  0.999870  0.393613  0.750000  1
  Si  Si13  1  0.606267  0.606409  0.750000  1
  Si  Si14  1  0.607224  0.000122  0.250000  1
  As  As15  1  0.390930  0.000006  0.750000  1
