# generated using pymatgen
data_Ca3Ce(CuH6)2
_symmetry_space_group_name_H-M   'P 1'
_cell_length_a   6.97123409
_cell_length_b   6.97123248
_cell_length_c   5.15405917
_cell_angle_alpha   90.00968228
_cell_angle_beta   90.00966771
_cell_angle_gamma   136.68880797
_symmetry_Int_Tables_number   1
_chemical_formula_structural   Ca3Ce(CuH6)2
_chemical_formula_sum   'Ca3 Ce1 Cu2 H12'
_cell_volume   171.81761900
_cell_formula_units_Z   1
loop_
 _symmetry_equiv_pos_site_id
 _symmetry_equiv_pos_as_xyz
  1  'x, y, z'
loop_
 _atom_site_type_symbol
 _atom_site_label
 _atom_site_symmetry_multiplicity
 _atom_site_fract_x
 _atom_site_fract_y
 _atom_site_fract_z
 _atom_site_occupancy
  Ca  Ca0  1  0.648413  0.351587  0.000000  1
  Ca  Ca1  1  0.854754  0.145246  0.500000  1
  Ca  Ca2  1  0.354402  0.645598  0.000000  1
  Ce  Ce3  1  0.142327  0.857673  0.500000  1
  Cu  Cu4  1  0.498103  0.501897  0.500000  1
  Cu  Cu5  1  0.997387  0.002613  0.000000  1
  H  H6  1  0.002914  0.507875  0.745375  1
  H  H7  1  0.492125  0.997086  0.254625  1
  H  H8  1  0.002882  0.507854  0.254642  1
  H  H9  1  0.492146  0.997118  0.745358  1
  H  H10  1  0.369838  0.630162  0.500000  1
  H  H11  1  0.869700  0.130300  0.000000  1
  H  H12  1  0.627073  0.372927  0.500000  1
  H  H13  1  0.126692  0.873308  0.000000  1
  H  H14  1  0.245365  0.234756  0.739757  1
  H  H15  1  0.765244  0.754635  0.260243  1
  H  H16  1  0.245479  0.234842  0.260068  1
  H  H17  1  0.765158  0.754521  0.739932  1
