# generated using pymatgen
data_K2GdBr5
_symmetry_space_group_name_H-M   'P 1'
_cell_length_a   8.59102700
_cell_length_b   9.07935600
_cell_length_c   13.80272900
_cell_angle_alpha   90.00000000
_cell_angle_beta   90.00000000
_cell_angle_gamma   90.00000000
_symmetry_Int_Tables_number   1
_chemical_formula_structural   K2GdBr5
_chemical_formula_sum   'K8 Gd4 Br20'
_cell_volume   1076.62656174
_cell_formula_units_Z   4
loop_
 _symmetry_equiv_pos_site_id
 _symmetry_equiv_pos_as_xyz
  1  'x, y, z'
loop_
 _atom_site_type_symbol
 _atom_site_label
 _atom_site_symmetry_multiplicity
 _atom_site_fract_x
 _atom_site_fract_y
 _atom_site_fract_z
 _atom_site_occupancy
  K  K0  1  0.943408  0.002383  0.827437  1
  K  K1  1  0.056592  0.997617  0.172563  1
  K  K2  1  0.443408  0.997617  0.672563  1
  K  K3  1  0.056592  0.502383  0.172563  1
  K  K4  1  0.556592  0.002383  0.327437  1
  K  K5  1  0.943408  0.497617  0.827437  1
  K  K6  1  0.556592  0.497617  0.327437  1
  K  K7  1  0.443408  0.502383  0.672563  1
  Gd  Gd8  1  0.925143  0.750000  0.504484  1
  Gd  Gd9  1  0.074857  0.250000  0.495516  1
  Gd  Gd10  1  0.425143  0.250000  0.995516  1
  Gd  Gd11  1  0.574857  0.750000  0.004484  1
  Br  Br12  1  0.119831  0.750000  0.676110  1
  Br  Br13  1  0.880169  0.250000  0.323890  1
  Br  Br14  1  0.619831  0.250000  0.823890  1
  Br  Br15  1  0.380169  0.750000  0.176110  1
  Br  Br16  1  0.836187  0.044523  0.573649  1
  Br  Br17  1  0.163813  0.955477  0.426351  1
  Br  Br18  1  0.336187  0.955477  0.926351  1
  Br  Br19  1  0.163813  0.544523  0.426351  1
  Br  Br20  1  0.663813  0.044523  0.073649  1
  Br  Br21  1  0.836187  0.455477  0.573649  1
  Br  Br22  1  0.663813  0.455477  0.073649  1
  Br  Br23  1  0.336187  0.544523  0.926351  1
  Br  Br24  1  0.583299  0.750000  0.510635  1
  Br  Br25  1  0.416701  0.250000  0.489365  1
  Br  Br26  1  0.083299  0.250000  0.989365  1
  Br  Br27  1  0.916701  0.750000  0.010635  1
  Br  Br28  1  0.657310  0.750000  0.800579  1
  Br  Br29  1  0.342690  0.250000  0.199421  1
  Br  Br30  1  0.157310  0.250000  0.699421  1
  Br  Br31  1  0.842690  0.750000  0.300579  1
