# generated using pymatgen
data_U8Ta2Nb10Si15As
_symmetry_space_group_name_H-M   'P 1'
_cell_length_a   7.04094564
_cell_length_b   7.05106015
_cell_length_c   12.99674702
_cell_angle_alpha   89.92814615
_cell_angle_beta   89.96148565
_cell_angle_gamma   89.99281439
_symmetry_Int_Tables_number   1
_chemical_formula_structural   U8Ta2Nb10Si15As
_chemical_formula_sum   'U8 Ta2 Nb10 Si15 As1'
_cell_volume   645.23755060
_cell_formula_units_Z   1
loop_
 _symmetry_equiv_pos_site_id
 _symmetry_equiv_pos_as_xyz
  1  'x, y, z'
loop_
 _atom_site_type_symbol
 _atom_site_label
 _atom_site_symmetry_multiplicity
 _atom_site_fract_x
 _atom_site_fract_y
 _atom_site_fract_z
 _atom_site_occupancy
  U  U0  1  0.995561  0.332636  0.219787  1
  U  U1  1  0.006029  0.668308  0.718721  1
  U  U2  1  0.166701  0.496808  0.469562  1
  U  U3  1  0.506948  0.829407  0.029680  1
  U  U4  1  0.831307  0.504854  0.968925  1
  U  U5  1  0.495363  0.167622  0.531229  1
  U  U6  1  0.331753  0.994454  0.781129  1
  U  U7  1  0.668505  0.006416  0.280999  1
  Ta  Ta8  1  0.167335  0.168542  0.998184  1
  Ta  Ta9  1  0.832226  0.832048  0.499828  1
  Nb  Nb10  1  0.330592  0.665521  0.250112  1
  Nb  Nb11  1  0.668166  0.331156  0.749915  1
  Nb  Nb12  1  0.156037  0.001305  0.375417  1
  Nb  Nb13  1  0.844066  0.001083  0.874351  1
  Nb  Nb14  1  0.500742  0.656661  0.624434  1
  Nb  Nb15  1  0.343700  0.498793  0.875412  1
  Nb  Nb16  1  0.500116  0.343648  0.125251  1
  Nb  Nb17  1  0.658967  0.502724  0.376451  1
  Nb  Nb18  1  0.999420  0.155597  0.625428  1
  Nb  Nb19  1  0.995694  0.840583  0.123786  1
  Si  Si20  1  0.703548  0.959595  0.684555  1
  Si  Si21  1  0.460765  0.797078  0.435000  1
  Si  Si22  1  0.203320  0.538548  0.064611  1
  Si  Si23  1  0.539168  0.202554  0.934982  1
  Si  Si24  1  0.796668  0.460404  0.565597  1
  Si  Si25  1  0.039989  0.296818  0.814871  1
  Si  Si26  1  0.959884  0.704555  0.315222  1
  Si  Si27  1  0.373968  0.300158  0.320147  1
  Si  Si28  1  0.629532  0.706721  0.815577  1
  Si  Si29  1  0.206473  0.871145  0.565853  1
  Si  Si30  1  0.129082  0.792924  0.933685  1
  Si  Si31  1  0.794014  0.129868  0.065733  1
  Si  Si32  1  0.870707  0.206832  0.434498  1
  Si  Si33  1  0.293435  0.370405  0.683860  1
  Si  Si34  1  0.705719  0.628764  0.184431  1
  As  As35  1  0.294503  0.035467  0.182775  1
