# generated using pymatgen
data_Tb2YTm5(CdNi)2
_symmetry_space_group_name_H-M   'P 1'
_cell_length_a   9.46858741
_cell_length_b   9.46858680
_cell_length_c   9.46640100
_cell_angle_alpha   60.00763258
_cell_angle_beta   60.00763470
_cell_angle_gamma   59.98472594
_symmetry_Int_Tables_number   1
_chemical_formula_structural   Tb2YTm5(CdNi)2
_chemical_formula_sum   'Tb4 Y2 Tm10 Cd4 Ni4'
_cell_volume   600.12288486
_cell_formula_units_Z   2
loop_
 _symmetry_equiv_pos_site_id
 _symmetry_equiv_pos_as_xyz
  1  'x, y, z'
loop_
 _atom_site_type_symbol
 _atom_site_label
 _atom_site_symmetry_multiplicity
 _atom_site_fract_x
 _atom_site_fract_y
 _atom_site_fract_z
 _atom_site_occupancy
  Tb  Tb0  1  0.599802  0.599802  0.599913  1
  Tb  Tb1  1  0.599802  0.599802  0.200482  1
  Tb  Tb2  1  0.599913  0.200482  0.599802  1
  Tb  Tb3  1  0.200482  0.599913  0.599802  1
  Y  Y4  1  0.815739  0.815739  0.184261  1
  Y  Y5  1  0.184261  0.184261  0.815739  1
  Tm  Tm6  1  0.062754  0.437246  0.437246  1
  Tm  Tm7  1  0.437246  0.062754  0.062754  1
  Tm  Tm8  1  0.437246  0.062754  0.437246  1
  Tm  Tm9  1  0.062754  0.437246  0.062754  1
  Tm  Tm10  1  0.436989  0.436989  0.063011  1
  Tm  Tm11  1  0.063011  0.063011  0.436989  1
  Tm  Tm12  1  0.187101  0.812899  0.812899  1
  Tm  Tm13  1  0.812899  0.187101  0.187101  1
  Tm  Tm14  1  0.812899  0.187101  0.812899  1
  Tm  Tm15  1  0.187101  0.812899  0.187101  1
  Cd  Cd16  1  0.832039  0.832039  0.830544  1
  Cd  Cd17  1  0.832039  0.832039  0.505379  1
  Cd  Cd18  1  0.830544  0.505379  0.832039  1
  Cd  Cd19  1  0.505379  0.830544  0.832039  1
  Ni  Ni20  1  0.392129  0.392129  0.392106  1
  Ni  Ni21  1  0.392129  0.392129  0.823636  1
  Ni  Ni22  1  0.392106  0.823636  0.392129  1
  Ni  Ni23  1  0.823636  0.392106  0.392129  1
