# generated using pymatgen
data_Nd4Sm2FeCl10
_symmetry_space_group_name_H-M   'P 1'
_cell_length_a   7.35573742
_cell_length_b   9.12948385
_cell_length_c   9.12232396
_cell_angle_alpha   110.02003382
_cell_angle_beta   106.82813534
_cell_angle_gamma   96.29644604
_symmetry_Int_Tables_number   1
_chemical_formula_structural   Nd4Sm2FeCl10
_chemical_formula_sum   'Nd4 Sm2 Fe1 Cl10'
_cell_volume   535.88384929
_cell_formula_units_Z   1
loop_
 _symmetry_equiv_pos_site_id
 _symmetry_equiv_pos_as_xyz
  1  'x, y, z'
loop_
 _atom_site_type_symbol
 _atom_site_label
 _atom_site_symmetry_multiplicity
 _atom_site_fract_x
 _atom_site_fract_y
 _atom_site_fract_z
 _atom_site_occupancy
  Nd  Nd0  1  0.865985  0.241009  0.948085  1
  Nd  Nd1  1  0.134015  0.758991  0.051915  1
  Nd  Nd2  1  0.026129  0.898217  0.699375  1
  Nd  Nd3  1  0.973871  0.101783  0.300625  1
  Sm  Sm4  1  0.372800  0.196270  0.146181  1
  Sm  Sm5  1  0.627200  0.803730  0.853819  1
  Fe  Fe6  1  0.000000  0.000000  0.000000  1
  Cl  Cl7  1  0.906300  0.160031  0.631249  1
  Cl  Cl8  1  0.093700  0.839969  0.368751  1
  Cl  Cl9  1  0.450477  0.070652  0.831699  1
  Cl  Cl10  1  0.549523  0.929348  0.168301  1
  Cl  Cl11  1  0.206350  0.649390  0.745789  1
  Cl  Cl12  1  0.793650  0.350610  0.254211  1
  Cl  Cl13  1  0.244909  0.449432  0.082553  1
  Cl  Cl14  1  0.755091  0.550568  0.917447  1
  Cl  Cl15  1  0.640863  0.719683  0.545230  1
  Cl  Cl16  1  0.359137  0.280317  0.454770  1
