# generated using pymatgen
data_Tm5Lu15Hg6OsRu
_symmetry_space_group_name_H-M   'P 1'
_cell_length_a   9.39070617
_cell_length_b   9.39070606
_cell_length_c   9.53991000
_cell_angle_alpha   90.00000000
_cell_angle_beta   90.00000000
_cell_angle_gamma   119.94762651
_symmetry_Int_Tables_number   1
_chemical_formula_structural   Tm5Lu15Hg6OsRu
_chemical_formula_sum   'Tm5 Lu15 Hg6 Os1 Ru1'
_cell_volume   728.95440629
_cell_formula_units_Z   1
loop_
 _symmetry_equiv_pos_site_id
 _symmetry_equiv_pos_as_xyz
  1  'x, y, z'
loop_
 _atom_site_type_symbol
 _atom_site_label
 _atom_site_symmetry_multiplicity
 _atom_site_fract_x
 _atom_site_fract_y
 _atom_site_fract_z
 _atom_site_occupancy
  Tm  Tm0  1  0.539381  0.460619  0.250000  1
  Tm  Tm1  1  0.538679  0.076106  0.250000  1
  Tm  Tm2  1  0.923894  0.461321  0.250000  1
  Tm  Tm3  1  0.459716  0.918980  0.750000  1
  Tm  Tm4  1  0.081020  0.540284  0.750000  1
  Lu  Lu5  1  0.999444  0.000556  0.500022  1
  Lu  Lu6  1  0.999444  0.000556  0.999978  1
  Lu  Lu7  1  0.209219  0.790781  0.441860  1
  Lu  Lu8  1  0.211016  0.419706  0.442177  1
  Lu  Lu9  1  0.580294  0.788984  0.442177  1
  Lu  Lu10  1  0.789756  0.210244  0.559497  1
  Lu  Lu11  1  0.789466  0.580548  0.559419  1
  Lu  Lu12  1  0.419452  0.210534  0.559419  1
  Lu  Lu13  1  0.789756  0.210244  0.940503  1
  Lu  Lu14  1  0.789466  0.580548  0.940581  1
  Lu  Lu15  1  0.419452  0.210534  0.940581  1
  Lu  Lu16  1  0.209219  0.790781  0.058140  1
  Lu  Lu17  1  0.211016  0.419706  0.057823  1
  Lu  Lu18  1  0.580294  0.788984  0.057823  1
  Lu  Lu19  1  0.460891  0.539109  0.750000  1
  Hg  Hg20  1  0.883982  0.116018  0.250000  1
  Hg  Hg21  1  0.883403  0.767998  0.250000  1
  Hg  Hg22  1  0.232002  0.116597  0.250000  1
  Hg  Hg23  1  0.116869  0.883131  0.750000  1
  Hg  Hg24  1  0.119453  0.235246  0.750000  1
  Hg  Hg25  1  0.764754  0.880547  0.750000  1
  Os  Os26  1  0.332720  0.667280  0.250000  1
  Ru  Ru27  1  0.665948  0.334052  0.750000  1
