# generated using pymatgen
data_DyEr3(ScIr)4
_symmetry_space_group_name_H-M   'P 1'
_cell_length_a   4.26972300
_cell_length_b   7.11897478
_cell_length_c   8.61098145
_cell_angle_alpha   89.86866030
_cell_angle_beta   90.00000000
_cell_angle_gamma   90.00000000
_symmetry_Int_Tables_number   1
_chemical_formula_structural   DyEr3(ScIr)4
_chemical_formula_sum   'Dy1 Er3 Sc4 Ir4'
_cell_volume   261.73913831
_cell_formula_units_Z   1
loop_
 _symmetry_equiv_pos_site_id
 _symmetry_equiv_pos_as_xyz
  1  'x, y, z'
loop_
 _atom_site_type_symbol
 _atom_site_label
 _atom_site_symmetry_multiplicity
 _atom_site_fract_x
 _atom_site_fract_y
 _atom_site_fract_z
 _atom_site_occupancy
  Dy  Dy0  1  0.250000  0.983219  0.327753  1
  Er  Er1  1  0.250000  0.482017  0.170905  1
  Er  Er2  1  0.750000  0.017705  0.671956  1
  Er  Er3  1  0.750000  0.517892  0.828254  1
  Sc  Sc4  1  0.250000  0.359321  0.567510  1
  Sc  Sc5  1  0.250000  0.858494  0.932610  1
  Sc  Sc6  1  0.750000  0.640705  0.433444  1
  Sc  Sc7  1  0.750000  0.140665  0.065803  1
  Ir  Ir8  1  0.250000  0.241434  0.894955  1
  Ir  Ir9  1  0.250000  0.741241  0.606130  1
  Ir  Ir10  1  0.750000  0.757466  0.104610  1
  Ir  Ir11  1  0.750000  0.259843  0.396069  1
