# generated using pymatgen
data_ErSn2Rh3
_symmetry_space_group_name_H-M   'P 1'
_cell_length_a   4.54749500
_cell_length_b   4.54749508
_cell_length_c   12.40968700
_cell_angle_alpha   90.00000000
_cell_angle_beta   90.00000000
_cell_angle_gamma   120.00000668
_symmetry_Int_Tables_number   1
_chemical_formula_structural   ErSn2Rh3
_chemical_formula_sum   'Er2 Sn4 Rh6'
_cell_volume   222.24699550
_cell_formula_units_Z   2
loop_
 _symmetry_equiv_pos_site_id
 _symmetry_equiv_pos_as_xyz
  1  'x, y, z'
loop_
 _atom_site_type_symbol
 _atom_site_label
 _atom_site_symmetry_multiplicity
 _atom_site_fract_x
 _atom_site_fract_y
 _atom_site_fract_z
 _atom_site_occupancy
  Er  Er0  1  0.000000  0.000000  0.250000  1
  Er  Er1  1  0.000000  0.000000  0.750000  1
  Sn  Sn2  1  0.333333  0.666667  0.091625  1
  Sn  Sn3  1  0.333333  0.666667  0.408375  1
  Sn  Sn4  1  0.666667  0.333333  0.591625  1
  Sn  Sn5  1  0.666667  0.333333  0.908375  1
  Rh  Rh6  1  0.000000  0.000000  0.000000  1
  Rh  Rh7  1  0.666667  0.333333  0.128744  1
  Rh  Rh8  1  0.666667  0.333333  0.371257  1
  Rh  Rh9  1  0.000000  0.000000  0.500000  1
  Rh  Rh10  1  0.333333  0.666667  0.628744  1
  Rh  Rh11  1  0.333333  0.666667  0.871256  1
