# generated using pymatgen
data_Ba2NaInAs3
_symmetry_space_group_name_H-M   'P 1'
_cell_length_a   8.83873361
_cell_length_b   8.83873335
_cell_length_c   12.56094162
_cell_angle_alpha   77.28482933
_cell_angle_beta   77.28482998
_cell_angle_gamma   67.29647696
_symmetry_Int_Tables_number   1
_chemical_formula_structural   Ba2NaInAs3
_chemical_formula_sum   'Ba8 Na4 In4 As12'
_cell_volume   873.04777806
_cell_formula_units_Z   4
loop_
 _symmetry_equiv_pos_site_id
 _symmetry_equiv_pos_as_xyz
  1  'x, y, z'
loop_
 _atom_site_type_symbol
 _atom_site_label
 _atom_site_symmetry_multiplicity
 _atom_site_fract_x
 _atom_site_fract_y
 _atom_site_fract_z
 _atom_site_occupancy
  Ba  Ba0  1  0.749844  0.196372  0.684727  1
  Ba  Ba1  1  0.250156  0.803628  0.315273  1
  Ba  Ba2  1  0.196372  0.749844  0.684727  1
  Ba  Ba3  1  0.500000  0.000000  0.500000  1
  Ba  Ba4  1  0.803628  0.250156  0.315273  1
  Ba  Ba5  1  0.000000  0.500000  0.000000  1
  Ba  Ba6  1  0.500000  0.000000  0.000000  1
  Ba  Ba7  1  0.000000  0.500000  0.500000  1
  Na  Na8  1  0.298546  0.701454  0.000000  1
  Na  Na9  1  0.361735  0.361735  0.227897  1
  Na  Na10  1  0.638265  0.638265  0.772103  1
  Na  Na11  1  0.701454  0.298546  0.000000  1
  In  In12  1  0.693711  0.693711  0.270661  1
  In  In13  1  0.089322  0.089322  0.881870  1
  In  In14  1  0.910678  0.910678  0.118130  1
  In  In15  1  0.306289  0.306289  0.729339  1
  As  As16  1  0.033172  0.602021  0.230362  1
  As  As17  1  0.583474  0.583474  0.129956  1
  As  As18  1  0.966828  0.397979  0.769638  1
  As  As19  1  0.087782  0.087782  0.488835  1
  As  As20  1  0.585706  0.585706  0.497097  1
  As  As21  1  0.903999  0.903999  0.900645  1
  As  As22  1  0.096001  0.096001  0.099355  1
  As  As23  1  0.416526  0.416526  0.870044  1
  As  As24  1  0.602021  0.033172  0.230362  1
  As  As25  1  0.912218  0.912218  0.511165  1
  As  As26  1  0.397979  0.966828  0.769638  1
  As  As27  1  0.414294  0.414294  0.502903  1
