# generated using pymatgen
data_AcPr(SnHg)2
_symmetry_space_group_name_H-M   'P 1'
_cell_length_a   4.87067700
_cell_length_b   4.87067637
_cell_length_c   17.37741400
_cell_angle_alpha   90.00000000
_cell_angle_beta   90.00000000
_cell_angle_gamma   120.00001107
_symmetry_Int_Tables_number   1
_chemical_formula_structural   AcPr(SnHg)2
_chemical_formula_sum   'Ac2 Pr2 Sn4 Hg4'
_cell_volume   357.02147130
_cell_formula_units_Z   2
loop_
 _symmetry_equiv_pos_site_id
 _symmetry_equiv_pos_as_xyz
  1  'x, y, z'
loop_
 _atom_site_type_symbol
 _atom_site_label
 _atom_site_symmetry_multiplicity
 _atom_site_fract_x
 _atom_site_fract_y
 _atom_site_fract_z
 _atom_site_occupancy
  Ac  Ac0  1  0.000000  0.000000  0.500000  1
  Ac  Ac1  1  0.000000  0.000000  0.000000  1
  Pr  Pr2  1  0.000000  0.000000  0.250000  1
  Pr  Pr3  1  0.000000  0.000000  0.750000  1
  Sn  Sn4  1  0.333333  0.666667  0.884944  1
  Sn  Sn5  1  0.666667  0.333333  0.115056  1
  Sn  Sn6  1  0.666667  0.333333  0.384944  1
  Sn  Sn7  1  0.333333  0.666667  0.615056  1
  Hg  Hg8  1  0.333333  0.666667  0.340513  1
  Hg  Hg9  1  0.666667  0.333333  0.659487  1
  Hg  Hg10  1  0.666667  0.333333  0.840513  1
  Hg  Hg11  1  0.333333  0.666667  0.159487  1
