# generated using pymatgen
data_Er8In2IrRu
_symmetry_space_group_name_H-M   'P 1'
_cell_length_a   9.57651315
_cell_length_b   9.56851910
_cell_length_c   9.56852037
_cell_angle_alpha   59.95666451
_cell_angle_beta   59.97236450
_cell_angle_gamma   59.97236323
_symmetry_Int_Tables_number   1
_chemical_formula_structural   Er8In2IrRu
_chemical_formula_sum   'Er16 In4 Ir2 Ru2'
_cell_volume   619.52390350
_cell_formula_units_Z   2
loop_
 _symmetry_equiv_pos_site_id
 _symmetry_equiv_pos_as_xyz
  1  'x, y, z'
loop_
 _atom_site_type_symbol
 _atom_site_label
 _atom_site_symmetry_multiplicity
 _atom_site_fract_x
 _atom_site_fract_y
 _atom_site_fract_z
 _atom_site_occupancy
  Er  Er0  1  0.058914  0.059675  0.441494  1
  Er  Er1  1  0.651471  0.045551  0.651507  1
  Er  Er2  1  0.192683  0.809000  0.190580  1
  Er  Er3  1  0.439917  0.059675  0.441494  1
  Er  Er4  1  0.192683  0.190580  0.809000  1
  Er  Er5  1  0.650927  0.651492  0.651492  1
  Er  Er6  1  0.046091  0.651492  0.651492  1
  Er  Er7  1  0.441923  0.058077  0.058077  1
  Er  Er8  1  0.651471  0.651507  0.045551  1
  Er  Er9  1  0.190946  0.809054  0.809054  1
  Er  Er10  1  0.807738  0.190580  0.809000  1
  Er  Er11  1  0.807509  0.192491  0.192491  1
  Er  Er12  1  0.807738  0.809000  0.190580  1
  Er  Er13  1  0.060306  0.439694  0.439694  1
  Er  Er14  1  0.439917  0.441494  0.059675  1
  Er  Er15  1  0.058914  0.441494  0.059675  1
  In  In16  1  0.748150  0.417263  0.417263  1
  In  In17  1  0.416872  0.417184  0.749071  1
  In  In18  1  0.416872  0.749071  0.417184  1
  In  In19  1  0.417323  0.417263  0.417263  1
  Ir  Ir20  1  0.859974  0.858542  0.421510  1
  Ir  Ir21  1  0.859974  0.421510  0.858542  1
  Ru  Ru22  1  0.861485  0.859156  0.859156  1
  Ru  Ru23  1  0.420204  0.859156  0.859156  1
