# generated using pymatgen
data_SmY6Sn23Os6
_symmetry_space_group_name_H-M   'P 1'
_cell_length_a   9.87800200
_cell_length_b   9.87800192
_cell_length_c   10.13925200
_cell_angle_alpha   90.00000000
_cell_angle_beta   90.00000000
_cell_angle_gamma   120.00000697
_symmetry_Int_Tables_number   1
_chemical_formula_structural   SmY6Sn23Os6
_chemical_formula_sum   'Sm1 Y6 Sn23 Os6'
_cell_volume   856.79068116
_cell_formula_units_Z   1
loop_
 _symmetry_equiv_pos_site_id
 _symmetry_equiv_pos_as_xyz
  1  'x, y, z'
loop_
 _atom_site_type_symbol
 _atom_site_label
 _atom_site_symmetry_multiplicity
 _atom_site_fract_x
 _atom_site_fract_y
 _atom_site_fract_z
 _atom_site_occupancy
  Sm  Sm0  1  0.000000  0.000000  0.000000  1
  Y  Y1  1  0.031630  0.515815  0.302541  1
  Y  Y2  1  0.484185  0.968370  0.302541  1
  Y  Y3  1  0.484185  0.515815  0.302541  1
  Y  Y4  1  0.968370  0.484185  0.697459  1
  Y  Y5  1  0.515815  0.031630  0.697459  1
  Y  Y6  1  0.515815  0.484185  0.697459  1
  Sn  Sn7  1  0.000000  0.000000  0.500000  1
  Sn  Sn8  1  0.117315  0.882685  0.275547  1
  Sn  Sn9  1  0.765370  0.882685  0.275547  1
  Sn  Sn10  1  0.117315  0.234630  0.275547  1
  Sn  Sn11  1  0.882685  0.117315  0.724453  1
  Sn  Sn12  1  0.234630  0.117315  0.724453  1
  Sn  Sn13  1  0.882685  0.765370  0.724453  1
  Sn  Sn14  1  0.349932  0.000000  0.000000  1
  Sn  Sn15  1  0.650068  0.650068  0.000000  1
  Sn  Sn16  1  0.000000  0.349932  0.000000  1
  Sn  Sn17  1  0.349932  0.349932  0.000000  1
  Sn  Sn18  1  0.000000  0.650068  0.000000  1
  Sn  Sn19  1  0.650068  0.000000  0.000000  1
  Sn  Sn20  1  0.780442  0.560884  0.461918  1
  Sn  Sn21  1  0.780442  0.219558  0.461918  1
  Sn  Sn22  1  0.439116  0.219558  0.461918  1
  Sn  Sn23  1  0.219558  0.439116  0.538082  1
  Sn  Sn24  1  0.219558  0.780442  0.538082  1
  Sn  Sn25  1  0.560884  0.780442  0.538082  1
  Sn  Sn26  1  0.666667  0.333333  0.175553  1
  Sn  Sn27  1  0.333333  0.666667  0.824447  1
  Sn  Sn28  1  0.666667  0.333333  0.872425  1
  Sn  Sn29  1  0.333333  0.666667  0.127575  1
  Os  Os30  1  0.170198  0.829802  0.797862  1
  Os  Os31  1  0.659604  0.829802  0.797862  1
  Os  Os32  1  0.170198  0.340396  0.797862  1
  Os  Os33  1  0.829802  0.170198  0.202138  1
  Os  Os34  1  0.340396  0.170198  0.202138  1
  Os  Os35  1  0.829802  0.659604  0.202138  1
