# generated using pymatgen
data_Pr2GdTl3O9
_symmetry_space_group_name_H-M   'P 1'
_cell_length_a   6.69693800
_cell_length_b   6.69693935
_cell_length_c   12.82024200
_cell_angle_alpha   90.00000000
_cell_angle_beta   90.00000000
_cell_angle_gamma   119.99999331
_symmetry_Int_Tables_number   1
_chemical_formula_structural   Pr2GdTl3O9
_chemical_formula_sum   'Pr4 Gd2 Tl6 O18'
_cell_volume   497.94288197
_cell_formula_units_Z   2
loop_
 _symmetry_equiv_pos_site_id
 _symmetry_equiv_pos_as_xyz
  1  'x, y, z'
loop_
 _atom_site_type_symbol
 _atom_site_label
 _atom_site_symmetry_multiplicity
 _atom_site_fract_x
 _atom_site_fract_y
 _atom_site_fract_z
 _atom_site_occupancy
  Pr  Pr0  1  0.666667  0.333333  0.960222  1
  Pr  Pr1  1  0.333333  0.666667  0.460222  1
  Pr  Pr2  1  0.666667  0.333333  0.460222  1
  Pr  Pr3  1  0.333333  0.666667  0.960222  1
  Gd  Gd4  1  0.000000  0.000000  0.995256  1
  Gd  Gd5  1  0.000000  0.000000  0.495256  1
  Tl  Tl6  1  0.669176  0.669176  0.726177  1
  Tl  Tl7  1  0.000000  0.330824  0.726177  1
  Tl  Tl8  1  0.330824  0.330824  0.226177  1
  Tl  Tl9  1  0.000000  0.669176  0.226177  1
  Tl  Tl10  1  0.330824  0.000000  0.726177  1
  Tl  Tl11  1  0.669176  0.000000  0.226177  1
  O  O12  1  0.700388  0.700388  0.899556  1
  O  O13  1  0.000000  0.299612  0.899556  1
  O  O14  1  0.299612  0.299612  0.399556  1
  O  O15  1  0.000000  0.700388  0.399556  1
  O  O16  1  0.299612  0.000000  0.899556  1
  O  O17  1  0.700388  0.000000  0.399556  1
  O  O18  1  0.647108  0.647108  0.554816  1
  O  O19  1  0.000000  0.352892  0.554816  1
  O  O20  1  0.352892  0.352892  0.054816  1
  O  O21  1  0.000000  0.647108  0.054816  1
  O  O22  1  0.352892  0.000000  0.554816  1
  O  O23  1  0.647108  0.000000  0.054816  1
  O  O24  1  0.000000  0.000000  0.686437  1
  O  O25  1  0.000000  0.000000  0.186437  1
  O  O26  1  0.666667  0.333333  0.761053  1
  O  O27  1  0.333333  0.666667  0.261053  1
  O  O28  1  0.666667  0.333333  0.261053  1
  O  O29  1  0.333333  0.666667  0.761053  1
