# generated using pymatgen
data_Ta4Co4Si3P
_symmetry_space_group_name_H-M   'P 1'
_cell_length_a   6.19325415
_cell_length_b   3.64322700
_cell_length_c   7.02454154
_cell_angle_alpha   90.00000000
_cell_angle_beta   89.88463392
_cell_angle_gamma   90.00000000
_symmetry_Int_Tables_number   1
_chemical_formula_structural   Ta4Co4Si3P
_chemical_formula_sum   'Ta4 Co4 Si3 P1'
_cell_volume   158.49743536
_cell_formula_units_Z   1
loop_
 _symmetry_equiv_pos_site_id
 _symmetry_equiv_pos_as_xyz
  1  'x, y, z'
loop_
 _atom_site_type_symbol
 _atom_site_label
 _atom_site_symmetry_multiplicity
 _atom_site_fract_x
 _atom_site_fract_y
 _atom_site_fract_z
 _atom_site_occupancy
  Ta  Ta0  1  0.022572  0.250000  0.822986  1
  Ta  Ta1  1  0.523747  0.250000  0.676023  1
  Ta  Ta2  1  0.977227  0.750000  0.179458  1
  Ta  Ta3  1  0.480398  0.750000  0.321498  1
  Co  Co4  1  0.137718  0.250000  0.436488  1
  Co  Co5  1  0.643942  0.250000  0.067556  1
  Co  Co6  1  0.856079  0.750000  0.558783  1
  Co  Co7  1  0.358341  0.750000  0.937127  1
  Si  Si8  1  0.275006  0.250000  0.118921  1
  Si  Si9  1  0.225771  0.750000  0.618675  1
  Si  Si10  1  0.724535  0.750000  0.881316  1
  P  P11  1  0.774664  0.250000  0.381169  1
