# generated using pymatgen
data_Nb13VNi8(WN2)2
_symmetry_space_group_name_H-M   'P 1'
_cell_length_a   8.17361649
_cell_length_b   8.14691442
_cell_length_c   8.17361507
_cell_angle_alpha   60.06577973
_cell_angle_beta   60.17326844
_cell_angle_gamma   60.06578079
_symmetry_Int_Tables_number   1
_chemical_formula_structural   Nb13VNi8(WN2)2
_chemical_formula_sum   'Nb13 V1 Ni8 W2 N4'
_cell_volume   385.74853869
_cell_formula_units_Z   1
loop_
 _symmetry_equiv_pos_site_id
 _symmetry_equiv_pos_as_xyz
  1  'x, y, z'
loop_
 _atom_site_type_symbol
 _atom_site_label
 _atom_site_symmetry_multiplicity
 _atom_site_fract_x
 _atom_site_fract_y
 _atom_site_fract_z
 _atom_site_occupancy
  Nb  Nb0  1  0.625000  0.625000  0.625000  1
  Nb  Nb1  1  0.814838  0.814430  0.183786  1
  Nb  Nb2  1  0.185814  0.186930  0.813575  1
  Nb  Nb3  1  0.815607  0.183260  0.815607  1
  Nb  Nb4  1  0.187534  0.811988  0.187534  1
  Nb  Nb5  1  0.183786  0.814430  0.814838  1
  Nb  Nb6  1  0.813575  0.186930  0.185814  1
  Nb  Nb7  1  0.435162  0.435570  0.066214  1
  Nb  Nb8  1  0.064186  0.063070  0.436425  1
  Nb  Nb9  1  0.434393  0.066740  0.434393  1
  Nb  Nb10  1  0.062466  0.438012  0.062466  1
  Nb  Nb11  1  0.066214  0.435570  0.435162  1
  Nb  Nb12  1  0.436425  0.063070  0.064186  1
  V  V13  1  0.625000  0.125000  0.625000  1
  Ni  Ni14  1  0.737621  0.412321  0.422560  1
  Ni  Ni15  1  0.419560  0.736357  0.419560  1
  Ni  Ni16  1  0.422560  0.412321  0.737621  1
  Ni  Ni17  1  0.424917  0.415203  0.424917  1
  Ni  Ni18  1  0.512379  0.837679  0.827440  1
  Ni  Ni19  1  0.830440  0.513643  0.830440  1
  Ni  Ni20  1  0.827440  0.837679  0.512379  1
  Ni  Ni21  1  0.825083  0.834797  0.825083  1
  W  W22  1  0.125000  0.625000  0.625000  1
  W  W23  1  0.625000  0.625000  0.125000  1
  N  N24  1  0.625000  0.125000  0.125000  1
  N  N25  1  0.125000  0.625000  0.125000  1
  N  N26  1  0.125000  0.125000  0.625000  1
  N  N27  1  0.125000  0.125000  0.125000  1
