# generated using pymatgen
data_Tm12ZnCo4Rh
_symmetry_space_group_name_H-M   'P 1'
_cell_length_a   8.13384879
_cell_length_b   8.13384895
_cell_length_c   8.13384847
_cell_angle_alpha   110.89967265
_cell_angle_beta   110.75095749
_cell_angle_gamma   106.79573703
_symmetry_Int_Tables_number   1
_chemical_formula_structural   Tm12ZnCo4Rh
_chemical_formula_sum   'Tm12 Zn1 Co4 Rh1'
_cell_volume   413.57951285
_cell_formula_units_Z   1
loop_
 _symmetry_equiv_pos_site_id
 _symmetry_equiv_pos_as_xyz
  1  'x, y, z'
loop_
 _atom_site_type_symbol
 _atom_site_label
 _atom_site_symmetry_multiplicity
 _atom_site_fract_x
 _atom_site_fract_y
 _atom_site_fract_z
 _atom_site_occupancy
  Tm  Tm0  1  0.584092  0.278159  0.305933  1
  Tm  Tm1  1  0.184741  0.214451  0.399192  1
  Tm  Tm2  1  0.184741  0.785549  0.970290  1
  Tm  Tm3  1  0.684371  0.488753  0.804381  1
  Tm  Tm4  1  0.684371  0.879990  0.195619  1
  Tm  Tm5  1  0.972225  0.278159  0.694067  1
  Tm  Tm6  1  0.027775  0.721841  0.305933  1
  Tm  Tm7  1  0.315629  0.120010  0.804381  1
  Tm  Tm8  1  0.315629  0.511247  0.195619  1
  Tm  Tm9  1  0.815259  0.214451  0.029710  1
  Tm  Tm10  1  0.815259  0.785549  0.600808  1
  Tm  Tm11  1  0.415908  0.721841  0.694067  1
  Zn  Zn12  1  0.500000  0.000000  0.500000  1
  Co  Co13  1  0.886165  0.886165  0.000000  1
  Co  Co14  1  0.373569  0.500000  0.873569  1
  Co  Co15  1  0.626431  0.500000  0.126431  1
  Co  Co16  1  0.113835  0.113835  0.000000  1
  Rh  Rh17  1  0.000000  0.500000  0.500000  1
