# generated using pymatgen
data_Ca4YbSi2Sn
_symmetry_space_group_name_H-M   'P 1'
_cell_length_a   9.34322677
_cell_length_b   9.34322597
_cell_length_c   9.34322722
_cell_angle_alpha   130.94133782
_cell_angle_beta   130.94134103
_cell_angle_gamma   71.90629653
_symmetry_Int_Tables_number   1
_chemical_formula_structural   Ca4YbSi2Sn
_chemical_formula_sum   'Ca8 Yb2 Si4 Sn2'
_cell_volume   455.19241085
_cell_formula_units_Z   2
loop_
 _symmetry_equiv_pos_site_id
 _symmetry_equiv_pos_as_xyz
  1  'x, y, z'
loop_
 _atom_site_type_symbol
 _atom_site_label
 _atom_site_symmetry_multiplicity
 _atom_site_fract_x
 _atom_site_fract_y
 _atom_site_fract_z
 _atom_site_occupancy
  Ca  Ca0  1  0.813338  0.313338  0.855538  1
  Ca  Ca1  1  0.186662  0.686662  0.144462  1
  Ca  Ca2  1  0.457801  0.957801  0.144462  1
  Ca  Ca3  1  0.313338  0.457801  0.500000  1
  Ca  Ca4  1  0.042199  0.186662  0.500000  1
  Ca  Ca5  1  0.542199  0.042199  0.855538  1
  Ca  Ca6  1  0.686662  0.542199  0.500000  1
  Ca  Ca7  1  0.957801  0.813338  0.500000  1
  Yb  Yb8  1  0.000000  0.000000  0.000000  1
  Yb  Yb9  1  0.500000  0.500000  0.000000  1
  Si  Si10  1  0.112548  0.612548  0.725096  1
  Si  Si11  1  0.887452  0.387452  0.274904  1
  Si  Si12  1  0.612548  0.887452  0.500000  1
  Si  Si13  1  0.387452  0.112548  0.500000  1
  Sn  Sn14  1  0.250000  0.250000  0.000000  1
  Sn  Sn15  1  0.750000  0.750000  0.000000  1
