# generated using pymatgen
data_LaNiSn2Au
_symmetry_space_group_name_H-M   'P 1'
_cell_length_a   4.61402100
_cell_length_b   4.61402100
_cell_length_c   10.52599800
_cell_angle_alpha   90.00000000
_cell_angle_beta   90.00000000
_cell_angle_gamma   90.00000000
_symmetry_Int_Tables_number   1
_chemical_formula_structural   LaNiSn2Au
_chemical_formula_sum   'La2 Ni2 Sn4 Au2'
_cell_volume   224.08996913
_cell_formula_units_Z   2
loop_
 _symmetry_equiv_pos_site_id
 _symmetry_equiv_pos_as_xyz
  1  'x, y, z'
loop_
 _atom_site_type_symbol
 _atom_site_label
 _atom_site_symmetry_multiplicity
 _atom_site_fract_x
 _atom_site_fract_y
 _atom_site_fract_z
 _atom_site_occupancy
  La  La0  1  0.000000  0.500000  0.252490  1
  La  La1  1  0.500000  0.000000  0.747510  1
  Ni  Ni2  1  0.000000  0.500000  0.612254  1
  Ni  Ni3  1  0.500000  0.000000  0.387746  1
  Sn  Sn4  1  0.000000  0.000000  0.500000  1
  Sn  Sn5  1  0.500000  0.500000  0.500000  1
  Sn  Sn6  1  0.000000  0.500000  0.847733  1
  Sn  Sn7  1  0.500000  0.000000  0.152267  1
  Au  Au8  1  0.000000  0.000000  0.000000  1
  Au  Au9  1  0.500000  0.500000  0.000000  1
