# generated using pymatgen
data_Zr2Ta(ReSi)3
_symmetry_space_group_name_H-M   'P 1'
_cell_length_a   6.94566181
_cell_length_b   6.95825387
_cell_length_c   3.41173100
_cell_angle_alpha   90.00000000
_cell_angle_beta   90.00000000
_cell_angle_gamma   120.05999794
_symmetry_Int_Tables_number   1
_chemical_formula_structural   Zr2Ta(ReSi)3
_chemical_formula_sum   'Zr2 Ta1 Re3 Si3'
_cell_volume   142.71066610
_cell_formula_units_Z   1
loop_
 _symmetry_equiv_pos_site_id
 _symmetry_equiv_pos_as_xyz
  1  'x, y, z'
loop_
 _atom_site_type_symbol
 _atom_site_label
 _atom_site_symmetry_multiplicity
 _atom_site_fract_x
 _atom_site_fract_y
 _atom_site_fract_z
 _atom_site_occupancy
  Zr  Zr0  1  0.404016  0.404244  0.500000  1
  Zr  Zr1  1  0.595984  0.000228  0.500000  1
  Ta  Ta2  1  0.000000  0.597741  0.500000  1
  Re  Re3  1  0.750296  0.744287  0.000000  1
  Re  Re4  1  0.249704  0.993991  0.000000  1
  Re  Re5  1  0.000000  0.256656  0.000000  1
  Si  Si6  1  0.672914  0.338121  0.000000  1
  Si  Si7  1  0.327086  0.665208  0.000000  1
  Si  Si8  1  0.000000  0.999524  0.500000  1
