# generated using pymatgen
data_Tb5Y5(HoRh2)2
_symmetry_space_group_name_H-M   'P 1'
_cell_length_a   6.28634586
_cell_length_b   7.19422523
_cell_length_c   9.55075073
_cell_angle_alpha   89.99839052
_cell_angle_beta   90.03763387
_cell_angle_gamma   90.03509664
_symmetry_Int_Tables_number   1
_chemical_formula_structural   Tb5Y5(HoRh2)2
_chemical_formula_sum   'Tb5 Y5 Ho2 Rh4'
_cell_volume   431.93623282
_cell_formula_units_Z   1
loop_
 _symmetry_equiv_pos_site_id
 _symmetry_equiv_pos_as_xyz
  1  'x, y, z'
loop_
 _atom_site_type_symbol
 _atom_site_label
 _atom_site_symmetry_multiplicity
 _atom_site_fract_x
 _atom_site_fract_y
 _atom_site_fract_z
 _atom_site_occupancy
  Tb  Tb0  1  0.169968  0.177177  0.063839  1
  Tb  Tb1  1  0.829737  0.822789  0.936513  1
  Tb  Tb2  1  0.670201  0.322815  0.935987  1
  Tb  Tb3  1  0.829649  0.823073  0.562561  1
  Tb  Tb4  1  0.329976  0.677144  0.063753  1
  Y  Y5  1  0.633598  0.032943  0.250548  1
  Y  Y6  1  0.365669  0.967108  0.749106  1
  Y  Y7  1  0.134556  0.466440  0.749079  1
  Y  Y8  1  0.866439  0.533226  0.250201  1
  Y  Y9  1  0.669856  0.323045  0.562008  1
  Ho  Ho10  1  0.170661  0.176696  0.436194  1
  Ho  Ho11  1  0.329264  0.676642  0.436300  1
  Rh  Rh12  1  0.438002  0.384237  0.251775  1
  Rh  Rh13  1  0.559828  0.616916  0.750257  1
  Rh  Rh14  1  0.939955  0.115663  0.750581  1
  Rh  Rh15  1  0.062644  0.884085  0.251297  1
