# generated using pymatgen
data_Y2Er(B3Ir4)2
_symmetry_space_group_name_H-M   'P 1'
_cell_length_a   10.00464646
_cell_length_b   9.18115435
_cell_length_c   5.56933100
_cell_angle_alpha   81.44207101
_cell_angle_beta   65.15822415
_cell_angle_gamma   33.39969933
_symmetry_Int_Tables_number   1
_chemical_formula_structural   Y2Er(B3Ir4)2
_chemical_formula_sum   'Y2 Er1 B6 Ir8'
_cell_volume   233.74099889
_cell_formula_units_Z   1
loop_
 _symmetry_equiv_pos_site_id
 _symmetry_equiv_pos_as_xyz
  1  'x, y, z'
loop_
 _atom_site_type_symbol
 _atom_site_label
 _atom_site_symmetry_multiplicity
 _atom_site_fract_x
 _atom_site_fract_y
 _atom_site_fract_z
 _atom_site_occupancy
  Y  Y0  1  0.178493  0.178493  0.821507  1
  Y  Y1  1  0.821507  0.821507  0.178493  1
  Er  Er2  1  0.000000  0.000000  0.000000  1
  B  B3  1  0.824976  0.524419  0.475581  1
  B  B4  1  0.175024  0.475581  0.524419  1
  B  B5  1  0.475581  0.175024  0.824976  1
  B  B6  1  0.671552  0.328448  0.671552  1
  B  B7  1  0.524419  0.824976  0.175024  1
  B  B8  1  0.328448  0.671552  0.328448  1
  Ir  Ir9  1  0.414354  0.414354  0.585646  1
  Ir  Ir10  1  0.587063  0.587063  0.912937  1
  Ir  Ir11  1  0.087063  0.087063  0.412937  1
  Ir  Ir12  1  0.912937  0.912937  0.587063  1
  Ir  Ir13  1  0.585646  0.585646  0.414354  1
  Ir  Ir14  1  0.250000  0.250000  0.250000  1
  Ir  Ir15  1  0.412937  0.412937  0.087063  1
  Ir  Ir16  1  0.750000  0.750000  0.750000  1
