# generated using pymatgen
data_Er2Fe4CuNi5P6
_symmetry_space_group_name_H-M   'P 1'
_cell_length_a   3.70833700
_cell_length_b   10.27520100
_cell_length_c   11.90032100
_cell_angle_alpha   90.00000000
_cell_angle_beta   90.00000000
_cell_angle_gamma   90.00000000
_symmetry_Int_Tables_number   1
_chemical_formula_structural   Er2Fe4CuNi5P6
_chemical_formula_sum   'Er4 Fe8 Cu2 Ni10 P12'
_cell_volume   453.44873716
_cell_formula_units_Z   2
loop_
 _symmetry_equiv_pos_site_id
 _symmetry_equiv_pos_as_xyz
  1  'x, y, z'
loop_
 _atom_site_type_symbol
 _atom_site_label
 _atom_site_symmetry_multiplicity
 _atom_site_fract_x
 _atom_site_fract_y
 _atom_site_fract_z
 _atom_site_occupancy
  Er  Er0  1  0.250000  0.574909  0.705636  1
  Er  Er1  1  0.250000  0.925091  0.205636  1
  Er  Er2  1  0.750000  0.423577  0.294026  1
  Er  Er3  1  0.750000  0.076423  0.794026  1
  Fe  Fe4  1  0.250000  0.870117  0.702200  1
  Fe  Fe5  1  0.250000  0.629883  0.202200  1
  Fe  Fe6  1  0.750000  0.129877  0.297218  1
  Fe  Fe7  1  0.750000  0.370123  0.797218  1
  Fe  Fe8  1  0.250000  0.459204  0.932260  1
  Fe  Fe9  1  0.250000  0.040796  0.432260  1
  Fe  Fe10  1  0.750000  0.539199  0.067553  1
  Fe  Fe11  1  0.750000  0.960801  0.567553  1
  Cu  Cu12  1  0.250000  0.709221  0.991288  1
  Cu  Cu13  1  0.250000  0.790779  0.491288  1
  Ni  Ni14  1  0.750000  0.287406  0.005683  1
  Ni  Ni15  1  0.750000  0.212594  0.505683  1
  Ni  Ni16  1  0.250000  0.407643  0.484304  1
  Ni  Ni17  1  0.250000  0.092358  0.984304  1
  Ni  Ni18  1  0.750000  0.590840  0.516067  1
  Ni  Ni19  1  0.750000  0.909160  0.016067  1
  Ni  Ni20  1  0.250000  0.230424  0.170143  1
  Ni  Ni21  1  0.250000  0.269576  0.670143  1
  Ni  Ni22  1  0.750000  0.771339  0.831937  1
  Ni  Ni23  1  0.750000  0.728661  0.331937  1
  P  P24  1  0.250000  0.436591  0.113786  1
  P  P25  1  0.250000  0.063409  0.613786  1
  P  P26  1  0.750000  0.561960  0.885043  1
  P  P27  1  0.750000  0.938040  0.385043  1
  P  P28  1  0.250000  0.267720  0.861471  1
  P  P29  1  0.250000  0.232280  0.361471  1
  P  P30  1  0.750000  0.731332  0.142705  1
  P  P31  1  0.750000  0.768668  0.642705  1
  P  P32  1  0.250000  0.602140  0.388684  1
  P  P33  1  0.250000  0.897860  0.888684  1
  P  P34  1  0.750000  0.392833  0.609997  1
  P  P35  1  0.750000  0.107167  0.109997  1
