# generated using pymatgen
data_Ba2Cd8Pd3Pt
_symmetry_space_group_name_H-M   'P 1'
_cell_length_a   8.53655024
_cell_length_b   8.53655024
_cell_length_c   4.53183000
_cell_angle_alpha   90.00000000
_cell_angle_beta   90.00000000
_cell_angle_gamma   90.48113144
_symmetry_Int_Tables_number   1
_chemical_formula_structural   Ba2Cd8Pd3Pt
_chemical_formula_sum   'Ba2 Cd8 Pd3 Pt1'
_cell_volume   330.23499944
_cell_formula_units_Z   1
loop_
 _symmetry_equiv_pos_site_id
 _symmetry_equiv_pos_as_xyz
  1  'x, y, z'
loop_
 _atom_site_type_symbol
 _atom_site_label
 _atom_site_symmetry_multiplicity
 _atom_site_fract_x
 _atom_site_fract_y
 _atom_site_fract_z
 _atom_site_occupancy
  Ba  Ba0  1  0.502798  0.502798  0.500000  1
  Ba  Ba1  1  0.999132  0.999132  0.000000  1
  Cd  Cd2  1  0.344010  0.089014  0.500000  1
  Cd  Cd3  1  0.655665  0.910749  0.500000  1
  Cd  Cd4  1  0.843588  0.410195  0.000000  1
  Cd  Cd5  1  0.156475  0.589591  0.000000  1
  Cd  Cd6  1  0.089014  0.344010  0.500000  1
  Cd  Cd7  1  0.910749  0.655665  0.500000  1
  Cd  Cd8  1  0.410195  0.843588  0.000000  1
  Cd  Cd9  1  0.589591  0.156475  0.000000  1
  Pd  Pd10  1  0.778433  0.221091  0.500000  1
  Pd  Pd11  1  0.221091  0.778433  0.500000  1
  Pd  Pd12  1  0.278459  0.278459  0.000000  1
  Pt  Pt13  1  0.720800  0.720800  0.000000  1
