# generated using pymatgen
data_Yb3ScAs3
_symmetry_space_group_name_H-M   'P 1'
_cell_length_a   7.50879355
_cell_length_b   7.61249613
_cell_length_c   7.50879355
_cell_angle_alpha   109.68548253
_cell_angle_beta   109.01888305
_cell_angle_gamma   109.68547963
_symmetry_Int_Tables_number   1
_chemical_formula_structural   Yb3ScAs3
_chemical_formula_sum   'Yb6 Sc2 As6'
_cell_volume   330.49008682
_cell_formula_units_Z   2
loop_
 _symmetry_equiv_pos_site_id
 _symmetry_equiv_pos_as_xyz
  1  'x, y, z'
loop_
 _atom_site_type_symbol
 _atom_site_label
 _atom_site_symmetry_multiplicity
 _atom_site_fract_x
 _atom_site_fract_y
 _atom_site_fract_z
 _atom_site_occupancy
  Yb  Yb0  1  0.360295  0.356758  0.359051  1
  Yb  Yb1  1  0.001104  0.140223  0.498768  1
  Yb  Yb2  1  0.859051  0.856758  0.860295  1
  Yb  Yb3  1  0.998768  0.640223  0.501104  1
  Yb  Yb4  1  0.638203  0.503452  0.003964  1
  Yb  Yb5  1  0.503964  0.003452  0.138203  1
  Sc  Sc6  1  0.131355  0.501182  0.001997  1
  Sc  Sc7  1  0.501997  0.001182  0.631355  1
  As  As8  1  0.878424  0.253705  0.108209  1
  As  As9  1  0.139100  0.865712  0.255542  1
  As  As10  1  0.371395  0.628967  0.752592  1
  As  As11  1  0.252592  0.128967  0.871395  1
  As  As12  1  0.755542  0.365712  0.639100  1
  As  As13  1  0.608209  0.753705  0.378424  1
