# generated using pymatgen
data_MnNiI18
_symmetry_space_group_name_H-M   'P 1'
_cell_length_a   9.97123386
_cell_length_b   10.02783577
_cell_length_c   9.95342004
_cell_angle_alpha   94.64344449
_cell_angle_beta   94.66779964
_cell_angle_gamma   94.52011403
_symmetry_Int_Tables_number   1
_chemical_formula_structural   MnNiI18
_chemical_formula_sum   'Mn1 Ni1 I18'
_cell_volume   985.02491117
_cell_formula_units_Z   1
loop_
 _symmetry_equiv_pos_site_id
 _symmetry_equiv_pos_as_xyz
  1  'x, y, z'
loop_
 _atom_site_type_symbol
 _atom_site_label
 _atom_site_symmetry_multiplicity
 _atom_site_fract_x
 _atom_site_fract_y
 _atom_site_fract_z
 _atom_site_occupancy
  Mn  Mn0  1  0.000000  0.000000  0.000000  1
  Ni  Ni1  1  0.500000  0.500000  0.500000  1
  I  I2  1  0.772214  0.479953  0.522983  1
  I  I3  1  0.522462  0.770495  0.479413  1
  I  I4  1  0.480349  0.523546  0.772673  1
  I  I5  1  0.227786  0.520047  0.477017  1
  I  I6  1  0.477538  0.229505  0.520587  1
  I  I7  1  0.519651  0.476454  0.227327  1
  I  I8  1  0.891469  0.368850  0.757520  1
  I  I9  1  0.756898  0.890064  0.369525  1
  I  I10  1  0.369575  0.757288  0.891396  1
  I  I11  1  0.108531  0.631150  0.242480  1
  I  I12  1  0.243102  0.109936  0.630475  1
  I  I13  1  0.630425  0.242712  0.108604  1
  I  I14  1  0.998708  0.963782  0.728144  1
  I  I15  1  0.728749  0.999132  0.962668  1
  I  I16  1  0.962723  0.730335  0.997631  1
  I  I17  1  0.001292  0.036218  0.271856  1
  I  I18  1  0.271251  0.000868  0.037332  1
  I  I19  1  0.037277  0.269665  0.002369  1
