# generated using pymatgen
data_Tb7YHg4
_symmetry_space_group_name_H-M   'P 1'
_cell_length_a   5.13635600
_cell_length_b   7.04141149
_cell_length_c   9.35519294
_cell_angle_alpha   89.99018266
_cell_angle_beta   90.00000000
_cell_angle_gamma   90.00000000
_symmetry_Int_Tables_number   1
_chemical_formula_structural   Tb7YHg4
_chemical_formula_sum   'Tb7 Y1 Hg4'
_cell_volume   338.35109328
_cell_formula_units_Z   1
loop_
 _symmetry_equiv_pos_site_id
 _symmetry_equiv_pos_as_xyz
  1  'x, y, z'
loop_
 _atom_site_type_symbol
 _atom_site_label
 _atom_site_symmetry_multiplicity
 _atom_site_fract_x
 _atom_site_fract_y
 _atom_site_fract_z
 _atom_site_occupancy
  Tb  Tb0  1  0.250000  0.481219  0.194458  1
  Tb  Tb1  1  0.750000  0.518770  0.806619  1
  Tb  Tb2  1  0.250000  0.981647  0.306251  1
  Tb  Tb3  1  0.750000  0.018419  0.693137  1
  Tb  Tb4  1  0.750000  0.670496  0.425600  1
  Tb  Tb5  1  0.250000  0.330490  0.574854  1
  Tb  Tb6  1  0.750000  0.168526  0.073461  1
  Y  Y7  1  0.250000  0.829989  0.925792  1
  Hg  Hg8  1  0.250000  0.266001  0.896737  1
  Hg  Hg9  1  0.750000  0.733414  0.103376  1
  Hg  Hg10  1  0.250000  0.767022  0.603638  1
  Hg  Hg11  1  0.750000  0.234007  0.396077  1
