# generated using pymatgen
data_DyZr3(Al3Ir)6
_symmetry_space_group_name_H-M   'P 1'
_cell_length_a   7.49423214
_cell_length_b   7.48648166
_cell_length_c   9.32414500
_cell_angle_alpha   90.00000000
_cell_angle_beta   90.00000000
_cell_angle_gamma   119.77267272
_symmetry_Int_Tables_number   1
_chemical_formula_structural   DyZr3(Al3Ir)6
_chemical_formula_sum   'Dy1 Zr3 Al18 Ir6'
_cell_volume   454.08258349
_cell_formula_units_Z   1
loop_
 _symmetry_equiv_pos_site_id
 _symmetry_equiv_pos_as_xyz
  1  'x, y, z'
loop_
 _atom_site_type_symbol
 _atom_site_label
 _atom_site_symmetry_multiplicity
 _atom_site_fract_x
 _atom_site_fract_y
 _atom_site_fract_z
 _atom_site_occupancy
  Dy  Dy0  1  0.329370  0.005633  0.250000  1
  Zr  Zr1  1  0.994366  0.671647  0.750000  1
  Zr  Zr2  1  0.005534  0.329474  0.250000  1
  Zr  Zr3  1  0.671622  0.994562  0.750000  1
  Al  Al4  1  0.123295  0.124515  0.750000  1
  Al  Al5  1  0.871963  0.875181  0.250000  1
  Al  Al6  1  0.997910  0.334616  0.576513  1
  Al  Al7  1  0.999662  0.663059  0.426197  1
  Al  Al8  1  0.999662  0.663059  0.073803  1
  Al  Al9  1  0.334885  0.998425  0.920294  1
  Al  Al10  1  0.997910  0.334616  0.923487  1
  Al  Al11  1  0.667785  0.001644  0.073917  1
  Al  Al12  1  0.667785  0.001644  0.426083  1
  Al  Al13  1  0.334885  0.998425  0.579706  1
  Al  Al14  1  0.331623  0.333689  0.055213  1
  Al  Al15  1  0.667986  0.667915  0.940389  1
  Al  Al16  1  0.667986  0.667915  0.559611  1
  Al  Al17  1  0.331623  0.333689  0.444787  1
  Al  Al18  1  0.338174  0.552538  0.750000  1
  Al  Al19  1  0.665916  0.452314  0.250000  1
  Al  Al20  1  0.553493  0.339414  0.750000  1
  Al  Al21  1  0.447222  0.656793  0.250000  1
  Ir  Ir22  1  0.672035  0.327851  0.501056  1
  Ir  Ir23  1  0.328335  0.672967  0.501307  1
  Ir  Ir24  1  0.328335  0.672967  0.998693  1
  Ir  Ir25  1  0.672035  0.327851  0.998944  1
  Ir  Ir26  1  0.999300  0.998798  0.501312  1
  Ir  Ir27  1  0.999300  0.998798  0.998688  1
