# generated using pymatgen
data_Y4Ho(InBi)2
_symmetry_space_group_name_H-M   'P 1'
_cell_length_a   9.09894700
_cell_length_b   9.09894704
_cell_length_c   8.32591200
_cell_angle_alpha   90.00000000
_cell_angle_beta   90.00000000
_cell_angle_gamma   125.63110690
_symmetry_Int_Tables_number   1
_chemical_formula_structural   Y4Ho(InBi)2
_chemical_formula_sum   'Y8 Ho2 In4 Bi4'
_cell_volume   560.25991815
_cell_formula_units_Z   2
loop_
 _symmetry_equiv_pos_site_id
 _symmetry_equiv_pos_as_xyz
  1  'x, y, z'
loop_
 _atom_site_type_symbol
 _atom_site_label
 _atom_site_symmetry_multiplicity
 _atom_site_fract_x
 _atom_site_fract_y
 _atom_site_fract_z
 _atom_site_occupancy
  Y  Y0  1  0.036271  0.299139  0.333540  1
  Y  Y1  1  0.963729  0.700861  0.666460  1
  Y  Y2  1  0.463729  0.200861  0.833540  1
  Y  Y3  1  0.799139  0.536271  0.166460  1
  Y  Y4  1  0.536271  0.799139  0.166460  1
  Y  Y5  1  0.200861  0.463729  0.833540  1
  Y  Y6  1  0.700861  0.963729  0.666460  1
  Y  Y7  1  0.299139  0.036271  0.333540  1
  Ho  Ho8  1  0.000000  0.000000  0.000000  1
  Ho  Ho9  1  0.500000  0.500000  0.500000  1
  In  In10  1  0.369414  0.369414  0.130809  1
  In  In11  1  0.630586  0.630586  0.869191  1
  In  In12  1  0.130586  0.130586  0.630809  1
  In  In13  1  0.869414  0.869414  0.369191  1
  Bi  Bi14  1  0.795658  0.204342  0.000000  1
  Bi  Bi15  1  0.204342  0.795658  0.000000  1
  Bi  Bi16  1  0.704342  0.295658  0.500000  1
  Bi  Bi17  1  0.295658  0.704342  0.500000  1
