# generated using pymatgen
data_Tb4TaRu6W
_symmetry_space_group_name_H-M   'P 1'
_cell_length_a   5.71596500
_cell_length_b   5.71596447
_cell_length_c   7.95774300
_cell_angle_alpha   90.00000000
_cell_angle_beta   90.00000000
_cell_angle_gamma   120.00000884
_symmetry_Int_Tables_number   1
_chemical_formula_structural   Tb4TaRu6W
_chemical_formula_sum   'Tb4 Ta1 Ru6 W1'
_cell_volume   225.16432596
_cell_formula_units_Z   1
loop_
 _symmetry_equiv_pos_site_id
 _symmetry_equiv_pos_as_xyz
  1  'x, y, z'
loop_
 _atom_site_type_symbol
 _atom_site_label
 _atom_site_symmetry_multiplicity
 _atom_site_fract_x
 _atom_site_fract_y
 _atom_site_fract_z
 _atom_site_occupancy
  Tb  Tb0  1  0.333333  0.666667  0.439270  1
  Tb  Tb1  1  0.666667  0.333333  0.560730  1
  Tb  Tb2  1  0.666667  0.333333  0.939227  1
  Tb  Tb3  1  0.333333  0.666667  0.060773  1
  Ta  Ta4  1  0.000000  0.000000  0.000000  1
  Ru  Ru5  1  0.829609  0.170391  0.253244  1
  Ru  Ru6  1  0.829609  0.659217  0.253244  1
  Ru  Ru7  1  0.340783  0.170391  0.253244  1
  Ru  Ru8  1  0.170391  0.829609  0.746756  1
  Ru  Ru9  1  0.170391  0.340783  0.746756  1
  Ru  Ru10  1  0.659217  0.829609  0.746756  1
  W  W11  1  0.000000  0.000000  0.500000  1
