# generated using pymatgen
data_Y2HoIn3PdAu2
_symmetry_space_group_name_H-M   'P 1'
_cell_length_a   7.90055700
_cell_length_b   7.87645243
_cell_length_c   3.80217400
_cell_angle_alpha   90.00000000
_cell_angle_beta   90.00000000
_cell_angle_gamma   120.10129098
_symmetry_Int_Tables_number   1
_chemical_formula_structural   Y2HoIn3PdAu2
_chemical_formula_sum   'Y2 Ho1 In3 Pd1 Au2'
_cell_volume   204.69479772
_cell_formula_units_Z   1
loop_
 _symmetry_equiv_pos_site_id
 _symmetry_equiv_pos_as_xyz
  1  'x, y, z'
loop_
 _atom_site_type_symbol
 _atom_site_label
 _atom_site_symmetry_multiplicity
 _atom_site_fract_x
 _atom_site_fract_y
 _atom_site_fract_z
 _atom_site_occupancy
  Y  Y0  1  0.999925  0.598117  0.000000  1
  Y  Y1  1  0.401808  0.401883  0.000000  1
  Ho  Ho2  1  0.597908  0.000000  0.000000  1
  In  In3  1  0.740908  0.741490  0.500000  1
  In  In4  1  0.999417  0.258510  0.500000  1
  In  In5  1  0.259177  0.000000  0.500000  1
  Pd  Pd6  1  0.999277  0.000000  0.000000  1
  Au  Au7  1  0.335188  0.668797  0.500000  1
  Au  Au8  1  0.666392  0.331203  0.500000  1
