# generated using pymatgen
data_Ta4BeTe4
_symmetry_space_group_name_H-M   'P 1'
_cell_length_a   4.77367000
_cell_length_b   11.11298900
_cell_length_c   19.23603400
_cell_angle_alpha   90.00000000
_cell_angle_beta   90.00000000
_cell_angle_gamma   90.00000000
_symmetry_Int_Tables_number   1
_chemical_formula_structural   Ta4BeTe4
_chemical_formula_sum   'Ta16 Be4 Te16'
_cell_volume   1020.46664464
_cell_formula_units_Z   4
loop_
 _symmetry_equiv_pos_site_id
 _symmetry_equiv_pos_as_xyz
  1  'x, y, z'
loop_
 _atom_site_type_symbol
 _atom_site_label
 _atom_site_symmetry_multiplicity
 _atom_site_fract_x
 _atom_site_fract_y
 _atom_site_fract_z
 _atom_site_occupancy
  Ta  Ta0  1  0.500000  0.560037  0.388419  1
  Ta  Ta1  1  0.500000  0.439963  0.611581  1
  Ta  Ta2  1  0.500000  0.060037  0.111581  1
  Ta  Ta3  1  0.500000  0.939963  0.888419  1
  Ta  Ta4  1  0.500000  0.693029  0.534721  1
  Ta  Ta5  1  0.500000  0.306971  0.465279  1
  Ta  Ta6  1  0.500000  0.193029  0.965279  1
  Ta  Ta7  1  0.500000  0.806971  0.034721  1
  Ta  Ta8  1  0.000000  0.679009  0.445302  1
  Ta  Ta9  1  0.000000  0.320991  0.554698  1
  Ta  Ta10  1  0.000000  0.179009  0.054698  1
  Ta  Ta11  1  0.000000  0.820991  0.945302  1
  Ta  Ta12  1  0.000000  0.405790  0.396630  1
  Ta  Ta13  1  0.000000  0.594210  0.603370  1
  Ta  Ta14  1  0.000000  0.905790  0.103370  1
  Ta  Ta15  1  0.000000  0.094210  0.896630  1
  Be  Be16  1  0.249564  0.500000  0.500000  1
  Be  Be17  1  0.750436  0.000000  0.000000  1
  Be  Be18  1  0.750436  0.500000  0.500000  1
  Be  Be19  1  0.249564  0.000000  0.000000  1
  Te  Te20  1  0.000000  0.840125  0.560626  1
  Te  Te21  1  0.000000  0.159875  0.439374  1
  Te  Te22  1  0.000000  0.340125  0.939374  1
  Te  Te23  1  0.000000  0.659875  0.060626  1
  Te  Te24  1  0.500000  0.334428  0.318032  1
  Te  Te25  1  0.500000  0.665572  0.681968  1
  Te  Te26  1  0.500000  0.834428  0.181968  1
  Te  Te27  1  0.500000  0.165572  0.818032  1
  Te  Te28  1  0.500000  0.815477  0.404552  1
  Te  Te29  1  0.500000  0.184523  0.595448  1
  Te  Te30  1  0.500000  0.315477  0.095448  1
  Te  Te31  1  0.500000  0.684523  0.904552  1
  Te  Te32  1  0.000000  0.605168  0.303467  1
  Te  Te33  1  0.000000  0.394832  0.696533  1
  Te  Te34  1  0.000000  0.105168  0.196533  1
  Te  Te35  1  0.000000  0.894832  0.803467  1
