# generated using pymatgen
data_Tb7Ho9Cd2Hg2IrPt3
_symmetry_space_group_name_H-M   'P 1'
_cell_length_a   9.67389282
_cell_length_b   9.64307533
_cell_length_c   9.64099200
_cell_angle_alpha   60.05174916
_cell_angle_beta   60.21077537
_cell_angle_gamma   60.31500660
_symmetry_Int_Tables_number   1
_chemical_formula_structural   Tb7Ho9Cd2Hg2IrPt3
_chemical_formula_sum   'Tb7 Ho9 Cd2 Hg2 Ir1 Pt3'
_cell_volume   638.71639988
_cell_formula_units_Z   1
loop_
 _symmetry_equiv_pos_site_id
 _symmetry_equiv_pos_as_xyz
  1  'x, y, z'
loop_
 _atom_site_type_symbol
 _atom_site_label
 _atom_site_symmetry_multiplicity
 _atom_site_fract_x
 _atom_site_fract_y
 _atom_site_fract_z
 _atom_site_occupancy
  Tb  Tb0  1  0.058549  0.064383  0.437829  1
  Tb  Tb1  1  0.186587  0.813853  0.815032  1
  Tb  Tb2  1  0.812991  0.187184  0.189289  1
  Tb  Tb3  1  0.815493  0.185909  0.812560  1
  Tb  Tb4  1  0.187426  0.811013  0.188803  1
  Tb  Tb5  1  0.815362  0.810953  0.187732  1
  Tb  Tb6  1  0.188056  0.187464  0.811979  1
  Ho  Ho7  1  0.600689  0.597749  0.598172  1
  Ho  Ho8  1  0.606339  0.601196  0.194021  1
  Ho  Ho9  1  0.606332  0.193417  0.601530  1
  Ho  Ho10  1  0.185340  0.606550  0.606564  1
  Ho  Ho11  1  0.058031  0.440241  0.439713  1
  Ho  Ho12  1  0.439845  0.060232  0.060159  1
  Ho  Ho13  1  0.441976  0.060489  0.438986  1
  Ho  Ho14  1  0.058729  0.437816  0.064296  1
  Ho  Ho15  1  0.441013  0.438150  0.061250  1
  Cd  Cd16  1  0.829564  0.505349  0.830907  1
  Cd  Cd17  1  0.506736  0.829689  0.830041  1
  Hg  Hg18  1  0.833159  0.833630  0.835081  1
  Hg  Hg19  1  0.832785  0.833976  0.495115  1
  Ir  Ir20  1  0.822104  0.392729  0.391565  1
  Pt  Pt21  1  0.391968  0.395351  0.395737  1
  Pt  Pt22  1  0.389649  0.392510  0.821119  1
  Pt  Pt23  1  0.391282  0.820171  0.392523  1
