# generated using pymatgen
data_CsHg2Cl5
_symmetry_space_group_name_H-M   'P 1'
_cell_length_a   6.13903000
_cell_length_b   8.44386920
_cell_length_c   11.14575661
_cell_angle_alpha   72.76288272
_cell_angle_beta   90.00000000
_cell_angle_gamma   90.00000000
_symmetry_Int_Tables_number   1
_chemical_formula_structural   CsHg2Cl5
_chemical_formula_sum   'Cs2 Hg4 Cl10'
_cell_volume   551.81507163
_cell_formula_units_Z   2
loop_
 _symmetry_equiv_pos_site_id
 _symmetry_equiv_pos_as_xyz
  1  'x, y, z'
loop_
 _atom_site_type_symbol
 _atom_site_label
 _atom_site_symmetry_multiplicity
 _atom_site_fract_x
 _atom_site_fract_y
 _atom_site_fract_z
 _atom_site_occupancy
  Cs  Cs0  1  0.250000  0.531813  0.744692  1
  Cs  Cs1  1  0.750000  0.468187  0.255308  1
  Hg  Hg2  1  0.750000  0.961683  0.859702  1
  Hg  Hg3  1  0.750000  0.868802  0.442280  1
  Hg  Hg4  1  0.250000  0.038317  0.140298  1
  Hg  Hg5  1  0.250000  0.131198  0.557720  1
  Cl  Cl6  1  0.250000  0.979744  0.783361  1
  Cl  Cl7  1  0.750000  0.020256  0.216639  1
  Cl  Cl8  1  0.250000  0.418138  0.433659  1
  Cl  Cl9  1  0.750000  0.234585  0.868629  1
  Cl  Cl10  1  0.750000  0.581862  0.566341  1
  Cl  Cl11  1  0.750000  0.674116  0.894864  1
  Cl  Cl12  1  0.250000  0.765415  0.131371  1
  Cl  Cl13  1  0.250000  0.906320  0.440672  1
  Cl  Cl14  1  0.250000  0.325884  0.105136  1
  Cl  Cl15  1  0.750000  0.093680  0.559328  1
