# generated using pymatgen
data_KMnFe2Sb12Rh
_symmetry_space_group_name_H-M   'P 1'
_cell_length_a   8.12354646
_cell_length_b   8.08252957
_cell_length_c   8.13451859
_cell_angle_alpha   109.43796796
_cell_angle_beta   109.93902342
_cell_angle_gamma   109.48467336
_symmetry_Int_Tables_number   1
_chemical_formula_structural   KMnFe2Sb12Rh
_chemical_formula_sum   'K1 Mn1 Fe2 Sb12 Rh1'
_cell_volume   408.85630740
_cell_formula_units_Z   1
loop_
 _symmetry_equiv_pos_site_id
 _symmetry_equiv_pos_as_xyz
  1  'x, y, z'
loop_
 _atom_site_type_symbol
 _atom_site_label
 _atom_site_symmetry_multiplicity
 _atom_site_fract_x
 _atom_site_fract_y
 _atom_site_fract_z
 _atom_site_occupancy
  K  K0  1  0.000000  0.000000  0.000000  1
  Mn  Mn1  1  0.500000  0.500000  0.500000  1
  Fe  Fe2  1  0.500000  0.000000  0.000000  1
  Fe  Fe3  1  0.000000  0.000000  0.500000  1
  Sb  Sb4  1  0.849775  0.668581  0.499579  1
  Sb  Sb5  1  0.150225  0.331419  0.500421  1
  Sb  Sb6  1  0.166748  0.668207  0.821569  1
  Sb  Sb7  1  0.833252  0.331793  0.178431  1
  Sb  Sb8  1  0.654543  0.497284  0.846402  1
  Sb  Sb9  1  0.345457  0.502716  0.153598  1
  Sb  Sb10  1  0.667887  0.830876  0.162561  1
  Sb  Sb11  1  0.332113  0.169124  0.837439  1
  Sb  Sb12  1  0.500336  0.850511  0.668976  1
  Sb  Sb13  1  0.499664  0.149489  0.331024  1
  Sb  Sb14  1  0.178466  0.847648  0.344913  1
  Sb  Sb15  1  0.821534  0.152352  0.655087  1
  Rh  Rh16  1  0.000000  0.500000  0.000000  1
