# generated using pymatgen
data_Lu2ReTcC3
_symmetry_space_group_name_H-M   'P 1'
_cell_length_a   5.93757801
_cell_length_b   5.93757764
_cell_length_c   5.58421527
_cell_angle_alpha   68.42709373
_cell_angle_beta   68.42708455
_cell_angle_gamma   32.07792581
_symmetry_Int_Tables_number   1
_chemical_formula_structural   Lu2ReTcC3
_chemical_formula_sum   'Lu2 Re1 Tc1 C3'
_cell_volume   96.59849758
_cell_formula_units_Z   1
loop_
 _symmetry_equiv_pos_site_id
 _symmetry_equiv_pos_as_xyz
  1  'x, y, z'
loop_
 _atom_site_type_symbol
 _atom_site_label
 _atom_site_symmetry_multiplicity
 _atom_site_fract_x
 _atom_site_fract_y
 _atom_site_fract_z
 _atom_site_occupancy
  Lu  Lu0  1  0.609486  0.609486  0.176684  1
  Lu  Lu1  1  0.390168  0.390168  0.827991  1
  Re  Re2  1  0.157031  0.157031  0.675505  1
  Tc  Tc3  1  0.843993  0.843993  0.321459  1
  C  C4  1  0.754543  0.754543  0.734942  1
  C  C5  1  0.244072  0.244072  0.266280  1
  C  C6  1  0.000707  0.000707  0.997140  1
