# generated using pymatgen
data_Tb(ErHg2)5
_symmetry_space_group_name_H-M   'P 1'
_cell_length_a   6.34957622
_cell_length_b   6.34957517
_cell_length_c   10.17647962
_cell_angle_alpha   90.12104405
_cell_angle_beta   90.12104910
_cell_angle_gamma   105.15177832
_symmetry_Int_Tables_number   1
_chemical_formula_structural   Tb(ErHg2)5
_chemical_formula_sum   'Tb1 Er5 Hg10'
_cell_volume   396.02101447
_cell_formula_units_Z   1
loop_
 _symmetry_equiv_pos_site_id
 _symmetry_equiv_pos_as_xyz
  1  'x, y, z'
loop_
 _atom_site_type_symbol
 _atom_site_label
 _atom_site_symmetry_multiplicity
 _atom_site_fract_x
 _atom_site_fract_y
 _atom_site_fract_z
 _atom_site_occupancy
  Tb  Tb0  1  0.211257  0.788743  0.500000  1
  Er  Er1  1  0.586162  0.584931  0.249964  1
  Er  Er2  1  0.415069  0.413838  0.750036  1
  Er  Er3  1  0.212973  0.787027  0.000000  1
  Er  Er4  1  0.787761  0.212239  0.500000  1
  Er  Er5  1  0.786539  0.213461  0.000000  1
  Hg  Hg6  1  0.983902  0.983598  0.248857  1
  Hg  Hg7  1  0.016402  0.016098  0.751143  1
  Hg  Hg8  1  0.297105  0.296821  0.032015  1
  Hg  Hg9  1  0.703179  0.702895  0.967985  1
  Hg  Hg10  1  0.297763  0.299138  0.466663  1
  Hg  Hg11  1  0.700862  0.702237  0.533337  1
  Hg  Hg12  1  0.490576  0.048999  0.249248  1
  Hg  Hg13  1  0.951001  0.509424  0.750752  1
  Hg  Hg14  1  0.512306  0.952858  0.751376  1
  Hg  Hg15  1  0.047142  0.487694  0.248624  1
