# generated using pymatgen
data_SrMn5Co3O16
_symmetry_space_group_name_H-M   'P 1'
_cell_length_a   5.79777089
_cell_length_b   6.99220361
_cell_length_c   7.06778305
_cell_angle_alpha   88.01247932
_cell_angle_beta   78.19251379
_cell_angle_gamma   78.07663098
_symmetry_Int_Tables_number   1
_chemical_formula_structural   SrMn5Co3O16
_chemical_formula_sum   'Sr1 Mn5 Co3 O16'
_cell_volume   274.40001192
_cell_formula_units_Z   1
loop_
 _symmetry_equiv_pos_site_id
 _symmetry_equiv_pos_as_xyz
  1  'x, y, z'
loop_
 _atom_site_type_symbol
 _atom_site_label
 _atom_site_symmetry_multiplicity
 _atom_site_fract_x
 _atom_site_fract_y
 _atom_site_fract_z
 _atom_site_occupancy
  Sr  Sr0  1  0.241861  0.996341  0.016883  1
  Mn  Mn1  1  0.825333  0.515292  0.183595  1
  Mn  Mn2  1  0.173427  0.483052  0.816625  1
  Mn  Mn3  1  0.670381  0.477120  0.818610  1
  Mn  Mn4  1  0.411061  0.823250  0.512700  1
  Mn  Mn5  1  0.912765  0.823266  0.519670  1
  Co  Co6  1  0.079477  0.183978  0.483235  1
  Co  Co7  1  0.579999  0.188371  0.477176  1
  Co  Co8  1  0.322668  0.509907  0.181293  1
  O  O9  1  0.393435  0.049649  0.350697  1
  O  O10  1  0.898952  0.048095  0.353231  1
  O  O11  1  0.082902  0.366845  0.281932  1
  O  O12  1  0.580191  0.372966  0.291131  1
  O  O13  1  0.076608  0.647785  0.048208  1
  O  O14  1  0.570191  0.644681  0.048096  1
  O  O15  1  0.272114  0.290864  0.620064  1
  O  O16  1  0.765122  0.292282  0.616167  1
  O  O17  1  0.223448  0.713657  0.371940  1
  O  O18  1  0.726426  0.707795  0.380475  1
  O  O19  1  0.417796  0.345146  0.952896  1
  O  O20  1  0.925759  0.346042  0.951380  1
  O  O21  1  0.410979  0.631142  0.716953  1
  O  O22  1  0.911332  0.623000  0.711750  1
  O  O23  1  0.591148  0.962268  0.644344  1
  O  O24  1  0.099199  0.957204  0.650947  1
