# generated using pymatgen
data_LiMo(PdPt2)2
_symmetry_space_group_name_H-M   'P 1'
_cell_length_a   5.53092441
_cell_length_b   5.53092401
_cell_length_c   3.95093900
_cell_angle_alpha   90.00000000
_cell_angle_beta   90.00000000
_cell_angle_gamma   89.96245837
_symmetry_Int_Tables_number   1
_chemical_formula_structural   LiMo(PdPt2)2
_chemical_formula_sum   'Li1 Mo1 Pd2 Pt4'
_cell_volume   120.86363353
_cell_formula_units_Z   1
loop_
 _symmetry_equiv_pos_site_id
 _symmetry_equiv_pos_as_xyz
  1  'x, y, z'
loop_
 _atom_site_type_symbol
 _atom_site_label
 _atom_site_symmetry_multiplicity
 _atom_site_fract_x
 _atom_site_fract_y
 _atom_site_fract_z
 _atom_site_occupancy
  Li  Li0  1  0.624778  0.375222  0.000000  1
  Mo  Mo1  1  0.125157  0.874843  0.000000  1
  Pd  Pd2  1  0.625108  0.875292  0.000000  1
  Pd  Pd3  1  0.124708  0.374892  0.000000  1
  Pt  Pt4  1  0.878506  0.628457  0.500000  1
  Pt  Pt5  1  0.371543  0.121494  0.500000  1
  Pt  Pt6  1  0.878131  0.121869  0.500000  1
  Pt  Pt7  1  0.372074  0.627926  0.500000  1
