# generated using pymatgen
data_HoTmMg2(PaNi2)2
_symmetry_space_group_name_H-M   'P 1'
_cell_length_a   7.43816108
_cell_length_b   7.45482332
_cell_length_c   3.53963500
_cell_angle_alpha   90.00000000
_cell_angle_beta   90.00000000
_cell_angle_gamma   93.48078433
_symmetry_Int_Tables_number   1
_chemical_formula_structural   HoTmMg2(PaNi2)2
_chemical_formula_sum   'Ho1 Tm1 Mg2 Pa2 Ni4'
_cell_volume   195.91130423
_cell_formula_units_Z   1
loop_
 _symmetry_equiv_pos_site_id
 _symmetry_equiv_pos_as_xyz
  1  'x, y, z'
loop_
 _atom_site_type_symbol
 _atom_site_label
 _atom_site_symmetry_multiplicity
 _atom_site_fract_x
 _atom_site_fract_y
 _atom_site_fract_z
 _atom_site_occupancy
  Ho  Ho0  1  0.168151  0.331697  0.500000  1
  Tm  Tm1  1  0.831431  0.668802  0.500000  1
  Mg  Mg2  1  0.000105  0.999143  0.000000  1
  Mg  Mg3  1  0.501061  0.499893  0.000000  1
  Pa  Pa4  1  0.670928  0.170809  0.500000  1
  Pa  Pa5  1  0.329829  0.828378  0.500000  1
  Ni  Ni6  1  0.136515  0.639093  0.000000  1
  Ni  Ni7  1  0.860921  0.363390  0.000000  1
  Ni  Ni8  1  0.618661  0.880936  0.000000  1
  Ni  Ni9  1  0.382398  0.117860  0.000000  1
