# generated using pymatgen
data_Tb3Nd3Al19Si5Os8
_symmetry_space_group_name_H-M   'P 1'
_cell_length_a   8.75456391
_cell_length_b   8.73223839
_cell_length_c   9.65415300
_cell_angle_alpha   90.00000000
_cell_angle_beta   90.00000000
_cell_angle_gamma   120.03272014
_symmetry_Int_Tables_number   1
_chemical_formula_structural   Tb3Nd3Al19Si5Os8
_chemical_formula_sum   'Tb3 Nd3 Al19 Si5 Os8'
_cell_volume   638.94227565
_cell_formula_units_Z   1
loop_
 _symmetry_equiv_pos_site_id
 _symmetry_equiv_pos_as_xyz
  1  'x, y, z'
loop_
 _atom_site_type_symbol
 _atom_site_label
 _atom_site_symmetry_multiplicity
 _atom_site_fract_x
 _atom_site_fract_y
 _atom_site_fract_z
 _atom_site_occupancy
  Tb  Tb0  1  0.194251  0.388591  0.250000  1
  Tb  Tb1  1  0.805519  0.612076  0.750000  1
  Tb  Tb2  1  0.389436  0.195963  0.750000  1
  Nd  Nd3  1  0.612629  0.807484  0.250000  1
  Nd  Nd4  1  0.194493  0.807574  0.250000  1
  Nd  Nd5  1  0.808082  0.193342  0.750000  1
  Al  Al6  1  0.165879  0.330033  0.575991  1
  Al  Al7  1  0.833697  0.667726  0.424886  1
  Al  Al8  1  0.669745  0.834759  0.575954  1
  Al  Al9  1  0.833697  0.667726  0.075114  1
  Al  Al10  1  0.328859  0.165977  0.425017  1
  Al  Al11  1  0.165879  0.330033  0.924009  1
  Al  Al12  1  0.165663  0.836042  0.576439  1
  Al  Al13  1  0.328859  0.165977  0.074983  1
  Al  Al14  1  0.836872  0.166049  0.423834  1
  Al  Al15  1  0.669745  0.834759  0.924046  1
  Al  Al16  1  0.836872  0.166049  0.076166  1
  Al  Al17  1  0.165663  0.836042  0.923561  1
  Al  Al18  1  0.435915  0.873457  0.750000  1
  Al  Al19  1  0.871048  0.431026  0.250000  1
  Al  Al20  1  0.129383  0.566558  0.750000  1
  Al  Al21  1  0.559400  0.430673  0.250000  1
  Al  Al22  1  0.436851  0.565043  0.750000  1
  Al  Al23  1  0.001113  0.002481  0.250000  1
  Al  Al24  1  0.002745  0.999601  0.750000  1
  Si  Si25  1  0.331570  0.663703  0.033470  1
  Si  Si26  1  0.666487  0.335162  0.963079  1
  Si  Si27  1  0.666487  0.335162  0.536921  1
  Si  Si28  1  0.331570  0.663703  0.466530  1
  Si  Si29  1  0.564752  0.130058  0.250000  1
  Os  Os30  1  0.500653  0.002658  0.005169  1
  Os  Os31  1  0.998602  0.498811  0.000179  1
  Os  Os32  1  0.500653  0.002658  0.494831  1
  Os  Os33  1  0.499516  0.498023  0.999607  1
  Os  Os34  1  0.998602  0.498811  0.499821  1
  Os  Os35  1  0.499516  0.498023  0.500393  1
  Os  Os36  1  0.999644  0.999092  0.999743  1
  Os  Os37  1  0.999644  0.999092  0.500257  1
