# generated using pymatgen
data_Ho2TmSc2Pb3
_symmetry_space_group_name_H-M   'P 1'
_cell_length_a   6.34570500
_cell_length_b   8.86251544
_cell_length_c   8.86805843
_cell_angle_alpha   119.97932336
_cell_angle_beta   89.99985674
_cell_angle_gamma   90.00029428
_symmetry_Int_Tables_number   1
_chemical_formula_structural   Ho2TmSc2Pb3
_chemical_formula_sum   'Ho4 Tm2 Sc4 Pb6'
_cell_volume   432.00274803
_cell_formula_units_Z   2
loop_
 _symmetry_equiv_pos_site_id
 _symmetry_equiv_pos_as_xyz
  1  'x, y, z'
loop_
 _atom_site_type_symbol
 _atom_site_label
 _atom_site_symmetry_multiplicity
 _atom_site_fract_x
 _atom_site_fract_y
 _atom_site_fract_z
 _atom_site_occupancy
  Ho  Ho0  1  0.750012  0.238152  0.000000  1
  Ho  Ho1  1  0.750005  0.761652  0.761554  1
  Ho  Ho2  1  0.750005  0.000098  0.238446  1
  Ho  Ho3  1  0.249980  0.761917  0.000000  1
  Tm  Tm4  1  0.249985  0.238271  0.238116  1
  Tm  Tm5  1  0.249985  0.000155  0.761884  1
  Sc  Sc6  1  0.499924  0.333302  0.666683  1
  Sc  Sc7  1  0.499924  0.666619  0.333317  1
  Sc  Sc8  1  0.000090  0.666647  0.333321  1
  Sc  Sc9  1  0.000090  0.333327  0.666679  1
  Pb  Pb10  1  0.750003  0.601150  0.000000  1
  Pb  Pb11  1  0.750007  0.398833  0.398824  1
  Pb  Pb12  1  0.750007  0.000009  0.601176  1
  Pb  Pb13  1  0.249990  0.397921  0.000000  1
  Pb  Pb14  1  0.249997  0.601467  0.600986  1
  Pb  Pb15  1  0.249997  0.000481  0.399014  1
