# generated using pymatgen
data_MgAg(AuO2)4
_symmetry_space_group_name_H-M   'P 1'
_cell_length_a   6.73804146
_cell_length_b   6.73804099
_cell_length_c   6.73804110
_cell_angle_alpha   128.28373930
_cell_angle_beta   128.28374540
_cell_angle_gamma   76.16583102
_symmetry_Int_Tables_number   1
_chemical_formula_structural   MgAg(AuO2)4
_chemical_formula_sum   'Mg1 Ag1 Au4 O8'
_cell_volume   183.21529526
_cell_formula_units_Z   1
loop_
 _symmetry_equiv_pos_site_id
 _symmetry_equiv_pos_as_xyz
  1  'x, y, z'
loop_
 _atom_site_type_symbol
 _atom_site_label
 _atom_site_symmetry_multiplicity
 _atom_site_fract_x
 _atom_site_fract_y
 _atom_site_fract_z
 _atom_site_occupancy
  Mg  Mg0  1  0.000000  0.000000  0.000000  1
  Ag  Ag1  1  0.750000  0.250000  0.500000  1
  Au  Au2  1  0.371756  0.631469  0.755146  1
  Au  Au3  1  0.368531  0.123677  0.740288  1
  Au  Au4  1  0.876323  0.616611  0.244854  1
  Au  Au5  1  0.383389  0.628244  0.259712  1
  O  O6  1  0.039146  0.410722  0.020418  1
  O  O7  1  0.761137  0.262997  0.089953  1
  O  O8  1  0.173043  0.671183  0.910047  1
  O  O9  1  0.390302  0.018728  0.979582  1
  O  O10  1  0.737003  0.826957  0.498140  1
  O  O11  1  0.981272  0.960854  0.371576  1
  O  O12  1  0.328817  0.238863  0.501860  1
  O  O13  1  0.589278  0.609698  0.628424  1
