# generated using pymatgen
data_Pr4SmEr3(Si3Rh)4
_symmetry_space_group_name_H-M   'P 1'
_cell_length_a   8.25303100
_cell_length_b   8.25303168
_cell_length_c   8.16213700
_cell_angle_alpha   90.00000000
_cell_angle_beta   90.00000000
_cell_angle_gamma   120.00000129
_symmetry_Int_Tables_number   1
_chemical_formula_structural   Pr4SmEr3(Si3Rh)4
_chemical_formula_sum   'Pr4 Sm1 Er3 Si12 Rh4'
_cell_volume   481.46142255
_cell_formula_units_Z   1
loop_
 _symmetry_equiv_pos_site_id
 _symmetry_equiv_pos_as_xyz
  1  'x, y, z'
loop_
 _atom_site_type_symbol
 _atom_site_label
 _atom_site_symmetry_multiplicity
 _atom_site_fract_x
 _atom_site_fract_y
 _atom_site_fract_z
 _atom_site_occupancy
  Pr  Pr0  1  0.000000  0.000000  0.250000  1
  Pr  Pr1  1  0.499191  0.500809  0.250000  1
  Pr  Pr2  1  0.499191  0.998381  0.250000  1
  Pr  Pr3  1  0.001619  0.500809  0.250000  1
  Sm  Sm4  1  0.000000  0.000000  0.750000  1
  Er  Er5  1  0.504927  0.495073  0.750000  1
  Er  Er6  1  0.990145  0.495073  0.750000  1
  Er  Er7  1  0.504927  0.009855  0.750000  1
  Si  Si8  1  0.833959  0.166041  0.506715  1
  Si  Si9  1  0.833959  0.667919  0.506715  1
  Si  Si10  1  0.332081  0.166041  0.506715  1
  Si  Si11  1  0.833959  0.166041  0.993285  1
  Si  Si12  1  0.833959  0.667919  0.993285  1
  Si  Si13  1  0.332081  0.166041  0.993285  1
  Si  Si14  1  0.168211  0.831789  0.992711  1
  Si  Si15  1  0.663579  0.831789  0.992711  1
  Si  Si16  1  0.168211  0.336421  0.992711  1
  Si  Si17  1  0.168211  0.831789  0.507289  1
  Si  Si18  1  0.663579  0.831789  0.507289  1
  Si  Si19  1  0.168211  0.336421  0.507289  1
  Rh  Rh20  1  0.666667  0.333333  0.518448  1
  Rh  Rh21  1  0.666667  0.333333  0.981552  1
  Rh  Rh22  1  0.333333  0.666667  0.953590  1
  Rh  Rh23  1  0.333333  0.666667  0.546410  1
