# generated using pymatgen
data_PrPaAl16Pt9
_symmetry_space_group_name_H-M   'P 1'
_cell_length_a   11.16089130
_cell_length_b   11.16089197
_cell_length_c   11.16089199
_cell_angle_alpha   158.61053947
_cell_angle_beta   114.76189202
_cell_angle_gamma   69.51444679
_symmetry_Int_Tables_number   1
_chemical_formula_structural   PrPaAl16Pt9
_chemical_formula_sum   'Pr1 Pa1 Al16 Pt9'
_cell_volume   457.04197871
_cell_formula_units_Z   1
loop_
 _symmetry_equiv_pos_site_id
 _symmetry_equiv_pos_as_xyz
  1  'x, y, z'
loop_
 _atom_site_type_symbol
 _atom_site_label
 _atom_site_symmetry_multiplicity
 _atom_site_fract_x
 _atom_site_fract_y
 _atom_site_fract_z
 _atom_site_occupancy
  Pr  Pr0  1  0.227558  0.227558  0.000000  1
  Pa  Pa1  1  0.773056  0.773056  0.000000  1
  Al  Al2  1  0.269902  0.390756  0.879147  1
  Al  Al3  1  0.092852  0.920850  0.172001  1
  Al  Al4  1  0.510650  0.203131  0.307520  1
  Al  Al5  1  0.250924  0.078942  0.171982  1
  Al  Al6  1  0.914043  0.414043  0.500000  1
  Al  Al7  1  0.727551  0.609228  0.118324  1
  Al  Al8  1  0.895610  0.203131  0.692480  1
  Al  Al9  1  0.489259  0.796207  0.693051  1
  Al  Al10  1  0.387531  0.000079  0.387453  1
  Al  Al11  1  0.612626  0.000079  0.612547  1
  Al  Al12  1  0.490905  0.609228  0.881676  1
  Al  Al13  1  0.103157  0.796207  0.306949  1
  Al  Al14  1  0.906960  0.078942  0.828018  1
  Al  Al15  1  0.748849  0.920850  0.827999  1
  Al  Al16  1  0.511608  0.390756  0.120853  1
  Al  Al17  1  0.086789  0.586789  0.500000  1
  Pt  Pt18  1  0.746105  0.499594  0.246511  1
  Pt  Pt19  1  0.017968  0.338366  0.679601  1
  Pt  Pt20  1  0.628470  0.128470  0.500000  1
  Pt  Pt21  1  0.253083  0.499594  0.753489  1
  Pt  Pt22  1  0.375817  0.875817  0.500000  1
  Pt  Pt23  1  0.000030  0.000030  0.000000  1
  Pt  Pt24  1  0.658765  0.338366  0.320399  1
  Pt  Pt25  1  0.346854  0.659966  0.686888  1
  Pt  Pt26  1  0.973078  0.659966  0.313112  1
