# generated using pymatgen
data_Sr2Ti(PtO3)6
_symmetry_space_group_name_H-M   'P 1'
_cell_length_a   6.83757714
_cell_length_b   7.13684325
_cell_length_c   7.53963050
_cell_angle_alpha   92.22899442
_cell_angle_beta   96.40788760
_cell_angle_gamma   114.79708113
_symmetry_Int_Tables_number   1
_chemical_formula_structural   Sr2Ti(PtO3)6
_chemical_formula_sum   'Sr2 Ti1 Pt6 O18'
_cell_volume   330.41345290
_cell_formula_units_Z   1
loop_
 _symmetry_equiv_pos_site_id
 _symmetry_equiv_pos_as_xyz
  1  'x, y, z'
loop_
 _atom_site_type_symbol
 _atom_site_label
 _atom_site_symmetry_multiplicity
 _atom_site_fract_x
 _atom_site_fract_y
 _atom_site_fract_z
 _atom_site_occupancy
  Sr  Sr0  1  0.680881  0.310416  0.383389  1
  Sr  Sr1  1  0.318174  0.689292  0.617179  1
  Ti  Ti2  1  0.604301  0.732449  0.130376  1
  Pt  Pt3  1  0.189247  0.876553  0.184175  1
  Pt  Pt4  1  0.180422  0.383408  0.195965  1
  Pt  Pt5  1  0.002245  0.001088  0.501321  1
  Pt  Pt6  1  0.820687  0.620370  0.802580  1
  Pt  Pt7  1  0.805736  0.123453  0.816113  1
  Pt  Pt8  1  0.399955  0.286796  0.884614  1
  O  O9  1  0.688227  0.487555  0.019564  1
  O  O10  1  0.882129  0.224451  0.073825  1
  O  O11  1  0.306258  0.179270  0.125306  1
  O  O12  1  0.490903  0.914107  0.168972  1
  O  O13  1  0.903623  0.875549  0.240599  1
  O  O14  1  0.094292  0.601673  0.282926  1
  O  O15  1  0.490588  0.558882  0.313872  1
  O  O16  1  0.078305  0.285187  0.429433  1
  O  O17  1  0.283337  0.003716  0.439168  1
  O  O18  1  0.719004  0.997017  0.560186  1
  O  O19  1  0.922895  0.717139  0.570240  1
  O  O20  1  0.515374  0.444585  0.677435  1
  O  O21  1  0.903896  0.398587  0.716953  1
  O  O22  1  0.090379  0.106416  0.764174  1
  O  O23  1  0.496605  0.073094  0.813642  1
  O  O24  1  0.700666  0.823550  0.884367  1
  O  O25  1  0.116575  0.774721  0.927939  1
  O  O26  1  0.315294  0.510673  0.975687  1
