# generated using pymatgen
data_Nd4Sn4Bi2Rh7
_symmetry_space_group_name_H-M   'P 1'
_cell_length_a   7.79978958
_cell_length_b   7.80465607
_cell_length_c   7.79979126
_cell_angle_alpha   109.47513567
_cell_angle_beta   109.43813993
_cell_angle_gamma   109.47511658
_symmetry_Int_Tables_number   1
_chemical_formula_structural   Nd4Sn4Bi2Rh7
_chemical_formula_sum   'Nd4 Sn4 Bi2 Rh7'
_cell_volume   365.62262816
_cell_formula_units_Z   1
loop_
 _symmetry_equiv_pos_site_id
 _symmetry_equiv_pos_as_xyz
  1  'x, y, z'
loop_
 _atom_site_type_symbol
 _atom_site_label
 _atom_site_symmetry_multiplicity
 _atom_site_fract_x
 _atom_site_fract_y
 _atom_site_fract_z
 _atom_site_occupancy
  Nd  Nd0  1  0.497157  0.994312  0.997157  1
  Nd  Nd1  1  0.998087  0.507463  0.998087  1
  Nd  Nd2  1  0.997157  0.994312  0.497157  1
  Nd  Nd3  1  0.509377  0.507463  0.509377  1
  Sn  Sn4  1  0.321755  0.999927  0.321755  1
  Sn  Sn5  1  0.999902  0.678613  0.678712  1
  Sn  Sn6  1  0.678712  0.678613  0.999902  1
  Sn  Sn7  1  0.678170  0.999927  0.678170  1
  Bi  Bi8  1  0.000081  0.315908  0.315827  1
  Bi  Bi9  1  0.315827  0.315908  0.000081  1
  Rh  Rh10  1  0.253841  0.507683  0.753841  1
  Rh  Rh11  1  0.503527  0.252602  0.749076  1
  Rh  Rh12  1  0.749076  0.252602  0.503527  1
  Rh  Rh13  1  0.504292  0.755832  0.251542  1
  Rh  Rh14  1  0.987660  0.975319  0.987660  1
  Rh  Rh15  1  0.251542  0.755832  0.504292  1
  Rh  Rh16  1  0.753841  0.507683  0.253841  1
