# generated using pymatgen
data_TbNd2Lu(ZnSn)4
_symmetry_space_group_name_H-M   'P 1'
_cell_length_a   4.54125800
_cell_length_b   4.54125731
_cell_length_c   16.04397800
_cell_angle_alpha   90.00000000
_cell_angle_beta   90.00000000
_cell_angle_gamma   120.00000500
_symmetry_Int_Tables_number   1
_chemical_formula_structural   TbNd2Lu(ZnSn)4
_chemical_formula_sum   'Tb1 Nd2 Lu1 Zn4 Sn4'
_cell_volume   286.54639813
_cell_formula_units_Z   1
loop_
 _symmetry_equiv_pos_site_id
 _symmetry_equiv_pos_as_xyz
  1  'x, y, z'
loop_
 _atom_site_type_symbol
 _atom_site_label
 _atom_site_symmetry_multiplicity
 _atom_site_fract_x
 _atom_site_fract_y
 _atom_site_fract_z
 _atom_site_occupancy
  Tb  Tb0  1  0.000000  0.000000  0.250000  1
  Nd  Nd1  1  0.000000  0.000000  0.501844  1
  Nd  Nd2  1  0.000000  0.000000  0.998156  1
  Lu  Lu3  1  0.000000  0.000000  0.750000  1
  Zn  Zn4  1  0.333333  0.666667  0.338462  1
  Zn  Zn5  1  0.666667  0.333333  0.664606  1
  Zn  Zn6  1  0.666667  0.333333  0.835394  1
  Zn  Zn7  1  0.333333  0.666667  0.161538  1
  Sn  Sn8  1  0.333333  0.666667  0.880629  1
  Sn  Sn9  1  0.666667  0.333333  0.117591  1
  Sn  Sn10  1  0.666667  0.333333  0.382409  1
  Sn  Sn11  1  0.333333  0.666667  0.619371  1
