# generated using pymatgen
data_Lu3Pa(VB4)4
_symmetry_space_group_name_H-M   'P 1'
_cell_length_a   3.44236800
_cell_length_b   5.96077751
_cell_length_c   11.53272903
_cell_angle_alpha   90.15543112
_cell_angle_beta   90.00000000
_cell_angle_gamma   90.00000000
_symmetry_Int_Tables_number   1
_chemical_formula_structural   Lu3Pa(VB4)4
_chemical_formula_sum   'Lu3 Pa1 V4 B16'
_cell_volume   236.64138479
_cell_formula_units_Z   1
loop_
 _symmetry_equiv_pos_site_id
 _symmetry_equiv_pos_as_xyz
  1  'x, y, z'
loop_
 _atom_site_type_symbol
 _atom_site_label
 _atom_site_symmetry_multiplicity
 _atom_site_fract_x
 _atom_site_fract_y
 _atom_site_fract_z
 _atom_site_occupancy
  Lu  Lu0  1  0.500000  0.124798  0.849400  1
  Lu  Lu1  1  0.500000  0.876313  0.148806  1
  Lu  Lu2  1  0.500000  0.626095  0.652195  1
  Pa  Pa3  1  0.500000  0.373817  0.348680  1
  V  V4  1  0.500000  0.128243  0.582932  1
  V  V5  1  0.500000  0.871288  0.416325  1
  V  V6  1  0.500000  0.628250  0.916858  1
  V  V7  1  0.500000  0.373129  0.083747  1
  B  B8  1  0.000000  0.286386  0.687215  1
  B  B9  1  0.000000  0.714994  0.314060  1
  B  B10  1  0.000000  0.787974  0.813732  1
  B  B11  1  0.000000  0.212267  0.184597  1
  B  B12  1  0.000000  0.364236  0.533756  1
  B  B13  1  0.000000  0.634465  0.468521  1
  B  B14  1  0.000000  0.866117  0.967163  1
  B  B15  1  0.000000  0.133545  0.031622  1
  B  B16  1  0.000000  0.023099  0.307345  1
  B  B17  1  0.000000  0.977789  0.694383  1
  B  B18  1  0.000000  0.524376  0.191153  1
  B  B19  1  0.000000  0.477218  0.806461  1
  B  B20  1  0.000000  0.111567  0.453770  1
  B  B21  1  0.000000  0.883830  0.549089  1
  B  B22  1  0.000000  0.615917  0.046680  1
  B  B23  1  0.000000  0.384288  0.951512  1
