# generated using pymatgen
data_Ho7Er(C2Cl3)2
_symmetry_space_group_name_H-M   'P 1'
_cell_length_a   3.63185500
_cell_length_b   10.42876700
_cell_length_c   19.53401900
_cell_angle_alpha   90.00000000
_cell_angle_beta   90.00000000
_cell_angle_gamma   90.00000000
_symmetry_Int_Tables_number   1
_chemical_formula_structural   Ho7Er(C2Cl3)2
_chemical_formula_sum   'Ho14 Er2 C8 Cl12'
_cell_volume   739.86600247
_cell_formula_units_Z   2
loop_
 _symmetry_equiv_pos_site_id
 _symmetry_equiv_pos_as_xyz
  1  'x, y, z'
loop_
 _atom_site_type_symbol
 _atom_site_label
 _atom_site_symmetry_multiplicity
 _atom_site_fract_x
 _atom_site_fract_y
 _atom_site_fract_z
 _atom_site_occupancy
  Ho  Ho0  1  0.250000  0.138874  0.573537  1
  Ho  Ho1  1  0.250000  0.638874  0.926463  1
  Ho  Ho2  1  0.750000  0.861403  0.426624  1
  Ho  Ho3  1  0.750000  0.361403  0.073376  1
  Ho  Ho4  1  0.250000  0.637835  0.755982  1
  Ho  Ho5  1  0.250000  0.137835  0.744018  1
  Ho  Ho6  1  0.750000  0.362306  0.243874  1
  Ho  Ho7  1  0.750000  0.862306  0.256126  1
  Ho  Ho8  1  0.250000  0.100149  0.331773  1
  Ho  Ho9  1  0.250000  0.600149  0.168227  1
  Ho  Ho10  1  0.750000  0.899876  0.668555  1
  Ho  Ho11  1  0.750000  0.399876  0.831445  1
  Ho  Ho12  1  0.250000  0.124610  0.164342  1
  Ho  Ho13  1  0.250000  0.624610  0.335658  1
  Er  Er14  1  0.750000  0.874796  0.835306  1
  Er  Er15  1  0.750000  0.374796  0.664694  1
  C  C16  1  0.250000  0.863747  0.348037  1
  C  C17  1  0.250000  0.363747  0.151963  1
  C  C18  1  0.750000  0.136736  0.652121  1
  C  C19  1  0.750000  0.636736  0.847879  1
  C  C20  1  0.250000  0.388096  0.749316  1
  C  C21  1  0.250000  0.888096  0.750684  1
  C  C22  1  0.750000  0.611873  0.250238  1
  C  C23  1  0.750000  0.111873  0.249762  1
  Cl  Cl24  1  0.250000  0.377375  0.952269  1
  Cl  Cl25  1  0.250000  0.877375  0.547731  1
  Cl  Cl26  1  0.750000  0.622786  0.047389  1
  Cl  Cl27  1  0.750000  0.122786  0.452611  1
  Cl  Cl28  1  0.250000  0.887762  0.944615  1
  Cl  Cl29  1  0.250000  0.387762  0.555385  1
  Cl  Cl30  1  0.750000  0.112725  0.054126  1
  Cl  Cl31  1  0.750000  0.612725  0.445874  1
  Cl  Cl32  1  0.250000  0.360603  0.354650  1
  Cl  Cl33  1  0.250000  0.860603  0.145350  1
  Cl  Cl34  1  0.750000  0.638447  0.645466  1
  Cl  Cl35  1  0.750000  0.138447  0.854534  1
