# generated using pymatgen
data_Ho(Zn2Ni)4
_symmetry_space_group_name_H-M   'P 1'
_cell_length_a   6.55052159
_cell_length_b   6.55052103
_cell_length_c   6.55052178
_cell_angle_alpha   98.49013106
_cell_angle_beta   98.49013437
_cell_angle_gamma   134.80707994
_symmetry_Int_Tables_number   1
_chemical_formula_structural   Ho(Zn2Ni)4
_chemical_formula_sum   'Ho1 Zn8 Ni4'
_cell_volume   184.11186522
_cell_formula_units_Z   1
loop_
 _symmetry_equiv_pos_site_id
 _symmetry_equiv_pos_as_xyz
  1  'x, y, z'
loop_
 _atom_site_type_symbol
 _atom_site_label
 _atom_site_symmetry_multiplicity
 _atom_site_fract_x
 _atom_site_fract_y
 _atom_site_fract_z
 _atom_site_occupancy
  Ho  Ho0  1  0.000000  0.000000  0.000000  1
  Zn  Zn1  1  0.000000  0.343584  0.343584  1
  Zn  Zn2  1  0.000000  0.656416  0.656416  1
  Zn  Zn3  1  0.656416  0.000000  0.656416  1
  Zn  Zn4  1  0.343584  0.000000  0.343584  1
  Zn  Zn5  1  0.500000  0.276664  0.776664  1
  Zn  Zn6  1  0.500000  0.723336  0.223336  1
  Zn  Zn7  1  0.723336  0.500000  0.223336  1
  Zn  Zn8  1  0.276664  0.500000  0.776664  1
  Ni  Ni9  1  0.000000  0.000000  0.500000  1
  Ni  Ni10  1  0.500000  0.500000  0.500000  1
  Ni  Ni11  1  0.500000  0.000000  0.000000  1
  Ni  Ni12  1  0.000000  0.500000  0.000000  1
