# generated using pymatgen
data_PrDy2Ni8Ir
_symmetry_space_group_name_H-M   'P 1'
_cell_length_a   5.00173108
_cell_length_b   5.00172984
_cell_length_c   8.78648700
_cell_angle_alpha   73.46348626
_cell_angle_beta   73.46347854
_cell_angle_gamma   60.00001969
_symmetry_Int_Tables_number   1
_chemical_formula_structural   PrDy2Ni8Ir
_chemical_formula_sum   'Pr1 Dy2 Ni8 Ir1'
_cell_volume   179.78978988
_cell_formula_units_Z   1
loop_
 _symmetry_equiv_pos_site_id
 _symmetry_equiv_pos_as_xyz
  1  'x, y, z'
loop_
 _atom_site_type_symbol
 _atom_site_label
 _atom_site_symmetry_multiplicity
 _atom_site_fract_x
 _atom_site_fract_y
 _atom_site_fract_z
 _atom_site_occupancy
  Pr  Pr0  1  0.000000  0.000000  0.000000  1
  Dy  Dy1  1  0.139179  0.139179  0.582463  1
  Dy  Dy2  1  0.860821  0.860821  0.417537  1
  Ni  Ni3  1  0.078722  0.582207  0.756865  1
  Ni  Ni4  1  0.582207  0.582207  0.756865  1
  Ni  Ni5  1  0.582207  0.078722  0.756865  1
  Ni  Ni6  1  0.921278  0.417793  0.243135  1
  Ni  Ni7  1  0.417793  0.417793  0.243135  1
  Ni  Ni8  1  0.417793  0.921278  0.243135  1
  Ni  Ni9  1  0.332905  0.332905  0.001284  1
  Ni  Ni10  1  0.667095  0.667095  0.998716  1
  Ir  Ir11  1  0.500000  0.500000  0.500000  1
