# generated using pymatgen
data_Rb6CrIO5
_symmetry_space_group_name_H-M   'P 1'
_cell_length_a   8.04751713
_cell_length_b   8.04611694
_cell_length_c   8.02361700
_cell_angle_alpha   60.09246435
_cell_angle_beta   60.09819831
_cell_angle_gamma   59.81769462
_symmetry_Int_Tables_number   1
_chemical_formula_structural   Rb6CrIO5
_chemical_formula_sum   'Rb6 Cr1 I1 O5'
_cell_volume   367.38725306
_cell_formula_units_Z   1
loop_
 _symmetry_equiv_pos_site_id
 _symmetry_equiv_pos_as_xyz
  1  'x, y, z'
loop_
 _atom_site_type_symbol
 _atom_site_label
 _atom_site_symmetry_multiplicity
 _atom_site_fract_x
 _atom_site_fract_y
 _atom_site_fract_z
 _atom_site_occupancy
  Rb  Rb0  1  0.488091  0.011912  0.011861  1
  Rb  Rb1  1  0.011905  0.488157  0.011817  1
  Rb  Rb2  1  0.488568  0.488630  0.011400  1
  Rb  Rb3  1  0.011398  0.011452  0.488574  1
  Rb  Rb4  1  0.488091  0.011912  0.488134  1
  Rb  Rb5  1  0.011905  0.488157  0.488119  1
  Cr  Cr6  1  0.500015  0.499959  0.500013  1
  I  I7  1  0.000045  0.000049  0.999953  1
  O  O8  1  0.590013  0.589908  0.234806  1
  O  O9  1  0.249996  0.250085  0.249960  1
  O  O10  1  0.585154  0.234614  0.590116  1
  O  O11  1  0.234805  0.585254  0.589970  1
  O  O12  1  0.590013  0.589908  0.585274  1
