# generated using pymatgen
data_BaGaBiAu2
_symmetry_space_group_name_H-M   'P 1'
_cell_length_a   4.90459300
_cell_length_b   4.94594021
_cell_length_c   11.00526367
_cell_angle_alpha   89.43907699
_cell_angle_beta   90.00000000
_cell_angle_gamma   90.00000000
_symmetry_Int_Tables_number   1
_chemical_formula_structural   BaGaBiAu2
_chemical_formula_sum   'Ba2 Ga2 Bi2 Au4'
_cell_volume   266.95095314
_cell_formula_units_Z   2
loop_
 _symmetry_equiv_pos_site_id
 _symmetry_equiv_pos_as_xyz
  1  'x, y, z'
loop_
 _atom_site_type_symbol
 _atom_site_label
 _atom_site_symmetry_multiplicity
 _atom_site_fract_x
 _atom_site_fract_y
 _atom_site_fract_z
 _atom_site_occupancy
  Ba  Ba0  1  0.250000  0.750829  0.765512  1
  Ba  Ba1  1  0.750000  0.249171  0.234488  1
  Ga  Ga2  1  0.250000  0.783893  0.094075  1
  Ga  Ga3  1  0.750000  0.216107  0.905925  1
  Bi  Bi4  1  0.750000  0.747551  0.499817  1
  Bi  Bi5  1  0.250000  0.252449  0.500183  1
  Au  Au6  1  0.750000  0.713742  0.998862  1
  Au  Au7  1  0.750000  0.241458  0.673505  1
  Au  Au8  1  0.250000  0.758542  0.326495  1
  Au  Au9  1  0.250000  0.286258  0.001138  1
