# generated using pymatgen
data_CdBr35
_symmetry_space_group_name_H-M   'P 1'
_cell_length_a   15.98197694
_cell_length_b   11.40028128
_cell_length_c   10.79188300
_cell_angle_alpha   88.81408278
_cell_angle_beta   66.02770512
_cell_angle_gamma   92.31545406
_symmetry_Int_Tables_number   1
_chemical_formula_structural   CdBr35
_chemical_formula_sum   'Cd1 Br35'
_cell_volume   1793.71352310
_cell_formula_units_Z   1
loop_
 _symmetry_equiv_pos_site_id
 _symmetry_equiv_pos_as_xyz
  1  'x, y, z'
loop_
 _atom_site_type_symbol
 _atom_site_label
 _atom_site_symmetry_multiplicity
 _atom_site_fract_x
 _atom_site_fract_y
 _atom_site_fract_z
 _atom_site_occupancy
  Cd  Cd0  1  0.184353  0.343821  0.446053  1
  Br  Br1  1  0.502654  0.289831  0.533031  1
  Br  Br2  1  0.751327  0.579120  0.574132  1
  Br  Br3  1  0.487911  0.705221  0.762259  1
  Br  Br4  1  0.054018  0.880335  0.850010  1
  Br  Br5  1  0.890389  0.155363  0.012958  1
  Br  Br6  1  0.638101  0.330036  0.294678  1
  Br  Br7  1  0.621268  0.342244  0.847519  1
  Br  Br8  1  0.356763  0.792221  0.720611  1
  Br  Br9  1  0.364317  0.567029  0.190398  1
  Br  Br10  1  0.656704  0.141443  0.811751  1
  Br  Br11  1  0.888773  0.541617  0.366667  1
  Br  Br12  1  0.060316  0.925897  0.615770  1
  Br  Br13  1  0.886677  0.110240  0.254038  1
  Br  Br14  1  0.892440  0.205544  0.787398  1
  Br  Br15  1  0.650124  0.057345  0.254698  1
  Br  Br16  1  0.026854  0.825326  0.097727  1
  Br  Br17  1  0.369166  0.010850  0.743280  1
  Br  Br18  1  0.883022  0.321336  0.320095  1
  Br  Br19  1  0.878617  0.917081  0.699100  1
  Br  Br20  1  0.902840  0.651364  0.782919  1
  Br  Br21  1  0.343692  0.023731  0.218789  1
  Br  Br22  1  0.349544  0.321765  0.232229  1
  Br  Br23  1  0.615612  0.612990  0.809181  1
  Br  Br24  1  0.109536  0.469369  0.331072  1
  Br  Br25  1  0.710417  0.906818  0.789708  1
  Br  Br26  1  0.881369  0.442052  0.793300  1
  Br  Br27  1  0.500719  0.036886  0.237753  1
  Br  Br28  1  0.155797  0.225586  0.657592  1
  Br  Br29  1  0.677657  0.781073  0.271277  1
  Br  Br30  1  0.852062  0.803141  0.186040  1
  Br  Br31  1  0.376973  0.236168  0.761127  1
  Br  Br32  1  0.316935  0.513674  0.583242  1
  Br  Br33  1  0.652570  0.552465  0.269715  1
  Br  Br34  1  0.178920  0.604565  0.648536  1
  Br  Br35  1  0.331562  0.776456  0.245351  1
