# generated using pymatgen
data_Y2Al9Co2Ni
_symmetry_space_group_name_H-M   'P 1'
_cell_length_a   7.40706602
_cell_length_b   7.40706546
_cell_length_c   9.31463300
_cell_angle_alpha   90.00000000
_cell_angle_beta   90.00000000
_cell_angle_gamma   119.27014396
_symmetry_Int_Tables_number   1
_chemical_formula_structural   Y2Al9Co2Ni
_chemical_formula_sum   'Y4 Al18 Co4 Ni2'
_cell_volume   445.79587890
_cell_formula_units_Z   2
loop_
 _symmetry_equiv_pos_site_id
 _symmetry_equiv_pos_as_xyz
  1  'x, y, z'
loop_
 _atom_site_type_symbol
 _atom_site_label
 _atom_site_symmetry_multiplicity
 _atom_site_fract_x
 _atom_site_fract_y
 _atom_site_fract_z
 _atom_site_occupancy
  Y  Y0  1  0.993433  0.671754  0.250233  1
  Y  Y1  1  0.006567  0.328246  0.750233  1
  Y  Y2  1  0.671754  0.993433  0.249767  1
  Y  Y3  1  0.328246  0.006567  0.749767  1
  Al  Al4  1  0.124299  0.124299  0.250000  1
  Al  Al5  1  0.875701  0.875701  0.750000  1
  Al  Al6  1  0.332292  0.329559  0.543217  1
  Al  Al7  1  0.667708  0.670441  0.043217  1
  Al  Al8  1  0.329559  0.332292  0.956783  1
  Al  Al9  1  0.670441  0.667708  0.456783  1
  Al  Al10  1  0.340335  0.552926  0.247230  1
  Al  Al11  1  0.659665  0.447074  0.747230  1
  Al  Al12  1  0.552926  0.340335  0.252770  1
  Al  Al13  1  0.447074  0.659665  0.752770  1
  Al  Al14  1  0.000182  0.335492  0.071527  1
  Al  Al15  1  0.999818  0.664508  0.571527  1
  Al  Al16  1  0.335492  0.000182  0.428473  1
  Al  Al17  1  0.664508  0.999818  0.928473  1
  Al  Al18  1  0.005051  0.668446  0.928178  1
  Al  Al19  1  0.994949  0.331554  0.428178  1
  Al  Al20  1  0.668446  0.005051  0.571822  1
  Al  Al21  1  0.331554  0.994949  0.071822  1
  Co  Co22  1  0.999619  0.000381  0.000000  1
  Co  Co23  1  0.000381  0.999619  0.500000  1
  Co  Co24  1  0.328889  0.671111  0.000000  1
  Co  Co25  1  0.671111  0.328889  0.500000  1
  Ni  Ni26  1  0.670821  0.329179  0.000000  1
  Ni  Ni27  1  0.329179  0.670821  0.500000  1
