# generated using pymatgen
data_Ho7ErRe2(B12Os)2
_symmetry_space_group_name_H-M   'P 1'
_cell_length_a   3.65698100
_cell_length_b   9.13876437
_cell_length_c   11.52135401
_cell_angle_alpha   90.13530651
_cell_angle_beta   90.00000000
_cell_angle_gamma   90.00000000
_symmetry_Int_Tables_number   1
_chemical_formula_structural   Ho7ErRe2(B12Os)2
_chemical_formula_sum   'Ho7 Er1 Re2 B24 Os2'
_cell_volume   385.04589140
_cell_formula_units_Z   1
loop_
 _symmetry_equiv_pos_site_id
 _symmetry_equiv_pos_as_xyz
  1  'x, y, z'
loop_
 _atom_site_type_symbol
 _atom_site_label
 _atom_site_symmetry_multiplicity
 _atom_site_fract_x
 _atom_site_fract_y
 _atom_site_fract_z
 _atom_site_occupancy
  Ho  Ho0  1  0.000000  0.320816  0.412471  1
  Ho  Ho1  1  0.000000  0.679151  0.587634  1
  Ho  Ho2  1  0.000000  0.824492  0.084681  1
  Ho  Ho3  1  0.000000  0.175503  0.915229  1
  Ho  Ho4  1  0.000000  0.943314  0.370726  1
  Ho  Ho5  1  0.000000  0.056692  0.629329  1
  Ho  Ho6  1  0.000000  0.442537  0.128685  1
  Er  Er7  1  0.000000  0.557510  0.871090  1
  Re  Re8  1  0.000000  0.138649  0.179534  1
  Re  Re9  1  0.000000  0.860896  0.820376  1
  B  B10  1  0.500000  0.553719  0.433128  1
  B  B11  1  0.500000  0.446308  0.566946  1
  B  B12  1  0.500000  0.053039  0.066744  1
  B  B13  1  0.500000  0.946872  0.933223  1
  B  B14  1  0.500000  0.748713  0.418847  1
  B  B15  1  0.500000  0.251328  0.581175  1
  B  B16  1  0.500000  0.248895  0.080880  1
  B  B17  1  0.500000  0.750821  0.919085  1
  B  B18  1  0.500000  0.790749  0.265845  1
  B  B19  1  0.500000  0.209361  0.734185  1
  B  B20  1  0.500000  0.291776  0.234689  1
  B  B21  1  0.500000  0.707978  0.765395  1
  B  B22  1  0.500000  0.630941  0.186026  1
  B  B23  1  0.500000  0.369313  0.814071  1
  B  B24  1  0.500000  0.131421  0.314892  1
  B  B25  1  0.500000  0.868517  0.685161  1
  B  B26  1  0.500000  0.982591  0.212436  1
  B  B27  1  0.500000  0.017372  0.787582  1
  B  B28  1  0.500000  0.483042  0.288061  1
  B  B29  1  0.500000  0.517096  0.712125  1
  B  B30  1  0.500000  0.603083  0.028499  1
  B  B31  1  0.500000  0.397186  0.970985  1
  B  B32  1  0.500000  0.103612  0.471471  1
  B  B33  1  0.500000  0.896396  0.528553  1
  Os  Os34  1  0.000000  0.637430  0.321848  1
  Os  Os35  1  0.000000  0.362882  0.678395  1
