# generated using pymatgen
data_Th6MgCd22Se
_symmetry_space_group_name_H-M   'P 1'
_cell_length_a   10.04820456
_cell_length_b   10.04820443
_cell_length_c   10.04820300
_cell_angle_alpha   59.99999484
_cell_angle_beta   59.99999527
_cell_angle_gamma   59.99999451
_symmetry_Int_Tables_number   1
_chemical_formula_structural   Th6MgCd22Se
_chemical_formula_sum   'Th6 Mg1 Cd22 Se1'
_cell_volume   717.38168079
_cell_formula_units_Z   1
loop_
 _symmetry_equiv_pos_site_id
 _symmetry_equiv_pos_as_xyz
  1  'x, y, z'
loop_
 _atom_site_type_symbol
 _atom_site_label
 _atom_site_symmetry_multiplicity
 _atom_site_fract_x
 _atom_site_fract_y
 _atom_site_fract_z
 _atom_site_occupancy
  Th  Th0  1  0.792044  0.792044  0.207956  1
  Th  Th1  1  0.207956  0.792044  0.207956  1
  Th  Th2  1  0.792044  0.207956  0.207956  1
  Th  Th3  1  0.207956  0.207956  0.792044  1
  Th  Th4  1  0.792044  0.207956  0.792044  1
  Th  Th5  1  0.207956  0.792044  0.792044  1
  Mg  Mg6  1  0.500000  0.500000  0.500000  1
  Cd  Cd7  1  0.835303  0.835303  0.494091  1
  Cd  Cd8  1  0.835303  0.494091  0.835303  1
  Cd  Cd9  1  0.494091  0.835303  0.835303  1
  Cd  Cd10  1  0.835303  0.835303  0.835303  1
  Cd  Cd11  1  0.164697  0.164697  0.505909  1
  Cd  Cd12  1  0.164697  0.505909  0.164697  1
  Cd  Cd13  1  0.505909  0.164697  0.164697  1
  Cd  Cd14  1  0.164697  0.164697  0.164697  1
  Cd  Cd15  1  0.620591  0.620591  0.138226  1
  Cd  Cd16  1  0.620591  0.138226  0.620591  1
  Cd  Cd17  1  0.138226  0.620591  0.620591  1
  Cd  Cd18  1  0.620591  0.620591  0.620591  1
  Cd  Cd19  1  0.379409  0.379409  0.861774  1
  Cd  Cd20  1  0.379409  0.861774  0.379409  1
  Cd  Cd21  1  0.861774  0.379409  0.379409  1
  Cd  Cd22  1  0.379409  0.379409  0.379409  1
  Cd  Cd23  1  0.000000  0.000000  0.500000  1
  Cd  Cd24  1  0.500000  0.000000  0.500000  1
  Cd  Cd25  1  0.000000  0.500000  0.500000  1
  Cd  Cd26  1  0.500000  0.500000  0.000000  1
  Cd  Cd27  1  0.000000  0.500000  0.000000  1
  Cd  Cd28  1  0.500000  0.000000  0.000000  1
  Se  Se29  1  0.000000  0.000000  0.000000  1
