# generated using pymatgen
data_Er2Tm2B12RuW
_symmetry_space_group_name_H-M   'P 1'
_cell_length_a   3.59801200
_cell_length_b   9.16740594
_cell_length_c   11.55787207
_cell_angle_alpha   89.78636444
_cell_angle_beta   90.00000000
_cell_angle_gamma   90.00000000
_symmetry_Int_Tables_number   1
_chemical_formula_structural   Er2Tm2B12RuW
_chemical_formula_sum   'Er4 Tm4 B24 Ru2 W2'
_cell_volume   381.22724840
_cell_formula_units_Z   2
loop_
 _symmetry_equiv_pos_site_id
 _symmetry_equiv_pos_as_xyz
  1  'x, y, z'
loop_
 _atom_site_type_symbol
 _atom_site_label
 _atom_site_symmetry_multiplicity
 _atom_site_fract_x
 _atom_site_fract_y
 _atom_site_fract_z
 _atom_site_occupancy
  Er  Er0  1  0.000000  0.321328  0.414008  1
  Er  Er1  1  0.000000  0.678672  0.585992  1
  Er  Er2  1  0.000000  0.821776  0.086375  1
  Er  Er3  1  0.000000  0.178224  0.913625  1
  Tm  Tm4  1  0.000000  0.945407  0.371480  1
  Tm  Tm5  1  0.000000  0.054593  0.628520  1
  Tm  Tm6  1  0.000000  0.441695  0.127649  1
  Tm  Tm7  1  0.000000  0.558305  0.872351  1
  B  B8  1  0.500000  0.551101  0.434875  1
  B  B9  1  0.500000  0.448899  0.565125  1
  B  B10  1  0.500000  0.053696  0.066639  1
  B  B11  1  0.500000  0.946304  0.933361  1
  B  B12  1  0.500000  0.752300  0.421898  1
  B  B13  1  0.500000  0.247700  0.578102  1
  B  B14  1  0.500000  0.248542  0.081188  1
  B  B15  1  0.500000  0.751458  0.918812  1
  B  B16  1  0.500000  0.796594  0.263066  1
  B  B17  1  0.500000  0.203406  0.736934  1
  B  B18  1  0.500000  0.290258  0.233702  1
  B  B19  1  0.500000  0.709742  0.766298  1
  B  B20  1  0.500000  0.632154  0.180968  1
  B  B21  1  0.500000  0.367846  0.819032  1
  B  B22  1  0.500000  0.130702  0.313785  1
  B  B23  1  0.500000  0.869298  0.686215  1
  B  B24  1  0.500000  0.983839  0.211701  1
  B  B25  1  0.500000  0.016161  0.788299  1
  B  B26  1  0.500000  0.477027  0.286144  1
  B  B27  1  0.500000  0.522973  0.713856  1
  B  B28  1  0.500000  0.603279  0.027686  1
  B  B29  1  0.500000  0.396721  0.972314  1
  B  B30  1  0.500000  0.103141  0.470448  1
  B  B31  1  0.500000  0.896859  0.529552  1
  Ru  Ru32  1  0.000000  0.138247  0.178279  1
  Ru  Ru33  1  0.000000  0.861753  0.821721  1
  W  W34  1  0.000000  0.639064  0.319369  1
  W  W35  1  0.000000  0.360936  0.680631  1
