# generated using pymatgen
data_Sr4LiLu(WO6)2
_symmetry_space_group_name_H-M   'P 1'
_cell_length_a   5.76811904
_cell_length_b   5.74256553
_cell_length_c   10.01609494
_cell_angle_alpha   55.08494626
_cell_angle_beta   89.99391510
_cell_angle_gamma   89.98562672
_symmetry_Int_Tables_number   1
_chemical_formula_structural   Sr4LiLu(WO6)2
_chemical_formula_sum   'Sr4 Li1 Lu1 W2 O12'
_cell_volume   272.05283266
_cell_formula_units_Z   1
loop_
 _symmetry_equiv_pos_site_id
 _symmetry_equiv_pos_as_xyz
  1  'x, y, z'
loop_
 _atom_site_type_symbol
 _atom_site_label
 _atom_site_symmetry_multiplicity
 _atom_site_fract_x
 _atom_site_fract_y
 _atom_site_fract_z
 _atom_site_occupancy
  Sr  Sr0  1  0.020675  0.259091  0.730811  1
  Sr  Sr1  1  0.465838  0.223757  0.270146  1
  Sr  Sr2  1  0.534162  0.776243  0.729854  1
  Sr  Sr3  1  0.979325  0.740909  0.269189  1
  Li  Li4  1  0.000000  0.000000  0.500000  1
  Lu  Lu5  1  0.500000  0.000000  0.000000  1
  W  W6  1  0.000000  0.500000  0.000000  1
  W  W7  1  0.500000  0.500000  0.500000  1
  O  O8  1  0.489957  0.327581  0.737979  1
  O  O9  1  0.285800  0.212614  0.530589  1
  O  O10  1  0.269645  0.749612  0.953640  1
  O  O11  1  0.242197  0.744524  0.468610  1
  O  O12  1  0.207897  0.191255  0.041922  1
  O  O13  1  0.019256  0.351647  0.227339  1
  O  O14  1  0.980744  0.648353  0.772661  1
  O  O15  1  0.792103  0.808745  0.958078  1
  O  O16  1  0.757803  0.255476  0.531390  1
  O  O17  1  0.730355  0.250388  0.046360  1
  O  O18  1  0.714200  0.787386  0.469411  1
  O  O19  1  0.510043  0.672419  0.262021  1
