# generated using pymatgen
data_Zr6Re6Si5Ge
_symmetry_space_group_name_H-M   'P 1'
_cell_length_a   7.82664093
_cell_length_b   7.82623346
_cell_length_c   7.82642699
_cell_angle_alpha   126.65991564
_cell_angle_beta   127.66581714
_cell_angle_gamma   77.98556250
_symmetry_Int_Tables_number   1
_chemical_formula_structural   Zr6Re6Si5Ge
_chemical_formula_sum   'Zr6 Re6 Si5 Ge1'
_cell_volume   295.00596346
_cell_formula_units_Z   1
loop_
 _symmetry_equiv_pos_site_id
 _symmetry_equiv_pos_as_xyz
  1  'x, y, z'
loop_
 _atom_site_type_symbol
 _atom_site_label
 _atom_site_symmetry_multiplicity
 _atom_site_fract_x
 _atom_site_fract_y
 _atom_site_fract_z
 _atom_site_occupancy
  Zr  Zr0  1  0.547346  0.506823  0.457352  1
  Zr  Zr1  1  0.050293  0.506885  0.958730  1
  Zr  Zr2  1  0.247869  0.098098  0.347927  1
  Zr  Zr3  1  0.749346  0.097323  0.850310  1
  Zr  Zr4  1  0.953122  0.905465  0.454110  1
  Zr  Zr5  1  0.452099  0.907150  0.953337  1
  Re  Re6  1  0.627747  0.507446  0.881130  1
  Re  Re7  1  0.999833  0.756602  0.756525  1
  Re  Re8  1  0.875903  0.248962  0.374687  1
  Re  Re9  1  0.126515  0.503855  0.375690  1
  Re  Re10  1  0.497592  0.752905  0.255328  1
  Re  Re11  1  0.372034  0.248492  0.874687  1
  Si  Si12  1  0.332976  0.837260  0.503006  1
  Si  Si13  1  0.749353  0.502186  0.252818  1
  Si  Si14  1  0.833515  0.836378  0.004032  1
  Si  Si15  1  0.250431  0.503545  0.752783  1
  Si  Si16  1  0.166136  0.170182  0.002777  1
  Ge  Ge17  1  0.667890  0.170442  0.504771  1
