# generated using pymatgen
data_Er4Ga6CoAg
_symmetry_space_group_name_H-M   'P 1'
_cell_length_a   6.97250300
_cell_length_b   8.83899233
_cell_length_c   8.83899300
_cell_angle_alpha   119.99999875
_cell_angle_beta   90.00000000
_cell_angle_gamma   90.00000000
_symmetry_Int_Tables_number   1
_chemical_formula_structural   Er4Ga6CoAg
_chemical_formula_sum   'Er8 Ga12 Co2 Ag2'
_cell_volume   471.76410536
_cell_formula_units_Z   2
loop_
 _symmetry_equiv_pos_site_id
 _symmetry_equiv_pos_as_xyz
  1  'x, y, z'
loop_
 _atom_site_type_symbol
 _atom_site_label
 _atom_site_symmetry_multiplicity
 _atom_site_fract_x
 _atom_site_fract_y
 _atom_site_fract_z
 _atom_site_occupancy
  Er  Er0  1  0.744024  0.000000  0.000000  1
  Er  Er1  1  0.255976  0.000000  0.000000  1
  Er  Er2  1  0.739155  0.477272  0.522728  1
  Er  Er3  1  0.260845  0.522728  0.477272  1
  Er  Er4  1  0.739155  0.045455  0.522728  1
  Er  Er5  1  0.260845  0.954545  0.477272  1
  Er  Er6  1  0.739155  0.477272  0.954545  1
  Er  Er7  1  0.260845  0.522728  0.045455  1
  Ga  Ga8  1  0.954557  0.835286  0.164714  1
  Ga  Ga9  1  0.045443  0.164714  0.835286  1
  Ga  Ga10  1  0.954557  0.329427  0.164714  1
  Ga  Ga11  1  0.455104  0.172761  0.827239  1
  Ga  Ga12  1  0.045443  0.670573  0.835286  1
  Ga  Ga13  1  0.544896  0.827239  0.172761  1
  Ga  Ga14  1  0.954557  0.835286  0.670573  1
  Ga  Ga15  1  0.455104  0.654477  0.827239  1
  Ga  Ga16  1  0.045443  0.164714  0.329427  1
  Ga  Ga17  1  0.544896  0.345523  0.172761  1
  Ga  Ga18  1  0.455104  0.172761  0.345523  1
  Ga  Ga19  1  0.544896  0.827239  0.654477  1
  Co  Co20  1  0.487411  0.333333  0.666667  1
  Co  Co21  1  0.512589  0.666667  0.333333  1
  Ag  Ag22  1  0.943405  0.666667  0.333333  1
  Ag  Ag23  1  0.056595  0.333333  0.666667  1
