# generated using pymatgen
data_NdSm5CoP12Rh17
_symmetry_space_group_name_H-M   'P 1'
_cell_length_a   3.93422500
_cell_length_b   11.24309700
_cell_length_c   12.91447300
_cell_angle_alpha   90.00000000
_cell_angle_beta   90.00000000
_cell_angle_gamma   90.00000000
_symmetry_Int_Tables_number   1
_chemical_formula_structural   NdSm5CoP12Rh17
_chemical_formula_sum   'Nd1 Sm5 Co1 P12 Rh17'
_cell_volume   571.24424788
_cell_formula_units_Z   1
loop_
 _symmetry_equiv_pos_site_id
 _symmetry_equiv_pos_as_xyz
  1  'x, y, z'
loop_
 _atom_site_type_symbol
 _atom_site_label
 _atom_site_symmetry_multiplicity
 _atom_site_fract_x
 _atom_site_fract_y
 _atom_site_fract_z
 _atom_site_occupancy
  Nd  Nd0  1  0.000000  0.500000  0.520522  1
  Sm  Sm1  1  0.500000  0.000000  0.478530  1
  Sm  Sm2  1  0.500000  0.817633  0.203243  1
  Sm  Sm3  1  0.500000  0.182367  0.203243  1
  Sm  Sm4  1  0.000000  0.688531  0.797367  1
  Sm  Sm5  1  0.000000  0.311469  0.797367  1
  Co  Co6  1  0.500000  0.000000  0.020982  1
  P  P7  1  0.500000  0.500000  0.881145  1
  P  P8  1  0.000000  0.000000  0.118315  1
  P  P9  1  0.500000  0.500000  0.346575  1
  P  P10  1  0.000000  0.000000  0.649447  1
  P  P11  1  0.500000  0.313281  0.618582  1
  P  P12  1  0.500000  0.686719  0.618582  1
  P  P13  1  0.000000  0.185802  0.381936  1
  P  P14  1  0.000000  0.814198  0.381936  1
  P  P15  1  0.500000  0.856755  0.896799  1
  P  P16  1  0.500000  0.143245  0.896799  1
  P  P17  1  0.000000  0.654889  0.105896  1
  P  P18  1  0.000000  0.345111  0.105896  1
  Rh  Rh19  1  0.500000  0.500000  0.167083  1
  Rh  Rh20  1  0.000000  0.000000  0.829549  1
  Rh  Rh21  1  0.500000  0.500000  0.704061  1
  Rh  Rh22  1  0.000000  0.000000  0.297765  1
  Rh  Rh23  1  0.000000  0.500000  0.981918  1
  Rh  Rh24  1  0.500000  0.331520  0.995037  1
  Rh  Rh25  1  0.500000  0.668480  0.995037  1
  Rh  Rh26  1  0.000000  0.159686  0.004758  1
  Rh  Rh27  1  0.000000  0.840314  0.004758  1
  Rh  Rh28  1  0.500000  0.291874  0.429567  1
  Rh  Rh29  1  0.500000  0.708126  0.429567  1
  Rh  Rh30  1  0.000000  0.205880  0.570019  1
  Rh  Rh31  1  0.000000  0.794120  0.570019  1
  Rh  Rh32  1  0.500000  0.875319  0.711369  1
  Rh  Rh33  1  0.500000  0.124681  0.711369  1
  Rh  Rh34  1  0.000000  0.626060  0.287480  1
  Rh  Rh35  1  0.000000  0.373940  0.287480  1
