# generated using pymatgen
data_Ac2ZnNiBr
_symmetry_space_group_name_H-M   'P 1'
_cell_length_a   4.35054400
_cell_length_b   4.35054383
_cell_length_c   17.90142900
_cell_angle_alpha   90.00000000
_cell_angle_beta   90.00000000
_cell_angle_gamma   119.99998612
_symmetry_Int_Tables_number   1
_chemical_formula_structural   Ac2ZnNiBr
_chemical_formula_sum   'Ac4 Zn2 Ni2 Br2'
_cell_volume   293.43067052
_cell_formula_units_Z   2
loop_
 _symmetry_equiv_pos_site_id
 _symmetry_equiv_pos_as_xyz
  1  'x, y, z'
loop_
 _atom_site_type_symbol
 _atom_site_label
 _atom_site_symmetry_multiplicity
 _atom_site_fract_x
 _atom_site_fract_y
 _atom_site_fract_z
 _atom_site_occupancy
  Ac  Ac0  1  0.000000  0.000000  0.608980  1
  Ac  Ac1  1  0.000000  0.000000  0.392157  1
  Ac  Ac2  1  0.000000  0.000000  0.108980  1
  Ac  Ac3  1  0.000000  0.000000  0.892157  1
  Zn  Zn4  1  0.666667  0.333333  0.500904  1
  Zn  Zn5  1  0.333333  0.666667  0.000904  1
  Ni  Ni6  1  0.666667  0.333333  0.998630  1
  Ni  Ni7  1  0.333333  0.666667  0.498630  1
  Br  Br8  1  0.666667  0.333333  0.249329  1
  Br  Br9  1  0.333333  0.666667  0.749329  1
