# generated using pymatgen
data_Ce8ErSi16Mo11
_symmetry_space_group_name_H-M   'P 1'
_cell_length_a   6.95414726
_cell_length_b   7.05774879
_cell_length_c   13.11995400
_cell_angle_alpha   90.00000000
_cell_angle_beta   90.00000000
_cell_angle_gamma   90.13303570
_symmetry_Int_Tables_number   1
_chemical_formula_structural   Ce8ErSi16Mo11
_chemical_formula_sum   'Ce8 Er1 Si16 Mo11'
_cell_volume   643.93379898
_cell_formula_units_Z   1
loop_
 _symmetry_equiv_pos_site_id
 _symmetry_equiv_pos_as_xyz
  1  'x, y, z'
loop_
 _atom_site_type_symbol
 _atom_site_label
 _atom_site_symmetry_multiplicity
 _atom_site_fract_x
 _atom_site_fract_y
 _atom_site_fract_z
 _atom_site_occupancy
  Ce  Ce0  1  0.004323  0.161473  0.094309  1
  Ce  Ce1  1  0.505070  0.339805  0.405559  1
  Ce  Ce2  1  0.497414  0.663420  0.907799  1
  Ce  Ce3  1  0.998281  0.835340  0.590527  1
  Ce  Ce4  1  0.998281  0.835340  0.909473  1
  Ce  Ce5  1  0.497414  0.663420  0.592201  1
  Ce  Ce6  1  0.505070  0.339805  0.094441  1
  Ce  Ce7  1  0.004323  0.161473  0.405691  1
  Er  Er8  1  0.329610  0.998237  0.750000  1
  Si  Si9  1  0.808779  0.377423  0.250000  1
  Si  Si10  1  0.309813  0.124367  0.250000  1
  Si  Si11  1  0.709748  0.873627  0.750000  1
  Si  Si12  1  0.190089  0.607354  0.750000  1
  Si  Si13  1  0.037435  0.859791  0.250000  1
  Si  Si14  1  0.541345  0.641901  0.250000  1
  Si  Si15  1  0.466170  0.372144  0.750000  1
  Si  Si16  1  0.947629  0.143771  0.750000  1
  Si  Si17  1  0.842028  0.454590  0.954214  1
  Si  Si18  1  0.344223  0.045034  0.537707  1
  Si  Si19  1  0.654663  0.955337  0.049318  1
  Si  Si20  1  0.155791  0.544517  0.451438  1
  Si  Si21  1  0.155791  0.544517  0.048562  1
  Si  Si22  1  0.654663  0.955337  0.450682  1
  Si  Si23  1  0.344223  0.045034  0.962293  1
  Si  Si24  1  0.842028  0.454590  0.545786  1
  Mo  Mo25  1  0.669076  0.001912  0.250000  1
  Mo  Mo26  1  0.168074  0.499318  0.250000  1
  Mo  Mo27  1  0.830807  0.497882  0.750000  1
  Mo  Mo28  1  0.833412  0.663977  0.125959  1
  Mo  Mo29  1  0.330799  0.835424  0.370832  1
  Mo  Mo30  1  0.667320  0.169514  0.877744  1
  Mo  Mo31  1  0.162386  0.332707  0.622617  1
  Mo  Mo32  1  0.162386  0.332707  0.877383  1
  Mo  Mo33  1  0.667320  0.169514  0.622256  1
  Mo  Mo34  1  0.330799  0.835424  0.129168  1
  Mo  Mo35  1  0.833412  0.663977  0.374041  1
