# generated using pymatgen
data_Dy7HoTa10(TiSi8)2
_symmetry_space_group_name_H-M   'P 1'
_cell_length_a   7.04203532
_cell_length_b   7.04181217
_cell_length_c   12.97124402
_cell_angle_alpha   89.95003297
_cell_angle_beta   90.05497615
_cell_angle_gamma   90.00839129
_symmetry_Int_Tables_number   1
_chemical_formula_structural   Dy7HoTa10(TiSi8)2
_chemical_formula_sum   'Dy7 Ho1 Ta10 Ti2 Si16'
_cell_volume   643.22645130
_cell_formula_units_Z   1
loop_
 _symmetry_equiv_pos_site_id
 _symmetry_equiv_pos_as_xyz
  1  'x, y, z'
loop_
 _atom_site_type_symbol
 _atom_site_label
 _atom_site_symmetry_multiplicity
 _atom_site_fract_x
 _atom_site_fract_y
 _atom_site_fract_z
 _atom_site_occupancy
  Dy  Dy0  1  0.002018  0.341211  0.531994  1
  Dy  Dy1  1  0.658095  0.998421  0.967472  1
  Dy  Dy2  1  0.159506  0.503108  0.782334  1
  Dy  Dy3  1  0.841360  0.497832  0.281958  1
  Dy  Dy4  1  0.503081  0.159542  0.217704  1
  Dy  Dy5  1  0.497820  0.841355  0.718021  1
  Dy  Dy6  1  0.341212  0.002021  0.468004  1
  Ho  Ho7  1  0.998590  0.657972  0.032548  1
  Ta  Ta8  1  0.346328  0.508561  0.375949  1
  Ta  Ta9  1  0.847283  0.992333  0.374667  1
  Ta  Ta10  1  0.008152  0.152884  0.126299  1
  Ta  Ta11  1  0.992337  0.847275  0.625322  1
  Ta  Ta12  1  0.508561  0.346324  0.624043  1
  Ta  Ta13  1  0.152902  0.008103  0.873747  1
  Ta  Ta14  1  0.672173  0.672175  0.499989  1
  Ta  Ta15  1  0.829355  0.170356  0.750075  1
  Ta  Ta16  1  0.170336  0.829313  0.249866  1
  Ta  Ta17  1  0.326158  0.326291  0.000018  1
  Ti  Ti18  1  0.492695  0.652994  0.124149  1
  Ti  Ti19  1  0.653027  0.492729  0.875872  1
  Si  Si20  1  0.045588  0.705506  0.435926  1
  Si  Si21  1  0.952632  0.295404  0.935830  1
  Si  Si22  1  0.705520  0.045595  0.564085  1
  Si  Si23  1  0.207878  0.455417  0.185182  1
  Si  Si24  1  0.793714  0.545262  0.687289  1
  Si  Si25  1  0.455300  0.207963  0.814730  1
  Si  Si26  1  0.545280  0.793691  0.312708  1
  Si  Si27  1  0.295112  0.952504  0.064219  1
  Si  Si28  1  0.795240  0.865089  0.181680  1
  Si  Si29  1  0.296820  0.633470  0.568388  1
  Si  Si30  1  0.701134  0.368609  0.066276  1
  Si  Si31  1  0.633476  0.296817  0.431616  1
  Si  Si32  1  0.368322  0.701015  0.933762  1
  Si  Si33  1  0.133710  0.204048  0.317788  1
  Si  Si34  1  0.204045  0.133716  0.682215  1
  Si  Si35  1  0.865245  0.795097  0.818277  1
