# generated using pymatgen
data_Eu2Cu17Si8Au
_symmetry_space_group_name_H-M   'P 1'
_cell_length_a   8.20129159
_cell_length_b   8.20114243
_cell_length_c   8.21637500
_cell_angle_alpha   120.66611498
_cell_angle_beta   119.84969078
_cell_angle_gamma   89.43766782
_symmetry_Int_Tables_number   1
_chemical_formula_structural   Eu2Cu17Si8Au
_chemical_formula_sum   'Eu2 Cu17 Si8 Au1'
_cell_volume   389.60437219
_cell_formula_units_Z   1
loop_
 _symmetry_equiv_pos_site_id
 _symmetry_equiv_pos_as_xyz
  1  'x, y, z'
loop_
 _atom_site_type_symbol
 _atom_site_label
 _atom_site_symmetry_multiplicity
 _atom_site_fract_x
 _atom_site_fract_y
 _atom_site_fract_z
 _atom_site_occupancy
  Eu  Eu0  1  0.749960  0.750668  0.000321  1
  Eu  Eu1  1  0.249639  0.250385  0.000310  1
  Cu  Cu2  1  0.718745  0.558902  0.277501  1
  Cu  Cu3  1  0.288512  0.418987  0.707601  1
  Cu  Cu4  1  0.937373  0.799854  0.737225  1
  Cu  Cu5  1  0.563344  0.300796  0.864153  1
  Cu  Cu6  1  0.306149  0.558703  0.496831  1
  Cu  Cu7  1  0.060171  0.810195  0.504082  1
  Cu  Cu8  1  0.693845  0.443810  0.503916  1
  Cu  Cu9  1  0.938088  0.190601  0.496704  1
  Cu  Cu10  1  0.441795  0.943760  0.750321  1
  Cu  Cu11  1  0.184208  0.693758  0.249318  1
  Cu  Cu12  1  0.555396  0.064976  0.249031  1
  Cu  Cu13  1  0.202861  0.936693  0.139525  1
  Cu  Cu14  1  0.060709  0.200473  0.260946  1
  Cu  Cu15  1  0.004487  0.500691  0.505202  1
  Cu  Cu16  1  0.500455  0.003880  0.504350  1
  Cu  Cu17  1  0.806317  0.308292  0.749962  1
  Cu  Cu18  1  0.795310  0.066275  0.861552  1
  Si  Si19  1  0.288343  0.797082  0.846187  1
  Si  Si20  1  0.049030  0.557754  0.846256  1
  Si  Si21  1  0.564677  0.711775  0.514508  1
  Si  Si22  1  0.802594  0.949716  0.514296  1
  Si  Si23  1  0.440618  0.291380  0.495262  1
  Si  Si24  1  0.942775  0.440382  0.149415  1
  Si  Si25  1  0.709143  0.206775  0.149522  1
  Si  Si26  1  0.203941  0.054702  0.495353  1
  Au  Au27  1  0.441514  0.688735  0.130347  1
