# generated using pymatgen
data_Zn11SnRu3
_symmetry_space_group_name_H-M   'P 1'
_cell_length_a   5.27661971
_cell_length_b   5.27662016
_cell_length_c   16.97382700
_cell_angle_alpha   90.00000000
_cell_angle_beta   90.00000000
_cell_angle_gamma   97.62785753
_symmetry_Int_Tables_number   1
_chemical_formula_structural   Zn11SnRu3
_chemical_formula_sum   'Zn22 Sn2 Ru6'
_cell_volume   468.41551939
_cell_formula_units_Z   2
loop_
 _symmetry_equiv_pos_site_id
 _symmetry_equiv_pos_as_xyz
  1  'x, y, z'
loop_
 _atom_site_type_symbol
 _atom_site_label
 _atom_site_symmetry_multiplicity
 _atom_site_fract_x
 _atom_site_fract_y
 _atom_site_fract_z
 _atom_site_occupancy
  Zn  Zn0  1  0.883571  0.885967  0.832685  1
  Zn  Zn1  1  0.114033  0.116429  0.167315  1
  Zn  Zn2  1  0.883571  0.885967  0.667315  1
  Zn  Zn3  1  0.114033  0.116429  0.332685  1
  Zn  Zn4  1  0.504853  0.495147  0.000000  1
  Zn  Zn5  1  0.504853  0.495147  0.500000  1
  Zn  Zn6  1  0.321565  0.728449  0.874660  1
  Zn  Zn7  1  0.271551  0.678435  0.125340  1
  Zn  Zn8  1  0.321565  0.728449  0.625340  1
  Zn  Zn9  1  0.271551  0.678435  0.374660  1
  Zn  Zn10  1  0.654977  0.244574  0.130139  1
  Zn  Zn11  1  0.755426  0.345023  0.869861  1
  Zn  Zn12  1  0.654977  0.244574  0.369861  1
  Zn  Zn13  1  0.755426  0.345023  0.630139  1
  Zn  Zn14  1  0.007066  0.992934  0.000000  1
  Zn  Zn15  1  0.007066  0.992934  0.500000  1
  Zn  Zn16  1  0.509791  0.999827  0.997169  1
  Zn  Zn17  1  0.000173  0.490209  0.002831  1
  Zn  Zn18  1  0.509791  0.999827  0.502831  1
  Zn  Zn19  1  0.000173  0.490209  0.497169  1
  Zn  Zn20  1  0.553253  0.939024  0.250000  1
  Zn  Zn21  1  0.060976  0.446747  0.750000  1
  Sn  Sn22  1  0.413381  0.071325  0.750000  1
  Sn  Sn23  1  0.928675  0.586619  0.250000  1
  Ru  Ru24  1  0.240973  0.235033  0.892236  1
  Ru  Ru25  1  0.764967  0.759027  0.107764  1
  Ru  Ru26  1  0.240973  0.235033  0.607764  1
  Ru  Ru27  1  0.764967  0.759027  0.392236  1
  Ru  Ru28  1  0.569964  0.584139  0.750000  1
  Ru  Ru29  1  0.415861  0.430036  0.250000  1
