# generated using pymatgen
data_SrTh3(WN3)4
_symmetry_space_group_name_H-M   'P 1'
_cell_length_a   5.61775020
_cell_length_b   5.66658513
_cell_length_c   7.99509700
_cell_angle_alpha   90.00000000
_cell_angle_beta   90.00000000
_cell_angle_gamma   90.39585195
_symmetry_Int_Tables_number   1
_chemical_formula_structural   SrTh3(WN3)4
_chemical_formula_sum   'Sr1 Th3 W4 N12'
_cell_volume   254.50552440
_cell_formula_units_Z   1
loop_
 _symmetry_equiv_pos_site_id
 _symmetry_equiv_pos_as_xyz
  1  'x, y, z'
loop_
 _atom_site_type_symbol
 _atom_site_label
 _atom_site_symmetry_multiplicity
 _atom_site_fract_x
 _atom_site_fract_y
 _atom_site_fract_z
 _atom_site_occupancy
  Sr  Sr0  1  0.503835  0.529930  0.250000  1
  Th  Th1  1  0.000027  0.039472  0.250000  1
  Th  Th2  1  0.494846  0.458792  0.750000  1
  Th  Th3  1  0.001197  0.960347  0.750000  1
  W  W4  1  0.995805  0.501194  0.002176  1
  W  W5  1  0.501537  0.998233  0.498759  1
  W  W6  1  0.995805  0.501194  0.497824  1
  W  W7  1  0.501537  0.998233  0.001241  1
  N  N8  1  0.432526  0.993204  0.250000  1
  N  N9  1  0.051398  0.487950  0.250000  1
  N  N10  1  0.568707  0.014256  0.750000  1
  N  N11  1  0.924818  0.519507  0.750000  1
  N  N12  1  0.799765  0.799420  0.030807  1
  N  N13  1  0.715408  0.284426  0.474558  1
  N  N14  1  0.207494  0.206213  0.536280  1
  N  N15  1  0.291314  0.708786  0.956462  1
  N  N16  1  0.207494  0.206213  0.963720  1
  N  N17  1  0.291314  0.708786  0.543538  1
  N  N18  1  0.799765  0.799420  0.469193  1
  N  N19  1  0.715408  0.284426  0.025442  1
