# generated using pymatgen
data_HoLu2AuO7
_symmetry_space_group_name_H-M   'P 1'
_cell_length_a   6.39626309
_cell_length_b   6.39626425
_cell_length_c   7.33409100
_cell_angle_alpha   90.00000000
_cell_angle_beta   90.00000000
_cell_angle_gamma   108.61950611
_symmetry_Int_Tables_number   1
_chemical_formula_structural   HoLu2AuO7
_chemical_formula_sum   'Ho2 Lu4 Au2 O14'
_cell_volume   284.34883476
_cell_formula_units_Z   2
loop_
 _symmetry_equiv_pos_site_id
 _symmetry_equiv_pos_as_xyz
  1  'x, y, z'
loop_
 _atom_site_type_symbol
 _atom_site_label
 _atom_site_symmetry_multiplicity
 _atom_site_fract_x
 _atom_site_fract_y
 _atom_site_fract_z
 _atom_site_occupancy
  Ho  Ho0  1  0.504150  0.504150  0.500000  1
  Ho  Ho1  1  0.495850  0.495850  0.000000  1
  Lu  Lu2  1  0.001577  0.471420  0.748413  1
  Lu  Lu3  1  0.998423  0.528580  0.248413  1
  Lu  Lu4  1  0.528580  0.998423  0.751587  1
  Lu  Lu5  1  0.471420  0.001577  0.251587  1
  Au  Au6  1  0.998823  0.998823  0.500000  1
  Au  Au7  1  0.001177  0.001177  0.000000  1
  O  O8  1  0.641994  0.358006  0.750000  1
  O  O9  1  0.358006  0.641994  0.250000  1
  O  O10  1  0.916758  0.083242  0.750000  1
  O  O11  1  0.083242  0.916758  0.250000  1
  O  O12  1  0.916603  0.664593  0.523578  1
  O  O13  1  0.083397  0.335407  0.023578  1
  O  O14  1  0.335407  0.083397  0.976422  1
  O  O15  1  0.664593  0.916603  0.476422  1
  O  O16  1  0.364394  0.635606  0.750000  1
  O  O17  1  0.635606  0.364394  0.250000  1
  O  O18  1  0.920659  0.667341  0.973811  1
  O  O19  1  0.079341  0.332659  0.473811  1
  O  O20  1  0.332659  0.079341  0.526189  1
  O  O21  1  0.667341  0.920659  0.026189  1
