# generated using pymatgen
data_CaLa8NdIr6
_symmetry_space_group_name_H-M   'P 1'
_cell_length_a   11.45922500
_cell_length_b   11.45922500
_cell_length_c   6.57325500
_cell_angle_alpha   90.00000000
_cell_angle_beta   90.00000000
_cell_angle_gamma   90.00000000
_symmetry_Int_Tables_number   1
_chemical_formula_structural   CaLa8NdIr6
_chemical_formula_sum   'Ca2 La16 Nd2 Ir12'
_cell_volume   863.15933958
_cell_formula_units_Z   2
loop_
 _symmetry_equiv_pos_site_id
 _symmetry_equiv_pos_as_xyz
  1  'x, y, z'
loop_
 _atom_site_type_symbol
 _atom_site_label
 _atom_site_symmetry_multiplicity
 _atom_site_fract_x
 _atom_site_fract_y
 _atom_site_fract_z
 _atom_site_occupancy
  Ca  Ca0  1  0.500000  0.500000  0.000000  1
  Ca  Ca1  1  0.500000  0.500000  0.500000  1
  La  La2  1  0.290388  0.090378  0.388694  1
  La  La3  1  0.290388  0.909622  0.888694  1
  La  La4  1  0.709612  0.090378  0.888694  1
  La  La5  1  0.709612  0.909622  0.388694  1
  La  La6  1  0.589890  0.788079  0.890562  1
  La  La7  1  0.589890  0.211921  0.390562  1
  La  La8  1  0.410110  0.788079  0.390562  1
  La  La9  1  0.410110  0.211921  0.890562  1
  La  La10  1  0.211921  0.410110  0.609438  1
  La  La11  1  0.211921  0.589890  0.109438  1
  La  La12  1  0.788079  0.410110  0.109438  1
  La  La13  1  0.788079  0.589890  0.609438  1
  La  La14  1  0.909622  0.709612  0.111306  1
  La  La15  1  0.909622  0.290388  0.611306  1
  La  La16  1  0.090378  0.709612  0.611306  1
  La  La17  1  0.090378  0.290388  0.111306  1
  Nd  Nd18  1  0.000000  0.000000  0.500000  1
  Nd  Nd19  1  0.000000  0.000000  0.000000  1
  Ir  Ir20  1  0.845058  0.154942  0.250000  1
  Ir  Ir21  1  0.845058  0.845058  0.750000  1
  Ir  Ir22  1  0.154942  0.154942  0.750000  1
  Ir  Ir23  1  0.154942  0.845058  0.250000  1
  Ir  Ir24  1  0.658648  0.341352  0.750000  1
  Ir  Ir25  1  0.658648  0.658648  0.250000  1
  Ir  Ir26  1  0.341352  0.341352  0.250000  1
  Ir  Ir27  1  0.341352  0.658648  0.750000  1
  Ir  Ir28  1  0.500000  0.000000  0.115755  1
  Ir  Ir29  1  0.500000  0.000000  0.615755  1
  Ir  Ir30  1  0.000000  0.500000  0.884245  1
  Ir  Ir31  1  0.000000  0.500000  0.384245  1
