# generated using pymatgen
data_HoZr3F15
_symmetry_space_group_name_H-M   'P 1'
_cell_length_a   7.42055369
_cell_length_b   7.42055362
_cell_length_c   7.42055392
_cell_angle_alpha   112.81053579
_cell_angle_beta   112.81054134
_cell_angle_gamma   112.81053662
_symmetry_Int_Tables_number   1
_chemical_formula_structural   HoZr3F15
_chemical_formula_sum   'Ho1 Zr3 F15'
_cell_volume   268.74073824
_cell_formula_units_Z   1
loop_
 _symmetry_equiv_pos_site_id
 _symmetry_equiv_pos_as_xyz
  1  'x, y, z'
loop_
 _atom_site_type_symbol
 _atom_site_label
 _atom_site_symmetry_multiplicity
 _atom_site_fract_x
 _atom_site_fract_y
 _atom_site_fract_z
 _atom_site_occupancy
  Ho  Ho0  1  0.994831  0.994831  0.994831  1
  Zr  Zr1  1  0.356602  0.782981  0.356602  1
  Zr  Zr2  1  0.356602  0.356602  0.782981  1
  Zr  Zr3  1  0.782981  0.356602  0.356602  1
  F  F4  1  0.649792  0.437744  0.107629  1
  F  F5  1  0.107629  0.649792  0.437744  1
  F  F6  1  0.107629  0.437744  0.649792  1
  F  F7  1  0.437744  0.107629  0.649792  1
  F  F8  1  0.437744  0.649792  0.107629  1
  F  F9  1  0.649792  0.107629  0.437744  1
  F  F10  1  0.101795  0.765821  0.101795  1
  F  F11  1  0.101795  0.101795  0.765820  1
  F  F12  1  0.765820  0.101795  0.101795  1
  F  F13  1  0.652318  0.871687  0.652318  1
  F  F14  1  0.652318  0.652318  0.871687  1
  F  F15  1  0.871687  0.652318  0.652318  1
  F  F16  1  0.175973  0.403904  0.175973  1
  F  F17  1  0.175973  0.175973  0.403904  1
  F  F18  1  0.403904  0.175973  0.175973  1
