# generated using pymatgen
data_NdCdGa3Co
_symmetry_space_group_name_H-M   'P 1'
_cell_length_a   8.40123937
_cell_length_b   8.40123740
_cell_length_c   6.59006300
_cell_angle_alpha   90.00000000
_cell_angle_beta   90.00000000
_cell_angle_gamma   151.00712397
_symmetry_Int_Tables_number   1
_chemical_formula_structural   NdCdGa3Co
_chemical_formula_sum   'Nd2 Cd2 Ga6 Co2'
_cell_volume   225.44986580
_cell_formula_units_Z   2
loop_
 _symmetry_equiv_pos_site_id
 _symmetry_equiv_pos_as_xyz
  1  'x, y, z'
loop_
 _atom_site_type_symbol
 _atom_site_label
 _atom_site_symmetry_multiplicity
 _atom_site_fract_x
 _atom_site_fract_y
 _atom_site_fract_z
 _atom_site_occupancy
  Nd  Nd0  1  0.375687  0.624313  0.250001  1
  Nd  Nd1  1  0.624313  0.375687  0.750000  1
  Cd  Cd2  1  0.000000  0.000000  0.000000  1
  Cd  Cd3  1  0.000000  0.000000  0.499999  1
  Ga  Ga4  1  0.192233  0.807768  0.051803  1
  Ga  Ga5  1  0.578403  0.421598  0.250001  1
  Ga  Ga6  1  0.192233  0.807768  0.448198  1
  Ga  Ga7  1  0.807768  0.192233  0.551803  1
  Ga  Ga8  1  0.421598  0.578403  0.750000  1
  Ga  Ga9  1  0.807768  0.192233  0.948197  1
  Co  Co10  1  0.721522  0.278478  0.250001  1
  Co  Co11  1  0.278478  0.721522  0.750000  1
