# generated using pymatgen
data_Er10Lu2Co4SnRh
_symmetry_space_group_name_H-M   'P 1'
_cell_length_a   8.20055183
_cell_length_b   8.19599630
_cell_length_c   8.20055314
_cell_angle_alpha   111.00518842
_cell_angle_beta   110.71041093
_cell_angle_gamma   106.75393640
_symmetry_Int_Tables_number   1
_chemical_formula_structural   Er10Lu2Co4SnRh
_chemical_formula_sum   'Er10 Lu2 Co4 Sn1 Rh1'
_cell_volume   423.46061154
_cell_formula_units_Z   1
loop_
 _symmetry_equiv_pos_site_id
 _symmetry_equiv_pos_as_xyz
  1  'x, y, z'
loop_
 _atom_site_type_symbol
 _atom_site_label
 _atom_site_symmetry_multiplicity
 _atom_site_fract_x
 _atom_site_fract_y
 _atom_site_fract_z
 _atom_site_occupancy
  Er  Er0  1  0.313641  0.008901  0.695260  1
  Er  Er1  1  0.686359  0.991099  0.304740  1
  Er  Er2  1  0.412456  0.215795  0.198319  1
  Er  Er3  1  0.587544  0.784205  0.801681  1
  Er  Er4  1  0.017477  0.215795  0.803339  1
  Er  Er5  1  0.982523  0.784205  0.196661  1
  Er  Er6  1  0.186584  0.289385  0.474260  1
  Er  Er7  1  0.813416  0.710615  0.525740  1
  Er  Er8  1  0.184875  0.710615  0.897199  1
  Er  Er9  1  0.815125  0.289385  0.102801  1
  Lu  Lu10  1  0.313909  0.619526  0.305617  1
  Lu  Lu11  1  0.686091  0.380475  0.694383  1
  Co  Co12  1  0.112647  0.612042  0.499395  1
  Co  Co13  1  0.887354  0.387959  0.500605  1
  Co  Co14  1  0.377734  0.000000  0.377734  1
  Co  Co15  1  0.622266  0.000000  0.622266  1
  Sn  Sn16  1  0.500000  0.500000  0.000000  1
  Rh  Rh17  1  0.000000  0.000000  0.000000  1
