# generated using pymatgen
data_Nb3Co8(Ni2B)6
_symmetry_space_group_name_H-M   'P 1'
_cell_length_a   7.47485447
_cell_length_b   7.47485408
_cell_length_c   7.47485400
_cell_angle_alpha   60.00000034
_cell_angle_beta   60.00000209
_cell_angle_gamma   60.00000475
_symmetry_Int_Tables_number   1
_chemical_formula_structural   Nb3Co8(Ni2B)6
_chemical_formula_sum   'Nb3 Co8 Ni12 B6'
_cell_volume   295.32023197
_cell_formula_units_Z   1
loop_
 _symmetry_equiv_pos_site_id
 _symmetry_equiv_pos_as_xyz
  1  'x, y, z'
loop_
 _atom_site_type_symbol
 _atom_site_label
 _atom_site_symmetry_multiplicity
 _atom_site_fract_x
 _atom_site_fract_y
 _atom_site_fract_z
 _atom_site_occupancy
  Nb  Nb0  1  0.000000  0.000000  0.000000  1
  Nb  Nb1  1  0.750000  0.750000  0.750000  1
  Nb  Nb2  1  0.250000  0.250000  0.250000  1
  Co  Co3  1  0.615863  0.615863  0.152411  1
  Co  Co4  1  0.615863  0.152411  0.615863  1
  Co  Co5  1  0.152411  0.615863  0.615863  1
  Co  Co6  1  0.615863  0.615863  0.615863  1
  Co  Co7  1  0.384137  0.384137  0.847589  1
  Co  Co8  1  0.384137  0.847589  0.384137  1
  Co  Co9  1  0.847589  0.384137  0.384137  1
  Co  Co10  1  0.384137  0.384137  0.384137  1
  Ni  Ni11  1  0.000000  0.000000  0.342058  1
  Ni  Ni12  1  0.657942  0.000000  0.342058  1
  Ni  Ni13  1  0.000000  0.657942  0.342058  1
  Ni  Ni14  1  0.657942  0.342058  0.000000  1
  Ni  Ni15  1  0.000000  0.342058  0.000000  1
  Ni  Ni16  1  0.000000  0.342058  0.657942  1
  Ni  Ni17  1  0.342058  0.657942  0.000000  1
  Ni  Ni18  1  0.342058  0.000000  0.657942  1
  Ni  Ni19  1  0.342058  0.000000  0.000000  1
  Ni  Ni20  1  0.000000  0.000000  0.657942  1
  Ni  Ni21  1  0.000000  0.657942  0.000000  1
  Ni  Ni22  1  0.657942  0.000000  0.000000  1
  B  B23  1  0.727794  0.727794  0.272206  1
  B  B24  1  0.272206  0.727794  0.272206  1
  B  B25  1  0.727794  0.272206  0.272206  1
  B  B26  1  0.272206  0.272206  0.727794  1
  B  B27  1  0.727794  0.272206  0.727794  1
  B  B28  1  0.272206  0.727794  0.727794  1
