# generated using pymatgen
data_TbTmCo9Mo3As7
_symmetry_space_group_name_H-M   'P 1'
_cell_length_a   3.83875300
_cell_length_b   9.37995174
_cell_length_c   9.37995200
_cell_angle_alpha   119.99999385
_cell_angle_beta   90.00000000
_cell_angle_gamma   90.00000000
_symmetry_Int_Tables_number   1
_chemical_formula_structural   TbTmCo9Mo3As7
_chemical_formula_sum   'Tb1 Tm1 Co9 Mo3 As7'
_cell_volume   292.49742529
_cell_formula_units_Z   1
loop_
 _symmetry_equiv_pos_site_id
 _symmetry_equiv_pos_as_xyz
  1  'x, y, z'
loop_
 _atom_site_type_symbol
 _atom_site_label
 _atom_site_symmetry_multiplicity
 _atom_site_fract_x
 _atom_site_fract_y
 _atom_site_fract_z
 _atom_site_occupancy
  Tb  Tb0  1  0.500000  0.333333  0.666667  1
  Tm  Tm1  1  0.000000  0.666667  0.333333  1
  Co  Co2  1  0.000000  0.570174  0.940932  1
  Co  Co3  1  0.000000  0.370757  0.429826  1
  Co  Co4  1  0.000000  0.059068  0.629243  1
  Co  Co5  1  0.000000  0.875940  0.158568  1
  Co  Co6  1  0.000000  0.282628  0.124060  1
  Co  Co7  1  0.000000  0.841432  0.717372  1
  Co  Co8  1  0.500000  0.948350  0.382749  1
  Co  Co9  1  0.500000  0.434399  0.051650  1
  Co  Co10  1  0.500000  0.617251  0.565601  1
  Mo  Mo11  1  0.500000  0.780942  0.902622  1
  Mo  Mo12  1  0.500000  0.121681  0.219058  1
  Mo  Mo13  1  0.500000  0.097378  0.878319  1
  As  As14  1  0.000000  0.000000  0.000000  1
  As  As15  1  0.500000  0.707432  0.121011  1
  As  As16  1  0.500000  0.413580  0.292568  1
  As  As17  1  0.500000  0.878989  0.586420  1
  As  As18  1  0.000000  0.585823  0.699443  1
  As  As19  1  0.000000  0.113621  0.414177  1
  As  As20  1  0.000000  0.300557  0.886379  1
