# generated using pymatgen
data_CaTaOsF12
_symmetry_space_group_name_H-M   'P 1'
_cell_length_a   11.76373422
_cell_length_b   5.86804723
_cell_length_c   5.88113934
_cell_angle_alpha   57.46589028
_cell_angle_beta   57.33350929
_cell_angle_gamma   57.30080172
_symmetry_Int_Tables_number   1
_chemical_formula_structural   CaTaOsF12
_chemical_formula_sum   'Ca1 Ta1 Os1 F12'
_cell_volume   269.66912547
_cell_formula_units_Z   1
loop_
 _symmetry_equiv_pos_site_id
 _symmetry_equiv_pos_as_xyz
  1  'x, y, z'
loop_
 _atom_site_type_symbol
 _atom_site_label
 _atom_site_symmetry_multiplicity
 _atom_site_fract_x
 _atom_site_fract_y
 _atom_site_fract_z
 _atom_site_occupancy
  Ca  Ca0  1  0.749818  0.495581  0.504518  1
  Ta  Ta1  1  0.484921  0.015712  0.005649  1
  Os  Os2  1  0.007273  0.989984  0.999276  1
  F  F3  1  0.161491  0.124383  0.776191  1
  F  F4  1  0.658813  0.135540  0.777736  1
  F  F5  1  0.062170  0.776636  0.323818  1
  F  F6  1  0.572245  0.771415  0.309945  1
  F  F7  1  0.112306  0.672683  0.876614  1
  F  F8  1  0.615592  0.683577  0.862864  1
  F  F9  1  0.441592  0.220485  0.667432  1
  F  F10  1  0.934292  0.223630  0.679575  1
  F  F11  1  0.334881  0.870480  0.233735  1
  F  F12  1  0.839464  0.865149  0.226267  1
  F  F13  1  0.388218  0.333698  0.123716  1
  F  F14  1  0.886924  0.321048  0.132664  1
