# generated using pymatgen
data_Er2Zn12Cu5
_symmetry_space_group_name_H-M   'P 1'
_cell_length_a   6.65365060
_cell_length_b   6.65365053
_cell_length_c   6.66753995
_cell_angle_alpha   83.05310008
_cell_angle_beta   83.05309952
_cell_angle_gamma   82.92271034
_symmetry_Int_Tables_number   1
_chemical_formula_structural   Er2Zn12Cu5
_chemical_formula_sum   'Er2 Zn12 Cu5'
_cell_volume   289.08976484
_cell_formula_units_Z   1
loop_
 _symmetry_equiv_pos_site_id
 _symmetry_equiv_pos_as_xyz
  1  'x, y, z'
loop_
 _atom_site_type_symbol
 _atom_site_label
 _atom_site_symmetry_multiplicity
 _atom_site_fract_x
 _atom_site_fract_y
 _atom_site_fract_z
 _atom_site_occupancy
  Er  Er0  1  0.344428  0.344428  0.342159  1
  Er  Er1  1  0.655572  0.655572  0.657834  1
  Zn  Zn2  1  0.649816  0.158184  0.653052  1
  Zn  Zn3  1  0.158184  0.649816  0.653052  1
  Zn  Zn4  1  0.841838  0.350184  0.346956  1
  Zn  Zn5  1  0.350184  0.841838  0.346956  1
  Zn  Zn6  1  0.307403  0.692589  0.999996  1
  Zn  Zn7  1  0.003033  0.298415  0.704906  1
  Zn  Zn8  1  0.701600  0.996961  0.295074  1
  Zn  Zn9  1  0.692589  0.307403  0.999996  1
  Zn  Zn10  1  0.996961  0.701600  0.295074  1
  Zn  Zn11  1  0.298415  0.003033  0.704906  1
  Zn  Zn12  1  0.107989  0.107989  0.101801  1
  Zn  Zn13  1  0.892002  0.892002  0.898209  1
  Cu  Cu14  1  0.652371  0.652371  0.157508  1
  Cu  Cu15  1  0.347601  0.347601  0.842531  1
  Cu  Cu16  1  0.000010  0.000010  0.499999  1
  Cu  Cu17  1  0.500015  0.999989  0.999995  1
  Cu  Cu18  1  0.999989  0.500015  0.999995  1
