# generated using pymatgen
data_Dy16Cd2InHgIr4
_symmetry_space_group_name_H-M   'P 1'
_cell_length_a   9.63282568
_cell_length_b   9.62519770
_cell_length_c   9.63284700
_cell_angle_alpha   59.97370408
_cell_angle_beta   59.99992337
_cell_angle_gamma   59.95960513
_symmetry_Int_Tables_number   1
_chemical_formula_structural   Dy16Cd2InHgIr4
_chemical_formula_sum   'Dy16 Cd2 In1 Hg1 Ir4'
_cell_volume   631.22426462
_cell_formula_units_Z   1
loop_
 _symmetry_equiv_pos_site_id
 _symmetry_equiv_pos_as_xyz
  1  'x, y, z'
loop_
 _atom_site_type_symbol
 _atom_site_label
 _atom_site_symmetry_multiplicity
 _atom_site_fract_x
 _atom_site_fract_y
 _atom_site_fract_z
 _atom_site_occupancy
  Dy  Dy0  1  0.599580  0.600065  0.599403  1
  Dy  Dy1  1  0.599580  0.600065  0.200952  1
  Dy  Dy2  1  0.599503  0.201573  0.599462  1
  Dy  Dy3  1  0.201931  0.599822  0.599123  1
  Dy  Dy4  1  0.059740  0.439502  0.440666  1
  Dy  Dy5  1  0.439311  0.058536  0.059501  1
  Dy  Dy6  1  0.439311  0.058536  0.442653  1
  Dy  Dy7  1  0.059740  0.439502  0.060090  1
  Dy  Dy8  1  0.440242  0.442616  0.058571  1
  Dy  Dy9  1  0.060875  0.060479  0.439323  1
  Dy  Dy10  1  0.187582  0.812298  0.811677  1
  Dy  Dy11  1  0.809915  0.190839  0.187419  1
  Dy  Dy12  1  0.809915  0.190839  0.811827  1
  Dy  Dy13  1  0.187582  0.812298  0.188441  1
  Dy  Dy14  1  0.810806  0.812501  0.188347  1
  Dy  Dy15  1  0.185890  0.191714  0.811198  1
  Cd  Cd16  1  0.831957  0.830786  0.830603  1
  Cd  Cd17  1  0.831957  0.830786  0.506654  1
  In  In18  1  0.504979  0.830867  0.832077  1
  Hg  Hg19  1  0.836467  0.493829  0.834852  1
  Ir  Ir20  1  0.392813  0.392148  0.390592  1
  Ir  Ir21  1  0.392813  0.392148  0.824447  1
  Ir  Ir22  1  0.393170  0.825132  0.390850  1
  Ir  Ir23  1  0.824339  0.393120  0.391272  1
