# generated using pymatgen
data_Ce2Pa(GaPt)3
_symmetry_space_group_name_H-M   'P 1'
_cell_length_a   7.34473200
_cell_length_b   7.33107253
_cell_length_c   3.95513900
_cell_angle_alpha   90.00000000
_cell_angle_beta   90.00000000
_cell_angle_gamma   120.06165429
_symmetry_Int_Tables_number   1
_chemical_formula_structural   Ce2Pa(GaPt)3
_chemical_formula_sum   'Ce2 Pa1 Ga3 Pt3'
_cell_volume   184.31713166
_cell_formula_units_Z   1
loop_
 _symmetry_equiv_pos_site_id
 _symmetry_equiv_pos_as_xyz
  1  'x, y, z'
loop_
 _atom_site_type_symbol
 _atom_site_label
 _atom_site_symmetry_multiplicity
 _atom_site_fract_x
 _atom_site_fract_y
 _atom_site_fract_z
 _atom_site_occupancy
  Ce  Ce0  1  0.001614  0.589730  0.000000  1
  Ce  Ce1  1  0.411884  0.410270  0.000000  1
  Pa  Pa2  1  0.585663  0.000000  0.000000  1
  Ga  Ga3  1  0.239099  0.000000  0.500000  1
  Ga  Ga4  1  0.007109  0.253580  0.500000  1
  Ga  Ga5  1  0.753530  0.746420  0.500000  1
  Pt  Pt6  1  0.349959  0.683969  0.500000  1
  Pt  Pt7  1  0.665992  0.316031  0.500000  1
  Pt  Pt8  1  0.985150  0.000000  0.000000  1
