# generated using pymatgen
data_Zr6Fe16ReSi6
_symmetry_space_group_name_H-M   'P 1'
_cell_length_a   8.13951495
_cell_length_b   8.13951473
_cell_length_c   8.13951500
_cell_angle_alpha   60.00000297
_cell_angle_beta   60.00000388
_cell_angle_gamma   59.99999934
_symmetry_Int_Tables_number   1
_chemical_formula_structural   Zr6Fe16ReSi6
_chemical_formula_sum   'Zr6 Fe16 Re1 Si6'
_cell_volume   381.31210219
_cell_formula_units_Z   1
loop_
 _symmetry_equiv_pos_site_id
 _symmetry_equiv_pos_as_xyz
  1  'x, y, z'
loop_
 _atom_site_type_symbol
 _atom_site_label
 _atom_site_symmetry_multiplicity
 _atom_site_fract_x
 _atom_site_fract_y
 _atom_site_fract_z
 _atom_site_occupancy
  Zr  Zr0  1  0.710196  0.710196  0.289804  1
  Zr  Zr1  1  0.289804  0.710196  0.289804  1
  Zr  Zr2  1  0.710196  0.289804  0.289804  1
  Zr  Zr3  1  0.289804  0.289804  0.710196  1
  Zr  Zr4  1  0.710196  0.289804  0.710196  1
  Zr  Zr5  1  0.289804  0.710196  0.710196  1
  Fe  Fe6  1  0.876812  0.876812  0.369566  1
  Fe  Fe7  1  0.876812  0.369566  0.876812  1
  Fe  Fe8  1  0.369566  0.876812  0.876812  1
  Fe  Fe9  1  0.876812  0.876812  0.876812  1
  Fe  Fe10  1  0.123188  0.123188  0.630434  1
  Fe  Fe11  1  0.123188  0.630434  0.123188  1
  Fe  Fe12  1  0.630434  0.123188  0.123188  1
  Fe  Fe13  1  0.123188  0.123188  0.123188  1
  Fe  Fe14  1  0.676853  0.676853  0.969442  1
  Fe  Fe15  1  0.676853  0.969442  0.676853  1
  Fe  Fe16  1  0.969442  0.676853  0.676853  1
  Fe  Fe17  1  0.676853  0.676853  0.676853  1
  Fe  Fe18  1  0.323147  0.323147  0.030558  1
  Fe  Fe19  1  0.323147  0.030558  0.323147  1
  Fe  Fe20  1  0.030558  0.323147  0.323147  1
  Fe  Fe21  1  0.323147  0.323147  0.323147  1
  Re  Re22  1  0.000000  0.000000  0.000000  1
  Si  Si23  1  0.000000  0.000000  0.500000  1
  Si  Si24  1  0.500000  0.000000  0.500000  1
  Si  Si25  1  0.000000  0.500000  0.500000  1
  Si  Si26  1  0.500000  0.500000  0.000000  1
  Si  Si27  1  0.000000  0.500000  0.000000  1
  Si  Si28  1  0.500000  0.000000  0.000000  1
