# generated using pymatgen
data_Ce7Sm(Sc3Ga4)4
_symmetry_space_group_name_H-M   'P 1'
_cell_length_a   7.31156506
_cell_length_b   7.56105538
_cell_length_c   14.54133800
_cell_angle_alpha   90.01726969
_cell_angle_beta   90.00751503
_cell_angle_gamma   90.00527943
_symmetry_Int_Tables_number   1
_chemical_formula_structural   Ce7Sm(Sc3Ga4)4
_chemical_formula_sum   'Ce7 Sm1 Sc12 Ga16'
_cell_volume   803.89089862
_cell_formula_units_Z   1
loop_
 _symmetry_equiv_pos_site_id
 _symmetry_equiv_pos_as_xyz
  1  'x, y, z'
loop_
 _atom_site_type_symbol
 _atom_site_label
 _atom_site_symmetry_multiplicity
 _atom_site_fract_x
 _atom_site_fract_y
 _atom_site_fract_z
 _atom_site_occupancy
  Ce  Ce0  1  0.990354  0.823483  0.906264  1
  Ce  Ce1  1  0.490715  0.674536  0.907067  1
  Ce  Ce2  1  0.990958  0.824595  0.593859  1
  Ce  Ce3  1  0.509267  0.325133  0.092949  1
  Ce  Ce4  1  0.009476  0.176176  0.405638  1
  Ce  Ce5  1  0.509919  0.323883  0.406187  1
  Ce  Ce6  1  0.490470  0.676116  0.593821  1
  Sm  Sm7  1  0.009267  0.176359  0.094573  1
  Sc  Sc8  1  0.163703  0.501896  0.750424  1
  Sc  Sc9  1  0.836398  0.497493  0.249322  1
  Sc  Sc10  1  0.336378  0.002998  0.249082  1
  Sc  Sc11  1  0.663920  0.997210  0.750490  1
  Sc  Sc12  1  0.328186  0.171989  0.624694  1
  Sc  Sc13  1  0.671171  0.827708  0.374883  1
  Sc  Sc14  1  0.171521  0.672453  0.375170  1
  Sc  Sc15  1  0.670964  0.828001  0.124553  1
  Sc  Sc16  1  0.828330  0.327769  0.624576  1
  Sc  Sc17  1  0.329387  0.172514  0.875876  1
  Sc  Sc18  1  0.827410  0.328611  0.875686  1
  Sc  Sc19  1  0.171862  0.671508  0.124239  1
  Ga  Ga20  1  0.030404  0.120134  0.750322  1
  Ga  Ga21  1  0.968862  0.879610  0.249687  1
  Ga  Ga22  1  0.469550  0.619083  0.249950  1
  Ga  Ga23  1  0.530285  0.380511  0.749800  1
  Ga  Ga24  1  0.286316  0.872692  0.750918  1
  Ga  Ga25  1  0.713177  0.127237  0.250084  1
  Ga  Ga26  1  0.215721  0.373431  0.250469  1
  Ga  Ga27  1  0.785316  0.626992  0.750033  1
  Ga  Ga28  1  0.159682  0.464167  0.540576  1
  Ga  Ga29  1  0.840315  0.536746  0.459408  1
  Ga  Ga30  1  0.340169  0.964180  0.459361  1
  Ga  Ga31  1  0.840149  0.536388  0.040234  1
  Ga  Ga32  1  0.659729  0.036135  0.540616  1
  Ga  Ga33  1  0.159719  0.464322  0.959418  1
  Ga  Ga34  1  0.660415  0.035240  0.959453  1
  Ga  Ga35  1  0.340535  0.962703  0.040322  1
