# generated using pymatgen
data_CeEr9(Sn3P)2
_symmetry_space_group_name_H-M   'P 1'
_cell_length_a   9.02754688
_cell_length_b   9.02754685
_cell_length_c   6.62724800
_cell_angle_alpha   90.00000000
_cell_angle_beta   90.00000000
_cell_angle_gamma   120.16952046
_symmetry_Int_Tables_number   1
_chemical_formula_structural   CeEr9(Sn3P)2
_chemical_formula_sum   'Ce1 Er9 Sn6 P2'
_cell_volume   466.93771990
_cell_formula_units_Z   1
loop_
 _symmetry_equiv_pos_site_id
 _symmetry_equiv_pos_as_xyz
  1  'x, y, z'
loop_
 _atom_site_type_symbol
 _atom_site_label
 _atom_site_symmetry_multiplicity
 _atom_site_fract_x
 _atom_site_fract_y
 _atom_site_fract_z
 _atom_site_occupancy
  Ce  Ce0  1  0.759722  0.759722  0.750000  1
  Er  Er1  1  0.666359  0.332612  0.000576  1
  Er  Er2  1  0.332612  0.666359  0.000576  1
  Er  Er3  1  0.332612  0.666359  0.499424  1
  Er  Er4  1  0.666359  0.332612  0.499424  1
  Er  Er5  1  0.242086  0.000224  0.750000  1
  Er  Er6  1  0.000224  0.242086  0.750000  1
  Er  Er7  1  0.242519  0.242519  0.250000  1
  Er  Er8  1  0.758317  0.001061  0.250000  1
  Er  Er9  1  0.001061  0.758317  0.250000  1
  Sn  Sn10  1  0.396513  0.396513  0.750000  1
  Sn  Sn11  1  0.599298  0.001635  0.750000  1
  Sn  Sn12  1  0.001635  0.599298  0.750000  1
  Sn  Sn13  1  0.600364  0.600364  0.250000  1
  Sn  Sn14  1  0.398313  0.000049  0.250000  1
  Sn  Sn15  1  0.000049  0.398313  0.250000  1
  P  P16  1  0.000977  0.000977  0.001976  1
  P  P17  1  0.000977  0.000977  0.498024  1
