# generated using pymatgen
data_Zr6GaSbC4
_symmetry_space_group_name_H-M   'P 1'
_cell_length_a   3.38322900
_cell_length_b   3.38322902
_cell_length_c   19.61583900
_cell_angle_alpha   90.00000000
_cell_angle_beta   90.00000000
_cell_angle_gamma   120.00000954
_symmetry_Int_Tables_number   1
_chemical_formula_structural   Zr6GaSbC4
_chemical_formula_sum   'Zr6 Ga1 Sb1 C4'
_cell_volume   194.44656295
_cell_formula_units_Z   1
loop_
 _symmetry_equiv_pos_site_id
 _symmetry_equiv_pos_as_xyz
  1  'x, y, z'
loop_
 _atom_site_type_symbol
 _atom_site_label
 _atom_site_symmetry_multiplicity
 _atom_site_fract_x
 _atom_site_fract_y
 _atom_site_fract_z
 _atom_site_occupancy
  Zr  Zr0  1  0.000000  0.000000  0.998150  1
  Zr  Zr1  1  0.333333  0.666667  0.129996  1
  Zr  Zr2  1  0.333333  0.666667  0.370004  1
  Zr  Zr3  1  0.000000  0.000000  0.501850  1
  Zr  Zr4  1  0.666667  0.333335  0.634169  1
  Zr  Zr5  1  0.666667  0.333335  0.865831  1
  Ga  Ga6  1  0.000000  0.000000  0.750000  1
  Sb  Sb7  1  0.000000  0.000000  0.250000  1
  C  C8  1  0.666667  0.333335  0.069423  1
  C  C9  1  0.666667  0.333335  0.430577  1
  C  C10  1  0.333333  0.666667  0.574100  1
  C  C11  1  0.333333  0.666667  0.925900  1
