# generated using pymatgen
data_La7Er3Zn2(Si2O)3
_symmetry_space_group_name_H-M   'P 1'
_cell_length_a   10.89627683
_cell_length_b   10.87223637
_cell_length_c   4.50347400
_cell_angle_alpha   90.00000000
_cell_angle_beta   90.00000000
_cell_angle_gamma   119.92704534
_symmetry_Int_Tables_number   1
_chemical_formula_structural   La7Er3Zn2(Si2O)3
_chemical_formula_sum   'La7 Er3 Zn2 Si6 O3'
_cell_volume   462.37474361
_cell_formula_units_Z   1
loop_
 _symmetry_equiv_pos_site_id
 _symmetry_equiv_pos_as_xyz
  1  'x, y, z'
loop_
 _atom_site_type_symbol
 _atom_site_label
 _atom_site_symmetry_multiplicity
 _atom_site_fract_x
 _atom_site_fract_y
 _atom_site_fract_z
 _atom_site_occupancy
  La  La0  1  0.213758  0.787787  0.000000  1
  La  La1  1  0.575488  0.787744  0.000000  1
  La  La2  1  0.786242  0.574030  0.000000  1
  La  La3  1  0.000000  0.000000  0.000000  1
  La  La4  1  0.213758  0.425970  0.000000  1
  La  La5  1  0.424512  0.212256  0.000000  1
  La  La6  1  0.786242  0.212213  0.000000  1
  Er  Er7  1  0.000000  0.500000  0.500000  1
  Er  Er8  1  0.500000  0.500000  0.500000  1
  Er  Er9  1  0.500000  0.000000  0.500000  1
  Zn  Zn10  1  0.000000  0.777923  0.500000  1
  Zn  Zn11  1  0.000000  0.222077  0.500000  1
  Si  Si12  1  0.224837  0.221968  0.500000  1
  Si  Si13  1  0.775163  0.997131  0.500000  1
  Si  Si14  1  0.332296  0.666148  0.500000  1
  Si  Si15  1  0.224837  0.002869  0.500000  1
  Si  Si16  1  0.667704  0.333852  0.500000  1
  Si  Si17  1  0.775163  0.778032  0.500000  1
  O  O18  1  0.000000  0.500000  0.000000  1
  O  O19  1  0.500000  0.500000  0.000000  1
  O  O20  1  0.500000  0.000000  0.000000  1
