# generated using pymatgen
data_Yb12Tm3Lu5Si16
_symmetry_space_group_name_H-M   'P 1'
_cell_length_a   7.32029612
_cell_length_b   7.75788908
_cell_length_c   14.96067911
_cell_angle_alpha   89.99448130
_cell_angle_beta   90.01304174
_cell_angle_gamma   89.98421520
_symmetry_Int_Tables_number   1
_chemical_formula_structural   Yb12Tm3Lu5Si16
_chemical_formula_sum   'Yb12 Tm3 Lu5 Si16'
_cell_volume   849.61758681
_cell_formula_units_Z   1
loop_
 _symmetry_equiv_pos_site_id
 _symmetry_equiv_pos_as_xyz
  1  'x, y, z'
loop_
 _atom_site_type_symbol
 _atom_site_label
 _atom_site_symmetry_multiplicity
 _atom_site_fract_x
 _atom_site_fract_y
 _atom_site_fract_z
 _atom_site_occupancy
  Yb  Yb0  1  0.974361  0.817019  0.404124  1
  Yb  Yb1  1  0.474426  0.683041  0.095917  1
  Yb  Yb2  1  0.525672  0.316959  0.595910  1
  Yb  Yb3  1  0.025507  0.182945  0.904046  1
  Yb  Yb4  1  0.025822  0.182933  0.595954  1
  Yb  Yb5  1  0.525943  0.316965  0.904031  1
  Yb  Yb6  1  0.474144  0.683054  0.404137  1
  Yb  Yb7  1  0.974060  0.816992  0.095926  1
  Yb  Yb8  1  0.351593  0.019998  0.749886  1
  Yb  Yb9  1  0.851400  0.480046  0.749955  1
  Yb  Yb10  1  0.148517  0.520091  0.250040  1
  Yb  Yb11  1  0.648549  0.979885  0.249963  1
  Tm  Tm12  1  0.315014  0.176642  0.121100  1
  Tm  Tm13  1  0.815004  0.323367  0.378951  1
  Tm  Tm14  1  0.185044  0.676677  0.878839  1
  Lu  Lu15  1  0.684962  0.823661  0.621132  1
  Lu  Lu16  1  0.314987  0.176201  0.378981  1
  Lu  Lu17  1  0.814873  0.323723  0.121115  1
  Lu  Lu18  1  0.185106  0.676357  0.621150  1
  Lu  Lu19  1  0.685108  0.823686  0.878833  1
  Si  Si20  1  0.856368  0.534398  0.538605  1
  Si  Si21  1  0.356902  0.965924  0.961602  1
  Si  Si22  1  0.643365  0.033703  0.461879  1
  Si  Si23  1  0.143056  0.465952  0.038407  1
  Si  Si24  1  0.144487  0.466178  0.461873  1
  Si  Si25  1  0.644575  0.034002  0.038151  1
  Si  Si26  1  0.355894  0.965759  0.538349  1
  Si  Si27  1  0.855422  0.533964  0.961829  1
  Si  Si28  1  0.976651  0.878097  0.749871  1
  Si  Si29  1  0.477326  0.622090  0.749741  1
  Si  Si30  1  0.523029  0.378298  0.249888  1
  Si  Si31  1  0.023050  0.121689  0.250129  1
  Si  Si32  1  0.248761  0.397170  0.749733  1
  Si  Si33  1  0.748357  0.102587  0.749939  1
  Si  Si34  1  0.251350  0.897058  0.250209  1
  Si  Si35  1  0.751315  0.602890  0.249803  1
