# generated using pymatgen
data_Ti2Be7Re2Si
_symmetry_space_group_name_H-M   'P 1'
_cell_length_a   4.44654700
_cell_length_b   4.44654668
_cell_length_c   7.41094000
_cell_angle_alpha   90.00000000
_cell_angle_beta   90.00000000
_cell_angle_gamma   120.00000984
_symmetry_Int_Tables_number   1
_chemical_formula_structural   Ti2Be7Re2Si
_chemical_formula_sum   'Ti2 Be7 Re2 Si1'
_cell_volume   126.89649559
_cell_formula_units_Z   1
loop_
 _symmetry_equiv_pos_site_id
 _symmetry_equiv_pos_as_xyz
  1  'x, y, z'
loop_
 _atom_site_type_symbol
 _atom_site_label
 _atom_site_symmetry_multiplicity
 _atom_site_fract_x
 _atom_site_fract_y
 _atom_site_fract_z
 _atom_site_occupancy
  Ti  Ti0  1  0.333333  0.666667  0.066602  1
  Ti  Ti1  1  0.666667  0.333333  0.563350  1
  Be  Be2  1  0.000000  0.000000  0.500209  1
  Be  Be3  1  0.829903  0.659805  0.260689  1
  Be  Be4  1  0.171893  0.828107  0.740962  1
  Be  Be5  1  0.656214  0.828107  0.740962  1
  Be  Be6  1  0.340195  0.170097  0.260689  1
  Be  Be7  1  0.829903  0.170097  0.260689  1
  Be  Be8  1  0.171893  0.343786  0.740962  1
  Re  Re9  1  0.666667  0.333333  0.934170  1
  Re  Re10  1  0.333333  0.666667  0.433910  1
  Si  Si11  1  0.000000  0.000000  0.996804  1
