# generated using pymatgen
data_HoZr2PdF15
_symmetry_space_group_name_H-M   'P 1'
_cell_length_a   8.12717476
_cell_length_b   8.12717390
_cell_length_c   8.13282436
_cell_angle_alpha   79.47717199
_cell_angle_beta   79.47717569
_cell_angle_gamma   99.39458539
_symmetry_Int_Tables_number   1
_chemical_formula_structural   HoZr2PdF15
_chemical_formula_sum   'Ho2 Zr4 Pd2 F30'
_cell_volume   508.41301328
_cell_formula_units_Z   2
loop_
 _symmetry_equiv_pos_site_id
 _symmetry_equiv_pos_as_xyz
  1  'x, y, z'
loop_
 _atom_site_type_symbol
 _atom_site_label
 _atom_site_symmetry_multiplicity
 _atom_site_fract_x
 _atom_site_fract_y
 _atom_site_fract_z
 _atom_site_occupancy
  Ho  Ho0  1  0.178245  0.821755  0.250000  1
  Ho  Ho1  1  0.821755  0.178245  0.750000  1
  Zr  Zr2  1  0.744161  0.679154  0.671070  1
  Zr  Zr3  1  0.320846  0.255839  0.828930  1
  Zr  Zr4  1  0.255839  0.320846  0.328930  1
  Zr  Zr5  1  0.679154  0.744161  0.171070  1
  Pd  Pd6  1  0.749856  0.250144  0.250000  1
  Pd  Pd7  1  0.250144  0.749856  0.750000  1
  F  F8  1  0.312669  0.351273  0.056916  1
  F  F9  1  0.936389  0.809895  0.154535  1
  F  F10  1  0.840546  0.459951  0.688389  1
  F  F11  1  0.459951  0.840546  0.188389  1
  F  F12  1  0.809895  0.936389  0.654535  1
  F  F13  1  0.351273  0.312669  0.556915  1
  F  F14  1  0.687331  0.648727  0.943084  1
  F  F15  1  0.063611  0.190105  0.845465  1
  F  F16  1  0.159454  0.540049  0.311611  1
  F  F17  1  0.540049  0.159454  0.811611  1
  F  F18  1  0.190105  0.063611  0.345465  1
  F  F19  1  0.648727  0.687331  0.443084  1
  F  F20  1  0.770425  0.285000  0.002696  1
  F  F21  1  0.997299  0.272256  0.209183  1
  F  F22  1  0.788346  0.501869  0.222868  1
  F  F23  1  0.501869  0.788346  0.722868  1
  F  F24  1  0.272256  0.997299  0.709183  1
  F  F25  1  0.285000  0.770425  0.502696  1
  F  F26  1  0.229575  0.715000  0.997304  1
  F  F27  1  0.002701  0.727744  0.790817  1
  F  F28  1  0.211654  0.498131  0.777132  1
  F  F29  1  0.498131  0.211654  0.277132  1
  F  F30  1  0.727744  0.002701  0.290817  1
  F  F31  1  0.715000  0.229575  0.497304  1
  F  F32  1  0.473218  0.526782  0.250000  1
  F  F33  1  0.746913  0.956297  0.973238  1
  F  F34  1  0.043703  0.253087  0.526762  1
  F  F35  1  0.253087  0.043703  0.026762  1
  F  F36  1  0.956297  0.746913  0.473238  1
  F  F37  1  0.526782  0.473218  0.750000  1
