# generated using pymatgen
data_TbDy9(SiB4)4
_symmetry_space_group_name_H-M   'P 1'
_cell_length_a   7.23539100
_cell_length_b   7.23539100
_cell_length_c   8.10336500
_cell_angle_alpha   90.00030601
_cell_angle_beta   89.99969399
_cell_angle_gamma   90.00074437
_symmetry_Int_Tables_number   1
_chemical_formula_structural   TbDy9(SiB4)4
_chemical_formula_sum   'Tb1 Dy9 Si4 B16'
_cell_volume   424.21831237
_cell_formula_units_Z   1
loop_
 _symmetry_equiv_pos_site_id
 _symmetry_equiv_pos_as_xyz
  1  'x, y, z'
loop_
 _atom_site_type_symbol
 _atom_site_label
 _atom_site_symmetry_multiplicity
 _atom_site_fract_x
 _atom_site_fract_y
 _atom_site_fract_z
 _atom_site_occupancy
  Tb  Tb0  1  0.180229  0.319771  0.224750  1
  Dy  Dy1  1  0.680243  0.180209  0.223678  1
  Dy  Dy2  1  0.319739  0.819712  0.776310  1
  Dy  Dy3  1  0.319791  0.819757  0.223678  1
  Dy  Dy4  1  0.819749  0.680251  0.223808  1
  Dy  Dy5  1  0.819768  0.680232  0.776147  1
  Dy  Dy6  1  0.680288  0.180261  0.776310  1
  Dy  Dy7  1  0.180205  0.319795  0.776091  1
  Dy  Dy8  1  0.999923  0.999873  0.500091  1
  Dy  Dy9  1  0.500127  0.500077  0.500091  1
  Si  Si10  1  0.114726  0.615055  0.500249  1
  Si  Si11  1  0.884945  0.385274  0.500249  1
  Si  Si12  1  0.385300  0.114700  0.500253  1
  Si  Si13  1  0.614970  0.885030  0.500063  1
  B  B14  1  0.172367  0.038887  0.999893  1
  B  B15  1  0.827512  0.960909  0.999924  1
  B  B16  1  0.960831  0.172327  0.999852  1
  B  B17  1  0.327673  0.539169  0.999852  1
  B  B18  1  0.038997  0.827546  0.999909  1
  B  B19  1  0.672454  0.461003  0.999909  1
  B  B20  1  0.539091  0.672488  0.999924  1
  B  B21  1  0.461113  0.327633  0.999893  1
  B  B22  1  0.089773  0.589927  0.999787  1
  B  B23  1  0.910073  0.410227  0.999787  1
  B  B24  1  0.410297  0.089703  0.999960  1
  B  B25  1  0.589736  0.910264  0.999958  1
  B  B26  1  0.999828  0.999717  0.162010  1
  B  B27  1  0.999961  0.999991  0.837781  1
  B  B28  1  0.500009  0.500039  0.837781  1
  B  B29  1  0.500283  0.500172  0.162010  1
