# generated using pymatgen
data_Dy2Fe6Ni(P2Ru)3
_symmetry_space_group_name_H-M   'P 1'
_cell_length_a   3.72698100
_cell_length_b   10.33933000
_cell_length_c   12.02944000
_cell_angle_alpha   90.00000000
_cell_angle_beta   90.00000000
_cell_angle_gamma   90.00000000
_symmetry_Int_Tables_number   1
_chemical_formula_structural   Dy2Fe6Ni(P2Ru)3
_chemical_formula_sum   'Dy4 Fe12 Ni2 P12 Ru6'
_cell_volume   463.54829283
_cell_formula_units_Z   2
loop_
 _symmetry_equiv_pos_site_id
 _symmetry_equiv_pos_as_xyz
  1  'x, y, z'
loop_
 _atom_site_type_symbol
 _atom_site_label
 _atom_site_symmetry_multiplicity
 _atom_site_fract_x
 _atom_site_fract_y
 _atom_site_fract_z
 _atom_site_occupancy
  Dy  Dy0  1  0.250000  0.581097  0.707327  1
  Dy  Dy1  1  0.250000  0.918903  0.207327  1
  Dy  Dy2  1  0.750000  0.417755  0.290543  1
  Dy  Dy3  1  0.750000  0.082245  0.790543  1
  Fe  Fe4  1  0.250000  0.224868  0.174755  1
  Fe  Fe5  1  0.250000  0.275132  0.674755  1
  Fe  Fe6  1  0.750000  0.777122  0.826137  1
  Fe  Fe7  1  0.750000  0.722878  0.326137  1
  Fe  Fe8  1  0.250000  0.879054  0.697986  1
  Fe  Fe9  1  0.250000  0.620946  0.197986  1
  Fe  Fe10  1  0.750000  0.117723  0.300654  1
  Fe  Fe11  1  0.750000  0.382277  0.800654  1
  Fe  Fe12  1  0.250000  0.464630  0.934795  1
  Fe  Fe13  1  0.250000  0.035370  0.434795  1
  Fe  Fe14  1  0.750000  0.539791  0.063938  1
  Fe  Fe15  1  0.750000  0.960209  0.563938  1
  Ni  Ni16  1  0.750000  0.598855  0.516174  1
  Ni  Ni17  1  0.750000  0.901145  0.016174  1
  P  P18  1  0.250000  0.426055  0.112720  1
  P  P19  1  0.250000  0.073945  0.612720  1
  P  P20  1  0.750000  0.576576  0.886630  1
  P  P21  1  0.750000  0.923424  0.386630  1
  P  P22  1  0.250000  0.273065  0.859946  1
  P  P23  1  0.250000  0.226935  0.359946  1
  P  P24  1  0.750000  0.727785  0.141512  1
  P  P25  1  0.750000  0.772215  0.641512  1
  P  P26  1  0.250000  0.604088  0.382069  1
  P  P27  1  0.250000  0.895912  0.882069  1
  P  P28  1  0.750000  0.392969  0.615758  1
  P  P29  1  0.750000  0.107031  0.115758  1
  Ru  Ru30  1  0.250000  0.709756  0.988949  1
  Ru  Ru31  1  0.250000  0.790244  0.488949  1
  Ru  Ru32  1  0.750000  0.296686  0.012906  1
  Ru  Ru33  1  0.750000  0.203314  0.512906  1
  Ru  Ru34  1  0.250000  0.409390  0.487205  1
  Ru  Ru35  1  0.250000  0.090610  0.987205  1
