# generated using pymatgen
data_Be8TcRu2W
_symmetry_space_group_name_H-M   'P 1'
_cell_length_a   4.37725500
_cell_length_b   4.37725523
_cell_length_c   7.14726200
_cell_angle_alpha   90.00000000
_cell_angle_beta   90.00000000
_cell_angle_gamma   120.00000586
_symmetry_Int_Tables_number   1
_chemical_formula_structural   Be8TcRu2W
_chemical_formula_sum   'Be8 Tc1 Ru2 W1'
_cell_volume   118.59708806
_cell_formula_units_Z   1
loop_
 _symmetry_equiv_pos_site_id
 _symmetry_equiv_pos_as_xyz
  1  'x, y, z'
loop_
 _atom_site_type_symbol
 _atom_site_label
 _atom_site_symmetry_multiplicity
 _atom_site_fract_x
 _atom_site_fract_y
 _atom_site_fract_z
 _atom_site_occupancy
  Be  Be0  1  0.000000  0.000000  0.500643  1
  Be  Be1  1  0.000000  0.000000  0.999087  1
  Be  Be2  1  0.830612  0.169388  0.243016  1
  Be  Be3  1  0.830612  0.661224  0.243016  1
  Be  Be4  1  0.338776  0.169388  0.243016  1
  Be  Be5  1  0.168727  0.831273  0.756498  1
  Be  Be6  1  0.168727  0.337454  0.756498  1
  Be  Be7  1  0.662546  0.831273  0.756498  1
  Tc  Tc8  1  0.666667  0.333333  0.555360  1
  Ru  Ru9  1  0.666667  0.333333  0.935731  1
  Ru  Ru10  1  0.333333  0.666667  0.070642  1
  W  W11  1  0.333333  0.666667  0.439998  1
