# generated using pymatgen
data_Ho3Tm2Pb3
_symmetry_space_group_name_H-M   'P 1'
_cell_length_a   6.55776300
_cell_length_b   9.00027111
_cell_length_c   9.00241503
_cell_angle_alpha   119.99212073
_cell_angle_beta   90.00000000
_cell_angle_gamma   90.00000000
_symmetry_Int_Tables_number   1
_chemical_formula_structural   Ho3Tm2Pb3
_chemical_formula_sum   'Ho6 Tm4 Pb6'
_cell_volume   460.18816746
_cell_formula_units_Z   2
loop_
 _symmetry_equiv_pos_site_id
 _symmetry_equiv_pos_as_xyz
  1  'x, y, z'
loop_
 _atom_site_type_symbol
 _atom_site_label
 _atom_site_symmetry_multiplicity
 _atom_site_fract_x
 _atom_site_fract_y
 _atom_site_fract_z
 _atom_site_occupancy
  Ho  Ho0  1  0.750002  0.238651  0.000000  1
  Ho  Ho1  1  0.749999  0.761290  0.761354  1
  Ho  Ho2  1  0.749999  0.999936  0.238646  1
  Ho  Ho3  1  0.250002  0.761349  0.000000  1
  Ho  Ho4  1  0.249999  0.238710  0.238646  1
  Ho  Ho5  1  0.249999  0.000064  0.761354  1
  Tm  Tm6  1  0.499999  0.333349  0.666748  1
  Tm  Tm7  1  0.499999  0.666601  0.333252  1
  Tm  Tm8  1  0.999999  0.666651  0.333252  1
  Tm  Tm9  1  0.999999  0.333399  0.666748  1
  Pb  Pb10  1  0.749995  0.605397  0.000000  1
  Pb  Pb11  1  0.750004  0.394558  0.394491  1
  Pb  Pb12  1  0.750004  0.000067  0.605509  1
  Pb  Pb13  1  0.249995  0.394603  0.000000  1
  Pb  Pb14  1  0.250004  0.605442  0.605509  1
  Pb  Pb15  1  0.250004  0.999933  0.394491  1
