# generated using pymatgen
data_Dy19Lu(Cd3Ru)2
_symmetry_space_group_name_H-M   'P 1'
_cell_length_a   9.57811900
_cell_length_b   9.57811843
_cell_length_c   9.85331100
_cell_angle_alpha   90.00000000
_cell_angle_beta   90.00000000
_cell_angle_gamma   119.99999853
_symmetry_Int_Tables_number   1
_chemical_formula_structural   Dy19Lu(Cd3Ru)2
_chemical_formula_sum   'Dy19 Lu1 Cd6 Ru2'
_cell_volume   782.84045320
_cell_formula_units_Z   1
loop_
 _symmetry_equiv_pos_site_id
 _symmetry_equiv_pos_as_xyz
  1  'x, y, z'
loop_
 _atom_site_type_symbol
 _atom_site_label
 _atom_site_symmetry_multiplicity
 _atom_site_fract_x
 _atom_site_fract_y
 _atom_site_fract_z
 _atom_site_occupancy
  Dy  Dy0  1  0.000000  0.000000  0.000000  1
  Dy  Dy1  1  0.209285  0.790715  0.440063  1
  Dy  Dy2  1  0.209285  0.418570  0.440063  1
  Dy  Dy3  1  0.581430  0.790715  0.440063  1
  Dy  Dy4  1  0.790715  0.209285  0.559937  1
  Dy  Dy5  1  0.790715  0.581430  0.559937  1
  Dy  Dy6  1  0.418570  0.209285  0.559937  1
  Dy  Dy7  1  0.789984  0.210016  0.940200  1
  Dy  Dy8  1  0.789984  0.579967  0.940200  1
  Dy  Dy9  1  0.420033  0.210016  0.940200  1
  Dy  Dy10  1  0.210016  0.789984  0.059800  1
  Dy  Dy11  1  0.210016  0.420033  0.059800  1
  Dy  Dy12  1  0.579967  0.789984  0.059800  1
  Dy  Dy13  1  0.541162  0.458838  0.250189  1
  Dy  Dy14  1  0.541162  0.082323  0.250189  1
  Dy  Dy15  1  0.917677  0.458838  0.250189  1
  Dy  Dy16  1  0.458838  0.541162  0.749811  1
  Dy  Dy17  1  0.458838  0.917677  0.749811  1
  Dy  Dy18  1  0.082323  0.541162  0.749811  1
  Lu  Lu19  1  0.000000  0.000000  0.500000  1
  Cd  Cd20  1  0.885982  0.114018  0.251570  1
  Cd  Cd21  1  0.885982  0.771966  0.251570  1
  Cd  Cd22  1  0.228034  0.114018  0.251570  1
  Cd  Cd23  1  0.114018  0.885982  0.748430  1
  Cd  Cd24  1  0.114018  0.228034  0.748430  1
  Cd  Cd25  1  0.771966  0.885982  0.748430  1
  Ru  Ru26  1  0.333333  0.666667  0.250356  1
  Ru  Ru27  1  0.666667  0.333333  0.749644  1
