# generated using pymatgen
data_Ba6ErIn(Ir2O9)2
_symmetry_space_group_name_H-M   'P 1'
_cell_length_a   5.92490300
_cell_length_b   5.92490231
_cell_length_c   14.60455300
_cell_angle_alpha   90.00000000
_cell_angle_beta   90.00000000
_cell_angle_gamma   119.99999829
_symmetry_Int_Tables_number   1
_chemical_formula_structural   Ba6ErIn(Ir2O9)2
_chemical_formula_sum   'Ba6 Er1 In1 Ir4 O18'
_cell_volume   443.99834031
_cell_formula_units_Z   1
loop_
 _symmetry_equiv_pos_site_id
 _symmetry_equiv_pos_as_xyz
  1  'x, y, z'
loop_
 _atom_site_type_symbol
 _atom_site_label
 _atom_site_symmetry_multiplicity
 _atom_site_fract_x
 _atom_site_fract_y
 _atom_site_fract_z
 _atom_site_occupancy
  Ba  Ba0  1  0.666667  0.333333  0.412603  1
  Ba  Ba1  1  0.333333  0.666667  0.587397  1
  Ba  Ba2  1  0.333333  0.666667  0.909637  1
  Ba  Ba3  1  0.000000  0.000000  0.253059  1
  Ba  Ba4  1  0.666667  0.333333  0.090363  1
  Ba  Ba5  1  0.000000  0.000000  0.746941  1
  Er  Er6  1  0.000000  0.000000  0.000000  1
  In  In7  1  0.000000  0.000000  0.500000  1
  Ir  Ir8  1  0.333333  0.666667  0.163944  1
  Ir  Ir9  1  0.666667  0.333333  0.836056  1
  Ir  Ir10  1  0.333333  0.666667  0.336796  1
  Ir  Ir11  1  0.666667  0.333333  0.663204  1
  O  O12  1  0.826686  0.653372  0.584509  1
  O  O13  1  0.824052  0.175948  0.914293  1
  O  O14  1  0.653372  0.826686  0.415491  1
  O  O15  1  0.509211  0.490789  0.749117  1
  O  O16  1  0.173314  0.346628  0.415491  1
  O  O17  1  0.346628  0.173314  0.584509  1
  O  O18  1  0.509211  0.018420  0.749117  1
  O  O19  1  0.175948  0.351895  0.085707  1
  O  O20  1  0.490789  0.981580  0.250883  1
  O  O21  1  0.648105  0.824052  0.085707  1
  O  O22  1  0.173314  0.826686  0.415491  1
  O  O23  1  0.351895  0.175948  0.914293  1
  O  O24  1  0.018420  0.509211  0.250883  1
  O  O25  1  0.490789  0.509211  0.250883  1
  O  O26  1  0.981580  0.490789  0.749117  1
  O  O27  1  0.824052  0.648105  0.914293  1
  O  O28  1  0.826686  0.173314  0.584509  1
  O  O29  1  0.175948  0.824052  0.085707  1
