# generated using pymatgen
data_Tm4SiSb5Rh7
_symmetry_space_group_name_H-M   'P 1'
_cell_length_a   7.52686426
_cell_length_b   7.51263995
_cell_length_c   7.52686457
_cell_angle_alpha   110.58497718
_cell_angle_beta   107.35042160
_cell_angle_gamma   110.58499492
_symmetry_Int_Tables_number   1
_chemical_formula_structural   Tm4SiSb5Rh7
_chemical_formula_sum   'Tm4 Si1 Sb5 Rh7'
_cell_volume   326.95089613
_cell_formula_units_Z   1
loop_
 _symmetry_equiv_pos_site_id
 _symmetry_equiv_pos_as_xyz
  1  'x, y, z'
loop_
 _atom_site_type_symbol
 _atom_site_label
 _atom_site_symmetry_multiplicity
 _atom_site_fract_x
 _atom_site_fract_y
 _atom_site_fract_z
 _atom_site_occupancy
  Tm  Tm0  1  0.477235  0.466722  0.477235  1
  Tm  Tm1  1  0.010504  0.533294  0.010504  1
  Tm  Tm2  1  0.477213  0.999965  0.010296  1
  Tm  Tm3  1  0.010296  0.999965  0.477213  1
  Si  Si4  1  0.347625  0.000031  0.347625  1
  Sb  Sb5  1  0.685372  0.000009  0.685372  1
  Sb  Sb6  1  0.677023  0.686637  0.990178  1
  Sb  Sb7  1  0.303535  0.313361  0.990388  1
  Sb  Sb8  1  0.990178  0.686637  0.677023  1
  Sb  Sb9  1  0.990388  0.313361  0.303535  1
  Rh  Rh10  1  0.742472  0.500004  0.242575  1
  Rh  Rh11  1  0.492965  0.245472  0.738574  1
  Rh  Rh12  1  0.738574  0.245472  0.492965  1
  Rh  Rh13  1  0.247510  0.754459  0.493067  1
  Rh  Rh14  1  0.242575  0.500004  0.742472  1
  Rh  Rh15  1  0.493067  0.754459  0.247510  1
  Rh  Rh16  1  0.073468  0.000150  0.073468  1
