# generated using pymatgen
data_BaTbTmTe4
_symmetry_space_group_name_H-M   'P 1'
_cell_length_a   4.47099400
_cell_length_b   13.80143900
_cell_length_c   16.21310400
_cell_angle_alpha   90.00000000
_cell_angle_beta   90.00000000
_cell_angle_gamma   90.00000000
_symmetry_Int_Tables_number   1
_chemical_formula_structural   BaTbTmTe4
_chemical_formula_sum   'Ba4 Tb4 Tm4 Te16'
_cell_volume   1000.44824296
_cell_formula_units_Z   4
loop_
 _symmetry_equiv_pos_site_id
 _symmetry_equiv_pos_as_xyz
  1  'x, y, z'
loop_
 _atom_site_type_symbol
 _atom_site_label
 _atom_site_symmetry_multiplicity
 _atom_site_fract_x
 _atom_site_fract_y
 _atom_site_fract_z
 _atom_site_occupancy
  Ba  Ba0  1  0.750000  0.261056  0.831122  1
  Ba  Ba1  1  0.250000  0.738944  0.168878  1
  Ba  Ba2  1  0.750000  0.761056  0.668878  1
  Ba  Ba3  1  0.250000  0.238944  0.331122  1
  Tb  Tb4  1  0.750000  0.939800  0.889871  1
  Tb  Tb5  1  0.250000  0.060200  0.110129  1
  Tb  Tb6  1  0.750000  0.439800  0.610129  1
  Tb  Tb7  1  0.250000  0.560200  0.389871  1
  Tm  Tm8  1  0.250000  0.079980  0.596033  1
  Tm  Tm9  1  0.750000  0.920020  0.403967  1
  Tm  Tm10  1  0.250000  0.579980  0.903967  1
  Tm  Tm11  1  0.750000  0.420020  0.096033  1
  Te  Te12  1  0.250000  0.472100  0.214224  1
  Te  Te13  1  0.750000  0.527900  0.785776  1
  Te  Te14  1  0.250000  0.972100  0.285776  1
  Te  Te15  1  0.750000  0.027900  0.714224  1
  Te  Te16  1  0.250000  0.374533  0.972720  1
  Te  Te17  1  0.750000  0.625467  0.027280  1
  Te  Te18  1  0.250000  0.874533  0.527280  1
  Te  Te19  1  0.750000  0.125467  0.472720  1
  Te  Te20  1  0.250000  0.292479  0.661258  1
  Te  Te21  1  0.750000  0.707521  0.338742  1
  Te  Te22  1  0.250000  0.792479  0.838742  1
  Te  Te23  1  0.750000  0.207521  0.161258  1
  Te  Te24  1  0.750000  0.409733  0.422750  1
  Te  Te25  1  0.250000  0.590267  0.577250  1
  Te  Te26  1  0.750000  0.909733  0.077250  1
  Te  Te27  1  0.250000  0.090267  0.922750  1
