# generated using pymatgen
data_EuCu3NiPt
_symmetry_space_group_name_H-M   'P 1'
_cell_length_a   5.23284361
_cell_length_b   5.23284472
_cell_length_c   4.07703800
_cell_angle_alpha   90.00000000
_cell_angle_beta   90.00000000
_cell_angle_gamma   122.80037723
_symmetry_Int_Tables_number   1
_chemical_formula_structural   EuCu3NiPt
_chemical_formula_sum   'Eu1 Cu3 Ni1 Pt1'
_cell_volume   93.84057300
_cell_formula_units_Z   1
loop_
 _symmetry_equiv_pos_site_id
 _symmetry_equiv_pos_as_xyz
  1  'x, y, z'
loop_
 _atom_site_type_symbol
 _atom_site_label
 _atom_site_symmetry_multiplicity
 _atom_site_fract_x
 _atom_site_fract_y
 _atom_site_fract_z
 _atom_site_occupancy
  Eu  Eu0  1  0.501715  0.498285  0.000000  1
  Cu  Cu1  1  0.177653  0.822347  0.000000  1
  Cu  Cu2  1  0.997392  0.500120  0.500000  1
  Cu  Cu3  1  0.499880  0.002608  0.500000  1
  Ni  Ni4  1  0.825501  0.174499  0.000000  1
  Pt  Pt5  1  0.997858  0.002142  0.500000  1
