# generated using pymatgen
data_YHo19Ir11Ru
_symmetry_space_group_name_H-M   'P 1'
_cell_length_a   10.82540123
_cell_length_b   10.82553723
_cell_length_c   6.37953120
_cell_angle_alpha   90.02035239
_cell_angle_beta   90.02066399
_cell_angle_gamma   90.01182202
_symmetry_Int_Tables_number   1
_chemical_formula_structural   YHo19Ir11Ru
_chemical_formula_sum   'Y1 Ho19 Ir11 Ru1'
_cell_volume   747.62215210
_cell_formula_units_Z   1
loop_
 _symmetry_equiv_pos_site_id
 _symmetry_equiv_pos_as_xyz
  1  'x, y, z'
loop_
 _atom_site_type_symbol
 _atom_site_label
 _atom_site_symmetry_multiplicity
 _atom_site_fract_x
 _atom_site_fract_y
 _atom_site_fract_z
 _atom_site_occupancy
  Y  Y0  1  0.291706  0.087218  0.376319  1
  Ho  Ho1  1  0.292955  0.912647  0.880161  1
  Ho  Ho2  1  0.707314  0.087330  0.880062  1
  Ho  Ho3  1  0.707562  0.912881  0.377250  1
  Ho  Ho4  1  0.587267  0.792667  0.880113  1
  Ho  Ho5  1  0.587217  0.207473  0.377202  1
  Ho  Ho6  1  0.413023  0.792347  0.377139  1
  Ho  Ho7  1  0.412965  0.207173  0.880206  1
  Ho  Ho8  1  0.208941  0.411636  0.621814  1
  Ho  Ho9  1  0.208939  0.588136  0.121214  1
  Ho  Ho10  1  0.791012  0.411935  0.121331  1
  Ho  Ho11  1  0.791023  0.588364  0.621690  1
  Ho  Ho12  1  0.911868  0.708935  0.121224  1
  Ho  Ho13  1  0.911681  0.291054  0.621692  1
  Ho  Ho14  1  0.088353  0.708975  0.621903  1
  Ho  Ho15  1  0.087821  0.291436  0.121431  1
  Ho  Ho16  1  0.999745  0.999875  0.499191  1
  Ho  Ho17  1  0.999961  0.999924  0.999152  1
  Ho  Ho18  1  0.500082  0.500102  0.998826  1
  Ho  Ho19  1  0.500016  0.500015  0.499015  1
  Ir  Ir20  1  0.846996  0.153760  0.249963  1
  Ir  Ir21  1  0.847008  0.846652  0.749572  1
  Ir  Ir22  1  0.152347  0.153522  0.751423  1
  Ir  Ir23  1  0.152414  0.845486  0.249452  1
  Ir  Ir24  1  0.653341  0.347094  0.749578  1
  Ir  Ir25  1  0.653831  0.652922  0.249940  1
  Ir  Ir26  1  0.346281  0.348163  0.249161  1
  Ir  Ir27  1  0.346722  0.652940  0.749570  1
  Ir  Ir28  1  0.500870  0.999602  0.624868  1
  Ir  Ir29  1  0.999920  0.500031  0.877640  1
  Ir  Ir30  1  0.999950  0.500094  0.377965  1
  Ru  Ru31  1  0.500870  0.999611  0.123943  1
