# generated using pymatgen
data_Na8HfBi4
_symmetry_space_group_name_H-M   'P 1'
_cell_length_a   10.71748390
_cell_length_b   10.71749281
_cell_length_c   10.71749100
_cell_angle_alpha   60.05063201
_cell_angle_beta   60.05057608
_cell_angle_gamma   60.05060149
_symmetry_Int_Tables_number   1
_chemical_formula_structural   Na8HfBi4
_chemical_formula_sum   'Na16 Hf2 Bi8'
_cell_volume   871.48916499
_cell_formula_units_Z   2
loop_
 _symmetry_equiv_pos_site_id
 _symmetry_equiv_pos_as_xyz
  1  'x, y, z'
loop_
 _atom_site_type_symbol
 _atom_site_label
 _atom_site_symmetry_multiplicity
 _atom_site_fract_x
 _atom_site_fract_y
 _atom_site_fract_z
 _atom_site_occupancy
  Na  Na0  1  0.625000  0.625000  0.125000  1
  Na  Na1  1  0.625000  0.125000  0.625000  1
  Na  Na2  1  0.125000  0.625000  0.625000  1
  Na  Na3  1  0.625000  0.625000  0.625000  1
  Na  Na4  1  0.028529  0.471466  0.471466  1
  Na  Na5  1  0.778493  0.221489  0.221489  1
  Na  Na6  1  0.471466  0.028529  0.471466  1
  Na  Na7  1  0.471467  0.471466  0.028529  1
  Na  Na8  1  0.028511  0.028511  0.471507  1
  Na  Na9  1  0.028511  0.471507  0.028511  1
  Na  Na10  1  0.471507  0.028511  0.028511  1
  Na  Na11  1  0.778534  0.221471  0.778534  1
  Na  Na12  1  0.221489  0.778493  0.221489  1
  Na  Na13  1  0.221489  0.221489  0.778493  1
  Na  Na14  1  0.778533  0.778534  0.221471  1
  Na  Na15  1  0.221471  0.778534  0.778534  1
  Hf  Hf16  1  0.750027  0.750027  0.750027  1
  Hf  Hf17  1  0.499973  0.499973  0.499973  1
  Bi  Bi18  1  0.859639  0.859639  0.421136  1
  Bi  Bi19  1  0.859639  0.421136  0.859639  1
  Bi  Bi20  1  0.390361  0.390361  0.828864  1
  Bi  Bi21  1  0.390361  0.828864  0.390361  1
  Bi  Bi22  1  0.828864  0.390361  0.390361  1
  Bi  Bi23  1  0.859627  0.859627  0.859627  1
  Bi  Bi24  1  0.421136  0.859639  0.859639  1
  Bi  Bi25  1  0.390373  0.390373  0.390373  1
