# generated using pymatgen
data_Sc8Si4Pt9Rh5
_symmetry_space_group_name_H-M   'P 1'
_cell_length_a   4.03614100
_cell_length_b   6.50250910
_cell_length_c   16.11619447
_cell_angle_alpha   90.09328541
_cell_angle_beta   90.00000000
_cell_angle_gamma   90.00000000
_symmetry_Int_Tables_number   1
_chemical_formula_structural   Sc8Si4Pt9Rh5
_chemical_formula_sum   'Sc8 Si4 Pt9 Rh5'
_cell_volume   422.96966581
_cell_formula_units_Z   1
loop_
 _symmetry_equiv_pos_site_id
 _symmetry_equiv_pos_as_xyz
  1  'x, y, z'
loop_
 _atom_site_type_symbol
 _atom_site_label
 _atom_site_symmetry_multiplicity
 _atom_site_fract_x
 _atom_site_fract_y
 _atom_site_fract_z
 _atom_site_occupancy
  Sc  Sc0  1  0.000000  0.280884  0.462020  1
  Sc  Sc1  1  0.000000  0.719116  0.537980  1
  Sc  Sc2  1  0.000000  0.775202  0.036625  1
  Sc  Sc3  1  0.000000  0.224798  0.963375  1
  Sc  Sc4  1  0.000000  0.530943  0.290091  1
  Sc  Sc5  1  0.000000  0.469057  0.709909  1
  Sc  Sc6  1  0.000000  0.029082  0.207684  1
  Sc  Sc7  1  0.000000  0.970918  0.792316  1
  Si  Si8  1  0.500000  0.843680  0.306762  1
  Si  Si9  1  0.500000  0.156320  0.693238  1
  Si  Si10  1  0.500000  0.342131  0.192480  1
  Si  Si11  1  0.500000  0.657869  0.807520  1
  Pt  Pt12  1  0.500000  0.601098  0.422218  1
  Pt  Pt13  1  0.500000  0.398902  0.577782  1
  Pt  Pt14  1  0.500000  0.099616  0.077747  1
  Pt  Pt15  1  0.500000  0.900384  0.922253  1
  Pt  Pt16  1  0.500000  0.000000  0.500000  1
  Pt  Pt17  1  0.500000  0.214748  0.334701  1
  Pt  Pt18  1  0.500000  0.785252  0.665299  1
  Pt  Pt19  1  0.500000  0.711778  0.165059  1
  Pt  Pt20  1  0.500000  0.288222  0.834941  1
  Rh  Rh21  1  0.000000  0.904952  0.379763  1
  Rh  Rh22  1  0.000000  0.095048  0.620237  1
  Rh  Rh23  1  0.000000  0.404033  0.120253  1
  Rh  Rh24  1  0.000000  0.595967  0.879747  1
  Rh  Rh25  1  0.500000  0.500000  0.000000  1
