# generated using pymatgen
data_Y7Ag(Sn11Os3)2
_symmetry_space_group_name_H-M   'P 1'
_cell_length_a   9.86356500
_cell_length_b   9.86356624
_cell_length_c   10.08557200
_cell_angle_alpha   90.00000000
_cell_angle_beta   90.00000000
_cell_angle_gamma   119.99999921
_symmetry_Int_Tables_number   1
_chemical_formula_structural   Y7Ag(Sn11Os3)2
_chemical_formula_sum   'Y7 Ag1 Sn22 Os6'
_cell_volume   849.76540304
_cell_formula_units_Z   1
loop_
 _symmetry_equiv_pos_site_id
 _symmetry_equiv_pos_as_xyz
  1  'x, y, z'
loop_
 _atom_site_type_symbol
 _atom_site_label
 _atom_site_symmetry_multiplicity
 _atom_site_fract_x
 _atom_site_fract_y
 _atom_site_fract_z
 _atom_site_occupancy
  Y  Y0  1  0.000000  0.000000  0.000000  1
  Y  Y1  1  0.032536  0.516267  0.304683  1
  Y  Y2  1  0.483733  0.967464  0.304683  1
  Y  Y3  1  0.483733  0.516267  0.304683  1
  Y  Y4  1  0.967464  0.483733  0.695317  1
  Y  Y5  1  0.516267  0.032536  0.695317  1
  Y  Y6  1  0.516267  0.483733  0.695317  1
  Ag  Ag7  1  0.000000  0.000000  0.500000  1
  Sn  Sn8  1  0.118519  0.881481  0.276982  1
  Sn  Sn9  1  0.762961  0.881481  0.276982  1
  Sn  Sn10  1  0.118519  0.237039  0.276982  1
  Sn  Sn11  1  0.881481  0.118519  0.723018  1
  Sn  Sn12  1  0.237039  0.118519  0.723018  1
  Sn  Sn13  1  0.881481  0.762961  0.723018  1
  Sn  Sn14  1  0.349657  0.000000  0.000000  1
  Sn  Sn15  1  0.650343  0.650343  0.000000  1
  Sn  Sn16  1  0.000000  0.349657  0.000000  1
  Sn  Sn17  1  0.349657  0.349657  0.000000  1
  Sn  Sn18  1  0.000000  0.650343  0.000000  1
  Sn  Sn19  1  0.650343  0.000000  0.000000  1
  Sn  Sn20  1  0.779308  0.558614  0.462439  1
  Sn  Sn21  1  0.779308  0.220692  0.462439  1
  Sn  Sn22  1  0.441386  0.220692  0.462439  1
  Sn  Sn23  1  0.220692  0.441386  0.537561  1
  Sn  Sn24  1  0.220692  0.779308  0.537561  1
  Sn  Sn25  1  0.558614  0.779308  0.537561  1
  Sn  Sn26  1  0.666667  0.333333  0.173260  1
  Sn  Sn27  1  0.333333  0.666667  0.826740  1
  Sn  Sn28  1  0.666667  0.333333  0.872541  1
  Sn  Sn29  1  0.333333  0.666667  0.127459  1
  Os  Os30  1  0.168483  0.831517  0.795838  1
  Os  Os31  1  0.663035  0.831517  0.795838  1
  Os  Os32  1  0.168483  0.336965  0.795838  1
  Os  Os33  1  0.831517  0.168483  0.204162  1
  Os  Os34  1  0.336965  0.168483  0.204162  1
  Os  Os35  1  0.831517  0.663035  0.204162  1
