# generated using pymatgen
data_Ca10ZnCu2Ag2Pd
_symmetry_space_group_name_H-M   'P 1'
_cell_length_a   9.26074843
_cell_length_b   9.26074856
_cell_length_c   9.25464968
_cell_angle_alpha   130.08291280
_cell_angle_beta   130.08290775
_cell_angle_gamma   73.32497508
_symmetry_Int_Tables_number   1
_chemical_formula_structural   Ca10ZnCu2Ag2Pd
_chemical_formula_sum   'Ca10 Zn1 Cu2 Ag2 Pd1'
_cell_volume   453.44421162
_cell_formula_units_Z   1
loop_
 _symmetry_equiv_pos_site_id
 _symmetry_equiv_pos_as_xyz
  1  'x, y, z'
loop_
 _atom_site_type_symbol
 _atom_site_label
 _atom_site_symmetry_multiplicity
 _atom_site_fract_x
 _atom_site_fract_y
 _atom_site_fract_z
 _atom_site_occupancy
  Ca  Ca0  1  0.531197  0.026521  0.841865  1
  Ca  Ca1  1  0.189332  0.684655  0.158135  1
  Ca  Ca2  1  0.023960  0.190229  0.500000  1
  Ca  Ca3  1  0.686477  0.530639  0.500000  1
  Ca  Ca4  1  0.473479  0.968803  0.158135  1
  Ca  Ca5  1  0.815345  0.310668  0.841865  1
  Ca  Ca6  1  0.969361  0.813523  0.500000  1
  Ca  Ca7  1  0.309771  0.476040  0.500000  1
  Ca  Ca8  1  0.501923  0.504519  0.006442  1
  Ca  Ca9  1  0.995481  0.998077  0.993558  1
  Zn  Zn10  1  0.382075  0.117925  0.500000  1
  Cu  Cu11  1  0.112814  0.612628  0.725442  1
  Cu  Cu12  1  0.887372  0.387186  0.274558  1
  Ag  Ag13  1  0.251384  0.248616  0.000000  1
  Ag  Ag14  1  0.751384  0.748616  0.000000  1
  Pd  Pd15  1  0.618645  0.881355  0.500000  1
