# generated using pymatgen
data_Nd12MnIrI17
_symmetry_space_group_name_H-M   'P 1'
_cell_length_a   10.02507174
_cell_length_b   12.04530932
_cell_length_c   12.07583302
_cell_angle_alpha   93.54473967
_cell_angle_beta   104.67762289
_cell_angle_gamma   114.41190082
_symmetry_Int_Tables_number   1
_chemical_formula_structural   Nd12MnIrI17
_chemical_formula_sum   'Nd12 Mn1 Ir1 I17'
_cell_volume   1261.35035008
_cell_formula_units_Z   1
loop_
 _symmetry_equiv_pos_site_id
 _symmetry_equiv_pos_as_xyz
  1  'x, y, z'
loop_
 _atom_site_type_symbol
 _atom_site_label
 _atom_site_symmetry_multiplicity
 _atom_site_fract_x
 _atom_site_fract_y
 _atom_site_fract_z
 _atom_site_occupancy
  Nd  Nd0  1  0.057310  0.510620  0.322285  1
  Nd  Nd1  1  0.988895  0.811820  0.579839  1
  Nd  Nd2  1  0.656940  0.241609  0.280457  1
  Nd  Nd3  1  0.011523  0.190337  0.417194  1
  Nd  Nd4  1  0.224426  0.669002  0.991558  1
  Nd  Nd5  1  0.261703  0.988979  0.893487  1
  Nd  Nd6  1  0.358443  0.759673  0.714238  1
  Nd  Nd7  1  0.940496  0.486486  0.675997  1
  Nd  Nd8  1  0.742051  0.015199  0.108969  1
  Nd  Nd9  1  0.138292  0.285851  0.153620  1
  Nd  Nd10  1  0.776233  0.329396  0.011222  1
  Nd  Nd11  1  0.844248  0.711535  0.850067  1
  Mn  Mn12  1  0.895656  0.261973  0.213511  1
  Ir  Ir13  1  0.103868  0.738176  0.785424  1
  I  I14  1  0.784989  0.527573  0.418401  1
  I  I15  1  0.640699  0.419231  0.758426  1
  I  I16  1  0.843243  0.894903  0.326047  1
  I  I17  1  0.322857  0.213115  0.368310  1
  I  I18  1  0.156735  0.104328  0.676466  1
  I  I19  1  0.587591  0.052125  0.843608  1
  I  I20  1  0.755484  0.183883  0.537082  1
  I  I21  1  0.548233  0.706163  0.952905  1
  I  I22  1  0.357779  0.579984  0.240810  1
  I  I23  1  0.215579  0.471617  0.582222  1
  I  I24  1  0.055797  0.367934  0.897883  1
  I  I25  1  0.452494  0.291330  0.047121  1
  I  I26  1  0.000363  0.000669  0.000005  1
  I  I27  1  0.245997  0.817703  0.462648  1
  I  I28  1  0.413356  0.947875  0.156343  1
  I  I29  1  0.673338  0.788016  0.630643  1
  I  I30  1  0.945384  0.632896  0.103214  1
