# generated using pymatgen
data_Tb7ErSc12Si15Hg
_symmetry_space_group_name_H-M   'P 1'
_cell_length_a   7.13607808
_cell_length_b   7.39819869
_cell_length_c   14.09589175
_cell_angle_alpha   89.91014031
_cell_angle_beta   89.57289256
_cell_angle_gamma   90.16061198
_symmetry_Int_Tables_number   1
_chemical_formula_structural   Tb7ErSc12Si15Hg
_chemical_formula_sum   'Tb7 Er1 Sc12 Si15 Hg1'
_cell_volume   744.15570983
_cell_formula_units_Z   1
loop_
 _symmetry_equiv_pos_site_id
 _symmetry_equiv_pos_as_xyz
  1  'x, y, z'
loop_
 _atom_site_type_symbol
 _atom_site_label
 _atom_site_symmetry_multiplicity
 _atom_site_fract_x
 _atom_site_fract_y
 _atom_site_fract_z
 _atom_site_occupancy
  Tb  Tb0  1  0.011346  0.175278  0.097270  1
  Tb  Tb1  1  0.988234  0.825662  0.904287  1
  Tb  Tb2  1  0.488050  0.676496  0.904241  1
  Tb  Tb3  1  0.989803  0.831355  0.598128  1
  Tb  Tb4  1  0.511211  0.324084  0.096395  1
  Tb  Tb5  1  0.006993  0.170841  0.398336  1
  Tb  Tb6  1  0.510995  0.322065  0.399154  1
  Er  Er7  1  0.497138  0.682228  0.600543  1
  Sc  Sc8  1  0.163478  0.501754  0.754301  1
  Sc  Sc9  1  0.836148  0.498251  0.249932  1
  Sc  Sc10  1  0.336430  0.000757  0.248718  1
  Sc  Sc11  1  0.665895  0.996742  0.751649  1
  Sc  Sc12  1  0.343332  0.168286  0.628943  1
  Sc  Sc13  1  0.663402  0.824317  0.372975  1
  Sc  Sc14  1  0.165752  0.677758  0.370518  1
  Sc  Sc15  1  0.668686  0.823607  0.124238  1
  Sc  Sc16  1  0.825964  0.325365  0.626243  1
  Sc  Sc17  1  0.329587  0.175258  0.876126  1
  Sc  Sc18  1  0.830850  0.322782  0.876107  1
  Sc  Sc19  1  0.168273  0.676806  0.124976  1
  Si  Si20  1  0.036783  0.121507  0.751281  1
  Si  Si21  1  0.962784  0.882821  0.247888  1
  Si  Si22  1  0.464957  0.616064  0.247923  1
  Si  Si23  1  0.534628  0.386233  0.751933  1
  Si  Si24  1  0.286647  0.872639  0.751377  1
  Si  Si25  1  0.711414  0.126232  0.247662  1
  Si  Si26  1  0.212221  0.372264  0.248172  1
  Si  Si27  1  0.789028  0.627624  0.752177  1
  Si  Si28  1  0.832501  0.539038  0.459338  1
  Si  Si29  1  0.338882  0.960921  0.460357  1
  Si  Si30  1  0.843833  0.535499  0.038897  1
  Si  Si31  1  0.659595  0.036662  0.537764  1
  Si  Si32  1  0.155657  0.463916  0.962191  1
  Si  Si33  1  0.656075  0.035360  0.960667  1
  Si  Si34  1  0.342879  0.964584  0.039802  1
  Hg  Hg35  1  0.170551  0.458946  0.539492  1
