# generated using pymatgen
data_La3Ce2Y3(MgCo)2
_symmetry_space_group_name_H-M   'P 1'
_cell_length_a   9.79834812
_cell_length_b   9.79834685
_cell_length_c   9.79834900
_cell_angle_alpha   60.00000288
_cell_angle_beta   60.00000716
_cell_angle_gamma   60.00000439
_symmetry_Int_Tables_number   1
_chemical_formula_structural   La3Ce2Y3(MgCo)2
_chemical_formula_sum   'La6 Ce4 Y6 Mg4 Co4'
_cell_volume   665.18680853
_cell_formula_units_Z   2
loop_
 _symmetry_equiv_pos_site_id
 _symmetry_equiv_pos_as_xyz
  1  'x, y, z'
loop_
 _atom_site_type_symbol
 _atom_site_label
 _atom_site_symmetry_multiplicity
 _atom_site_fract_x
 _atom_site_fract_y
 _atom_site_fract_z
 _atom_site_occupancy
  La  La0  1  0.807159  0.192841  0.192841  1
  La  La1  1  0.192841  0.807159  0.807159  1
  La  La2  1  0.192841  0.807159  0.192841  1
  La  La3  1  0.807159  0.192841  0.807159  1
  La  La4  1  0.192841  0.192841  0.807159  1
  La  La5  1  0.807159  0.807159  0.192841  1
  Ce  Ce6  1  0.340763  0.340763  0.340763  1
  Ce  Ce7  1  0.340763  0.340763  0.977712  1
  Ce  Ce8  1  0.340763  0.977712  0.340763  1
  Ce  Ce9  1  0.977712  0.340763  0.340763  1
  Y  Y10  1  0.935289  0.564711  0.564711  1
  Y  Y11  1  0.564711  0.935289  0.935289  1
  Y  Y12  1  0.564711  0.935289  0.564711  1
  Y  Y13  1  0.935289  0.564711  0.935289  1
  Y  Y14  1  0.564711  0.564711  0.935289  1
  Y  Y15  1  0.935289  0.935289  0.564711  1
  Mg  Mg16  1  0.579560  0.579560  0.579560  1
  Mg  Mg17  1  0.579560  0.579560  0.261320  1
  Mg  Mg18  1  0.579560  0.261320  0.579560  1
  Mg  Mg19  1  0.261320  0.579560  0.579560  1
  Co  Co20  1  0.148097  0.148097  0.148097  1
  Co  Co21  1  0.148097  0.148097  0.555711  1
  Co  Co22  1  0.148097  0.555711  0.148097  1
  Co  Co23  1  0.555711  0.148097  0.148097  1
