# generated using pymatgen
data_Tb3Dy7(In3Cl)2
_symmetry_space_group_name_H-M   'P 1'
_cell_length_a   9.16420700
_cell_length_b   9.16420709
_cell_length_c   6.63210400
_cell_angle_alpha   90.00000000
_cell_angle_beta   90.00000000
_cell_angle_gamma   119.99727587
_symmetry_Int_Tables_number   1
_chemical_formula_structural   Tb3Dy7(In3Cl)2
_chemical_formula_sum   'Tb3 Dy7 In6 Cl2'
_cell_volume   482.37374940
_cell_formula_units_Z   1
loop_
 _symmetry_equiv_pos_site_id
 _symmetry_equiv_pos_as_xyz
  1  'x, y, z'
loop_
 _atom_site_type_symbol
 _atom_site_label
 _atom_site_symmetry_multiplicity
 _atom_site_fract_x
 _atom_site_fract_y
 _atom_site_fract_z
 _atom_site_occupancy
  Tb  Tb0  1  0.257535  0.257535  0.750000  1
  Tb  Tb1  1  0.999956  0.257466  0.250000  1
  Tb  Tb2  1  0.257466  0.999956  0.250000  1
  Dy  Dy3  1  0.742400  0.742400  0.250000  1
  Dy  Dy4  1  0.999995  0.742448  0.750000  1
  Dy  Dy5  1  0.742448  0.999995  0.750000  1
  Dy  Dy6  1  0.333497  0.666811  0.500047  1
  Dy  Dy7  1  0.666811  0.333497  0.500047  1
  Dy  Dy8  1  0.333497  0.666811  0.999953  1
  Dy  Dy9  1  0.666811  0.333497  0.999953  1
  In  In10  1  0.394481  0.999745  0.750000  1
  In  In11  1  0.999850  0.605516  0.250000  1
  In  In12  1  0.605516  0.999850  0.250000  1
  In  In13  1  0.999745  0.394481  0.750000  1
  In  In14  1  0.394878  0.394878  0.250000  1
  In  In15  1  0.605679  0.605679  0.750000  1
  Cl  Cl16  1  0.999718  0.999718  0.500202  1
  Cl  Cl17  1  0.999718  0.999718  0.999798  1
