# generated using pymatgen
data_Nd8Si12AgRh3
_symmetry_space_group_name_H-M   'P 1'
_cell_length_a   8.29289900
_cell_length_b   8.29289857
_cell_length_c   8.47878300
_cell_angle_alpha   90.00000000
_cell_angle_beta   90.00000000
_cell_angle_gamma   119.99999772
_symmetry_Int_Tables_number   1
_chemical_formula_structural   Nd8Si12AgRh3
_chemical_formula_sum   'Nd8 Si12 Ag1 Rh3'
_cell_volume   504.98315560
_cell_formula_units_Z   1
loop_
 _symmetry_equiv_pos_site_id
 _symmetry_equiv_pos_as_xyz
  1  'x, y, z'
loop_
 _atom_site_type_symbol
 _atom_site_label
 _atom_site_symmetry_multiplicity
 _atom_site_fract_x
 _atom_site_fract_y
 _atom_site_fract_z
 _atom_site_occupancy
  Nd  Nd0  1  0.000000  0.000000  0.749036  1
  Nd  Nd1  1  0.000000  0.000000  0.251383  1
  Nd  Nd2  1  0.495332  0.504668  0.744976  1
  Nd  Nd3  1  0.495332  0.990666  0.744976  1
  Nd  Nd4  1  0.009334  0.504668  0.744976  1
  Nd  Nd5  1  0.498767  0.501233  0.254916  1
  Nd  Nd6  1  0.002468  0.501233  0.254916  1
  Nd  Nd7  1  0.498767  0.997532  0.254916  1
  Si  Si8  1  0.839674  0.160326  0.000347  1
  Si  Si9  1  0.839674  0.679348  0.000347  1
  Si  Si10  1  0.320652  0.160326  0.000347  1
  Si  Si11  1  0.832383  0.167617  0.499843  1
  Si  Si12  1  0.832383  0.664767  0.499843  1
  Si  Si13  1  0.335233  0.167617  0.499843  1
  Si  Si14  1  0.166110  0.833890  0.500362  1
  Si  Si15  1  0.667781  0.833890  0.500362  1
  Si  Si16  1  0.166110  0.332219  0.500362  1
  Si  Si17  1  0.168321  0.831679  0.999895  1
  Si  Si18  1  0.663357  0.831679  0.999895  1
  Si  Si19  1  0.168321  0.336643  0.999895  1
  Ag  Ag20  1  0.666667  0.333333  0.993681  1
  Rh  Rh21  1  0.666667  0.333333  0.505808  1
  Rh  Rh22  1  0.333333  0.666667  0.493451  1
  Rh  Rh23  1  0.333333  0.666667  0.005623  1
