# generated using pymatgen
data_LiDy3Au5
_symmetry_space_group_name_H-M   'P 1'
_cell_length_a   8.41610900
_cell_length_b   8.41610955
_cell_length_c   13.48856700
_cell_angle_alpha   90.00000000
_cell_angle_beta   90.00000000
_cell_angle_gamma   127.07275489
_symmetry_Int_Tables_number   1
_chemical_formula_structural   LiDy3Au5
_chemical_formula_sum   'Li4 Dy12 Au20'
_cell_volume   762.29144839
_cell_formula_units_Z   4
loop_
 _symmetry_equiv_pos_site_id
 _symmetry_equiv_pos_as_xyz
  1  'x, y, z'
loop_
 _atom_site_type_symbol
 _atom_site_label
 _atom_site_symmetry_multiplicity
 _atom_site_fract_x
 _atom_site_fract_y
 _atom_site_fract_z
 _atom_site_occupancy
  Li  Li0  1  0.722526  0.277474  0.250000  1
  Li  Li1  1  0.277474  0.722526  0.750000  1
  Li  Li2  1  0.531622  0.468378  0.250000  1
  Li  Li3  1  0.468378  0.531622  0.750000  1
  Dy  Dy4  1  0.930242  0.069758  0.250000  1
  Dy  Dy5  1  0.069758  0.930242  0.750000  1
  Dy  Dy6  1  0.315932  0.684068  0.250000  1
  Dy  Dy7  1  0.684068  0.315932  0.750000  1
  Dy  Dy8  1  0.629873  0.370127  0.465708  1
  Dy  Dy9  1  0.370127  0.629873  0.534292  1
  Dy  Dy10  1  0.629873  0.370127  0.034292  1
  Dy  Dy11  1  0.370127  0.629873  0.965708  1
  Dy  Dy12  1  0.880804  0.119196  0.948785  1
  Dy  Dy13  1  0.119196  0.880804  0.051215  1
  Dy  Dy14  1  0.880804  0.119196  0.551215  1
  Dy  Dy15  1  0.119196  0.880804  0.448785  1
  Au  Au16  1  0.322800  0.068586  0.250000  1
  Au  Au17  1  0.068586  0.322800  0.750000  1
  Au  Au18  1  0.677200  0.931414  0.750000  1
  Au  Au19  1  0.931414  0.677200  0.250000  1
  Au  Au20  1  0.570489  0.005257  0.395415  1
  Au  Au21  1  0.005257  0.570489  0.604585  1
  Au  Au22  1  0.570489  0.005257  0.104585  1
  Au  Au23  1  0.005257  0.570489  0.895415  1
  Au  Au24  1  0.429511  0.994743  0.604585  1
  Au  Au25  1  0.994743  0.429511  0.395415  1
  Au  Au26  1  0.429511  0.994743  0.895415  1
  Au  Au27  1  0.994743  0.429511  0.104585  1
  Au  Au28  1  0.690093  0.741403  0.392565  1
  Au  Au29  1  0.741403  0.690093  0.607435  1
  Au  Au30  1  0.690093  0.741403  0.107435  1
  Au  Au31  1  0.741403  0.690093  0.892565  1
  Au  Au32  1  0.309907  0.258597  0.607435  1
  Au  Au33  1  0.258597  0.309907  0.392565  1
  Au  Au34  1  0.309907  0.258597  0.892565  1
  Au  Au35  1  0.258597  0.309907  0.107435  1
