# generated using pymatgen
data_Ce7Er(CdTc)2
_symmetry_space_group_name_H-M   'P 1'
_cell_length_a   9.68740674
_cell_length_b   9.68740651
_cell_length_c   9.62956000
_cell_angle_alpha   60.19733356
_cell_angle_beta   60.19733434
_cell_angle_gamma   59.60532733
_symmetry_Int_Tables_number   1
_chemical_formula_structural   Ce7Er(CdTc)2
_chemical_formula_sum   'Ce14 Er2 Cd4 Tc4'
_cell_volume   638.96298489
_cell_formula_units_Z   2
loop_
 _symmetry_equiv_pos_site_id
 _symmetry_equiv_pos_as_xyz
  1  'x, y, z'
loop_
 _atom_site_type_symbol
 _atom_site_label
 _atom_site_symmetry_multiplicity
 _atom_site_fract_x
 _atom_site_fract_y
 _atom_site_fract_z
 _atom_site_occupancy
  Ce  Ce0  1  0.345108  0.345108  0.352439  1
  Ce  Ce1  1  0.345108  0.345108  0.957346  1
  Ce  Ce2  1  0.352439  0.957346  0.345108  1
  Ce  Ce3  1  0.957346  0.352439  0.345108  1
  Ce  Ce4  1  0.810463  0.189537  0.189537  1
  Ce  Ce5  1  0.189537  0.810463  0.810463  1
  Ce  Ce6  1  0.189537  0.810463  0.189537  1
  Ce  Ce7  1  0.810463  0.189537  0.810463  1
  Ce  Ce8  1  0.189170  0.189170  0.810830  1
  Ce  Ce9  1  0.810830  0.810830  0.189170  1
  Ce  Ce10  1  0.943807  0.556193  0.556193  1
  Ce  Ce11  1  0.556193  0.943807  0.943807  1
  Ce  Ce12  1  0.556193  0.943807  0.556193  1
  Ce  Ce13  1  0.943807  0.556193  0.943807  1
  Er  Er14  1  0.557729  0.557729  0.942271  1
  Er  Er15  1  0.942271  0.942271  0.557729  1
  Cd  Cd16  1  0.577918  0.577918  0.583793  1
  Cd  Cd17  1  0.577918  0.577918  0.260369  1
  Cd  Cd18  1  0.583793  0.260369  0.577918  1
  Cd  Cd19  1  0.260369  0.583793  0.577918  1
  Tc  Tc20  1  0.130329  0.130329  0.138634  1
  Tc  Tc21  1  0.130329  0.130329  0.600709  1
  Tc  Tc22  1  0.138634  0.600709  0.130329  1
  Tc  Tc23  1  0.600709  0.138634  0.130329  1
