# generated using pymatgen
data_LaHo3CdNi
_symmetry_space_group_name_H-M   'P 1'
_cell_length_a   9.65294560
_cell_length_b   9.65294635
_cell_length_c   9.65294600
_cell_angle_alpha   60.00000118
_cell_angle_beta   59.99999864
_cell_angle_gamma   60.00000362
_symmetry_Int_Tables_number   1
_chemical_formula_structural   LaHo3CdNi
_chemical_formula_sum   'La4 Ho12 Cd4 Ni4'
_cell_volume   636.01102095
_cell_formula_units_Z   4
loop_
 _symmetry_equiv_pos_site_id
 _symmetry_equiv_pos_as_xyz
  1  'x, y, z'
loop_
 _atom_site_type_symbol
 _atom_site_label
 _atom_site_symmetry_multiplicity
 _atom_site_fract_x
 _atom_site_fract_y
 _atom_site_fract_z
 _atom_site_occupancy
  La  La0  1  0.600466  0.600466  0.600466  1
  La  La1  1  0.600466  0.600466  0.198602  1
  La  La2  1  0.600466  0.198602  0.600466  1
  La  La3  1  0.198602  0.600466  0.600466  1
  Ho  Ho4  1  0.064463  0.435537  0.435537  1
  Ho  Ho5  1  0.435537  0.064463  0.064463  1
  Ho  Ho6  1  0.435537  0.064463  0.435537  1
  Ho  Ho7  1  0.064463  0.435537  0.064463  1
  Ho  Ho8  1  0.435537  0.435537  0.064463  1
  Ho  Ho9  1  0.064463  0.064463  0.435537  1
  Ho  Ho10  1  0.183478  0.816522  0.816522  1
  Ho  Ho11  1  0.816522  0.183478  0.183478  1
  Ho  Ho12  1  0.816522  0.183478  0.816522  1
  Ho  Ho13  1  0.183478  0.816522  0.183478  1
  Ho  Ho14  1  0.816522  0.816522  0.183478  1
  Ho  Ho15  1  0.183478  0.183478  0.816522  1
  Cd  Cd16  1  0.832735  0.832735  0.832735  1
  Cd  Cd17  1  0.832735  0.832735  0.501794  1
  Cd  Cd18  1  0.832735  0.501794  0.832735  1
  Cd  Cd19  1  0.501794  0.832735  0.832735  1
  Ni  Ni20  1  0.390854  0.390854  0.390854  1
  Ni  Ni21  1  0.390854  0.390854  0.827440  1
  Ni  Ni22  1  0.390854  0.827440  0.390854  1
  Ni  Ni23  1  0.827440  0.390854  0.390854  1
