# generated using pymatgen
data_Ho12InGaCo3Ni
_symmetry_space_group_name_H-M   'P 1'
_cell_length_a   8.28807608
_cell_length_b   8.28807608
_cell_length_c   8.28807665
_cell_angle_alpha   112.76751615
_cell_angle_beta   109.58645501
_cell_angle_gamma   106.12764883
_symmetry_Int_Tables_number   1
_chemical_formula_structural   Ho12InGaCo3Ni
_chemical_formula_sum   'Ho12 In1 Ga1 Co3 Ni1'
_cell_volume   436.79769326
_cell_formula_units_Z   1
loop_
 _symmetry_equiv_pos_site_id
 _symmetry_equiv_pos_as_xyz
  1  'x, y, z'
loop_
 _atom_site_type_symbol
 _atom_site_label
 _atom_site_symmetry_multiplicity
 _atom_site_fract_x
 _atom_site_fract_y
 _atom_site_fract_z
 _atom_site_occupancy
  Ho  Ho0  1  0.432001  0.232677  0.199324  1
  Ho  Ho1  1  0.567426  0.767510  0.799915  1
  Ho  Ho2  1  0.033353  0.232677  0.800676  1
  Ho  Ho3  1  0.967595  0.767510  0.200085  1
  Ho  Ho4  1  0.183782  0.283553  0.464092  1
  Ho  Ho5  1  0.819459  0.719689  0.535908  1
  Ho  Ho6  1  0.183782  0.719689  0.900229  1
  Ho  Ho7  1  0.819459  0.283553  0.099771  1
  Ho  Ho8  1  0.324080  0.635958  0.311880  1
  Ho  Ho9  1  0.671838  0.360817  0.688977  1
  Ho  Ho10  1  0.324080  0.012201  0.688120  1
  Ho  Ho11  1  0.671838  0.982862  0.311023  1
  In  In12  1  0.500183  0.500183  0.000000  1
  Ga  Ga13  1  0.999531  0.999531  0.000000  1
  Co  Co14  1  0.343595  0.001312  0.342283  1
  Co  Co15  1  0.659030  0.001312  0.657717  1
  Co  Co16  1  0.116265  0.616265  0.500000  1
  Ni  Ni17  1  0.882701  0.382701  0.500000  1
