# generated using pymatgen
data_Ho6Er2Ta4Ti8Si15Pb
_symmetry_space_group_name_H-M   'P 1'
_cell_length_a   7.10526808
_cell_length_b   7.05113611
_cell_length_c   13.00648600
_cell_angle_alpha   89.96492854
_cell_angle_beta   89.83262515
_cell_angle_gamma   89.93757743
_symmetry_Int_Tables_number   1
_chemical_formula_structural   Ho6Er2Ta4Ti8Si15Pb
_chemical_formula_sum   'Ho6 Er2 Ta4 Ti8 Si15 Pb1'
_cell_volume   651.62442240
_cell_formula_units_Z   1
loop_
 _symmetry_equiv_pos_site_id
 _symmetry_equiv_pos_as_xyz
  1  'x, y, z'
loop_
 _atom_site_type_symbol
 _atom_site_label
 _atom_site_symmetry_multiplicity
 _atom_site_fract_x
 _atom_site_fract_y
 _atom_site_fract_z
 _atom_site_occupancy
  Ho  Ho0  1  0.344565  0.997739  0.460477  1
  Ho  Ho1  1  0.507612  0.834155  0.719058  1
  Ho  Ho2  1  0.501155  0.159873  0.217086  1
  Ho  Ho3  1  0.841349  0.498072  0.281719  1
  Ho  Ho4  1  0.158991  0.509370  0.786406  1
  Ho  Ho5  1  0.661509  0.996433  0.970015  1
  Er  Er6  1  0.989918  0.349301  0.525833  1
  Er  Er7  1  0.000520  0.659592  0.034009  1
  Ta  Ta8  1  0.326337  0.327084  0.001666  1
  Ta  Ta9  1  0.173863  0.826567  0.249370  1
  Ta  Ta10  1  0.814492  0.176365  0.752468  1
  Ta  Ta11  1  0.672802  0.672864  0.499382  1
  Ti  Ti12  1  0.154037  0.010074  0.883246  1
  Ti  Ti13  1  0.491081  0.651994  0.125939  1
  Ti  Ti14  1  0.516915  0.353289  0.625448  1
  Ti  Ti15  1  0.655529  0.492981  0.877205  1
  Ti  Ti16  1  0.345359  0.509180  0.373832  1
  Ti  Ti17  1  0.845342  0.990864  0.374841  1
  Ti  Ti18  1  0.011061  0.152607  0.124210  1
  Ti  Ti19  1  0.975433  0.831708  0.618660  1
  Si  Si20  1  0.370969  0.703236  0.935860  1
  Si  Si21  1  0.627184  0.297548  0.432039  1
  Si  Si22  1  0.703743  0.370515  0.067405  1
  Si  Si23  1  0.295933  0.629869  0.565932  1
  Si  Si24  1  0.798601  0.870533  0.183631  1
  Si  Si25  1  0.129037  0.202403  0.315543  1
  Si  Si26  1  0.871551  0.801058  0.817138  1
  Si  Si27  1  0.294540  0.953317  0.066312  1
  Si  Si28  1  0.548706  0.789754  0.312250  1
  Si  Si29  1  0.461528  0.208295  0.821351  1
  Si  Si30  1  0.796011  0.542618  0.687573  1
  Si  Si31  1  0.207527  0.454136  0.186028  1
  Si  Si32  1  0.704915  0.048095  0.563626  1
  Si  Si33  1  0.953812  0.293711  0.936358  1
  Si  Si34  1  0.047157  0.709208  0.433130  1
  Pb  Pb35  1  0.200916  0.125591  0.674951  1
