# generated using pymatgen
data_Ba3NdEr3O9
_symmetry_space_group_name_H-M   'P 1'
_cell_length_a   9.24260011
_cell_length_b   9.24259943
_cell_length_c   9.24259886
_cell_angle_alpha   38.98083786
_cell_angle_beta   38.98084404
_cell_angle_gamma   38.98084103
_symmetry_Int_Tables_number   1
_chemical_formula_structural   Ba3NdEr3O9
_chemical_formula_sum   'Ba3 Nd1 Er3 O9'
_cell_volume   280.97244908
_cell_formula_units_Z   1
loop_
 _symmetry_equiv_pos_site_id
 _symmetry_equiv_pos_as_xyz
  1  'x, y, z'
loop_
 _atom_site_type_symbol
 _atom_site_label
 _atom_site_symmetry_multiplicity
 _atom_site_fract_x
 _atom_site_fract_y
 _atom_site_fract_z
 _atom_site_occupancy
  Ba  Ba0  1  0.000243  0.000243  0.000243  1
  Ba  Ba1  1  0.832266  0.832266  0.832266  1
  Ba  Ba2  1  0.404588  0.404588  0.404588  1
  Nd  Nd3  1  0.572749  0.572749  0.572749  1
  Er  Er4  1  0.135110  0.135110  0.135110  1
  Er  Er5  1  0.260590  0.260590  0.260590  1
  Er  Er6  1  0.699858  0.699858  0.699858  1
  O  O7  1  0.432062  0.971593  0.526455  1
  O  O8  1  0.971593  0.526455  0.432062  1
  O  O9  1  0.526455  0.432062  0.971593  1
  O  O10  1  0.266273  0.893630  0.428074  1
  O  O11  1  0.893630  0.428074  0.266273  1
  O  O12  1  0.428074  0.266273  0.893630  1
  O  O13  1  0.414180  0.858149  0.977982  1
  O  O14  1  0.977982  0.414180  0.858149  1
  O  O15  1  0.858149  0.977982  0.414180  1
