# generated using pymatgen
data_Nd5EuReO12
_symmetry_space_group_name_H-M   'P 1'
_cell_length_a   6.68690398
_cell_length_b   6.73407604
_cell_length_c   6.74109700
_cell_angle_alpha   98.75114106
_cell_angle_beta   98.51564370
_cell_angle_gamma   98.12000196
_symmetry_Int_Tables_number   1
_chemical_formula_structural   Nd5EuReO12
_chemical_formula_sum   'Nd5 Eu1 Re1 O12'
_cell_volume   292.51648020
_cell_formula_units_Z   1
loop_
 _symmetry_equiv_pos_site_id
 _symmetry_equiv_pos_as_xyz
  1  'x, y, z'
loop_
 _atom_site_type_symbol
 _atom_site_label
 _atom_site_symmetry_multiplicity
 _atom_site_fract_x
 _atom_site_fract_y
 _atom_site_fract_z
 _atom_site_occupancy
  Nd  Nd0  1  0.391369  0.858056  0.691975  1
  Nd  Nd1  1  0.693612  0.389919  0.855319  1
  Nd  Nd2  1  0.305871  0.612438  0.141224  1
  Nd  Nd3  1  0.608117  0.143440  0.307707  1
  Nd  Nd4  1  0.852535  0.684569  0.384056  1
  Eu  Eu5  1  0.148876  0.317688  0.606327  1
  Re  Re6  1  0.999764  0.000419  0.001536  1
  O  O7  1  0.068005  0.285809  0.972873  1
  O  O8  1  0.022127  0.921500  0.723653  1
  O  O9  1  0.412794  0.566051  0.824049  1
  O  O10  1  0.179242  0.599900  0.439693  1
  O  O11  1  0.709617  0.034877  0.932922  1
  O  O12  1  0.438769  0.178943  0.592549  1
  O  O13  1  0.561043  0.824199  0.406931  1
  O  O14  1  0.289586  0.966994  0.069543  1
  O  O15  1  0.824715  0.405841  0.557562  1
  O  O16  1  0.590889  0.437427  0.175759  1
  O  O17  1  0.969503  0.064011  0.280854  1
  O  O18  1  0.933564  0.707920  0.035468  1
