# generated using pymatgen
data_LiSm7(IO6)4
_symmetry_space_group_name_H-M   'P 1'
_cell_length_a   5.54603881
_cell_length_b   7.90495130
_cell_length_c   11.69478221
_cell_angle_alpha   76.51424819
_cell_angle_beta   89.60218098
_cell_angle_gamma   89.92038643
_symmetry_Int_Tables_number   1
_chemical_formula_structural   LiSm7(IO6)4
_chemical_formula_sum   'Li1 Sm7 I4 O24'
_cell_volume   498.56431598
_cell_formula_units_Z   1
loop_
 _symmetry_equiv_pos_site_id
 _symmetry_equiv_pos_as_xyz
  1  'x, y, z'
loop_
 _atom_site_type_symbol
 _atom_site_label
 _atom_site_symmetry_multiplicity
 _atom_site_fract_x
 _atom_site_fract_y
 _atom_site_fract_z
 _atom_site_occupancy
  Li  Li0  1  0.232583  0.727348  0.575765  1
  Sm  Sm1  1  0.741912  0.987856  0.738165  1
  Sm  Sm2  1  0.251010  0.012203  0.256740  1
  Sm  Sm3  1  0.807164  0.800888  0.077016  1
  Sm  Sm4  1  0.694417  0.500286  0.747185  1
  Sm  Sm5  1  0.316360  0.499479  0.264228  1
  Sm  Sm6  1  0.181165  0.208757  0.926903  1
  Sm  Sm7  1  0.823305  0.221050  0.419651  1
  I  I8  1  0.246982  0.729675  0.874656  1
  I  I9  1  0.740410  0.735753  0.391509  1
  I  I10  1  0.258805  0.267428  0.619542  1
  I  I11  1  0.731958  0.288762  0.111487  1
  O  O12  1  0.062381  0.942504  0.879252  1
  O  O13  1  0.521872  0.839109  0.927254  1
  O  O14  1  0.895889  0.954872  0.374687  1
  O  O15  1  0.422802  0.791128  0.726615  1
  O  O16  1  0.455836  0.823515  0.442883  1
  O  O17  1  0.964832  0.700940  0.786164  1
  O  O18  1  0.560901  0.797878  0.237613  1
  O  O19  1  0.873417  0.664825  0.541833  1
  O  O20  1  0.360016  0.502963  0.881102  1
  O  O21  1  0.010181  0.703873  0.284400  1
  O  O22  1  0.377830  0.485952  0.623053  1
  O  O23  1  0.820969  0.348769  0.937270  1
  O  O24  1  0.131107  0.644573  0.030820  1
  O  O25  1  0.639178  0.505980  0.392902  1
  O  O26  1  0.985883  0.293666  0.722432  1
  O  O27  1  0.610299  0.513772  0.106750  1
  O  O28  1  0.154826  0.369643  0.466733  1
  O  O29  1  0.437731  0.189627  0.769378  1
  O  O30  1  0.059638  0.286068  0.254466  1
  O  O31  1  0.536350  0.166183  0.567200  1
  O  O32  1  0.544598  0.229506  0.272702  1
  O  O33  1  0.070153  0.069512  0.603672  1
  O  O34  1  0.470796  0.157735  0.071600  1
  O  O35  1  0.006441  0.037923  0.096370  1
