# generated using pymatgen
data_LiCa2Eu7(AlSb3)4
_symmetry_space_group_name_H-M   'P 1'
_cell_length_a   4.52832800
_cell_length_b   12.21265384
_cell_length_c   14.12060333
_cell_angle_alpha   90.10527969
_cell_angle_beta   90.00000000
_cell_angle_gamma   90.00000000
_symmetry_Int_Tables_number   1
_chemical_formula_structural   LiCa2Eu7(AlSb3)4
_chemical_formula_sum   'Li1 Ca2 Eu7 Al4 Sb12'
_cell_volume   780.90902883
_cell_formula_units_Z   1
loop_
 _symmetry_equiv_pos_site_id
 _symmetry_equiv_pos_as_xyz
  1  'x, y, z'
loop_
 _atom_site_type_symbol
 _atom_site_label
 _atom_site_symmetry_multiplicity
 _atom_site_fract_x
 _atom_site_fract_y
 _atom_site_fract_z
 _atom_site_occupancy
  Li  Li0  1  0.500000  0.098137  0.741053  1
  Ca  Ca1  1  0.500000  0.497285  0.998772  1
  Ca  Ca2  1  0.500000  0.003487  0.509570  1
  Eu  Eu3  1  0.500000  0.409086  0.248062  1
  Eu  Eu4  1  0.500000  0.326512  0.527031  1
  Eu  Eu5  1  0.500000  0.911966  0.251654  1
  Eu  Eu6  1  0.500000  0.167077  0.010327  1
  Eu  Eu7  1  0.500000  0.835003  0.972910  1
  Eu  Eu8  1  0.500000  0.670418  0.481359  1
  Eu  Eu9  1  0.500000  0.589236  0.752596  1
  Al  Al10  1  0.000000  0.168853  0.213238  1
  Al  Al11  1  0.000000  0.827414  0.788171  1
  Al  Al12  1  0.000000  0.672178  0.286870  1
  Al  Al13  1  0.000000  0.325400  0.715399  1
  Sb  Sb14  1  0.000000  0.847138  0.408319  1
  Sb  Sb15  1  0.000000  0.150325  0.601308  1
  Sb  Sb16  1  0.000000  0.652102  0.908797  1
  Sb  Sb17  1  0.000000  0.342917  0.092003  1
  Sb  Sb18  1  0.500000  0.332148  0.821343  1
  Sb  Sb19  1  0.500000  0.663689  0.175411  1
  Sb  Sb20  1  0.500000  0.841168  0.682438  1
  Sb  Sb21  1  0.500000  0.162874  0.325748  1
  Sb  Sb22  1  0.000000  0.521967  0.602288  1
  Sb  Sb23  1  0.000000  0.478515  0.398897  1
  Sb  Sb24  1  0.000000  0.025496  0.889910  1
  Sb  Sb25  1  0.000000  0.979610  0.096529  1
