# generated using pymatgen
data_Dy2Ho18Sn11Sb5
_symmetry_space_group_name_H-M   'P 1'
_cell_length_a   8.07083818
_cell_length_b   8.08242103
_cell_length_c   15.28145100
_cell_angle_alpha   90.20609713
_cell_angle_beta   90.27825787
_cell_angle_gamma   89.77504743
_symmetry_Int_Tables_number   1
_chemical_formula_structural   Dy2Ho18Sn11Sb5
_chemical_formula_sum   'Dy2 Ho18 Sn11 Sb5'
_cell_volume   996.81245105
_cell_formula_units_Z   1
loop_
 _symmetry_equiv_pos_site_id
 _symmetry_equiv_pos_as_xyz
  1  'x, y, z'
loop_
 _atom_site_type_symbol
 _atom_site_label
 _atom_site_symmetry_multiplicity
 _atom_site_fract_x
 _atom_site_fract_y
 _atom_site_fract_z
 _atom_site_occupancy
  Dy  Dy0  1  0.538074  0.325978  0.602533  1
  Dy  Dy1  1  0.044482  0.177179  0.895922  1
  Ho  Ho2  1  0.386945  0.838863  0.880549  1
  Ho  Ho3  1  0.884530  0.661423  0.620840  1
  Ho  Ho4  1  0.616094  0.159906  0.378993  1
  Ho  Ho5  1  0.114039  0.338016  0.120814  1
  Ho  Ho6  1  0.614347  0.161068  0.120004  1
  Ho  Ho7  1  0.116098  0.337567  0.379390  1
  Ho  Ho8  1  0.382921  0.838996  0.621029  1
  Ho  Ho9  1  0.885387  0.661144  0.879324  1
  Ho  Ho10  1  0.553684  0.333769  0.892448  1
  Ho  Ho11  1  0.051354  0.171526  0.606299  1
  Ho  Ho12  1  0.449204  0.671580  0.393827  1
  Ho  Ho13  1  0.948472  0.826576  0.106621  1
  Ho  Ho14  1  0.452996  0.666483  0.106815  1
  Ho  Ho15  1  0.960947  0.825846  0.396934  1
  Ho  Ho16  1  0.215391  0.501842  0.747297  1
  Ho  Ho17  1  0.715711  0.000451  0.749549  1
  Ho  Ho18  1  0.784301  0.498124  0.248764  1
  Ho  Ho19  1  0.284722  0.999583  0.252665  1
  Sn  Sn20  1  0.220941  0.530072  0.543087  1
  Sn  Sn21  1  0.278918  0.028183  0.456796  1
  Sn  Sn22  1  0.775520  0.473811  0.043365  1
  Sn  Sn23  1  0.581173  0.626744  0.749702  1
  Sn  Sn24  1  0.081418  0.875797  0.751927  1
  Sn  Sn25  1  0.418439  0.372939  0.249587  1
  Sn  Sn26  1  0.918828  0.124033  0.249853  1
  Sn  Sn27  1  0.352449  0.145161  0.751849  1
  Sn  Sn28  1  0.851669  0.355920  0.748792  1
  Sn  Sn29  1  0.648632  0.854293  0.250175  1
  Sn  Sn30  1  0.147050  0.643766  0.249647  1
  Sb  Sb31  1  0.269920  0.018147  0.046590  1
  Sb  Sb32  1  0.771754  0.476780  0.454542  1
  Sb  Sb33  1  0.728163  0.977217  0.545036  1
  Sb  Sb34  1  0.228407  0.522476  0.954504  1
  Sb  Sb35  1  0.727015  0.978747  0.953932  1
