# generated using pymatgen
data_Y6Ho10Cd4Ir3Rh
_symmetry_space_group_name_H-M   'P 1'
_cell_length_a   9.61213301
_cell_length_b   9.61213217
_cell_length_c   9.61213188
_cell_angle_alpha   60.04001585
_cell_angle_beta   60.04001737
_cell_angle_gamma   60.04002223
_symmetry_Int_Tables_number   1
_chemical_formula_structural   Y6Ho10Cd4Ir3Rh
_chemical_formula_sum   'Y6 Ho10 Cd4 Ir3 Rh1'
_cell_volume   628.54734144
_cell_formula_units_Z   1
loop_
 _symmetry_equiv_pos_site_id
 _symmetry_equiv_pos_as_xyz
  1  'x, y, z'
loop_
 _atom_site_type_symbol
 _atom_site_label
 _atom_site_symmetry_multiplicity
 _atom_site_fract_x
 _atom_site_fract_y
 _atom_site_fract_z
 _atom_site_occupancy
  Y  Y0  1  0.940171  0.561381  0.561381  1
  Y  Y1  1  0.562282  0.938218  0.938218  1
  Y  Y2  1  0.561381  0.940171  0.561381  1
  Y  Y3  1  0.938218  0.562282  0.938218  1
  Y  Y4  1  0.561381  0.561381  0.940171  1
  Y  Y5  1  0.938218  0.938218  0.562282  1
  Ho  Ho6  1  0.347972  0.347972  0.347972  1
  Ho  Ho7  1  0.349798  0.349798  0.953962  1
  Ho  Ho8  1  0.349798  0.953962  0.349798  1
  Ho  Ho9  1  0.953962  0.349798  0.349798  1
  Ho  Ho10  1  0.809395  0.189172  0.189172  1
  Ho  Ho11  1  0.187665  0.810494  0.810494  1
  Ho  Ho12  1  0.189172  0.809395  0.189172  1
  Ho  Ho13  1  0.810494  0.187665  0.810494  1
  Ho  Ho14  1  0.189172  0.189172  0.809395  1
  Ho  Ho15  1  0.810494  0.810494  0.187665  1
  Cd  Cd16  1  0.579910  0.579910  0.579910  1
  Cd  Cd17  1  0.580563  0.580563  0.257308  1
  Cd  Cd18  1  0.580563  0.257308  0.580563  1
  Cd  Cd19  1  0.257308  0.580563  0.580563  1
  Ir  Ir20  1  0.142415  0.142415  0.575275  1
  Ir  Ir21  1  0.142415  0.575275  0.142415  1
  Ir  Ir22  1  0.575275  0.142415  0.142415  1
  Rh  Rh23  1  0.141978  0.141978  0.141978  1
