# generated using pymatgen
data_Er8Ti7Nb5Si15As
_symmetry_space_group_name_H-M   'P 1'
_cell_length_a   7.03282353
_cell_length_b   7.02955149
_cell_length_c   12.92666949
_cell_angle_alpha   90.05232177
_cell_angle_beta   89.93174943
_cell_angle_gamma   89.96125732
_symmetry_Int_Tables_number   1
_chemical_formula_structural   Er8Ti7Nb5Si15As
_chemical_formula_sum   'Er8 Ti7 Nb5 Si15 As1'
_cell_volume   639.06258536
_cell_formula_units_Z   1
loop_
 _symmetry_equiv_pos_site_id
 _symmetry_equiv_pos_as_xyz
  1  'x, y, z'
loop_
 _atom_site_type_symbol
 _atom_site_label
 _atom_site_symmetry_multiplicity
 _atom_site_fract_x
 _atom_site_fract_y
 _atom_site_fract_z
 _atom_site_occupancy
  Er  Er0  1  0.342018  0.999444  0.465378  1
  Er  Er1  1  0.499397  0.841797  0.717685  1
  Er  Er2  1  0.500268  0.158686  0.216610  1
  Er  Er3  1  0.840028  0.499147  0.283272  1
  Er  Er4  1  0.160123  0.499182  0.782812  1
  Er  Er5  1  0.659763  0.997118  0.967604  1
  Er  Er6  1  0.996928  0.343914  0.531728  1
  Er  Er7  1  0.000416  0.659829  0.033458  1
  Ti  Ti8  1  0.491576  0.652192  0.123672  1
  Ti  Ti9  1  0.509162  0.348356  0.625690  1
  Ti  Ti10  1  0.653985  0.493864  0.876007  1
  Ti  Ti11  1  0.346741  0.508052  0.376266  1
  Ti  Ti12  1  0.846588  0.991740  0.374365  1
  Ti  Ti13  1  0.007846  0.151621  0.125901  1
  Ti  Ti14  1  0.989733  0.843939  0.625178  1
  Nb  Nb15  1  0.326867  0.327681  0.000326  1
  Nb  Nb16  1  0.170793  0.829074  0.250166  1
  Nb  Nb17  1  0.826794  0.171973  0.750004  1
  Nb  Nb18  1  0.671771  0.671916  0.500104  1
  Nb  Nb19  1  0.153942  0.009011  0.873952  1
  Si  Si20  1  0.369822  0.703906  0.932765  1
  Si  Si21  1  0.628749  0.295821  0.433644  1
  Si  Si22  1  0.704337  0.369045  0.067476  1
  Si  Si23  1  0.295720  0.631127  0.566954  1
  Si  Si24  1  0.795615  0.868965  0.183590  1
  Si  Si25  1  0.130134  0.204532  0.317095  1
  Si  Si26  1  0.867583  0.793433  0.817096  1
  Si  Si27  1  0.293906  0.953222  0.064397  1
  Si  Si28  1  0.545855  0.791652  0.313067  1
  Si  Si29  1  0.462749  0.209726  0.817474  1
  Si  Si30  1  0.793138  0.546325  0.686399  1
  Si  Si31  1  0.207645  0.453385  0.187209  1
  Si  Si32  1  0.707674  0.046505  0.563108  1
  Si  Si33  1  0.952690  0.295061  0.936972  1
  Si  Si34  1  0.045555  0.707894  0.436107  1
  As  As35  1  0.204092  0.130867  0.676469  1
