# generated using pymatgen
data_K2Pb4O7
_symmetry_space_group_name_H-M   'P 1'
_cell_length_a   6.74733228
_cell_length_b   7.27184483
_cell_length_c   10.53563124
_cell_angle_alpha   101.95876884
_cell_angle_beta   99.20269989
_cell_angle_gamma   90.01267167
_symmetry_Int_Tables_number   1
_chemical_formula_structural   K2Pb4O7
_chemical_formula_sum   'K4 Pb8 O14'
_cell_volume   498.91031756
_cell_formula_units_Z   2
loop_
 _symmetry_equiv_pos_site_id
 _symmetry_equiv_pos_as_xyz
  1  'x, y, z'
loop_
 _atom_site_type_symbol
 _atom_site_label
 _atom_site_symmetry_multiplicity
 _atom_site_fract_x
 _atom_site_fract_y
 _atom_site_fract_z
 _atom_site_occupancy
  K  K0  1  0.913103  0.172395  0.683746  1
  K  K1  1  0.086897  0.827605  0.316254  1
  K  K2  1  0.428602  0.173135  0.682351  1
  K  K3  1  0.571398  0.826865  0.317649  1
  Pb  Pb4  1  0.904661  0.654720  0.624337  1
  Pb  Pb5  1  0.095339  0.345280  0.375663  1
  Pb  Pb6  1  0.407879  0.653630  0.625443  1
  Pb  Pb7  1  0.592121  0.346370  0.374557  1
  Pb  Pb8  1  0.742521  0.605199  0.966842  1
  Pb  Pb9  1  0.257479  0.394801  0.033158  1
  Pb  Pb10  1  0.234757  0.848392  0.939628  1
  Pb  Pb11  1  0.765243  0.151608  0.060372  1
  O  O12  1  0.650580  0.432858  0.596307  1
  O  O13  1  0.349420  0.567142  0.403693  1
  O  O14  1  0.147614  0.431896  0.596684  1
  O  O15  1  0.852386  0.568104  0.403316  1
  O  O16  1  0.654393  0.848241  0.620588  1
  O  O17  1  0.345607  0.151759  0.379412  1
  O  O18  1  0.160156  0.853116  0.637760  1
  O  O19  1  0.839844  0.146884  0.362240  1
  O  O20  1  0.963095  0.659011  0.834059  1
  O  O21  1  0.036905  0.340989  0.165941  1
  O  O22  1  0.453386  0.656252  0.834626  1
  O  O23  1  0.546614  0.343748  0.165374  1
  O  O24  1  0.726835  0.299111  0.896884  1
  O  O25  1  0.273165  0.700889  0.103116  1
