# generated using pymatgen
data_CaTbSm5RhBr12
_symmetry_space_group_name_H-M   'P 1'
_cell_length_a   9.48954871
_cell_length_b   9.36809693
_cell_length_c   9.45256621
_cell_angle_alpha   106.87370724
_cell_angle_beta   106.75146536
_cell_angle_gamma   107.18910824
_symmetry_Int_Tables_number   1
_chemical_formula_structural   CaTbSm5RhBr12
_chemical_formula_sum   'Ca1 Tb1 Sm5 Rh1 Br12'
_cell_volume   700.99973384
_cell_formula_units_Z   1
loop_
 _symmetry_equiv_pos_site_id
 _symmetry_equiv_pos_as_xyz
  1  'x, y, z'
loop_
 _atom_site_type_symbol
 _atom_site_label
 _atom_site_symmetry_multiplicity
 _atom_site_fract_x
 _atom_site_fract_y
 _atom_site_fract_z
 _atom_site_occupancy
  Ca  Ca0  1  0.500098  0.500491  0.499583  1
  Tb  Tb1  1  0.894982  0.976549  0.686383  1
  Sm  Sm2  1  0.315382  0.104400  0.023120  1
  Sm  Sm3  1  0.021660  0.306902  0.101117  1
  Sm  Sm4  1  0.105914  0.023016  0.317975  1
  Sm  Sm5  1  0.684446  0.895483  0.977332  1
  Sm  Sm6  1  0.977725  0.692008  0.896575  1
  Rh  Rh7  1  0.999746  0.999260  0.999954  1
  Br  Br8  1  0.681395  0.222196  0.073036  1
  Br  Br9  1  0.070695  0.679177  0.218933  1
  Br  Br10  1  0.214586  0.071256  0.680200  1
  Br  Br11  1  0.318533  0.777462  0.926463  1
  Br  Br12  1  0.927564  0.314818  0.776646  1
  Br  Br13  1  0.781381  0.928736  0.324170  1
  Br  Br14  1  0.455894  0.161317  0.375796  1
  Br  Br15  1  0.374796  0.455988  0.161790  1
  Br  Br16  1  0.162685  0.376522  0.455217  1
  Br  Br17  1  0.549448  0.841881  0.623977  1
  Br  Br18  1  0.625014  0.543836  0.837386  1
  Br  Br19  1  0.838057  0.628702  0.544344  1
