# generated using pymatgen
data_Zr5Fe2Co14(Si4Mo)3
_symmetry_space_group_name_H-M   'P 1'
_cell_length_a   12.18701900
_cell_length_b   12.19355606
_cell_length_c   3.75256600
_cell_angle_alpha   90.00000000
_cell_angle_beta   90.00000000
_cell_angle_gamma   119.96671829
_symmetry_Int_Tables_number   1
_chemical_formula_structural   Zr5Fe2Co14(Si4Mo)3
_chemical_formula_sum   'Zr5 Fe2 Co14 Si12 Mo3'
_cell_volume   483.09482993
_cell_formula_units_Z   1
loop_
 _symmetry_equiv_pos_site_id
 _symmetry_equiv_pos_as_xyz
  1  'x, y, z'
loop_
 _atom_site_type_symbol
 _atom_site_label
 _atom_site_symmetry_multiplicity
 _atom_site_fract_x
 _atom_site_fract_y
 _atom_site_fract_z
 _atom_site_occupancy
  Zr  Zr0  1  0.666631  0.333109  0.000000  1
  Zr  Zr1  1  0.332502  0.666016  0.000000  1
  Zr  Zr2  1  0.813710  0.813319  0.500000  1
  Zr  Zr3  1  0.187227  0.998913  0.500000  1
  Zr  Zr4  1  0.001729  0.188761  0.500000  1
  Fe  Fe5  1  0.197436  0.375454  0.000000  1
  Fe  Fe6  1  0.178349  0.802280  0.000000  1
  Co  Co7  1  0.820023  0.624444  0.000000  1
  Co  Co8  1  0.804162  0.179309  0.000000  1
  Co  Co9  1  0.376450  0.196317  0.000000  1
  Co  Co10  1  0.122110  0.478981  0.500000  1
  Co  Co11  1  0.356137  0.877565  0.500000  1
  Co  Co12  1  0.520559  0.644200  0.500000  1
  Co  Co13  1  0.643758  0.520773  0.500000  1
  Co  Co14  1  0.875991  0.355890  0.500000  1
  Co  Co15  1  0.479581  0.123797  0.500000  1
  Co  Co16  1  0.999857  0.999384  0.000000  1
  Co  Co17  1  0.720847  0.000003  0.500000  1
  Co  Co18  1  0.997855  0.720000  0.500000  1
  Co  Co19  1  0.625398  0.821152  0.000000  1
  Co  Co20  1  0.280137  0.278263  0.500000  1
  Si  Si21  1  0.639532  0.639758  0.000000  1
  Si  Si22  1  0.360081  0.999531  0.000000  1
  Si  Si23  1  0.000543  0.360752  0.000000  1
  Si  Si24  1  0.482418  0.312875  0.500000  1
  Si  Si25  1  0.687681  0.169639  0.500000  1
  Si  Si26  1  0.830034  0.517969  0.500000  1
  Si  Si27  1  0.517685  0.830287  0.500000  1
  Si  Si28  1  0.169785  0.688074  0.500000  1
  Si  Si29  1  0.820516  0.000348  0.000000  1
  Si  Si30  1  0.000332  0.819847  0.000000  1
  Si  Si31  1  0.311139  0.481525  0.500000  1
  Si  Si32  1  0.180047  0.179828  0.000000  1
  Mo  Mo33  1  0.434504  0.436109  0.000000  1
  Mo  Mo34  1  0.564077  0.999942  0.000000  1
  Mo  Mo35  1  0.001175  0.565587  0.000000  1
