# generated using pymatgen
data_La3Pr(Nd3Si4)2
_symmetry_space_group_name_H-M   'P 1'
_cell_length_a   7.92852080
_cell_length_b   7.93107779
_cell_length_c   15.35039000
_cell_angle_alpha   90.00000000
_cell_angle_beta   90.00000000
_cell_angle_gamma   90.05131462
_symmetry_Int_Tables_number   1
_chemical_formula_structural   La3Pr(Nd3Si4)2
_chemical_formula_sum   'La6 Pr2 Nd12 Si16'
_cell_volume   965.25846546
_cell_formula_units_Z   2
loop_
 _symmetry_equiv_pos_site_id
 _symmetry_equiv_pos_as_xyz
  1  'x, y, z'
loop_
 _atom_site_type_symbol
 _atom_site_label
 _atom_site_symmetry_multiplicity
 _atom_site_fract_x
 _atom_site_fract_y
 _atom_site_fract_z
 _atom_site_occupancy
  La  La0  1  0.622358  0.986840  0.947585  1
  La  La1  1  0.122013  0.513129  0.802552  1
  La  La2  1  0.877987  0.486871  0.302552  1
  La  La3  1  0.512917  0.122275  0.197535  1
  La  La4  1  0.487083  0.877725  0.697535  1
  La  La5  1  0.377642  0.013160  0.447585  1
  Pr  Pr6  1  0.987689  0.621226  0.052806  1
  Pr  Pr7  1  0.012311  0.378774  0.552806  1
  Nd  Nd8  1  0.373278  0.480779  0.373504  1
  Nd  Nd9  1  0.873630  0.018905  0.376639  1
  Nd  Nd10  1  0.981052  0.126344  0.123305  1
  Nd  Nd11  1  0.018948  0.873656  0.623305  1
  Nd  Nd12  1  0.626722  0.519221  0.873504  1
  Nd  Nd13  1  0.480861  0.373398  0.626483  1
  Nd  Nd14  1  0.519139  0.626602  0.126483  1
  Nd  Nd15  1  0.126370  0.981095  0.876639  1
  Nd  Nd16  1  0.691952  0.691583  0.500128  1
  Nd  Nd17  1  0.808374  0.191967  0.749975  1
  Nd  Nd18  1  0.191626  0.808033  0.249975  1
  Nd  Nd19  1  0.308048  0.308417  0.000128  1
  Si  Si20  1  0.079477  0.712922  0.439702  1
  Si  Si21  1  0.920523  0.287078  0.939702  1
  Si  Si22  1  0.713921  0.079882  0.560349  1
  Si  Si23  1  0.213401  0.420918  0.189396  1
  Si  Si24  1  0.786600  0.579082  0.689396  1
  Si  Si25  1  0.420423  0.213604  0.810308  1
  Si  Si26  1  0.579577  0.786397  0.310308  1
  Si  Si27  1  0.286079  0.920118  0.060349  1
  Si  Si28  1  0.830702  0.806137  0.796013  1
  Si  Si29  1  0.169298  0.193863  0.296013  1
  Si  Si30  1  0.806409  0.830448  0.203481  1
  Si  Si31  1  0.305649  0.668822  0.546241  1
  Si  Si32  1  0.694351  0.331178  0.046241  1
  Si  Si33  1  0.670019  0.306264  0.453996  1
  Si  Si34  1  0.329981  0.693736  0.953996  1
  Si  Si35  1  0.193591  0.169552  0.703481  1
