# generated using pymatgen
data_Dy2Er6Cd2NiRu
_symmetry_space_group_name_H-M   'P 1'
_cell_length_a   9.52228957
_cell_length_b   9.52097965
_cell_length_c   9.59253009
_cell_angle_alpha   59.76014868
_cell_angle_beta   59.74662645
_cell_angle_gamma   59.43539009
_symmetry_Int_Tables_number   1
_chemical_formula_structural   Dy2Er6Cd2NiRu
_chemical_formula_sum   'Dy4 Er12 Cd4 Ni2 Ru2'
_cell_volume   610.01224011
_cell_formula_units_Z   2
loop_
 _symmetry_equiv_pos_site_id
 _symmetry_equiv_pos_as_xyz
  1  'x, y, z'
loop_
 _atom_site_type_symbol
 _atom_site_label
 _atom_site_symmetry_multiplicity
 _atom_site_fract_x
 _atom_site_fract_y
 _atom_site_fract_z
 _atom_site_occupancy
  Dy  Dy0  1  0.808829  0.188552  0.815776  1
  Dy  Dy1  1  0.188552  0.808829  0.186843  1
  Dy  Dy2  1  0.814614  0.814614  0.185386  1
  Dy  Dy3  1  0.190648  0.190648  0.809352  1
  Er  Er4  1  0.598768  0.599504  0.592824  1
  Er  Er5  1  0.599504  0.598768  0.208904  1
  Er  Er6  1  0.601817  0.206737  0.595329  1
  Er  Er7  1  0.206737  0.601817  0.596118  1
  Er  Er8  1  0.062186  0.435549  0.438445  1
  Er  Er9  1  0.435549  0.062186  0.063819  1
  Er  Er10  1  0.435520  0.062106  0.438904  1
  Er  Er11  1  0.062106  0.435520  0.063469  1
  Er  Er12  1  0.437245  0.437245  0.062755  1
  Er  Er13  1  0.061613  0.061613  0.438387  1
  Er  Er14  1  0.188819  0.808333  0.815275  1
  Er  Er15  1  0.808333  0.188819  0.187573  1
  Cd  Cd16  1  0.829812  0.828353  0.831840  1
  Cd  Cd17  1  0.828353  0.829812  0.509995  1
  Cd  Cd18  1  0.828380  0.507467  0.832536  1
  Cd  Cd19  1  0.507467  0.828380  0.831616  1
  Ni  Ni20  1  0.392282  0.826047  0.391122  1
  Ni  Ni21  1  0.826047  0.392282  0.390548  1
  Ru  Ru22  1  0.393690  0.393128  0.389642  1
  Ru  Ru23  1  0.393128  0.393690  0.823539  1
