# generated using pymatgen
data_YEr(SiPd)2
_symmetry_space_group_name_H-M   'P 1'
_cell_length_a   4.32926000
_cell_length_b   7.50343300
_cell_length_c   13.85781000
_cell_angle_alpha   90.00000000
_cell_angle_beta   90.00000000
_cell_angle_gamma   90.00000000
_symmetry_Int_Tables_number   1
_chemical_formula_structural   YEr(SiPd)2
_chemical_formula_sum   'Y4 Er4 Si8 Pd8'
_cell_volume   450.16142852
_cell_formula_units_Z   4
loop_
 _symmetry_equiv_pos_site_id
 _symmetry_equiv_pos_as_xyz
  1  'x, y, z'
loop_
 _atom_site_type_symbol
 _atom_site_label
 _atom_site_symmetry_multiplicity
 _atom_site_fract_x
 _atom_site_fract_y
 _atom_site_fract_z
 _atom_site_occupancy
  Y  Y0  1  0.000000  0.299080  0.000000  1
  Y  Y1  1  0.500000  0.700920  0.500000  1
  Y  Y2  1  0.000000  0.289622  0.500000  1
  Y  Y3  1  0.500000  0.710378  0.000000  1
  Er  Er4  1  0.000000  0.210818  0.249203  1
  Er  Er5  1  0.500000  0.789182  0.250797  1
  Er  Er6  1  0.000000  0.210818  0.750797  1
  Er  Er7  1  0.500000  0.789182  0.749203  1
  Si  Si8  1  0.000000  0.909640  0.594814  1
  Si  Si9  1  0.500000  0.090360  0.905186  1
  Si  Si10  1  0.000000  0.909640  0.405186  1
  Si  Si11  1  0.500000  0.090360  0.094814  1
  Si  Si12  1  0.000000  0.591532  0.144928  1
  Si  Si13  1  0.500000  0.408468  0.355072  1
  Si  Si14  1  0.000000  0.591532  0.855072  1
  Si  Si15  1  0.500000  0.408468  0.644928  1
  Pd  Pd16  1  0.500000  0.075629  0.609589  1
  Pd  Pd17  1  0.000000  0.924371  0.890411  1
  Pd  Pd18  1  0.500000  0.075629  0.390411  1
  Pd  Pd19  1  0.000000  0.924371  0.109589  1
  Pd  Pd20  1  0.500000  0.419757  0.157574  1
  Pd  Pd21  1  0.000000  0.580243  0.342426  1
  Pd  Pd22  1  0.500000  0.419757  0.842426  1
  Pd  Pd23  1  0.000000  0.580243  0.657574  1
