# generated using pymatgen
data_Nd4Ag(Sb4Au)2
_symmetry_space_group_name_H-M   'P 1'
_cell_length_a   11.29843503
_cell_length_b   11.29843532
_cell_length_c   11.29843500
_cell_angle_alpha   148.08162084
_cell_angle_beta   148.08161362
_cell_angle_gamma   45.76489860
_symmetry_Int_Tables_number   1
_chemical_formula_structural   Nd4Ag(Sb4Au)2
_chemical_formula_sum   'Nd4 Ag1 Sb8 Au2'
_cell_volume   401.82214034
_cell_formula_units_Z   1
loop_
 _symmetry_equiv_pos_site_id
 _symmetry_equiv_pos_as_xyz
  1  'x, y, z'
loop_
 _atom_site_type_symbol
 _atom_site_label
 _atom_site_symmetry_multiplicity
 _atom_site_fract_x
 _atom_site_fract_y
 _atom_site_fract_z
 _atom_site_occupancy
  Nd  Nd0  1  0.628609  0.628609  0.507230  1
  Nd  Nd1  1  0.121379  0.121379  0.492770  1
  Nd  Nd2  1  0.371391  0.878621  0.000000  1
  Nd  Nd3  1  0.878621  0.371391  0.000000  1
  Ag  Ag4  1  0.000000  0.000000  0.000000  1
  Sb  Sb5  1  0.341855  0.341855  0.513848  1
  Sb  Sb6  1  0.828008  0.828008  0.486152  1
  Sb  Sb7  1  0.658145  0.171992  0.000000  1
  Sb  Sb8  1  0.171992  0.658145  0.000000  1
  Sb  Sb9  1  0.250061  0.250061  0.000000  1
  Sb  Sb10  1  0.749939  0.749939  0.000000  1
  Sb  Sb11  1  0.750000  0.250000  0.500000  1
  Sb  Sb12  1  0.250000  0.750000  0.500000  1
  Au  Au13  1  0.000000  0.500000  0.500000  1
  Au  Au14  1  0.500000  0.000000  0.500000  1
