# generated using pymatgen
data_Rb4MgMnSe4
_symmetry_space_group_name_H-M   'P 1'
_cell_length_a   8.55665075
_cell_length_b   8.55665145
_cell_length_c   8.55665080
_cell_angle_alpha   134.09536354
_cell_angle_beta   128.73811635
_cell_angle_gamma   71.23929637
_symmetry_Int_Tables_number   1
_chemical_formula_structural   Rb4MgMnSe4
_chemical_formula_sum   'Rb4 Mg1 Mn1 Se4'
_cell_volume   343.63218843
_cell_formula_units_Z   1
loop_
 _symmetry_equiv_pos_site_id
 _symmetry_equiv_pos_as_xyz
  1  'x, y, z'
loop_
 _atom_site_type_symbol
 _atom_site_label
 _atom_site_symmetry_multiplicity
 _atom_site_fract_x
 _atom_site_fract_y
 _atom_site_fract_z
 _atom_site_occupancy
  Rb  Rb0  1  0.812915  0.645805  0.165604  1
  Rb  Rb1  1  0.187085  0.352688  0.832889  1
  Rb  Rb2  1  0.519799  0.854195  0.667111  1
  Rb  Rb3  1  0.480201  0.147312  0.334396  1
  Mg  Mg4  1  0.000000  0.750000  0.750000  1
  Mn  Mn5  1  0.000000  0.250000  0.250000  1
  Se  Se6  1  0.288625  0.597187  0.682798  1
  Se  Se7  1  0.085611  0.902813  0.191438  1
  Se  Se8  1  0.914389  0.105827  0.817202  1
  Se  Se9  1  0.711375  0.394173  0.308562  1
