# generated using pymatgen
data_Tb3Ce(Ta3Si4)2
_symmetry_space_group_name_H-M   'P 1'
_cell_length_a   7.06392321
_cell_length_b   7.06035836
_cell_length_c   13.08549500
_cell_angle_alpha   90.00000000
_cell_angle_beta   90.00000000
_cell_angle_gamma   90.03217765
_symmetry_Int_Tables_number   1
_chemical_formula_structural   Tb3Ce(Ta3Si4)2
_chemical_formula_sum   'Tb6 Ce2 Ta12 Si16'
_cell_volume   652.62364067
_cell_formula_units_Z   2
loop_
 _symmetry_equiv_pos_site_id
 _symmetry_equiv_pos_as_xyz
  1  'x, y, z'
loop_
 _atom_site_type_symbol
 _atom_site_label
 _atom_site_symmetry_multiplicity
 _atom_site_fract_x
 _atom_site_fract_y
 _atom_site_fract_z
 _atom_site_occupancy
  Tb  Tb0  1  0.158415  0.497764  0.467891  1
  Tb  Tb1  1  0.502814  0.841887  0.032399  1
  Tb  Tb2  1  0.841585  0.502236  0.967891  1
  Tb  Tb3  1  0.497186  0.158113  0.532399  1
  Tb  Tb4  1  0.341287  0.995322  0.782506  1
  Tb  Tb5  1  0.658713  0.004678  0.282506  1
  Ce  Ce6  1  0.994688  0.341295  0.217011  1
  Ce  Ce7  1  0.005312  0.658705  0.717011  1
  Ta  Ta8  1  0.171007  0.172265  0.000522  1
  Ta  Ta9  1  0.828993  0.827735  0.500522  1
  Ta  Ta10  1  0.326600  0.670973  0.249374  1
  Ta  Ta11  1  0.673400  0.329027  0.749374  1
  Ta  Ta12  1  0.152903  0.994116  0.375242  1
  Ta  Ta13  1  0.847097  0.005884  0.875242  1
  Ta  Ta14  1  0.506781  0.651911  0.625692  1
  Ta  Ta15  1  0.346483  0.493036  0.874436  1
  Ta  Ta16  1  0.493219  0.348089  0.125692  1
  Ta  Ta17  1  0.653517  0.506964  0.374436  1
  Ta  Ta18  1  0.992196  0.152679  0.625250  1
  Ta  Ta19  1  0.007804  0.847321  0.125250  1
  Si  Si20  1  0.366448  0.298184  0.317552  1
  Si  Si21  1  0.633552  0.701816  0.817552  1
  Si  Si22  1  0.204071  0.867331  0.565534  1
  Si  Si23  1  0.134344  0.797495  0.933694  1
  Si  Si24  1  0.795929  0.132669  0.065534  1
  Si  Si25  1  0.865656  0.202505  0.433694  1
  Si  Si26  1  0.298315  0.364025  0.683325  1
  Si  Si27  1  0.701685  0.635975  0.183325  1
  Si  Si28  1  0.294830  0.045825  0.186019  1
  Si  Si29  1  0.705170  0.954175  0.686019  1
  Si  Si30  1  0.454660  0.793608  0.435679  1
  Si  Si31  1  0.207320  0.546753  0.062991  1
  Si  Si32  1  0.545340  0.206392  0.935679  1
  Si  Si33  1  0.792680  0.453247  0.562991  1
  Si  Si34  1  0.045889  0.291384  0.814885  1
  Si  Si35  1  0.954111  0.708616  0.314885  1
