# generated using pymatgen
data_Pr3ThN4
_symmetry_space_group_name_H-M   'P 1'
_cell_length_a   6.38409413
_cell_length_b   6.38398689
_cell_length_c   5.20863717
_cell_angle_alpha   65.92547059
_cell_angle_beta   65.92328449
_cell_angle_gamma   48.15125561
_symmetry_Int_Tables_number   1
_chemical_formula_structural   Pr3ThN4
_chemical_formula_sum   'Pr3 Th1 N4'
_cell_volume   141.46892205
_cell_formula_units_Z   1
loop_
 _symmetry_equiv_pos_site_id
 _symmetry_equiv_pos_as_xyz
  1  'x, y, z'
loop_
 _atom_site_type_symbol
 _atom_site_label
 _atom_site_symmetry_multiplicity
 _atom_site_fract_x
 _atom_site_fract_y
 _atom_site_fract_z
 _atom_site_occupancy
  Pr  Pr0  1  0.746979  0.753021  0.753021  1
  Pr  Pr1  1  0.246979  0.253021  0.253021  1
  Pr  Pr2  1  0.496990  0.503010  0.503010  1
  Th  Th3  1  0.997744  0.002256  0.002256  1
  N  N4  1  0.997926  0.002074  0.506512  1
  N  N5  1  0.234591  0.238765  0.765409  1
  N  N6  1  0.493488  0.506512  0.002074  1
  N  N7  1  0.761235  0.765409  0.238765  1
