# generated using pymatgen
data_NaOsBr6
_symmetry_space_group_name_H-M   'P 1'
_cell_length_a   10.53045720
_cell_length_b   10.52982300
_cell_length_c   10.52952917
_cell_angle_alpha   85.74460053
_cell_angle_beta   85.74476204
_cell_angle_gamma   85.74518861
_symmetry_Int_Tables_number   1
_chemical_formula_structural   NaOsBr6
_chemical_formula_sum   'Na4 Os4 Br24'
_cell_volume   1158.35369782
_cell_formula_units_Z   4
loop_
 _symmetry_equiv_pos_site_id
 _symmetry_equiv_pos_as_xyz
  1  'x, y, z'
loop_
 _atom_site_type_symbol
 _atom_site_label
 _atom_site_symmetry_multiplicity
 _atom_site_fract_x
 _atom_site_fract_y
 _atom_site_fract_z
 _atom_site_occupancy
  Na  Na0  1  0.336054  0.336052  0.336052  1
  Na  Na1  1  0.167355  0.670158  0.168416  1
  Na  Na2  1  0.168423  0.167335  0.670162  1
  Na  Na3  1  0.670169  0.168414  0.167347  1
  Os  Os4  1  0.504450  0.990869  0.503705  1
  Os  Os5  1  0.998905  0.998908  0.998911  1
  Os  Os6  1  0.503698  0.504447  0.990859  1
  Os  Os7  1  0.990860  0.503700  0.504444  1
  Br  Br8  1  0.927250  0.283085  0.564579  1
  Br  Br9  1  0.424250  0.783601  0.565162  1
  Br  Br10  1  0.070128  0.216182  0.934289  1
  Br  Br11  1  0.565163  0.424274  0.783638  1
  Br  Br12  1  0.934305  0.070124  0.216143  1
  Br  Br13  1  0.436029  0.070923  0.716452  1
  Br  Br14  1  0.564569  0.927263  0.283124  1
  Br  Br15  1  0.068356  0.427140  0.284262  1
  Br  Br16  1  0.214917  0.435915  0.576935  1
  Br  Br17  1  0.216161  0.934295  0.070128  1
  Br  Br18  1  0.576941  0.214956  0.435913  1
  Br  Br19  1  0.925867  0.782920  0.064718  1
  Br  Br20  1  0.783638  0.565152  0.424251  1
  Br  Br21  1  0.716409  0.928967  0.571656  1
  Br  Br22  1  0.427137  0.284234  0.068369  1
  Br  Br23  1  0.284256  0.068361  0.427135  1
  Br  Br24  1  0.435914  0.576928  0.214914  1
  Br  Br25  1  0.782947  0.064703  0.925870  1
  Br  Br26  1  0.070951  0.716479  0.436020  1
  Br  Br27  1  0.571646  0.716446  0.928974  1
  Br  Br28  1  0.928982  0.571637  0.716400  1
  Br  Br29  1  0.716452  0.436037  0.070940  1
  Br  Br30  1  0.283108  0.564587  0.927240  1
  Br  Br31  1  0.064670  0.925871  0.782955  1
