# generated using pymatgen
data_Tb7Er3Si5Bi
_symmetry_space_group_name_H-M   'P 1'
_cell_length_a   8.54351610
_cell_length_b   8.58993236
_cell_length_c   6.37403805
_cell_angle_alpha   90.00789119
_cell_angle_beta   90.00650566
_cell_angle_gamma   119.83760846
_symmetry_Int_Tables_number   1
_chemical_formula_structural   Tb7Er3Si5Bi
_chemical_formula_sum   'Tb7 Er3 Si5 Bi1'
_cell_volume   405.77005767
_cell_formula_units_Z   1
loop_
 _symmetry_equiv_pos_site_id
 _symmetry_equiv_pos_as_xyz
  1  'x, y, z'
loop_
 _atom_site_type_symbol
 _atom_site_label
 _atom_site_symmetry_multiplicity
 _atom_site_fract_x
 _atom_site_fract_y
 _atom_site_fract_z
 _atom_site_occupancy
  Tb  Tb0  1  0.984952  0.743673  0.749711  1
  Tb  Tb1  1  0.997737  0.244326  0.250342  1
  Tb  Tb2  1  0.753667  0.755492  0.250469  1
  Tb  Tb3  1  0.766852  0.000157  0.749738  1
  Tb  Tb4  1  0.241321  0.256232  0.749581  1
  Tb  Tb5  1  0.241674  0.000129  0.250119  1
  Tb  Tb6  1  0.330568  0.653760  0.004881  1
  Er  Er7  1  0.330533  0.653550  0.495063  1
  Er  Er8  1  0.677097  0.346753  0.004841  1
  Er  Er9  1  0.676976  0.346370  0.495158  1
  Si  Si10  1  0.393958  0.390111  0.251420  1
  Si  Si11  1  0.001735  0.608854  0.251140  1
  Si  Si12  1  0.997268  0.393950  0.748818  1
  Si  Si13  1  0.604248  0.604886  0.748698  1
  Si  Si14  1  0.606991  0.000861  0.250786  1
  Bi  Bi15  1  0.394422  0.000895  0.749235  1
