# generated using pymatgen
data_Tb3Nd3Dy10(CdPt)4
_symmetry_space_group_name_H-M   'P 1'
_cell_length_a   9.77052546
_cell_length_b   9.72793176
_cell_length_c   9.74812337
_cell_angle_alpha   60.22080009
_cell_angle_beta   60.09738424
_cell_angle_gamma   59.99202945
_symmetry_Int_Tables_number   1
_chemical_formula_structural   Tb3Nd3Dy10(CdPt)4
_chemical_formula_sum   'Tb3 Nd3 Dy10 Cd4 Pt4'
_cell_volume   656.68533529
_cell_formula_units_Z   1
loop_
 _symmetry_equiv_pos_site_id
 _symmetry_equiv_pos_as_xyz
  1  'x, y, z'
loop_
 _atom_site_type_symbol
 _atom_site_label
 _atom_site_symmetry_multiplicity
 _atom_site_fract_x
 _atom_site_fract_y
 _atom_site_fract_z
 _atom_site_occupancy
  Tb  Tb0  1  0.938146  0.562614  0.560235  1
  Tb  Tb1  1  0.560235  0.939006  0.938146  1
  Tb  Tb2  1  0.562580  0.937420  0.562580  1
  Nd  Nd3  1  0.936638  0.563362  0.936638  1
  Nd  Nd4  1  0.563061  0.566455  0.935111  1
  Nd  Nd5  1  0.935111  0.935373  0.563061  1
  Dy  Dy6  1  0.350887  0.349932  0.351543  1
  Dy  Dy7  1  0.352713  0.350632  0.945344  1
  Dy  Dy8  1  0.351543  0.947638  0.350887  1
  Dy  Dy9  1  0.945344  0.351310  0.352713  1
  Dy  Dy10  1  0.810918  0.188123  0.190371  1
  Dy  Dy11  1  0.190371  0.810589  0.810918  1
  Dy  Dy12  1  0.189790  0.810210  0.189790  1
  Dy  Dy13  1  0.811072  0.188928  0.811072  1
  Dy  Dy14  1  0.189986  0.188808  0.810842  1
  Dy  Dy15  1  0.810842  0.810365  0.189986  1
  Cd  Cd16  1  0.581898  0.581546  0.579031  1
  Cd  Cd17  1  0.579715  0.582047  0.258702  1
  Cd  Cd18  1  0.579031  0.257525  0.581898  1
  Cd  Cd19  1  0.258702  0.579537  0.579715  1
  Pt  Pt20  1  0.144401  0.142994  0.142317  1
  Pt  Pt21  1  0.143519  0.143846  0.571179  1
  Pt  Pt22  1  0.142317  0.570287  0.144401  1
  Pt  Pt23  1  0.571179  0.141454  0.143519  1
