# generated using pymatgen
data_Lu10Al3Re
_symmetry_space_group_name_H-M   'P 1'
_cell_length_a   9.25596806
_cell_length_b   9.25636194
_cell_length_c   9.57768900
_cell_angle_alpha   90.00000000
_cell_angle_beta   90.00000000
_cell_angle_gamma   120.01706524
_symmetry_Int_Tables_number   1
_chemical_formula_structural   Lu10Al3Re
_chemical_formula_sum   'Lu20 Al6 Re2'
_cell_volume   710.52412878
_cell_formula_units_Z   2
loop_
 _symmetry_equiv_pos_site_id
 _symmetry_equiv_pos_as_xyz
  1  'x, y, z'
loop_
 _atom_site_type_symbol
 _atom_site_label
 _atom_site_symmetry_multiplicity
 _atom_site_fract_x
 _atom_site_fract_y
 _atom_site_fract_z
 _atom_site_occupancy
  Lu  Lu0  1  0.000000  0.000000  0.500000  1
  Lu  Lu1  1  0.000000  0.000000  0.000000  1
  Lu  Lu2  1  0.206368  0.793758  0.442653  1
  Lu  Lu3  1  0.206485  0.412956  0.442605  1
  Lu  Lu4  1  0.587101  0.793571  0.442559  1
  Lu  Lu5  1  0.793632  0.206242  0.557347  1
  Lu  Lu6  1  0.793515  0.587044  0.557395  1
  Lu  Lu7  1  0.412899  0.206429  0.557441  1
  Lu  Lu8  1  0.793632  0.206242  0.942653  1
  Lu  Lu9  1  0.793515  0.587044  0.942605  1
  Lu  Lu10  1  0.412899  0.206429  0.942559  1
  Lu  Lu11  1  0.206368  0.793758  0.057347  1
  Lu  Lu12  1  0.206485  0.412956  0.057395  1
  Lu  Lu13  1  0.587101  0.793571  0.057441  1
  Lu  Lu14  1  0.537192  0.462875  0.250000  1
  Lu  Lu15  1  0.537276  0.074469  0.250000  1
  Lu  Lu16  1  0.925803  0.462935  0.250000  1
  Lu  Lu17  1  0.462808  0.537125  0.750000  1
  Lu  Lu18  1  0.462724  0.925531  0.750000  1
  Lu  Lu19  1  0.074197  0.537065  0.750000  1
  Al  Al20  1  0.890080  0.110031  0.250000  1
  Al  Al21  1  0.889991  0.780034  0.250000  1
  Al  Al22  1  0.220050  0.110111  0.250000  1
  Al  Al23  1  0.109920  0.889969  0.750000  1
  Al  Al24  1  0.110009  0.219966  0.750000  1
  Al  Al25  1  0.779950  0.889889  0.750000  1
  Re  Re26  1  0.332975  0.667003  0.250000  1
  Re  Re27  1  0.667025  0.332997  0.750000  1
