# generated using pymatgen
data_Sm(CdAu2)2
_symmetry_space_group_name_H-M   'P 1'
_cell_length_a   5.82976051
_cell_length_b   5.82976061
_cell_length_c   5.82976101
_cell_angle_alpha   103.32269686
_cell_angle_beta   103.32269651
_cell_angle_gamma   122.62441507
_symmetry_Int_Tables_number   1
_chemical_formula_structural   Sm(CdAu2)2
_chemical_formula_sum   'Sm1 Cd2 Au4'
_cell_volume   146.38673140
_cell_formula_units_Z   1
loop_
 _symmetry_equiv_pos_site_id
 _symmetry_equiv_pos_as_xyz
  1  'x, y, z'
loop_
 _atom_site_type_symbol
 _atom_site_label
 _atom_site_symmetry_multiplicity
 _atom_site_fract_x
 _atom_site_fract_y
 _atom_site_fract_z
 _atom_site_occupancy
  Sm  Sm0  1  0.000000  0.000000  0.000000  1
  Cd  Cd1  1  0.250000  0.750000  0.500000  1
  Cd  Cd2  1  0.750000  0.250000  0.500000  1
  Au  Au3  1  0.303541  0.303541  0.607081  1
  Au  Au4  1  0.696459  0.696459  0.392919  1
  Au  Au5  1  0.696459  0.303541  0.000000  1
  Au  Au6  1  0.303541  0.696459  0.000000  1
