# generated using pymatgen
data_MoP8W
_symmetry_space_group_name_H-M   'P 1'
_cell_length_a   6.21003420
_cell_length_b   6.21003492
_cell_length_c   5.86243072
_cell_angle_alpha   81.23024674
_cell_angle_beta   81.23023631
_cell_angle_gamma   129.07130342
_symmetry_Int_Tables_number   1
_chemical_formula_structural   MoP8W
_chemical_formula_sum   'Mo1 P8 W1'
_cell_volume   164.11506216
_cell_formula_units_Z   1
loop_
 _symmetry_equiv_pos_site_id
 _symmetry_equiv_pos_as_xyz
  1  'x, y, z'
loop_
 _atom_site_type_symbol
 _atom_site_label
 _atom_site_symmetry_multiplicity
 _atom_site_fract_x
 _atom_site_fract_y
 _atom_site_fract_z
 _atom_site_occupancy
  Mo  Mo0  1  0.941030  0.058970  0.250000  1
  P  P1  1  0.944915  0.500770  0.688665  1
  P  P2  1  0.499230  0.055085  0.811335  1
  P  P3  1  0.626387  0.815530  0.683471  1
  P  P4  1  0.184470  0.373613  0.816529  1
  P  P5  1  0.373459  0.184153  0.316879  1
  P  P6  1  0.815847  0.626541  0.183121  1
  P  P7  1  0.500078  0.944302  0.189550  1
  P  P8  1  0.055698  0.499922  0.310450  1
  W  W9  1  0.058885  0.941115  0.750000  1
