# generated using pymatgen
data_Ho16Al4Pd3Rh
_symmetry_space_group_name_H-M   'P 1'
_cell_length_a   9.52433019
_cell_length_b   9.52433073
_cell_length_c   9.55870650
_cell_angle_alpha   60.11889689
_cell_angle_beta   60.11889725
_cell_angle_gamma   60.00000070
_symmetry_Int_Tables_number   1
_chemical_formula_structural   Ho16Al4Pd3Rh
_chemical_formula_sum   'Ho16 Al4 Pd3 Rh1'
_cell_volume   614.23023687
_cell_formula_units_Z   1
loop_
 _symmetry_equiv_pos_site_id
 _symmetry_equiv_pos_as_xyz
  1  'x, y, z'
loop_
 _atom_site_type_symbol
 _atom_site_label
 _atom_site_symmetry_multiplicity
 _atom_site_fract_x
 _atom_site_fract_y
 _atom_site_fract_z
 _atom_site_occupancy
  Ho  Ho0  1  0.185443  0.185443  0.816576  1
  Ho  Ho1  1  0.606614  0.606614  0.180157  1
  Ho  Ho2  1  0.443858  0.056628  0.442887  1
  Ho  Ho3  1  0.441935  0.441935  0.054199  1
  Ho  Ho4  1  0.812539  0.185443  0.816576  1
  Ho  Ho5  1  0.184457  0.814230  0.187082  1
  Ho  Ho6  1  0.441935  0.061932  0.054199  1
  Ho  Ho7  1  0.185443  0.812539  0.816576  1
  Ho  Ho8  1  0.061932  0.441935  0.054199  1
  Ho  Ho9  1  0.814230  0.814230  0.187082  1
  Ho  Ho10  1  0.185389  0.602995  0.608620  1
  Ho  Ho11  1  0.056628  0.443858  0.442887  1
  Ho  Ho12  1  0.056628  0.056628  0.442887  1
  Ho  Ho13  1  0.814230  0.184457  0.187082  1
  Ho  Ho14  1  0.602995  0.185389  0.608620  1
  Ho  Ho15  1  0.602995  0.602995  0.608620  1
  Al  Al16  1  0.827978  0.827978  0.826916  1
  Al  Al17  1  0.828143  0.828143  0.515570  1
  Al  Al18  1  0.517130  0.827978  0.826916  1
  Al  Al19  1  0.827978  0.517130  0.826916  1
  Pd  Pd20  1  0.395346  0.816841  0.392468  1
  Pd  Pd21  1  0.395346  0.395346  0.392468  1
  Pd  Pd22  1  0.816841  0.395346  0.392468  1
  Rh  Rh23  1  0.393991  0.393991  0.818029  1
