# generated using pymatgen
data_Tb2Y3AlSb2
_symmetry_space_group_name_H-M   'P 1'
_cell_length_a   8.93920376
_cell_length_b   8.93774974
_cell_length_c   6.45156800
_cell_angle_alpha   90.00082301
_cell_angle_beta   90.00299413
_cell_angle_gamma   120.06229179
_symmetry_Int_Tables_number   1
_chemical_formula_structural   Tb2Y3AlSb2
_chemical_formula_sum   'Tb4 Y6 Al2 Sb4'
_cell_volume   446.11825069
_cell_formula_units_Z   2
loop_
 _symmetry_equiv_pos_site_id
 _symmetry_equiv_pos_as_xyz
  1  'x, y, z'
loop_
 _atom_site_type_symbol
 _atom_site_label
 _atom_site_symmetry_multiplicity
 _atom_site_fract_x
 _atom_site_fract_y
 _atom_site_fract_z
 _atom_site_occupancy
  Tb  Tb0  1  0.668586  0.329088  0.503815  1
  Tb  Tb1  1  0.329167  0.668574  0.503770  1
  Tb  Tb2  1  0.329164  0.668569  0.996224  1
  Tb  Tb3  1  0.757887  0.757868  0.249978  1
  Y  Y4  1  0.668546  0.329231  0.996248  1
  Y  Y5  1  0.239742  0.998734  0.249938  1
  Y  Y6  1  0.998723  0.239714  0.249973  1
  Y  Y7  1  0.237527  0.237429  0.750044  1
  Y  Y8  1  0.761833  0.008167  0.749989  1
  Y  Y9  1  0.008021  0.761692  0.750009  1
  Al  Al10  1  0.396784  0.001149  0.750137  1
  Al  Al11  1  0.000718  0.396584  0.750088  1
  Sb  Sb12  1  0.392781  0.392470  0.249916  1
  Sb  Sb13  1  0.603587  0.998372  0.249860  1
  Sb  Sb14  1  0.997737  0.603352  0.249861  1
  Sb  Sb15  1  0.609199  0.609010  0.750149  1
