# generated using pymatgen
data_Tb16Cd3Co2Ni2Ag
_symmetry_space_group_name_H-M   'P 1'
_cell_length_a   9.54115464
_cell_length_b   9.54115469
_cell_length_c   9.55016973
_cell_angle_alpha   60.10786338
_cell_angle_beta   60.10786315
_cell_angle_gamma   60.12319301
_symmetry_Int_Tables_number   1
_chemical_formula_structural   Tb16Cd3Co2Ni2Ag
_chemical_formula_sum   'Tb16 Cd3 Co2 Ni2 Ag1'
_cell_volume   616.32264300
_cell_formula_units_Z   1
loop_
 _symmetry_equiv_pos_site_id
 _symmetry_equiv_pos_as_xyz
  1  'x, y, z'
loop_
 _atom_site_type_symbol
 _atom_site_label
 _atom_site_symmetry_multiplicity
 _atom_site_fract_x
 _atom_site_fract_y
 _atom_site_fract_z
 _atom_site_occupancy
  Tb  Tb0  1  0.345589  0.345589  0.350602  1
  Tb  Tb1  1  0.347868  0.347868  0.955252  1
  Tb  Tb2  1  0.344971  0.958736  0.348360  1
  Tb  Tb3  1  0.958736  0.344971  0.348360  1
  Tb  Tb4  1  0.814322  0.188938  0.188885  1
  Tb  Tb5  1  0.186973  0.814941  0.808341  1
  Tb  Tb6  1  0.188938  0.814322  0.188885  1
  Tb  Tb7  1  0.814941  0.186973  0.808341  1
  Tb  Tb8  1  0.188438  0.188438  0.811499  1
  Tb  Tb9  1  0.810942  0.810942  0.188100  1
  Tb  Tb10  1  0.933969  0.561832  0.564184  1
  Tb  Tb11  1  0.561824  0.936419  0.936613  1
  Tb  Tb12  1  0.561832  0.933969  0.564184  1
  Tb  Tb13  1  0.936419  0.561824  0.936613  1
  Tb  Tb14  1  0.562991  0.562991  0.935024  1
  Tb  Tb15  1  0.936293  0.936293  0.563250  1
  Cd  Cd16  1  0.580949  0.580949  0.259205  1
  Cd  Cd17  1  0.581202  0.258456  0.581121  1
  Cd  Cd18  1  0.258456  0.581202  0.581121  1
  Co  Co19  1  0.142666  0.142666  0.140951  1
  Co  Co20  1  0.142006  0.142006  0.575818  1
  Ni  Ni21  1  0.142207  0.575237  0.141435  1
  Ni  Ni22  1  0.575237  0.142207  0.141435  1
  Ag  Ag23  1  0.582228  0.582228  0.582417  1
