# generated using pymatgen
data_Pr2Ga4GeRuPt2
_symmetry_space_group_name_H-M   'P 1'
_cell_length_a   8.64830494
_cell_length_b   8.70226708
_cell_length_c   8.70226700
_cell_angle_alpha   140.10710294
_cell_angle_beta   107.03522661
_cell_angle_gamma   86.63183075
_symmetry_Int_Tables_number   1
_chemical_formula_structural   Pr2Ga4GeRuPt2
_chemical_formula_sum   'Pr4 Ga8 Ge2 Ru2 Pt4'
_cell_volume   386.61482495
_cell_formula_units_Z   2
loop_
 _symmetry_equiv_pos_site_id
 _symmetry_equiv_pos_as_xyz
  1  'x, y, z'
loop_
 _atom_site_type_symbol
 _atom_site_label
 _atom_site_symmetry_multiplicity
 _atom_site_fract_x
 _atom_site_fract_y
 _atom_site_fract_z
 _atom_site_occupancy
  Pr  Pr0  1  0.861820  0.632429  0.229390  1
  Pr  Pr1  1  0.138180  0.367571  0.770610  1
  Pr  Pr2  1  0.591983  0.863627  0.728357  1
  Pr  Pr3  1  0.408017  0.136373  0.271643  1
  Ga  Ga4  1  0.500000  0.751564  0.251564  1
  Ga  Ga5  1  0.500000  0.248436  0.748436  1
  Ga  Ga6  1  0.211295  0.961159  0.747980  1
  Ga  Ga7  1  0.788705  0.536684  0.749864  1
  Ga  Ga8  1  0.788705  0.038841  0.252020  1
  Ga  Ga9  1  0.211295  0.463316  0.250136  1
  Ga  Ga10  1  0.064768  0.907318  0.157451  1
  Ga  Ga11  1  0.935232  0.092682  0.842549  1
  Ge  Ge12  1  0.251334  0.594755  0.656580  1
  Ge  Ge13  1  0.748666  0.405245  0.343420  1
  Ru  Ru14  1  0.000000  0.747440  0.747440  1
  Ru  Ru15  1  0.000000  0.252560  0.252560  1
  Pt  Pt16  1  0.249667  0.855827  0.393840  1
  Pt  Pt17  1  0.750333  0.144173  0.606160  1
  Pt  Pt18  1  0.539121  0.643720  0.895399  1
  Pt  Pt19  1  0.460879  0.356280  0.104601  1
