# generated using pymatgen
data_Tb12InCo2Ni2Ag
_symmetry_space_group_name_H-M   'P 1'
_cell_length_a   8.39963247
_cell_length_b   8.39846283
_cell_length_c   8.39963490
_cell_angle_alpha   111.59512140
_cell_angle_beta   109.55798542
_cell_angle_gamma   107.29470734
_symmetry_Int_Tables_number   1
_chemical_formula_structural   Tb12InCo2Ni2Ag
_chemical_formula_sum   'Tb12 In1 Co2 Ni2 Ag1'
_cell_volume   455.46655092
_cell_formula_units_Z   1
loop_
 _symmetry_equiv_pos_site_id
 _symmetry_equiv_pos_as_xyz
  1  'x, y, z'
loop_
 _atom_site_type_symbol
 _atom_site_label
 _atom_site_symmetry_multiplicity
 _atom_site_fract_x
 _atom_site_fract_y
 _atom_site_fract_z
 _atom_site_occupancy
  Tb  Tb0  1  0.426531  0.226942  0.199390  1
  Tb  Tb1  1  0.573469  0.773058  0.800610  1
  Tb  Tb2  1  0.027552  0.226942  0.800412  1
  Tb  Tb3  1  0.972448  0.773058  0.199588  1
  Tb  Tb4  1  0.317414  0.626096  0.308683  1
  Tb  Tb5  1  0.682586  0.373904  0.691317  1
  Tb  Tb6  1  0.317388  0.008698  0.691311  1
  Tb  Tb7  1  0.682612  0.991302  0.308689  1
  Tb  Tb8  1  0.183352  0.290524  0.473958  1
  Tb  Tb9  1  0.816648  0.709475  0.526042  1
  Tb  Tb10  1  0.183433  0.709475  0.892829  1
  Tb  Tb11  1  0.816567  0.290524  0.107171  1
  In  In12  1  0.500000  0.500000  0.000000  1
  Co  Co13  1  0.114256  0.614171  0.499916  1
  Co  Co14  1  0.885744  0.385829  0.500084  1
  Ni  Ni15  1  0.360334  0.000000  0.360334  1
  Ni  Ni16  1  0.639666  0.000000  0.639666  1
  Ag  Ag17  1  0.000000  0.000000  0.000000  1
