# generated using pymatgen
data_Lu2Mn5P7Ir6W
_symmetry_space_group_name_H-M   'P 1'
_cell_length_a   9.39035850
_cell_length_b   9.43363990
_cell_length_c   3.82984300
_cell_angle_alpha   90.00000000
_cell_angle_beta   90.00000000
_cell_angle_gamma   120.25243075
_symmetry_Int_Tables_number   1
_chemical_formula_structural   Lu2Mn5P7Ir6W
_chemical_formula_sum   'Lu2 Mn5 P7 Ir6 W1'
_cell_volume   293.06418242
_cell_formula_units_Z   1
loop_
 _symmetry_equiv_pos_site_id
 _symmetry_equiv_pos_as_xyz
  1  'x, y, z'
loop_
 _atom_site_type_symbol
 _atom_site_label
 _atom_site_symmetry_multiplicity
 _atom_site_fract_x
 _atom_site_fract_y
 _atom_site_fract_z
 _atom_site_occupancy
  Lu  Lu0  1  0.667885  0.334405  0.000000  1
  Lu  Lu1  1  0.998525  0.999109  0.500000  1
  Mn  Mn2  1  0.490820  0.936872  0.000000  1
  Mn  Mn3  1  0.064226  0.554034  0.000000  1
  Mn  Mn4  1  0.442831  0.504564  0.000000  1
  Mn  Mn5  1  0.239552  0.786955  0.500000  1
  Mn  Mn6  1  0.217457  0.452855  0.500000  1
  P  P7  1  0.452759  0.065116  0.500000  1
  P  P8  1  0.937310  0.390852  0.500000  1
  P  P9  1  0.611584  0.545799  0.500000  1
  P  P10  1  0.741443  0.964628  0.000000  1
  P  P11  1  0.035220  0.776629  0.000000  1
  P  P12  1  0.220945  0.254314  0.000000  1
  P  P13  1  0.334151  0.666882  0.000000  1
  Ir  Ir14  1  0.766365  0.737359  0.000000  1
  Ir  Ir15  1  0.266804  0.028837  0.000000  1
  Ir  Ir16  1  0.970415  0.236008  0.000000  1
  Ir  Ir17  1  0.719681  0.115841  0.500000  1
  Ir  Ir18  1  0.890364  0.609676  0.500000  1
  Ir  Ir19  1  0.390207  0.278891  0.500000  1
  W  W20  1  0.541454  0.760375  0.500000  1
