# generated using pymatgen
data_LiZrF5
_symmetry_space_group_name_H-M   'P 1'
_cell_length_a   10.52121600
_cell_length_b   5.47237095
_cell_length_c   6.88937414
_cell_angle_alpha   72.71394289
_cell_angle_beta   90.00000000
_cell_angle_gamma   90.00000000
_symmetry_Int_Tables_number   1
_chemical_formula_structural   LiZrF5
_chemical_formula_sum   'Li4 Zr4 F20'
_cell_volume   378.74657901
_cell_formula_units_Z   4
loop_
 _symmetry_equiv_pos_site_id
 _symmetry_equiv_pos_as_xyz
  1  'x, y, z'
loop_
 _atom_site_type_symbol
 _atom_site_label
 _atom_site_symmetry_multiplicity
 _atom_site_fract_x
 _atom_site_fract_y
 _atom_site_fract_z
 _atom_site_occupancy
  Li  Li0  1  0.741576  0.955760  0.880544  1
  Li  Li1  1  0.758424  0.955760  0.380544  1
  Li  Li2  1  0.241576  0.044240  0.619456  1
  Li  Li3  1  0.258424  0.044240  0.119456  1
  Zr  Zr4  1  0.959720  0.564629  0.736184  1
  Zr  Zr5  1  0.459720  0.435371  0.763816  1
  Zr  Zr6  1  0.540280  0.564629  0.236184  1
  Zr  Zr7  1  0.040280  0.435371  0.263816  1
  F  F8  1  0.088453  0.846355  0.688173  1
  F  F9  1  0.809352  0.813615  0.671642  1
  F  F10  1  0.360048  0.762775  0.677855  1
  F  F11  1  0.593155  0.610493  0.921454  1
  F  F12  1  0.411547  0.846355  0.188173  1
  F  F13  1  0.690648  0.813615  0.171642  1
  F  F14  1  0.139952  0.762775  0.177855  1
  F  F15  1  0.588085  0.633213  0.520543  1
  F  F16  1  0.088085  0.366787  0.979457  1
  F  F17  1  0.906845  0.610493  0.421454  1
  F  F18  1  0.093155  0.389507  0.578546  1
  F  F19  1  0.911915  0.633213  0.020543  1
  F  F20  1  0.411915  0.366787  0.479457  1
  F  F21  1  0.860048  0.237225  0.822145  1
  F  F22  1  0.309352  0.186385  0.828358  1
  F  F23  1  0.588453  0.153645  0.811827  1
  F  F24  1  0.406845  0.389507  0.078546  1
  F  F25  1  0.639952  0.237225  0.322145  1
  F  F26  1  0.190648  0.186385  0.328358  1
  F  F27  1  0.911547  0.153645  0.311827  1
