# generated using pymatgen
data_Ti8Co7Si14Rh
_symmetry_space_group_name_H-M   'P 1'
_cell_length_a   9.22023116
_cell_length_b   9.23216849
_cell_length_c   9.20108540
_cell_angle_alpha   94.28165106
_cell_angle_beta   94.14134352
_cell_angle_gamma   148.58772350
_symmetry_Int_Tables_number   1
_chemical_formula_structural   Ti8Co7Si14Rh
_chemical_formula_sum   'Ti8 Co7 Si14 Rh1'
_cell_volume   392.90041199
_cell_formula_units_Z   1
loop_
 _symmetry_equiv_pos_site_id
 _symmetry_equiv_pos_as_xyz
  1  'x, y, z'
loop_
 _atom_site_type_symbol
 _atom_site_label
 _atom_site_symmetry_multiplicity
 _atom_site_fract_x
 _atom_site_fract_y
 _atom_site_fract_z
 _atom_site_occupancy
  Ti  Ti0  1  0.135552  0.135574  0.271138  1
  Ti  Ti1  1  0.864905  0.864779  0.729710  1
  Ti  Ti2  1  0.863937  0.133250  0.000711  1
  Ti  Ti3  1  0.136745  0.867539  0.000867  1
  Ti  Ti4  1  0.501369  0.691985  0.193425  1
  Ti  Ti5  1  0.498231  0.307758  0.808135  1
  Ti  Ti6  1  0.309925  0.500177  0.808010  1
  Ti  Ti7  1  0.691907  0.501485  0.193445  1
  Co  Co8  1  0.103021  0.603050  0.206060  1
  Co  Co9  1  0.101068  0.899384  0.500473  1
  Co  Co10  1  0.399394  0.601090  0.500534  1
  Co  Co11  1  0.597615  0.399145  0.496953  1
  Co  Co12  1  0.899408  0.097818  0.496984  1
  Co  Co13  1  0.899427  0.399387  0.798747  1
  Co  Co14  1  0.598870  0.098910  0.197755  1
  Si  Si15  1  0.293858  0.293676  0.587681  1
  Si  Si16  1  0.706032  0.705933  0.411872  1
  Si  Si17  1  0.722449  0.313999  0.005057  1
  Si  Si18  1  0.282650  0.691182  0.005094  1
  Si  Si19  1  0.998790  0.291739  0.292538  1
  Si  Si20  1  0.986691  0.699719  0.706168  1
  Si  Si21  1  0.719603  0.006586  0.706245  1
  Si  Si22  1  0.293708  0.000790  0.292683  1
  Si  Si23  1  0.503212  0.908151  0.405672  1
  Si  Si24  1  0.512775  0.109804  0.588884  1
  Si  Si25  1  0.076037  0.479143  0.588861  1
  Si  Si26  1  0.902439  0.497632  0.405665  1
  Si  Si27  1  0.749606  0.749735  0.000606  1
  Si  Si28  1  0.251042  0.250869  0.000603  1
  Rh  Rh29  1  0.399736  0.899711  0.799428  1
