# generated using pymatgen
data_SnCl30
_symmetry_space_group_name_H-M   'P 1'
_cell_length_a   13.50386329
_cell_length_b   13.50385409
_cell_length_c   16.10234001
_cell_angle_alpha   83.51104899
_cell_angle_beta   83.51078010
_cell_angle_gamma   123.78784825
_symmetry_Int_Tables_number   1
_chemical_formula_structural   SnCl30
_chemical_formula_sum   'Sn1 Cl30'
_cell_volume   2369.13064259
_cell_formula_units_Z   1
loop_
 _symmetry_equiv_pos_site_id
 _symmetry_equiv_pos_as_xyz
  1  'x, y, z'
loop_
 _atom_site_type_symbol
 _atom_site_label
 _atom_site_symmetry_multiplicity
 _atom_site_fract_x
 _atom_site_fract_y
 _atom_site_fract_z
 _atom_site_occupancy
  Sn  Sn0  1  0.000000  0.000000  0.000000  1
  Cl  Cl1  1  0.940577  0.940577  0.164406  1
  Cl  Cl2  1  0.059423  0.059423  0.835594  1
  Cl  Cl3  1  0.063575  0.205364  0.005712  1
  Cl  Cl4  1  0.936425  0.794636  0.994288  1
  Cl  Cl5  1  0.205364  0.063575  0.005712  1
  Cl  Cl6  1  0.794636  0.936425  0.994288  1
  Cl  Cl7  1  0.203100  0.742757  0.063569  1
  Cl  Cl8  1  0.796900  0.257243  0.936431  1
  Cl  Cl9  1  0.701641  0.077992  0.260469  1
  Cl  Cl10  1  0.257243  0.796900  0.936431  1
  Cl  Cl11  1  0.298359  0.922008  0.739531  1
  Cl  Cl12  1  0.742757  0.203100  0.063569  1
  Cl  Cl13  1  0.981710  0.195431  0.778887  1
  Cl  Cl14  1  0.922009  0.298357  0.739532  1
  Cl  Cl15  1  0.018290  0.804569  0.221113  1
  Cl  Cl16  1  0.077991  0.701643  0.260468  1
  Cl  Cl17  1  0.804571  0.018288  0.221112  1
  Cl  Cl18  1  0.195429  0.981712  0.778888  1
  Cl  Cl19  1  0.464294  0.547861  0.259728  1
  Cl  Cl20  1  0.535706  0.452139  0.740272  1
  Cl  Cl21  1  0.507904  0.206221  0.450779  1
  Cl  Cl22  1  0.452139  0.535706  0.740272  1
  Cl  Cl23  1  0.492096  0.793779  0.549221  1
  Cl  Cl24  1  0.547861  0.464294  0.259728  1
  Cl  Cl25  1  0.239731  0.428764  0.544698  1
  Cl  Cl26  1  0.793779  0.492096  0.549221  1
  Cl  Cl27  1  0.760269  0.571236  0.455302  1
  Cl  Cl28  1  0.206221  0.507904  0.450779  1
  Cl  Cl29  1  0.571236  0.760268  0.455302  1
  Cl  Cl30  1  0.428764  0.239732  0.544698  1
