# generated using pymatgen
data_Hf11Zr8Si16Pt
_symmetry_space_group_name_H-M   'P 1'
_cell_length_a   7.09958589
_cell_length_b   7.09958589
_cell_length_c   12.83588596
_cell_angle_alpha   89.62363597
_cell_angle_beta   89.62363597
_cell_angle_gamma   90.00227769
_symmetry_Int_Tables_number   1
_chemical_formula_structural   Hf11Zr8Si16Pt
_chemical_formula_sum   'Hf11 Zr8 Si16 Pt1'
_cell_volume   646.95361455
_cell_formula_units_Z   1
loop_
 _symmetry_equiv_pos_site_id
 _symmetry_equiv_pos_as_xyz
  1  'x, y, z'
loop_
 _atom_site_type_symbol
 _atom_site_label
 _atom_site_symmetry_multiplicity
 _atom_site_fract_x
 _atom_site_fract_y
 _atom_site_fract_z
 _atom_site_occupancy
  Hf  Hf0  1  0.324773  0.675227  0.250000  1
  Hf  Hf1  1  0.821732  0.820988  0.502417  1
  Hf  Hf2  1  0.179012  0.178268  0.997583  1
  Hf  Hf3  1  0.501050  0.355869  0.124956  1
  Hf  Hf4  1  0.502748  0.641193  0.632107  1
  Hf  Hf5  1  0.858537  0.004220  0.876930  1
  Hf  Hf6  1  0.146007  0.997664  0.378550  1
  Hf  Hf7  1  0.644131  0.498950  0.375044  1
  Hf  Hf8  1  0.358807  0.497252  0.867893  1
  Hf  Hf9  1  0.002336  0.853993  0.121450  1
  Hf  Hf10  1  0.995780  0.141463  0.623070  1
  Zr  Zr11  1  0.496020  0.149029  0.536842  1
  Zr  Zr12  1  0.503233  0.849881  0.032143  1
  Zr  Zr13  1  0.649953  0.002832  0.284923  1
  Zr  Zr14  1  0.347606  0.006344  0.782443  1
  Zr  Zr15  1  0.850971  0.503980  0.963158  1
  Zr  Zr16  1  0.150119  0.496767  0.467857  1
  Zr  Zr17  1  0.993656  0.652394  0.717557  1
  Zr  Zr18  1  0.997168  0.350047  0.215077  1
  Si  Si19  1  0.796318  0.147561  0.071626  1
  Si  Si20  1  0.204109  0.849864  0.574623  1
  Si  Si21  1  0.639657  0.720885  0.827152  1
  Si  Si22  1  0.353004  0.294524  0.323032  1
  Si  Si23  1  0.852439  0.203682  0.428374  1
  Si  Si24  1  0.150136  0.795891  0.925377  1
  Si  Si25  1  0.705476  0.646996  0.176968  1
  Si  Si26  1  0.279115  0.360343  0.672848  1
  Si  Si27  1  0.557847  0.205185  0.933850  1
  Si  Si28  1  0.449370  0.796908  0.438873  1
  Si  Si29  1  0.702725  0.945939  0.689153  1
  Si  Si30  1  0.300413  0.050952  0.186247  1
  Si  Si31  1  0.794815  0.442153  0.566150  1
  Si  Si32  1  0.203092  0.550630  0.061127  1
  Si  Si33  1  0.949048  0.699587  0.313753  1
  Si  Si34  1  0.054061  0.297275  0.810847  1
  Pt  Pt35  1  0.684735  0.315265  0.750000  1
