# generated using pymatgen
data_La3Yb(InRh)4
_symmetry_space_group_name_H-M   'P 1'
_cell_length_a   4.32544200
_cell_length_b   7.37787794
_cell_length_c   8.70442590
_cell_angle_alpha   89.72643159
_cell_angle_beta   90.00000000
_cell_angle_gamma   90.00000000
_symmetry_Int_Tables_number   1
_chemical_formula_structural   La3Yb(InRh)4
_chemical_formula_sum   'La3 Yb1 In4 Rh4'
_cell_volume   277.77754879
_cell_formula_units_Z   1
loop_
 _symmetry_equiv_pos_site_id
 _symmetry_equiv_pos_as_xyz
  1  'x, y, z'
loop_
 _atom_site_type_symbol
 _atom_site_label
 _atom_site_symmetry_multiplicity
 _atom_site_fract_x
 _atom_site_fract_y
 _atom_site_fract_z
 _atom_site_occupancy
  La  La0  1  0.250000  0.035186  0.181046  1
  La  La1  1  0.750000  0.962812  0.818250  1
  La  La2  1  0.250000  0.534176  0.323209  1
  Yb  Yb3  1  0.750000  0.464585  0.680821  1
  In  In4  1  0.750000  0.362722  0.055540  1
  In  In5  1  0.250000  0.632776  0.934788  1
  In  In6  1  0.750000  0.858220  0.444225  1
  In  In7  1  0.250000  0.149611  0.562622  1
  Rh  Rh8  1  0.250000  0.759583  0.631623  1
  Rh  Rh9  1  0.750000  0.240534  0.365246  1
  Rh  Rh10  1  0.250000  0.255453  0.869598  1
  Rh  Rh11  1  0.750000  0.744342  0.133032  1
