# generated using pymatgen
data_BaNaRuO5
_symmetry_space_group_name_H-M   'P 1'
_cell_length_a   10.34506020
_cell_length_b   10.34506020
_cell_length_c   8.60336300
_cell_angle_alpha   90.00000000
_cell_angle_beta   90.00000000
_cell_angle_gamma   120.00000131
_symmetry_Int_Tables_number   1
_chemical_formula_structural   BaNaRuO5
_chemical_formula_sum   'Ba6 Na6 Ru6 O30'
_cell_volume   797.37922856
_cell_formula_units_Z   6
loop_
 _symmetry_equiv_pos_site_id
 _symmetry_equiv_pos_as_xyz
  1  'x, y, z'
loop_
 _atom_site_type_symbol
 _atom_site_label
 _atom_site_symmetry_multiplicity
 _atom_site_fract_x
 _atom_site_fract_y
 _atom_site_fract_z
 _atom_site_occupancy
  Ba  Ba0  1  0.333333  0.666667  0.478181  1
  Ba  Ba1  1  0.666667  0.333333  0.521819  1
  Ba  Ba2  1  0.666667  0.333333  0.978181  1
  Ba  Ba3  1  0.000000  0.000000  0.000000  1
  Ba  Ba4  1  0.333333  0.666667  0.021819  1
  Ba  Ba5  1  0.000000  0.000000  0.500000  1
  Na  Na6  1  0.638824  0.953642  0.750000  1
  Na  Na7  1  0.046358  0.685183  0.750000  1
  Na  Na8  1  0.685183  0.638824  0.250000  1
  Na  Na9  1  0.314817  0.361176  0.750000  1
  Na  Na10  1  0.953642  0.314817  0.250000  1
  Na  Na11  1  0.361176  0.046358  0.250000  1
  Ru  Ru12  1  0.653993  0.969260  0.250000  1
  Ru  Ru13  1  0.969260  0.315267  0.750000  1
  Ru  Ru14  1  0.346007  0.030740  0.750000  1
  Ru  Ru15  1  0.030740  0.684733  0.250000  1
  Ru  Ru16  1  0.315267  0.346007  0.250000  1
  Ru  Ru17  1  0.684733  0.653993  0.750000  1
  O  O18  1  0.064684  0.200524  0.750000  1
  O  O19  1  0.232595  0.354671  0.430764  1
  O  O20  1  0.559589  0.123825  0.750000  1
  O  O21  1  0.336797  0.848651  0.750000  1
  O  O22  1  0.645329  0.877925  0.069236  1
  O  O23  1  0.645329  0.877925  0.430764  1
  O  O24  1  0.767405  0.645329  0.930764  1
  O  O25  1  0.151349  0.488146  0.750000  1
  O  O26  1  0.488146  0.336797  0.250000  1
  O  O27  1  0.799476  0.864159  0.750000  1
  O  O28  1  0.354671  0.122075  0.930764  1
  O  O29  1  0.877925  0.232595  0.569236  1
  O  O30  1  0.877925  0.232595  0.930764  1
  O  O31  1  0.122075  0.767405  0.430764  1
  O  O32  1  0.935316  0.799476  0.250000  1
  O  O33  1  0.848651  0.511854  0.250000  1
  O  O34  1  0.864159  0.064684  0.250000  1
  O  O35  1  0.876175  0.435764  0.750000  1
  O  O36  1  0.354671  0.122075  0.569236  1
  O  O37  1  0.440411  0.876175  0.250000  1
  O  O38  1  0.135841  0.935316  0.750000  1
  O  O39  1  0.511854  0.663203  0.750000  1
  O  O40  1  0.435764  0.559589  0.250000  1
  O  O41  1  0.767405  0.645329  0.569236  1
  O  O42  1  0.232595  0.354671  0.069236  1
  O  O43  1  0.122075  0.767405  0.069236  1
  O  O44  1  0.564236  0.440411  0.750000  1
  O  O45  1  0.663203  0.151349  0.250000  1
  O  O46  1  0.123825  0.564236  0.250000  1
  O  O47  1  0.200524  0.135841  0.250000  1
