# generated using pymatgen
data_Y4Ho4Ti3Si16W9
_symmetry_space_group_name_H-M   'P 1'
_cell_length_a   6.90162500
_cell_length_b   6.90172614
_cell_length_c   12.80939011
_cell_angle_alpha   89.97151916
_cell_angle_beta   90.02380390
_cell_angle_gamma   89.87539253
_symmetry_Int_Tables_number   1
_chemical_formula_structural   Y4Ho4Ti3Si16W9
_chemical_formula_sum   'Y4 Ho4 Ti3 Si16 W9'
_cell_volume   610.14971743
_cell_formula_units_Z   1
loop_
 _symmetry_equiv_pos_site_id
 _symmetry_equiv_pos_as_xyz
  1  'x, y, z'
loop_
 _atom_site_type_symbol
 _atom_site_label
 _atom_site_symmetry_multiplicity
 _atom_site_fract_x
 _atom_site_fract_y
 _atom_site_fract_z
 _atom_site_occupancy
  Y  Y0  1  0.338842  0.001742  0.468687  1
  Y  Y1  1  0.497129  0.837687  0.719192  1
  Y  Y2  1  0.499330  0.162061  0.217365  1
  Y  Y3  1  0.837887  0.497312  0.280873  1
  Ho  Ho4  1  0.161929  0.499018  0.782603  1
  Ho  Ho5  1  0.660285  0.999442  0.968864  1
  Ho  Ho6  1  0.001532  0.339218  0.531397  1
  Ho  Ho7  1  0.999567  0.660337  0.030994  1
  Ti  Ti8  1  0.170228  0.831713  0.248360  1
  Ti  Ti9  1  0.831933  0.170574  0.751602  1
  Ti  Ti10  1  0.668966  0.668673  0.500194  1
  Si  Si11  1  0.200086  0.129548  0.683276  1
  Si  Si12  1  0.373303  0.698349  0.933357  1
  Si  Si13  1  0.628696  0.298983  0.433840  1
  Si  Si14  1  0.698762  0.373833  0.066204  1
  Si  Si15  1  0.298239  0.627739  0.566686  1
  Si  Si16  1  0.797095  0.872166  0.183497  1
  Si  Si17  1  0.128396  0.200624  0.316740  1
  Si  Si18  1  0.872484  0.796462  0.816476  1
  Si  Si19  1  0.289051  0.963106  0.061864  1
  Si  Si20  1  0.539340  0.791417  0.313694  1
  Si  Si21  1  0.459518  0.209392  0.814330  1
  Si  Si22  1  0.792562  0.539001  0.686247  1
  Si  Si23  1  0.209093  0.460079  0.185597  1
  Si  Si24  1  0.710146  0.040906  0.563914  1
  Si  Si25  1  0.963521  0.289433  0.937716  1
  Si  Si26  1  0.040494  0.709288  0.436298  1
  W  W27  1  0.331728  0.331966  0.999839  1
  W  W28  1  0.157792  0.002528  0.873482  1
  W  W29  1  0.494537  0.665633  0.124740  1
  W  W30  1  0.505790  0.340399  0.625063  1
  W  W31  1  0.665551  0.494568  0.875092  1
  W  W32  1  0.339838  0.505696  0.375313  1
  W  W33  1  0.839771  0.993661  0.374354  1
  W  W34  1  0.002732  0.157986  0.126300  1
  W  W35  1  0.993845  0.839460  0.625949  1
