# generated using pymatgen
data_Lu2Co2Tc
_symmetry_space_group_name_H-M   'P 1'
_cell_length_a   5.44148545
_cell_length_b   5.44148585
_cell_length_c   6.96424300
_cell_angle_alpha   90.00000000
_cell_angle_beta   90.00000000
_cell_angle_gamma   121.04419339
_symmetry_Int_Tables_number   1
_chemical_formula_structural   Lu2Co2Tc
_chemical_formula_sum   'Lu4 Co4 Tc2'
_cell_volume   176.67416043
_cell_formula_units_Z   2
loop_
 _symmetry_equiv_pos_site_id
 _symmetry_equiv_pos_as_xyz
  1  'x, y, z'
loop_
 _atom_site_type_symbol
 _atom_site_label
 _atom_site_symmetry_multiplicity
 _atom_site_fract_x
 _atom_site_fract_y
 _atom_site_fract_z
 _atom_site_occupancy
  Lu  Lu0  1  0.664832  0.335168  0.899965  1
  Lu  Lu1  1  0.335168  0.664832  0.100035  1
  Lu  Lu2  1  0.835168  0.164832  0.399965  1
  Lu  Lu3  1  0.164832  0.835168  0.600035  1
  Co  Co4  1  0.660735  0.839265  0.750000  1
  Co  Co5  1  0.839265  0.660735  0.250000  1
  Co  Co6  1  0.339265  0.160735  0.250000  1
  Co  Co7  1  0.160735  0.339265  0.750000  1
  Tc  Tc8  1  0.500000  0.500000  0.500000  1
  Tc  Tc9  1  0.000000  0.000000  0.000000  1
