# generated using pymatgen
data_Y19Sc(Cd3Tc)2
_symmetry_space_group_name_H-M   'P 1'
_cell_length_a   9.54729800
_cell_length_b   9.54729698
_cell_length_c   9.95916100
_cell_angle_alpha   90.00000000
_cell_angle_beta   90.00000000
_cell_angle_gamma   119.99999662
_symmetry_Int_Tables_number   1
_chemical_formula_structural   Y19Sc(Cd3Tc)2
_chemical_formula_sum   'Y19 Sc1 Cd6 Tc2'
_cell_volume   786.16609483
_cell_formula_units_Z   1
loop_
 _symmetry_equiv_pos_site_id
 _symmetry_equiv_pos_as_xyz
  1  'x, y, z'
loop_
 _atom_site_type_symbol
 _atom_site_label
 _atom_site_symmetry_multiplicity
 _atom_site_fract_x
 _atom_site_fract_y
 _atom_site_fract_z
 _atom_site_occupancy
  Y  Y0  1  0.000000  0.000000  0.000000  1
  Y  Y1  1  0.540342  0.459658  0.249630  1
  Y  Y2  1  0.540342  0.080683  0.249630  1
  Y  Y3  1  0.919317  0.459658  0.249630  1
  Y  Y4  1  0.459658  0.540342  0.750370  1
  Y  Y5  1  0.459658  0.919317  0.750370  1
  Y  Y6  1  0.080683  0.540342  0.750370  1
  Y  Y7  1  0.208297  0.791703  0.440079  1
  Y  Y8  1  0.208297  0.416595  0.440079  1
  Y  Y9  1  0.583405  0.791703  0.440079  1
  Y  Y10  1  0.791703  0.208297  0.559921  1
  Y  Y11  1  0.791703  0.583405  0.559921  1
  Y  Y12  1  0.416595  0.208297  0.559921  1
  Y  Y13  1  0.790177  0.209823  0.941577  1
  Y  Y14  1  0.790177  0.580353  0.941577  1
  Y  Y15  1  0.419647  0.209823  0.941577  1
  Y  Y16  1  0.209823  0.790177  0.058423  1
  Y  Y17  1  0.209823  0.419647  0.058423  1
  Y  Y18  1  0.580353  0.790177  0.058423  1
  Sc  Sc19  1  0.000000  0.000000  0.500000  1
  Cd  Cd20  1  0.887598  0.112402  0.255507  1
  Cd  Cd21  1  0.887598  0.775196  0.255507  1
  Cd  Cd22  1  0.224804  0.112402  0.255507  1
  Cd  Cd23  1  0.112402  0.887598  0.744493  1
  Cd  Cd24  1  0.112402  0.224804  0.744493  1
  Cd  Cd25  1  0.775196  0.887598  0.744493  1
  Tc  Tc26  1  0.333333  0.666667  0.249575  1
  Tc  Tc27  1  0.666667  0.333333  0.750425  1
