# generated using pymatgen
data_LaTmSe2
_symmetry_space_group_name_H-M   'P 1'
_cell_length_a   7.37691001
_cell_length_b   7.37690980
_cell_length_c   7.37690992
_cell_angle_alpha   32.34994048
_cell_angle_beta   32.34994251
_cell_angle_gamma   32.34993724
_symmetry_Int_Tables_number   1
_chemical_formula_structural   LaTmSe2
_chemical_formula_sum   'La1 Tm1 Se2'
_cell_volume   102.18100798
_cell_formula_units_Z   1
loop_
 _symmetry_equiv_pos_site_id
 _symmetry_equiv_pos_as_xyz
  1  'x, y, z'
loop_
 _atom_site_type_symbol
 _atom_site_label
 _atom_site_symmetry_multiplicity
 _atom_site_fract_x
 _atom_site_fract_y
 _atom_site_fract_z
 _atom_site_occupancy
  La  La0  1  0.500000  0.500000  0.500000  1
  Tm  Tm1  1  0.000000  0.000000  0.000000  1
  Se  Se2  1  0.258172  0.258172  0.258172  1
  Se  Se3  1  0.741828  0.741828  0.741828  1
