# generated using pymatgen
data_TbSm7(Si3Pt)4
_symmetry_space_group_name_H-M   'P 1'
_cell_length_a   8.19833700
_cell_length_b   8.20410670
_cell_length_c   8.38689300
_cell_angle_alpha   90.00000000
_cell_angle_beta   90.00000000
_cell_angle_gamma   120.02327318
_symmetry_Int_Tables_number   1
_chemical_formula_structural   TbSm7(Si3Pt)4
_chemical_formula_sum   'Tb1 Sm7 Si12 Pt4'
_cell_volume   488.41264968
_cell_formula_units_Z   1
loop_
 _symmetry_equiv_pos_site_id
 _symmetry_equiv_pos_as_xyz
  1  'x, y, z'
loop_
 _atom_site_type_symbol
 _atom_site_label
 _atom_site_symmetry_multiplicity
 _atom_site_fract_x
 _atom_site_fract_y
 _atom_site_fract_z
 _atom_site_occupancy
  Tb  Tb0  1  0.000420  0.500211  0.750000  1
  Sm  Sm1  1  0.000207  0.000103  0.250000  1
  Sm  Sm2  1  0.999918  0.999960  0.750000  1
  Sm  Sm3  1  0.500117  0.499694  0.250000  1
  Sm  Sm4  1  0.500117  0.000423  0.250000  1
  Sm  Sm5  1  0.999486  0.499743  0.250000  1
  Sm  Sm6  1  0.499740  0.500358  0.750000  1
  Sm  Sm7  1  0.499740  0.999380  0.750000  1
  Si  Si8  1  0.165533  0.834284  0.499571  1
  Si  Si9  1  0.165533  0.331250  0.499571  1
  Si  Si10  1  0.668180  0.834091  0.498442  1
  Si  Si11  1  0.834476  0.165733  0.501759  1
  Si  Si12  1  0.834476  0.668740  0.501759  1
  Si  Si13  1  0.331903  0.165951  0.500971  1
  Si  Si14  1  0.834476  0.165733  0.998241  1
  Si  Si15  1  0.834476  0.668740  0.998241  1
  Si  Si16  1  0.331903  0.165951  0.999029  1
  Si  Si17  1  0.165533  0.834284  0.000429  1
  Si  Si18  1  0.165533  0.331250  0.000429  1
  Si  Si19  1  0.668180  0.834091  0.001558  1
  Pt  Pt20  1  0.332098  0.666050  0.502689  1
  Pt  Pt21  1  0.667931  0.333965  0.502449  1
  Pt  Pt22  1  0.667931  0.333965  0.997551  1
  Pt  Pt23  1  0.332098  0.666050  0.997311  1
