# generated using pymatgen
data_Dy12ZnGa(CoNi)2
_symmetry_space_group_name_H-M   'P 1'
_cell_length_a   8.26874655
_cell_length_b   8.26874752
_cell_length_c   8.26874599
_cell_angle_alpha   112.74716414
_cell_angle_beta   109.37665933
_cell_angle_gamma   106.35319816
_symmetry_Int_Tables_number   1
_chemical_formula_structural   Dy12ZnGa(CoNi)2
_chemical_formula_sum   'Dy12 Zn1 Ga1 Co2 Ni2'
_cell_volume   433.84990728
_cell_formula_units_Z   1
loop_
 _symmetry_equiv_pos_site_id
 _symmetry_equiv_pos_as_xyz
  1  'x, y, z'
loop_
 _atom_site_type_symbol
 _atom_site_label
 _atom_site_symmetry_multiplicity
 _atom_site_fract_x
 _atom_site_fract_y
 _atom_site_fract_z
 _atom_site_occupancy
  Dy  Dy0  1  0.957322  0.263429  0.693894  1
  Dy  Dy1  1  0.042678  0.736571  0.306106  1
  Dy  Dy2  1  0.670281  0.860485  0.190204  1
  Dy  Dy3  1  0.329719  0.519925  0.190204  1
  Dy  Dy4  1  0.329719  0.139515  0.809796  1
  Dy  Dy5  1  0.670281  0.480075  0.809796  1
  Dy  Dy6  1  0.569535  0.263429  0.306106  1
  Dy  Dy7  1  0.430465  0.736571  0.693894  1
  Dy  Dy8  1  0.180341  0.778984  0.959325  1
  Dy  Dy9  1  0.819659  0.778984  0.598645  1
  Dy  Dy10  1  0.180341  0.221016  0.401355  1
  Dy  Dy11  1  0.819659  0.221016  0.040675  1
  Zn  Zn12  1  0.000000  0.500000  0.500000  1
  Ga  Ga13  1  0.500000  0.000000  0.500000  1
  Co  Co14  1  0.662548  0.500000  0.162548  1
  Co  Co15  1  0.337452  0.500000  0.837452  1
  Ni  Ni16  1  0.119400  0.119400  0.000000  1
  Ni  Ni17  1  0.880600  0.880600  0.000000  1
