# generated using pymatgen
data_Hf7ZrFe4(CoP)12
_symmetry_space_group_name_H-M   'P 1'
_cell_length_a   12.05911630
_cell_length_b   12.06363527
_cell_length_c   3.64006500
_cell_angle_alpha   90.00000000
_cell_angle_beta   90.00000000
_cell_angle_gamma   120.21135932
_symmetry_Int_Tables_number   1
_chemical_formula_structural   Hf7ZrFe4(CoP)12
_chemical_formula_sum   'Hf7 Zr1 Fe4 Co12 P12'
_cell_volume   457.61952697
_cell_formula_units_Z   1
loop_
 _symmetry_equiv_pos_site_id
 _symmetry_equiv_pos_as_xyz
  1  'x, y, z'
loop_
 _atom_site_type_symbol
 _atom_site_label
 _atom_site_symmetry_multiplicity
 _atom_site_fract_x
 _atom_site_fract_y
 _atom_site_fract_z
 _atom_site_occupancy
  Hf  Hf0  1  0.442197  0.441884  0.000000  1
  Hf  Hf1  1  0.001882  0.180342  0.500000  1
  Hf  Hf2  1  0.555952  0.998968  0.000000  1
  Hf  Hf3  1  0.333756  0.666487  0.000000  1
  Hf  Hf4  1  0.664555  0.333219  0.000000  1
  Hf  Hf5  1  0.999370  0.556567  0.000000  1
  Hf  Hf6  1  0.179544  0.000292  0.500000  1
  Zr  Zr7  1  0.820346  0.819449  0.500000  1
  Fe  Fe8  1  0.627794  0.822942  0.000000  1
  Fe  Fe9  1  0.373670  0.193995  0.000000  1
  Fe  Fe10  1  0.000921  0.722508  0.500000  1
  Fe  Fe11  1  0.276051  0.278869  0.500000  1
  Co  Co12  1  0.872266  0.355095  0.500000  1
  Co  Co13  1  0.724416  0.003433  0.500000  1
  Co  Co14  1  0.819881  0.627021  0.000000  1
  Co  Co15  1  0.180781  0.807602  0.000000  1
  Co  Co16  1  0.356978  0.871157  0.500000  1
  Co  Co17  1  0.126170  0.481681  0.500000  1
  Co  Co18  1  0.643570  0.515655  0.500000  1
  Co  Co19  1  0.001638  0.001650  0.000000  1
  Co  Co20  1  0.517790  0.643698  0.500000  1
  Co  Co21  1  0.482271  0.124909  0.500000  1
  Co  Co22  1  0.192321  0.373484  0.000000  1
  Co  Co23  1  0.806691  0.178853  0.000000  1
  P  P24  1  0.999906  0.346352  0.000000  1
  P  P25  1  0.826695  0.518980  0.500000  1
  P  P26  1  0.689736  0.174019  0.500000  1
  P  P27  1  0.178965  0.176888  0.000000  1
  P  P28  1  0.651623  0.653673  0.000000  1
  P  P29  1  0.824251  0.999348  0.000000  1
  P  P30  1  0.519378  0.825852  0.500000  1
  P  P31  1  0.173044  0.691064  0.500000  1
  P  P32  1  0.346969  0.001972  0.000000  1
  P  P33  1  0.478499  0.305906  0.500000  1
  P  P34  1  0.001318  0.824468  0.000000  1
  P  P35  1  0.308804  0.481717  0.500000  1
