# generated using pymatgen
data_Na3Fe4AgBr16
_symmetry_space_group_name_H-M   'P 1'
_cell_length_a   7.38406613
_cell_length_b   7.87519056
_cell_length_c   14.56922600
_cell_angle_alpha   86.97427894
_cell_angle_beta   89.98466143
_cell_angle_gamma   89.81857318
_symmetry_Int_Tables_number   1
_chemical_formula_structural   Na3Fe4AgBr16
_chemical_formula_sum   'Na3 Fe4 Ag1 Br16'
_cell_volume   846.02869737
_cell_formula_units_Z   1
loop_
 _symmetry_equiv_pos_site_id
 _symmetry_equiv_pos_as_xyz
  1  'x, y, z'
loop_
 _atom_site_type_symbol
 _atom_site_label
 _atom_site_symmetry_multiplicity
 _atom_site_fract_x
 _atom_site_fract_y
 _atom_site_fract_z
 _atom_site_occupancy
  Na  Na0  1  0.491047  0.849852  0.868164  1
  Na  Na1  1  0.508543  0.149458  0.132355  1
  Na  Na2  1  0.990839  0.149442  0.631918  1
  Fe  Fe3  1  0.174448  0.710889  0.598838  1
  Fe  Fe4  1  0.824439  0.291866  0.399208  1
  Fe  Fe5  1  0.677662  0.290761  0.899737  1
  Fe  Fe6  1  0.320291  0.710180  0.101706  1
  Ag  Ag7  1  0.015249  0.845380  0.366890  1
  Br  Br8  1  0.192840  0.454615  0.687317  1
  Br  Br9  1  0.818206  0.556289  0.315591  1
  Br  Br10  1  0.692054  0.546353  0.810667  1
  Br  Br11  1  0.309296  0.452610  0.189423  1
  Br  Br12  1  0.318534  0.929305  0.680543  1
  Br  Br13  1  0.688251  0.068895  0.317372  1
  Br  Br14  1  0.818408  0.069869  0.818002  1
  Br  Br15  1  0.176803  0.925001  0.187484  1
  Br  Br16  1  0.173517  0.690066  0.959948  1
  Br  Br17  1  0.825526  0.311697  0.041006  1
  Br  Br18  1  0.674749  0.312371  0.540129  1
  Br  Br19  1  0.315404  0.691744  0.454374  1
  Br  Br20  1  0.870981  0.800776  0.570977  1
  Br  Br21  1  0.125188  0.191380  0.427475  1
  Br  Br22  1  0.374863  0.199884  0.928888  1
  Br  Br23  1  0.622863  0.801318  0.071988  1
