# generated using pymatgen
data_Zr2Zn3Ag4
_symmetry_space_group_name_H-M   'P 1'
_cell_length_a   5.12904671
_cell_length_b   5.18691710
_cell_length_c   7.09037727
_cell_angle_alpha   81.93773185
_cell_angle_beta   73.52102530
_cell_angle_gamma   60.36839084
_symmetry_Int_Tables_number   1
_chemical_formula_structural   Zr2Zn3Ag4
_chemical_formula_sum   'Zr2 Zn3 Ag4'
_cell_volume   157.22814966
_cell_formula_units_Z   1
loop_
 _symmetry_equiv_pos_site_id
 _symmetry_equiv_pos_as_xyz
  1  'x, y, z'
loop_
 _atom_site_type_symbol
 _atom_site_label
 _atom_site_symmetry_multiplicity
 _atom_site_fract_x
 _atom_site_fract_y
 _atom_site_fract_z
 _atom_site_occupancy
  Zr  Zr0  1  0.093817  0.000000  0.259991  1
  Zr  Zr1  1  0.906183  0.000000  0.740009  1
  Zn  Zn2  1  0.500000  0.500000  0.500000  1
  Zn  Zn3  1  0.000000  0.500000  0.500000  1
  Zn  Zn4  1  0.500000  0.000000  0.500000  1
  Ag  Ag5  1  0.524319  0.681831  0.845787  1
  Ag  Ag6  1  0.206150  0.318169  0.845787  1
  Ag  Ag7  1  0.475681  0.318169  0.154213  1
  Ag  Ag8  1  0.793850  0.681831  0.154213  1
