# generated using pymatgen
data_KRb2LuSb2
_symmetry_space_group_name_H-M   'P 1'
_cell_length_a   10.12615386
_cell_length_b   10.12615453
_cell_length_c   10.12615383
_cell_angle_alpha   131.03847176
_cell_angle_beta   67.65741428
_cell_angle_gamma   136.35069103
_symmetry_Int_Tables_number   1
_chemical_formula_structural   KRb2LuSb2
_chemical_formula_sum   'K2 Rb4 Lu2 Sb4'
_cell_volume   531.51905956
_cell_formula_units_Z   2
loop_
 _symmetry_equiv_pos_site_id
 _symmetry_equiv_pos_as_xyz
  1  'x, y, z'
loop_
 _atom_site_type_symbol
 _atom_site_label
 _atom_site_symmetry_multiplicity
 _atom_site_fract_x
 _atom_site_fract_y
 _atom_site_fract_z
 _atom_site_occupancy
  K  K0  1  0.750000  0.250000  0.500000  1
  K  K1  1  0.250000  0.750000  0.500000  1
  Rb  Rb2  1  0.316182  0.716263  0.032445  1
  Rb  Rb3  1  0.183818  0.216262  0.400081  1
  Rb  Rb4  1  0.816182  0.783738  0.599919  1
  Rb  Rb5  1  0.683818  0.283738  0.967555  1
  Lu  Lu6  1  0.250000  0.250000  0.000000  1
  Lu  Lu7  1  0.750000  0.750000  0.000000  1
  Sb  Sb8  1  0.901922  0.198232  0.100152  1
  Sb  Sb9  1  0.598080  0.698231  0.296310  1
  Sb  Sb10  1  0.401921  0.301769  0.703690  1
  Sb  Sb11  1  0.098079  0.801769  0.899848  1
