# generated using pymatgen
data_In3NiIr2
_symmetry_space_group_name_H-M   'P 1'
_cell_length_a   5.43273162
_cell_length_b   5.74094593
_cell_length_c   4.46242200
_cell_angle_alpha   90.00000000
_cell_angle_beta   90.00000000
_cell_angle_gamma   121.89515497
_symmetry_Int_Tables_number   1
_chemical_formula_structural   In3NiIr2
_chemical_formula_sum   'In3 Ni1 Ir2'
_cell_volume   118.16487769
_cell_formula_units_Z   1
loop_
 _symmetry_equiv_pos_site_id
 _symmetry_equiv_pos_as_xyz
  1  'x, y, z'
loop_
 _atom_site_type_symbol
 _atom_site_label
 _atom_site_symmetry_multiplicity
 _atom_site_fract_x
 _atom_site_fract_y
 _atom_site_fract_z
 _atom_site_occupancy
  In  In0  1  0.000000  0.000000  0.000000  1
  In  In1  1  0.652327  0.326163  0.500000  1
  In  In2  1  0.347673  0.673837  0.500000  1
  Ni  Ni3  1  0.000000  0.500000  0.000000  1
  Ir  Ir4  1  0.500000  0.500000  0.000000  1
  Ir  Ir5  1  0.500000  0.000000  0.000000  1
