# generated using pymatgen
data_Pr6Gd(ZnAs4)3
_symmetry_space_group_name_H-M   'P 1'
_cell_length_a   6.56148800
_cell_length_b   17.40746176
_cell_length_c   20.54526718
_cell_angle_alpha   89.36855595
_cell_angle_beta   90.00000000
_cell_angle_gamma   90.00000000
_symmetry_Int_Tables_number   1
_chemical_formula_structural   Pr6Gd(ZnAs4)3
_chemical_formula_sum   'Pr6 Gd1 Zn3 As12'
_cell_volume   2346.51431218
_cell_formula_units_Z   1
loop_
 _symmetry_equiv_pos_site_id
 _symmetry_equiv_pos_as_xyz
  1  'x, y, z'
loop_
 _atom_site_type_symbol
 _atom_site_label
 _atom_site_symmetry_multiplicity
 _atom_site_fract_x
 _atom_site_fract_y
 _atom_site_fract_z
 _atom_site_occupancy
  Pr  Pr0  1  0.750000  0.265655  0.745260  1
  Pr  Pr1  1  0.750000  0.270188  0.418289  1
  Pr  Pr2  1  0.250000  0.721061  0.906721  1
  Pr  Pr3  1  0.250000  0.734288  0.586510  1
  Pr  Pr4  1  0.250000  0.717468  0.260147  1
  Pr  Pr5  1  0.750000  0.293430  0.082302  1
  Gd  Gd6  1  0.250000  0.968617  0.082594  1
  Zn  Zn7  1  0.250000  0.992979  0.408500  1
  Zn  Zn8  1  0.750000  0.003736  0.593054  1
  Zn  Zn9  1  0.750000  0.002512  0.898548  1
  As  As10  1  0.750000  0.510013  0.250996  1
  As  As11  1  0.750000  0.502888  0.914790  1
  As  As12  1  0.750000  0.834837  0.752463  1
  As  As13  1  0.750000  0.847508  0.410568  1
  As  As14  1  0.250000  0.173450  0.887259  1
  As  As15  1  0.250000  0.152511  0.588281  1
  As  As16  1  0.250000  0.221542  0.295179  1
  As  As17  1  0.250000  0.495453  0.083857  1
  As  As18  1  0.250000  0.494034  0.751401  1
  As  As19  1  0.250000  0.501021  0.415116  1
  As  As20  1  0.750000  0.500047  0.583048  1
  As  As21  1  0.750000  0.796763  0.085119  1
