# generated using pymatgen
data_TbCdGaPd3
_symmetry_space_group_name_H-M   'P 1'
_cell_length_a   5.53582172
_cell_length_b   5.53582076
_cell_length_c   5.21495630
_cell_angle_alpha   57.94292043
_cell_angle_beta   57.94292284
_cell_angle_gamma   59.99998950
_symmetry_Int_Tables_number   1
_chemical_formula_structural   TbCdGaPd3
_chemical_formula_sum   'Tb1 Cd1 Ga1 Pd3'
_cell_volume   109.36342071
_cell_formula_units_Z   1
loop_
 _symmetry_equiv_pos_site_id
 _symmetry_equiv_pos_as_xyz
  1  'x, y, z'
loop_
 _atom_site_type_symbol
 _atom_site_label
 _atom_site_symmetry_multiplicity
 _atom_site_fract_x
 _atom_site_fract_y
 _atom_site_fract_z
 _atom_site_occupancy
  Tb  Tb0  1  0.247108  0.247108  0.258678  1
  Cd  Cd1  1  0.995175  0.995175  0.014476  1
  Ga  Ga2  1  0.628221  0.628221  0.115335  1
  Pd  Pd3  1  0.626655  0.126185  0.620504  1
  Pd  Pd4  1  0.126185  0.626655  0.620504  1
  Pd  Pd5  1  0.626655  0.626655  0.620504  1
