# generated using pymatgen
data_Ho2SiOsI2
_symmetry_space_group_name_H-M   'P 1'
_cell_length_a   4.17359500
_cell_length_b   4.17359499
_cell_length_c   11.70559200
_cell_angle_alpha   90.00000000
_cell_angle_beta   90.00000000
_cell_angle_gamma   120.00000797
_symmetry_Int_Tables_number   1
_chemical_formula_structural   Ho2SiOsI2
_chemical_formula_sum   'Ho2 Si1 Os1 I2'
_cell_volume   176.58124956
_cell_formula_units_Z   1
loop_
 _symmetry_equiv_pos_site_id
 _symmetry_equiv_pos_as_xyz
  1  'x, y, z'
loop_
 _atom_site_type_symbol
 _atom_site_label
 _atom_site_symmetry_multiplicity
 _atom_site_fract_x
 _atom_site_fract_y
 _atom_site_fract_z
 _atom_site_occupancy
  Ho  Ho0  1  0.000000  0.000000  0.842778  1
  Ho  Ho1  1  0.000000  0.000000  0.155592  1
  Si  Si2  1  0.666667  0.333333  0.000561  1
  Os  Os3  1  0.333333  0.666667  0.000787  1
  I  I4  1  0.333333  0.666667  0.336050  1
  I  I5  1  0.666667  0.333333  0.664234  1
