# generated using pymatgen
data_Dy2Ho8InBi5
_symmetry_space_group_name_H-M   'P 1'
_cell_length_a   9.11055482
_cell_length_b   9.12880003
_cell_length_c   6.42258700
_cell_angle_alpha   90.00000000
_cell_angle_beta   90.00000000
_cell_angle_gamma   120.06627039
_symmetry_Int_Tables_number   1
_chemical_formula_structural   Dy2Ho8InBi5
_chemical_formula_sum   'Dy2 Ho8 In1 Bi5'
_cell_volume   462.28387419
_cell_formula_units_Z   1
loop_
 _symmetry_equiv_pos_site_id
 _symmetry_equiv_pos_as_xyz
  1  'x, y, z'
loop_
 _atom_site_type_symbol
 _atom_site_label
 _atom_site_symmetry_multiplicity
 _atom_site_fract_x
 _atom_site_fract_y
 _atom_site_fract_z
 _atom_site_occupancy
  Dy  Dy0  1  0.759522  0.758352  0.750000  1
  Dy  Dy1  1  0.240478  0.998830  0.750000  1
  Ho  Ho2  1  0.671881  0.334374  0.000948  1
  Ho  Ho3  1  0.328119  0.662494  0.000948  1
  Ho  Ho4  1  0.328119  0.662494  0.499052  1
  Ho  Ho5  1  0.671881  0.334374  0.499052  1
  Ho  Ho6  1  0.000000  0.240029  0.750000  1
  Ho  Ho7  1  0.234366  0.242369  0.250000  1
  Ho  Ho8  1  0.765634  0.008004  0.250000  1
  Ho  Ho9  1  0.000000  0.755562  0.250000  1
  In  In10  1  0.000000  0.394510  0.250000  1
  Bi  Bi11  1  0.392082  0.389799  0.750000  1
  Bi  Bi12  1  0.607918  0.997717  0.750000  1
  Bi  Bi13  1  0.000000  0.608340  0.750000  1
  Bi  Bi14  1  0.609810  0.611279  0.250000  1
  Bi  Bi15  1  0.390190  0.001469  0.250000  1
