# generated using pymatgen
data_Ho6Zn22AgSe
_symmetry_space_group_name_H-M   'P 1'
_cell_length_a   9.03972122
_cell_length_b   9.03972111
_cell_length_c   9.03972200
_cell_angle_alpha   59.99999673
_cell_angle_beta   59.99999716
_cell_angle_gamma   59.99999557
_symmetry_Int_Tables_number   1
_chemical_formula_structural   Ho6Zn22AgSe
_chemical_formula_sum   'Ho6 Zn22 Ag1 Se1'
_cell_volume   522.33618375
_cell_formula_units_Z   1
loop_
 _symmetry_equiv_pos_site_id
 _symmetry_equiv_pos_as_xyz
  1  'x, y, z'
loop_
 _atom_site_type_symbol
 _atom_site_label
 _atom_site_symmetry_multiplicity
 _atom_site_fract_x
 _atom_site_fract_y
 _atom_site_fract_z
 _atom_site_occupancy
  Ho  Ho0  1  0.717230  0.282770  0.282770  1
  Ho  Ho1  1  0.717230  0.282770  0.717230  1
  Ho  Ho2  1  0.717230  0.717230  0.282770  1
  Ho  Ho3  1  0.282770  0.717230  0.717230  1
  Ho  Ho4  1  0.282770  0.717230  0.282770  1
  Ho  Ho5  1  0.282770  0.282770  0.717230  1
  Zn  Zn6  1  0.622576  0.125809  0.125809  1
  Zn  Zn7  1  0.125809  0.622576  0.125809  1
  Zn  Zn8  1  0.125809  0.125809  0.622576  1
  Zn  Zn9  1  0.125809  0.125809  0.125809  1
  Zn  Zn10  1  0.377424  0.874191  0.874191  1
  Zn  Zn11  1  0.874191  0.377424  0.874191  1
  Zn  Zn12  1  0.874191  0.874191  0.377424  1
  Zn  Zn13  1  0.874191  0.874191  0.874191  1
  Zn  Zn14  1  0.500000  0.000000  0.000000  1
  Zn  Zn15  1  0.500000  0.000000  0.500000  1
  Zn  Zn16  1  0.500000  0.500000  0.000000  1
  Zn  Zn17  1  0.000000  0.500000  0.500000  1
  Zn  Zn18  1  0.000000  0.500000  0.000000  1
  Zn  Zn19  1  0.000000  0.000000  0.500000  1
  Zn  Zn20  1  0.011012  0.329662  0.329662  1
  Zn  Zn21  1  0.329662  0.011012  0.329662  1
  Zn  Zn22  1  0.329662  0.329662  0.011012  1
  Zn  Zn23  1  0.329662  0.329662  0.329662  1
  Zn  Zn24  1  0.988988  0.670338  0.670338  1
  Zn  Zn25  1  0.670338  0.988988  0.670338  1
  Zn  Zn26  1  0.670338  0.670338  0.988988  1
  Zn  Zn27  1  0.670338  0.670338  0.670338  1
  Ag  Ag28  1  0.000000  0.000000  0.000000  1
  Se  Se29  1  0.500000  0.500000  0.500000  1
