# generated using pymatgen
data_Ce5Nd3AlZn7Rh8
_symmetry_space_group_name_H-M   'P 1'
_cell_length_a   3.93332200
_cell_length_b   7.44825336
_cell_length_c   16.42294991
_cell_angle_alpha   91.34821945
_cell_angle_beta   90.00000000
_cell_angle_gamma   90.00000000
_symmetry_Int_Tables_number   1
_chemical_formula_structural   Ce5Nd3AlZn7Rh8
_chemical_formula_sum   'Ce5 Nd3 Al1 Zn7 Rh8'
_cell_volume   480.99976557
_cell_formula_units_Z   1
loop_
 _symmetry_equiv_pos_site_id
 _symmetry_equiv_pos_as_xyz
  1  'x, y, z'
loop_
 _atom_site_type_symbol
 _atom_site_label
 _atom_site_symmetry_multiplicity
 _atom_site_fract_x
 _atom_site_fract_y
 _atom_site_fract_z
 _atom_site_occupancy
  Ce  Ce0  1  0.250000  0.173227  0.941082  1
  Ce  Ce1  1  0.250000  0.672174  0.559553  1
  Ce  Ce2  1  0.750000  0.325025  0.439116  1
  Ce  Ce3  1  0.750000  0.945668  0.283551  1
  Ce  Ce4  1  0.250000  0.054154  0.718019  1
  Nd  Nd5  1  0.750000  0.833176  0.060009  1
  Nd  Nd6  1  0.750000  0.448333  0.216225  1
  Nd  Nd7  1  0.250000  0.551102  0.783371  1
  Al  Al8  1  0.750000  0.008935  0.559826  1
  Zn  Zn9  1  0.250000  0.616324  0.348814  1
  Zn  Zn10  1  0.750000  0.382385  0.653038  1
  Zn  Zn11  1  0.250000  0.506105  0.060691  1
  Zn  Zn12  1  0.750000  0.504026  0.937863  1
  Zn  Zn13  1  0.250000  0.991287  0.438852  1
  Zn  Zn14  1  0.250000  0.123545  0.150681  1
  Zn  Zn15  1  0.750000  0.880282  0.847716  1
  Rh  Rh16  1  0.750000  0.748102  0.441228  1
  Rh  Rh17  1  0.250000  0.227354  0.320365  1
  Rh  Rh18  1  0.750000  0.234403  0.815144  1
  Rh  Rh19  1  0.750000  0.775159  0.675081  1
  Rh  Rh20  1  0.250000  0.237855  0.563851  1
  Rh  Rh21  1  0.250000  0.760717  0.195247  1
  Rh  Rh22  1  0.750000  0.252669  0.057437  1
  Rh  Rh23  1  0.250000  0.747991  0.933240  1
