# generated using pymatgen
data_Y10B2Br15
_symmetry_space_group_name_H-M   'P 1'
_cell_length_a   9.09085756
_cell_length_b   9.85212910
_cell_length_c   10.70331659
_cell_angle_alpha   91.10295193
_cell_angle_beta   114.58313509
_cell_angle_gamma   110.81103486
_symmetry_Int_Tables_number   1
_chemical_formula_structural   Y10B2Br15
_chemical_formula_sum   'Y10 B2 Br15'
_cell_volume   798.97708027
_cell_formula_units_Z   1
loop_
 _symmetry_equiv_pos_site_id
 _symmetry_equiv_pos_as_xyz
  1  'x, y, z'
loop_
 _atom_site_type_symbol
 _atom_site_label
 _atom_site_symmetry_multiplicity
 _atom_site_fract_x
 _atom_site_fract_y
 _atom_site_fract_z
 _atom_site_occupancy
  Y  Y0  1  0.797978  0.406862  0.275018  1
  Y  Y1  1  0.202022  0.593138  0.724982  1
  Y  Y2  1  0.673136  0.746772  0.821822  1
  Y  Y3  1  0.326864  0.253228  0.178178  1
  Y  Y4  1  0.525158  0.705231  0.094107  1
  Y  Y5  1  0.474842  0.294769  0.905893  1
  Y  Y6  1  0.584788  0.040869  0.322022  1
  Y  Y7  1  0.415212  0.959131  0.677978  1
  Y  Y8  1  0.720558  0.074032  0.047959  1
  Y  Y9  1  0.279442  0.925968  0.952041  1
  B  B10  1  0.467559  0.819649  0.877327  1
  B  B11  1  0.532441  0.180351  0.122673  1
  Br  Br12  1  0.000000  0.000000  0.000000  1
  Br  Br13  1  0.637857  0.883039  0.584002  1
  Br  Br14  1  0.362143  0.116961  0.415998  1
  Br  Br15  1  0.884582  0.299996  0.528822  1
  Br  Br16  1  0.115418  0.700004  0.471178  1
  Br  Br17  1  0.290256  0.761702  0.180185  1
  Br  Br18  1  0.709744  0.238298  0.819815  1
  Br  Br19  1  0.055999  0.341911  0.226727  1
  Br  Br20  1  0.164907  0.058000  0.702467  1
  Br  Br21  1  0.835093  0.942000  0.297533  1
  Br  Br22  1  0.230949  0.410228  0.943250  1
  Br  Br23  1  0.769051  0.589772  0.056750  1
  Br  Br24  1  0.408498  0.462453  0.659596  1
  Br  Br25  1  0.591502  0.537547  0.340404  1
  Br  Br26  1  0.944001  0.658089  0.773273  1
