# generated using pymatgen
data_Yb2TiSi3Ir4
_symmetry_space_group_name_H-M   'P 1'
_cell_length_a   4.08435200
_cell_length_b   4.08435200
_cell_length_c   10.39025900
_cell_angle_alpha   90.00000000
_cell_angle_beta   90.00000000
_cell_angle_gamma   90.00000000
_symmetry_Int_Tables_number   1
_chemical_formula_structural   Yb2TiSi3Ir4
_chemical_formula_sum   'Yb2 Ti1 Si3 Ir4'
_cell_volume   173.32958641
_cell_formula_units_Z   1
loop_
 _symmetry_equiv_pos_site_id
 _symmetry_equiv_pos_as_xyz
  1  'x, y, z'
loop_
 _atom_site_type_symbol
 _atom_site_label
 _atom_site_symmetry_multiplicity
 _atom_site_fract_x
 _atom_site_fract_y
 _atom_site_fract_z
 _atom_site_occupancy
  Yb  Yb0  1  0.500000  0.000000  0.241704  1
  Yb  Yb1  1  0.000000  0.500000  0.758296  1
  Ti  Ti2  1  0.000000  0.000000  0.500000  1
  Si  Si3  1  0.000000  0.500000  0.123165  1
  Si  Si4  1  0.500000  0.000000  0.876835  1
  Si  Si5  1  0.500000  0.500000  0.500000  1
  Ir  Ir6  1  0.000000  0.500000  0.359035  1
  Ir  Ir7  1  0.500000  0.000000  0.640965  1
  Ir  Ir8  1  0.000000  0.000000  0.000000  1
  Ir  Ir9  1  0.500000  0.500000  0.000000  1
