# generated using pymatgen
data_NdY4(TcB3)2
_symmetry_space_group_name_H-M   'P 1'
_cell_length_a   5.54370207
_cell_length_b   5.54370229
_cell_length_c   8.64332862
_cell_angle_alpha   71.29517992
_cell_angle_beta   71.29517756
_cell_angle_gamma   60.00001317
_symmetry_Int_Tables_number   1
_chemical_formula_structural   NdY4(TcB3)2
_chemical_formula_sum   'Nd1 Y4 Tc2 B6'
_cell_volume   213.69059912
_cell_formula_units_Z   1
loop_
 _symmetry_equiv_pos_site_id
 _symmetry_equiv_pos_as_xyz
  1  'x, y, z'
loop_
 _atom_site_type_symbol
 _atom_site_label
 _atom_site_symmetry_multiplicity
 _atom_site_fract_x
 _atom_site_fract_y
 _atom_site_fract_z
 _atom_site_occupancy
  Nd  Nd0  1  0.000000  0.000000  0.000000  1
  Y  Y1  1  0.246418  0.246418  0.260744  1
  Y  Y2  1  0.753582  0.753582  0.739256  1
  Y  Y3  1  0.420018  0.420018  0.739946  1
  Y  Y4  1  0.579982  0.579982  0.260054  1
  Tc  Tc5  1  0.112112  0.112112  0.663664  1
  Tc  Tc6  1  0.887888  0.887888  0.336336  1
  B  B7  1  0.170330  0.829670  0.500000  1
  B  B8  1  0.829670  0.500000  0.500000  1
  B  B9  1  0.500000  0.170330  0.500000  1
  B  B10  1  0.170330  0.500000  0.500000  1
  B  B11  1  0.500000  0.829670  0.500000  1
  B  B12  1  0.829670  0.170330  0.500000  1
