# generated using pymatgen
data_Er8Sc2BiPb5
_symmetry_space_group_name_H-M   'P 1'
_cell_length_a   8.93938442
_cell_length_b   8.93938509
_cell_length_c   6.42038224
_cell_angle_alpha   89.98444449
_cell_angle_beta   89.98443799
_cell_angle_gamma   119.90983980
_symmetry_Int_Tables_number   1
_chemical_formula_structural   Er8Sc2BiPb5
_chemical_formula_sum   'Er8 Sc2 Bi1 Pb5'
_cell_volume   444.73423094
_cell_formula_units_Z   1
loop_
 _symmetry_equiv_pos_site_id
 _symmetry_equiv_pos_as_xyz
  1  'x, y, z'
loop_
 _atom_site_type_symbol
 _atom_site_label
 _atom_site_symmetry_multiplicity
 _atom_site_fract_x
 _atom_site_fract_y
 _atom_site_fract_z
 _atom_site_occupancy
  Er  Er0  1  0.333148  0.668684  0.500010  1
  Er  Er1  1  0.668684  0.333148  0.500010  1
  Er  Er2  1  0.763158  0.763158  0.751163  1
  Er  Er3  1  0.235807  0.995687  0.751427  1
  Er  Er4  1  0.995687  0.235807  0.751427  1
  Er  Er5  1  0.238514  0.238514  0.249622  1
  Er  Er6  1  0.762755  0.001203  0.248453  1
  Er  Er7  1  0.001203  0.762755  0.248453  1
  Sc  Sc8  1  0.668810  0.332816  0.999657  1
  Sc  Sc9  1  0.332816  0.668810  0.999657  1
  Bi  Bi10  1  0.394859  0.394859  0.757518  1
  Pb  Pb11  1  0.602079  0.999371  0.757523  1
  Pb  Pb12  1  0.999371  0.602079  0.757523  1
  Pb  Pb13  1  0.604324  0.604324  0.242777  1
  Pb  Pb14  1  0.397180  0.001603  0.242391  1
  Pb  Pb15  1  0.001603  0.397180  0.242391  1
