# generated using pymatgen
data_Pr16In6IrRu
_symmetry_space_group_name_H-M   'P 1'
_cell_length_a   10.85278000
_cell_length_b   10.85277798
_cell_length_c   7.35368900
_cell_angle_alpha   90.00000000
_cell_angle_beta   90.00000000
_cell_angle_gamma   119.99999398
_symmetry_Int_Tables_number   1
_chemical_formula_structural   Pr16In6IrRu
_chemical_formula_sum   'Pr16 In6 Ir1 Ru1'
_cell_volume   750.09770160
_cell_formula_units_Z   1
loop_
 _symmetry_equiv_pos_site_id
 _symmetry_equiv_pos_as_xyz
  1  'x, y, z'
loop_
 _atom_site_type_symbol
 _atom_site_label
 _atom_site_symmetry_multiplicity
 _atom_site_fract_x
 _atom_site_fract_y
 _atom_site_fract_z
 _atom_site_occupancy
  Pr  Pr0  1  0.534763  0.069524  0.790988  1
  Pr  Pr1  1  0.930476  0.465237  0.790988  1
  Pr  Pr2  1  0.534763  0.465237  0.790988  1
  Pr  Pr3  1  0.463861  0.927723  0.291425  1
  Pr  Pr4  1  0.072277  0.536139  0.291425  1
  Pr  Pr5  1  0.463861  0.536139  0.291425  1
  Pr  Pr6  1  0.825209  0.650418  0.498437  1
  Pr  Pr7  1  0.349582  0.174791  0.498437  1
  Pr  Pr8  1  0.825209  0.174791  0.498437  1
  Pr  Pr9  1  0.175209  0.350418  0.999517  1
  Pr  Pr10  1  0.649582  0.824791  0.999517  1
  Pr  Pr11  1  0.175209  0.824791  0.999517  1
  Pr  Pr12  1  0.666667  0.333333  0.173309  1
  Pr  Pr13  1  0.333333  0.666667  0.674227  1
  Pr  Pr14  1  0.000000  0.000000  0.783544  1
  Pr  Pr15  1  0.000000  0.000000  0.281826  1
  In  In16  1  0.836508  0.673018  0.041852  1
  In  In17  1  0.326982  0.163492  0.041852  1
  In  In18  1  0.836508  0.163492  0.041852  1
  In  In19  1  0.163475  0.326948  0.542487  1
  In  In20  1  0.673052  0.836525  0.542487  1
  In  In21  1  0.163475  0.836525  0.542487  1
  Ir  Ir22  1  0.666667  0.333333  0.565158  1
  Ru  Ru23  1  0.333333  0.666667  0.063723  1
