# generated using pymatgen
data_RbCu5Te8
_symmetry_space_group_name_H-M   'P 1'
_cell_length_a   11.57663106
_cell_length_b   11.57663128
_cell_length_c   10.32929934
_cell_angle_alpha   84.67882584
_cell_angle_beta   84.67882601
_cell_angle_gamma   15.24266920
_symmetry_Int_Tables_number   1
_chemical_formula_structural   RbCu5Te8
_chemical_formula_sum   'Rb1 Cu5 Te8'
_cell_volume   362.35087206
_cell_formula_units_Z   1
loop_
 _symmetry_equiv_pos_site_id
 _symmetry_equiv_pos_as_xyz
  1  'x, y, z'
loop_
 _atom_site_type_symbol
 _atom_site_label
 _atom_site_symmetry_multiplicity
 _atom_site_fract_x
 _atom_site_fract_y
 _atom_site_fract_z
 _atom_site_occupancy
  Rb  Rb0  1  0.515239  0.515239  0.464518  1
  Cu  Cu1  1  0.290378  0.290378  0.385969  1
  Cu  Cu2  1  0.649632  0.649632  0.949904  1
  Cu  Cu3  1  0.344398  0.344398  0.039209  1
  Cu  Cu4  1  0.673192  0.673192  0.695430  1
  Cu  Cu5  1  0.999804  0.999804  0.987067  1
  Te  Te6  1  0.764447  0.764447  0.181182  1
  Te  Te7  1  0.239616  0.239616  0.843329  1
  Te  Te8  1  0.438598  0.438598  0.173178  1
  Te  Te9  1  0.558996  0.558996  0.790086  1
  Te  Te10  1  0.898477  0.898477  0.841909  1
  Te  Te11  1  0.093753  0.093753  0.138973  1
  Te  Te12  1  0.859483  0.859483  0.525844  1
  Te  Te13  1  0.173987  0.173987  0.483401  1
