# generated using pymatgen
data_Rb4UInCl12
_symmetry_space_group_name_H-M   'P 1'
_cell_length_a   7.37884500
_cell_length_b   7.37884500
_cell_length_c   11.12918100
_cell_angle_alpha   90.00000000
_cell_angle_beta   90.00000000
_cell_angle_gamma   90.00000000
_symmetry_Int_Tables_number   1
_chemical_formula_structural   Rb4UInCl12
_chemical_formula_sum   'Rb4 U1 In1 Cl12'
_cell_volume   605.95445245
_cell_formula_units_Z   1
loop_
 _symmetry_equiv_pos_site_id
 _symmetry_equiv_pos_as_xyz
  1  'x, y, z'
loop_
 _atom_site_type_symbol
 _atom_site_label
 _atom_site_symmetry_multiplicity
 _atom_site_fract_x
 _atom_site_fract_y
 _atom_site_fract_z
 _atom_site_occupancy
  Rb  Rb0  1  0.500000  0.000000  0.803917  1
  Rb  Rb1  1  0.000000  0.500000  0.196083  1
  Rb  Rb2  1  0.500000  0.000000  0.196083  1
  Rb  Rb3  1  0.000000  0.500000  0.803917  1
  U  U4  1  0.500000  0.500000  0.500000  1
  In  In5  1  0.000000  0.000000  0.000000  1
  Cl  Cl6  1  0.000000  0.000000  0.771329  1
  Cl  Cl7  1  0.500000  0.500000  0.269609  1
  Cl  Cl8  1  0.741765  0.741765  0.500000  1
  Cl  Cl9  1  0.245735  0.245735  0.000000  1
  Cl  Cl10  1  0.741765  0.258235  0.500000  1
  Cl  Cl11  1  0.245735  0.754265  0.000000  1
  Cl  Cl12  1  0.000000  0.000000  0.228671  1
  Cl  Cl13  1  0.500000  0.500000  0.730391  1
  Cl  Cl14  1  0.258235  0.258235  0.500000  1
  Cl  Cl15  1  0.754265  0.754265  0.000000  1
  Cl  Cl16  1  0.258235  0.741765  0.500000  1
  Cl  Cl17  1  0.754265  0.245735  0.000000  1
