# generated using pymatgen
data_Ho2Mo3As7Rh9
_symmetry_space_group_name_H-M   'P 1'
_cell_length_a   4.01740968
_cell_length_b   9.86495929
_cell_length_c   9.86374582
_cell_angle_alpha   119.99601124
_cell_angle_beta   90.00187776
_cell_angle_gamma   89.99750319
_symmetry_Int_Tables_number   1
_chemical_formula_structural   Ho2Mo3As7Rh9
_chemical_formula_sum   'Ho2 Mo3 As7 Rh9'
_cell_volume   338.55667184
_cell_formula_units_Z   1
loop_
 _symmetry_equiv_pos_site_id
 _symmetry_equiv_pos_as_xyz
  1  'x, y, z'
loop_
 _atom_site_type_symbol
 _atom_site_label
 _atom_site_symmetry_multiplicity
 _atom_site_fract_x
 _atom_site_fract_y
 _atom_site_fract_z
 _atom_site_occupancy
  Ho  Ho0  1  0.261270  0.666617  0.333261  1
  Ho  Ho1  1  0.762155  0.333361  0.666738  1
  Mo  Mo2  1  0.762077  0.093161  0.873646  1
  Mo  Mo3  1  0.762070  0.126405  0.219688  1
  Mo  Mo4  1  0.762071  0.780390  0.906737  1
  As  As5  1  0.262511  0.999981  0.999950  1
  As  As6  1  0.761703  0.880917  0.591882  1
  As  As7  1  0.761684  0.408115  0.289012  1
  As  As8  1  0.761659  0.710992  0.119045  1
  As  As9  1  0.261919  0.118874  0.412004  1
  As  As10  1  0.261929  0.588028  0.706940  1
  As  As11  1  0.261890  0.293107  0.881147  1
  Rh  Rh12  1  0.261853  0.881533  0.158959  1
  Rh  Rh13  1  0.261864  0.840985  0.722453  1
  Rh  Rh14  1  0.261844  0.277570  0.118586  1
  Rh  Rh15  1  0.761944  0.613968  0.560677  1
  Rh  Rh16  1  0.761917  0.439212  0.053182  1
  Rh  Rh17  1  0.761927  0.946697  0.385985  1
  Rh  Rh18  1  0.261934  0.372060  0.438123  1
  Rh  Rh19  1  0.261880  0.561981  0.933998  1
  Rh  Rh20  1  0.261896  0.066044  0.627989  1
