# generated using pymatgen
data_Tb4Co15Si12Ru5
_symmetry_space_group_name_H-M   'P 1'
_cell_length_a   3.77156500
_cell_length_b   10.64884123
_cell_length_c   12.05680302
_cell_angle_alpha   90.18379574
_cell_angle_beta   90.00000000
_cell_angle_gamma   90.00000000
_symmetry_Int_Tables_number   1
_chemical_formula_structural   Tb4Co15Si12Ru5
_chemical_formula_sum   'Tb4 Co15 Si12 Ru5'
_cell_volume   484.23243930
_cell_formula_units_Z   1
loop_
 _symmetry_equiv_pos_site_id
 _symmetry_equiv_pos_as_xyz
  1  'x, y, z'
loop_
 _atom_site_type_symbol
 _atom_site_label
 _atom_site_symmetry_multiplicity
 _atom_site_fract_x
 _atom_site_fract_y
 _atom_site_fract_z
 _atom_site_occupancy
  Tb  Tb0  1  0.250000  0.584636  0.705555  1
  Tb  Tb1  1  0.250000  0.917012  0.203100  1
  Tb  Tb2  1  0.750000  0.416631  0.293035  1
  Tb  Tb3  1  0.750000  0.083034  0.796706  1
  Co  Co4  1  0.250000  0.092519  0.990020  1
  Co  Co5  1  0.750000  0.597365  0.510208  1
  Co  Co6  1  0.750000  0.906819  0.009773  1
  Co  Co7  1  0.250000  0.214174  0.173900  1
  Co  Co8  1  0.250000  0.281986  0.678586  1
  Co  Co9  1  0.750000  0.785304  0.825075  1
  Co  Co10  1  0.750000  0.716554  0.323845  1
  Co  Co11  1  0.250000  0.886015  0.700064  1
  Co  Co12  1  0.250000  0.615219  0.198074  1
  Co  Co13  1  0.750000  0.112590  0.299964  1
  Co  Co14  1  0.750000  0.385914  0.801828  1
  Co  Co15  1  0.250000  0.469069  0.931601  1
  Co  Co16  1  0.250000  0.030301  0.432135  1
  Co  Co17  1  0.750000  0.531210  0.067840  1
  Co  Co18  1  0.750000  0.967806  0.568308  1
  Si  Si19  1  0.250000  0.415597  0.109878  1
  Si  Si20  1  0.250000  0.083334  0.611300  1
  Si  Si21  1  0.750000  0.584597  0.889523  1
  Si  Si22  1  0.750000  0.915719  0.389122  1
  Si  Si23  1  0.250000  0.272340  0.869751  1
  Si  Si24  1  0.250000  0.224553  0.366266  1
  Si  Si25  1  0.750000  0.727455  0.130950  1
  Si  Si26  1  0.750000  0.772981  0.632451  1
  Si  Si27  1  0.250000  0.606829  0.390262  1
  Si  Si28  1  0.250000  0.899218  0.893024  1
  Si  Si29  1  0.750000  0.395991  0.611006  1
  Si  Si30  1  0.750000  0.100687  0.106391  1
  Ru  Ru31  1  0.250000  0.704747  0.989011  1
  Ru  Ru32  1  0.250000  0.797996  0.490769  1
  Ru  Ru33  1  0.750000  0.295453  0.010237  1
  Ru  Ru34  1  0.750000  0.199357  0.511669  1
  Ru  Ru35  1  0.250000  0.408986  0.488771  1
