# generated using pymatgen
data_Nd3Dy6YBi6
_symmetry_space_group_name_H-M   'P 1'
_cell_length_a   8.34360800
_cell_length_b   9.56380500
_cell_length_c   12.26758600
_cell_angle_alpha   90.00000000
_cell_angle_beta   90.00000000
_cell_angle_gamma   90.00000000
_symmetry_Int_Tables_number   1
_chemical_formula_structural   Nd3Dy6YBi6
_chemical_formula_sum   'Nd6 Dy12 Y2 Bi12'
_cell_volume   978.91214259
_cell_formula_units_Z   2
loop_
 _symmetry_equiv_pos_site_id
 _symmetry_equiv_pos_as_xyz
  1  'x, y, z'
loop_
 _atom_site_type_symbol
 _atom_site_label
 _atom_site_symmetry_multiplicity
 _atom_site_fract_x
 _atom_site_fract_y
 _atom_site_fract_z
 _atom_site_occupancy
  Nd  Nd0  1  0.184757  0.750000  0.721052  1
  Nd  Nd1  1  0.684757  0.750000  0.778948  1
  Nd  Nd2  1  0.817425  0.250000  0.279583  1
  Nd  Nd3  1  0.317425  0.250000  0.220417  1
  Nd  Nd4  1  0.352183  0.750000  0.215864  1
  Nd  Nd5  1  0.852183  0.750000  0.284136  1
  Dy  Dy6  1  0.025226  0.750000  0.986395  1
  Dy  Dy7  1  0.525226  0.750000  0.513605  1
  Dy  Dy8  1  0.974633  0.250000  0.010500  1
  Dy  Dy9  1  0.474633  0.250000  0.489500  1
  Dy  Dy10  1  0.307785  0.436267  0.939535  1
  Dy  Dy11  1  0.807785  0.063733  0.560465  1
  Dy  Dy12  1  0.691905  0.936358  0.058026  1
  Dy  Dy13  1  0.191905  0.563642  0.441974  1
  Dy  Dy14  1  0.691905  0.563642  0.058026  1
  Dy  Dy15  1  0.191905  0.936358  0.441974  1
  Dy  Dy16  1  0.307785  0.063733  0.939535  1
  Dy  Dy17  1  0.807785  0.436267  0.560465  1
  Y  Y18  1  0.647276  0.250000  0.783194  1
  Y  Y19  1  0.147276  0.250000  0.716806  1
  Bi  Bi20  1  0.434107  0.008128  0.671731  1
  Bi  Bi21  1  0.934107  0.491872  0.828269  1
  Bi  Bi22  1  0.565632  0.504147  0.331476  1
  Bi  Bi23  1  0.065632  0.995853  0.168524  1
  Bi  Bi24  1  0.565632  0.995853  0.331476  1
  Bi  Bi25  1  0.065632  0.504147  0.168524  1
  Bi  Bi26  1  0.434107  0.491872  0.671731  1
  Bi  Bi27  1  0.934107  0.008128  0.828269  1
  Bi  Bi28  1  0.406866  0.750000  0.957667  1
  Bi  Bi29  1  0.906866  0.750000  0.542333  1
  Bi  Bi30  1  0.592777  0.250000  0.037509  1
  Bi  Bi31  1  0.092777  0.250000  0.462491  1
