# generated using pymatgen
data_Tb3Nd2Bi2Os
_symmetry_space_group_name_H-M   'P 1'
_cell_length_a   8.16275300
_cell_length_b   9.19719900
_cell_length_c   12.65113600
_cell_angle_alpha   90.00000000
_cell_angle_beta   90.00000000
_cell_angle_gamma   90.00000000
_symmetry_Int_Tables_number   1
_chemical_formula_structural   Tb3Nd2Bi2Os
_chemical_formula_sum   'Tb12 Nd8 Bi8 Os4'
_cell_volume   949.77725076
_cell_formula_units_Z   4
loop_
 _symmetry_equiv_pos_site_id
 _symmetry_equiv_pos_as_xyz
  1  'x, y, z'
loop_
 _atom_site_type_symbol
 _atom_site_label
 _atom_site_symmetry_multiplicity
 _atom_site_fract_x
 _atom_site_fract_y
 _atom_site_fract_z
 _atom_site_occupancy
  Tb  Tb0  1  0.936724  0.750000  0.503687  1
  Tb  Tb1  1  0.063276  0.250000  0.496313  1
  Tb  Tb2  1  0.436724  0.250000  0.996313  1
  Tb  Tb3  1  0.563276  0.750000  0.003687  1
  Tb  Tb4  1  0.673599  0.039821  0.566530  1
  Tb  Tb5  1  0.326401  0.960179  0.433470  1
  Tb  Tb6  1  0.173599  0.960179  0.933470  1
  Tb  Tb7  1  0.326401  0.539821  0.433470  1
  Tb  Tb8  1  0.826401  0.039821  0.066530  1
  Tb  Tb9  1  0.673599  0.460179  0.566530  1
  Tb  Tb10  1  0.826401  0.460179  0.066530  1
  Tb  Tb11  1  0.173599  0.539821  0.933470  1
  Nd  Nd12  1  0.845012  0.750000  0.791050  1
  Nd  Nd13  1  0.154988  0.250000  0.208950  1
  Nd  Nd14  1  0.345012  0.250000  0.708950  1
  Nd  Nd15  1  0.654988  0.750000  0.291050  1
  Nd  Nd16  1  0.378889  0.750000  0.691831  1
  Nd  Nd17  1  0.621111  0.250000  0.308169  1
  Nd  Nd18  1  0.878889  0.250000  0.808169  1
  Nd  Nd19  1  0.121111  0.750000  0.191831  1
  Bi  Bi20  1  0.568404  0.493946  0.832695  1
  Bi  Bi21  1  0.431596  0.506054  0.167305  1
  Bi  Bi22  1  0.068404  0.506054  0.667305  1
  Bi  Bi23  1  0.431596  0.993946  0.167305  1
  Bi  Bi24  1  0.931596  0.493946  0.332695  1
  Bi  Bi25  1  0.568404  0.006054  0.832695  1
  Bi  Bi26  1  0.931596  0.006054  0.332695  1
  Bi  Bi27  1  0.068404  0.993946  0.667305  1
  Os  Os28  1  0.575987  0.750000  0.508906  1
  Os  Os29  1  0.424013  0.250000  0.491094  1
  Os  Os30  1  0.075987  0.250000  0.991094  1
  Os  Os31  1  0.924013  0.750000  0.008906  1
