# generated using pymatgen
data_RbLiSi2O5
_symmetry_space_group_name_H-M   'P 1'
_cell_length_a   4.87498400
_cell_length_b   6.07915343
_cell_length_c   8.30966600
_cell_angle_alpha   93.56161068
_cell_angle_beta   90.00000000
_cell_angle_gamma   90.00000000
_symmetry_Int_Tables_number   1
_chemical_formula_structural   RbLiSi2O5
_chemical_formula_sum   'Rb2 Li2 Si4 O10'
_cell_volume   245.78775843
_cell_formula_units_Z   2
loop_
 _symmetry_equiv_pos_site_id
 _symmetry_equiv_pos_as_xyz
  1  'x, y, z'
loop_
 _atom_site_type_symbol
 _atom_site_label
 _atom_site_symmetry_multiplicity
 _atom_site_fract_x
 _atom_site_fract_y
 _atom_site_fract_z
 _atom_site_occupancy
  Rb  Rb0  1  0.311430  0.962804  0.316897  1
  Rb  Rb1  1  0.811430  0.037196  0.683103  1
  Li  Li2  1  0.302231  0.870485  0.907135  1
  Li  Li3  1  0.802231  0.129515  0.092865  1
  Si  Si4  1  0.780032  0.630283  0.064006  1
  Si  Si5  1  0.864092  0.443576  0.392275  1
  Si  Si6  1  0.364092  0.556424  0.607725  1
  Si  Si7  1  0.280032  0.369717  0.935994  1
  O  O8  1  0.652172  0.853697  0.009463  1
  O  O9  1  0.807946  0.198164  0.322819  1
  O  O10  1  0.601549  0.406522  0.001996  1
  O  O11  1  0.191098  0.481505  0.442009  1
  O  O12  1  0.296149  0.365930  0.737274  1
  O  O13  1  0.796149  0.634070  0.262726  1
  O  O14  1  0.101549  0.593478  0.998004  1
  O  O15  1  0.691098  0.518495  0.557991  1
  O  O16  1  0.307946  0.801836  0.677181  1
  O  O17  1  0.152172  0.146303  0.990537  1
