# generated using pymatgen
data_Cu2SiAgTe4
_symmetry_space_group_name_H-M   'P 1'
_cell_length_a   7.35477161
_cell_length_b   7.35477154
_cell_length_c   7.35477156
_cell_angle_alpha   130.57647006
_cell_angle_beta   130.57647337
_cell_angle_gamma   72.48685254
_symmetry_Int_Tables_number   1
_chemical_formula_structural   Cu2SiAgTe4
_chemical_formula_sum   'Cu2 Si1 Ag1 Te4'
_cell_volume   224.30686672
_cell_formula_units_Z   1
loop_
 _symmetry_equiv_pos_site_id
 _symmetry_equiv_pos_as_xyz
  1  'x, y, z'
loop_
 _atom_site_type_symbol
 _atom_site_label
 _atom_site_symmetry_multiplicity
 _atom_site_fract_x
 _atom_site_fract_y
 _atom_site_fract_z
 _atom_site_occupancy
  Cu  Cu0  1  0.750000  0.250000  0.500000  1
  Cu  Cu1  1  0.250000  0.750000  0.500000  1
  Si  Si2  1  0.500000  0.500000  0.000000  1
  Ag  Ag3  1  0.000000  0.000000  0.000000  1
  Te  Te4  1  0.868173  0.397371  0.000000  1
  Te  Te5  1  0.397371  0.868173  0.000000  1
  Te  Te6  1  0.131827  0.131827  0.529198  1
  Te  Te7  1  0.602629  0.602629  0.470802  1
