# generated using pymatgen
data_Tb5YbYNiI12
_symmetry_space_group_name_H-M   'P 1'
_cell_length_a   9.78706054
_cell_length_b   9.78882452
_cell_length_c   9.78852457
_cell_angle_alpha   106.83901253
_cell_angle_beta   106.81902809
_cell_angle_gamma   106.84912600
_symmetry_Int_Tables_number   1
_chemical_formula_structural   Tb5YbYNiI12
_chemical_formula_sum   'Tb5 Yb1 Y1 Ni1 I12'
_cell_volume   784.46402353
_cell_formula_units_Z   1
loop_
 _symmetry_equiv_pos_site_id
 _symmetry_equiv_pos_as_xyz
  1  'x, y, z'
loop_
 _atom_site_type_symbol
 _atom_site_label
 _atom_site_symmetry_multiplicity
 _atom_site_fract_x
 _atom_site_fract_y
 _atom_site_fract_z
 _atom_site_occupancy
  Tb  Tb0  1  0.705982  0.904170  0.975415  1
  Tb  Tb1  1  0.975591  0.705986  0.904063  1
  Tb  Tb2  1  0.095926  0.024388  0.294072  1
  Tb  Tb3  1  0.293910  0.095826  0.024171  1
  Tb  Tb4  1  0.024305  0.293954  0.095608  1
  Yb  Yb5  1  0.499993  0.499993  0.499965  1
  Y  Y6  1  0.904175  0.975473  0.705888  1
  Ni  Ni7  1  0.000103  0.999979  0.000421  1
  I  I8  1  0.926864  0.320936  0.776512  1
  I  I9  1  0.776701  0.926984  0.321952  1
  I  I10  1  0.321408  0.776647  0.926911  1
  I  I11  1  0.073031  0.678620  0.223262  1
  I  I12  1  0.222683  0.072879  0.678607  1
  I  I13  1  0.678575  0.223322  0.073064  1
  I  I14  1  0.543199  0.848323  0.620459  1
  I  I15  1  0.620309  0.542542  0.847915  1
  I  I16  1  0.848126  0.620838  0.542723  1
  I  I17  1  0.457467  0.152044  0.379584  1
  I  I18  1  0.379678  0.457471  0.152047  1
  I  I19  1  0.151973  0.379625  0.457359  1
