# generated using pymatgen
data_Ce2Lu3Mg(Co3P2)6
_symmetry_space_group_name_H-M   'P 1'
_cell_length_a   3.67428000
_cell_length_b   10.48038637
_cell_length_c   12.05885613
_cell_angle_alpha   90.11577859
_cell_angle_beta   90.00000000
_cell_angle_gamma   90.00000000
_symmetry_Int_Tables_number   1
_chemical_formula_structural   Ce2Lu3Mg(Co3P2)6
_chemical_formula_sum   'Ce2 Lu3 Mg1 Co18 P12'
_cell_volume   464.35996480
_cell_formula_units_Z   1
loop_
 _symmetry_equiv_pos_site_id
 _symmetry_equiv_pos_as_xyz
  1  'x, y, z'
loop_
 _atom_site_type_symbol
 _atom_site_label
 _atom_site_symmetry_multiplicity
 _atom_site_fract_x
 _atom_site_fract_y
 _atom_site_fract_z
 _atom_site_occupancy
  Ce  Ce0  1  0.000000  0.498863  0.527149  1
  Ce  Ce1  1  0.500000  0.999808  0.471349  1
  Lu  Lu2  1  0.500000  0.182910  0.204750  1
  Lu  Lu3  1  0.000000  0.683457  0.794714  1
  Lu  Lu4  1  0.000000  0.316707  0.796378  1
  Mg  Mg5  1  0.500000  0.818742  0.206715  1
  Co  Co6  1  0.500000  0.497129  0.156818  1
  Co  Co7  1  0.000000  0.000287  0.842288  1
  Co  Co8  1  0.500000  0.501501  0.702482  1
  Co  Co9  1  0.000000  0.998064  0.296725  1
  Co  Co10  1  0.000000  0.501480  0.986470  1
  Co  Co11  1  0.500000  0.999283  0.016178  1
  Co  Co12  1  0.500000  0.333111  0.993634  1
  Co  Co13  1  0.500000  0.668886  0.996737  1
  Co  Co14  1  0.000000  0.166018  0.006603  1
  Co  Co15  1  0.000000  0.832994  0.006833  1
  Co  Co16  1  0.500000  0.298187  0.430203  1
  Co  Co17  1  0.500000  0.700808  0.427765  1
  Co  Co18  1  0.000000  0.200434  0.570146  1
  Co  Co19  1  0.000000  0.798894  0.568159  1
  Co  Co20  1  0.500000  0.879144  0.711796  1
  Co  Co21  1  0.500000  0.120890  0.712400  1
  Co  Co22  1  0.000000  0.622122  0.286272  1
  Co  Co23  1  0.000000  0.378630  0.288164  1
  P  P24  1  0.500000  0.501346  0.882160  1
  P  P25  1  0.000000  0.998886  0.119627  1
  P  P26  1  0.500000  0.499309  0.341522  1
  P  P27  1  0.000000  0.000029  0.657045  1
  P  P28  1  0.500000  0.307288  0.619195  1
  P  P29  1  0.500000  0.693610  0.617385  1
  P  P30  1  0.000000  0.192016  0.381210  1
  P  P31  1  0.000000  0.807021  0.378562  1
  P  P32  1  0.500000  0.847043  0.893481  1
  P  P33  1  0.500000  0.152506  0.894027  1
  P  P34  1  0.000000  0.656102  0.108522  1
  P  P35  1  0.000000  0.346492  0.106535  1
