# generated using pymatgen
data_Nd7SmSc12Si15Au
_symmetry_space_group_name_H-M   'P 1'
_cell_length_a   7.24646417
_cell_length_b   7.49437465
_cell_length_c   14.26183401
_cell_angle_alpha   89.94403569
_cell_angle_beta   89.70530950
_cell_angle_gamma   90.20639598
_symmetry_Int_Tables_number   1
_chemical_formula_structural   Nd7SmSc12Si15Au
_chemical_formula_sum   'Nd7 Sm1 Sc12 Si15 Au1'
_cell_volume   774.51199779
_cell_formula_units_Z   1
loop_
 _symmetry_equiv_pos_site_id
 _symmetry_equiv_pos_as_xyz
  1  'x, y, z'
loop_
 _atom_site_type_symbol
 _atom_site_label
 _atom_site_symmetry_multiplicity
 _atom_site_fract_x
 _atom_site_fract_y
 _atom_site_fract_z
 _atom_site_occupancy
  Nd  Nd0  1  0.012463  0.173671  0.097824  1
  Nd  Nd1  1  0.987315  0.827108  0.903049  1
  Nd  Nd2  1  0.486726  0.674088  0.903085  1
  Nd  Nd3  1  0.988533  0.829966  0.597588  1
  Nd  Nd4  1  0.512348  0.326241  0.096738  1
  Nd  Nd5  1  0.010158  0.172775  0.399833  1
  Nd  Nd6  1  0.511227  0.326287  0.400450  1
  Sm  Sm7  1  0.491268  0.675530  0.600303  1
  Sc  Sc8  1  0.161707  0.498117  0.751138  1
  Sc  Sc9  1  0.838640  0.501348  0.250635  1
  Sc  Sc10  1  0.339042  0.997544  0.248831  1
  Sc  Sc11  1  0.663370  0.999180  0.751241  1
  Sc  Sc12  1  0.339313  0.175508  0.626551  1
  Sc  Sc13  1  0.666974  0.823793  0.373545  1
  Sc  Sc14  1  0.168552  0.673426  0.373132  1
  Sc  Sc15  1  0.670875  0.824635  0.124974  1
  Sc  Sc16  1  0.826565  0.326136  0.625398  1
  Sc  Sc17  1  0.328490  0.174540  0.875407  1
  Sc  Sc18  1  0.830054  0.322928  0.875676  1
  Sc  Sc19  1  0.169254  0.676167  0.125043  1
  Si  Si20  1  0.035872  0.125174  0.750467  1
  Si  Si21  1  0.965625  0.877456  0.249570  1
  Si  Si22  1  0.465532  0.622182  0.248422  1
  Si  Si23  1  0.536257  0.379592  0.751979  1
  Si  Si24  1  0.286516  0.880344  0.750190  1
  Si  Si25  1  0.711396  0.120471  0.248753  1
  Si  Si26  1  0.213432  0.378902  0.248484  1
  Si  Si27  1  0.787738  0.620286  0.751631  1
  Si  Si28  1  0.838656  0.540450  0.458947  1
  Si  Si29  1  0.345744  0.960327  0.460724  1
  Si  Si30  1  0.848052  0.536781  0.039218  1
  Si  Si31  1  0.652786  0.036515  0.538366  1
  Si  Si32  1  0.151285  0.463098  0.961145  1
  Si  Si33  1  0.652144  0.036329  0.960426  1
  Si  Si34  1  0.347137  0.962976  0.039562  1
  Au  Au35  1  0.158951  0.460135  0.541677  1
