# generated using pymatgen
data_Gd3YEr(SiB4)2
_symmetry_space_group_name_H-M   'P 1'
_cell_length_a   7.24808448
_cell_length_b   7.24808448
_cell_length_c   8.15341500
_cell_angle_alpha   90.00000000
_cell_angle_beta   90.00000000
_cell_angle_gamma   89.95810374
_symmetry_Int_Tables_number   1
_chemical_formula_structural   Gd3YEr(SiB4)2
_chemical_formula_sum   'Gd6 Y2 Er2 Si4 B16'
_cell_volume   428.33733044
_cell_formula_units_Z   2
loop_
 _symmetry_equiv_pos_site_id
 _symmetry_equiv_pos_as_xyz
  1  'x, y, z'
loop_
 _atom_site_type_symbol
 _atom_site_label
 _atom_site_symmetry_multiplicity
 _atom_site_fract_x
 _atom_site_fract_y
 _atom_site_fract_z
 _atom_site_occupancy
  Gd  Gd0  1  0.680457  0.180504  0.225920  1
  Gd  Gd1  1  0.319496  0.819543  0.774080  1
  Gd  Gd2  1  0.319496  0.819543  0.225920  1
  Gd  Gd3  1  0.819359  0.680641  0.225485  1
  Gd  Gd4  1  0.819359  0.680641  0.774515  1
  Gd  Gd5  1  0.680457  0.180504  0.774080  1
  Y  Y6  1  0.180361  0.319639  0.776870  1
  Y  Y7  1  0.180361  0.319639  0.223130  1
  Er  Er8  1  0.000308  0.000225  0.500000  1
  Er  Er9  1  0.499775  0.499692  0.500000  1
  Si  Si10  1  0.115961  0.614071  0.500000  1
  Si  Si11  1  0.885929  0.384039  0.500000  1
  Si  Si12  1  0.383633  0.116367  0.500000  1
  Si  Si13  1  0.614437  0.885563  0.500000  1
  B  B14  1  0.172729  0.039464  0.000000  1
  B  B15  1  0.827699  0.960952  0.000000  1
  B  B16  1  0.960769  0.172579  0.000000  1
  B  B17  1  0.327421  0.539231  0.000000  1
  B  B18  1  0.039420  0.827692  0.000000  1
  B  B19  1  0.672308  0.460580  0.000000  1
  B  B20  1  0.539048  0.672301  0.000000  1
  B  B21  1  0.460536  0.327271  0.000000  1
  B  B22  1  0.090085  0.589807  0.000000  1
  B  B23  1  0.910193  0.409915  0.000000  1
  B  B24  1  0.409992  0.090008  0.000000  1
  B  B25  1  0.590130  0.909870  0.000000  1
  B  B26  1  0.000293  0.000152  0.160690  1
  B  B27  1  0.000293  0.000152  0.839310  1
  B  B28  1  0.499848  0.499707  0.839310  1
  B  B29  1  0.499848  0.499707  0.160690  1
