# generated using pymatgen
data_NbBr37
_symmetry_space_group_name_H-M   'P 1'
_cell_length_a   14.20848141
_cell_length_b   15.29732181
_cell_length_c   14.42416200
_cell_angle_alpha   103.00376457
_cell_angle_beta   48.80056783
_cell_angle_gamma   81.50743146
_symmetry_Int_Tables_number   1
_chemical_formula_structural   NbBr37
_chemical_formula_sum   'Nb1 Br37'
_cell_volume   2102.91272627
_cell_formula_units_Z   1
loop_
 _symmetry_equiv_pos_site_id
 _symmetry_equiv_pos_as_xyz
  1  'x, y, z'
loop_
 _atom_site_type_symbol
 _atom_site_label
 _atom_site_symmetry_multiplicity
 _atom_site_fract_x
 _atom_site_fract_y
 _atom_site_fract_z
 _atom_site_occupancy
  Nb  Nb0  1  0.500000  0.000000  0.000000  1
  Br  Br1  1  0.794128  0.303275  0.135381  1
  Br  Br2  1  0.205872  0.696725  0.864619  1
  Br  Br3  1  0.746818  0.081071  0.360434  1
  Br  Br4  1  0.253182  0.918929  0.639566  1
  Br  Br5  1  0.109671  0.351135  0.169356  1
  Br  Br6  1  0.890329  0.648865  0.830644  1
  Br  Br7  1  0.860870  0.536329  0.249654  1
  Br  Br8  1  0.139130  0.463671  0.750346  1
  Br  Br9  1  0.687530  0.274256  0.520143  1
  Br  Br10  1  0.312470  0.725744  0.479857  1
  Br  Br11  1  0.998108  0.168402  0.526322  1
  Br  Br12  1  0.001892  0.831598  0.473678  1
  Br  Br13  1  0.980744  0.008794  0.281722  1
  Br  Br14  1  0.019256  0.991206  0.718278  1
  Br  Br15  1  0.926548  0.348597  0.622014  1
  Br  Br16  1  0.073452  0.651403  0.377986  1
  Br  Br17  1  0.582348  0.427215  0.234522  1
  Br  Br18  1  0.417652  0.572785  0.765478  1
  Br  Br19  1  0.179999  0.461868  0.269270  1
  Br  Br20  1  0.820001  0.538132  0.730730  1
  Br  Br21  1  0.000000  0.500000  0.000000  1
  Br  Br22  1  0.659901  0.956184  0.022036  1
  Br  Br23  1  0.340099  0.043816  0.977964  1
  Br  Br24  1  0.303108  0.031425  0.253313  1
  Br  Br25  1  0.696892  0.968575  0.746687  1
  Br  Br26  1  0.533298  0.128308  0.411528  1
  Br  Br27  1  0.466702  0.871692  0.588472  1
  Br  Br28  1  0.059422  0.233410  0.079675  1
  Br  Br29  1  0.940578  0.766590  0.920325  1
  Br  Br30  1  0.660130  0.696510  0.404379  1
  Br  Br31  1  0.339870  0.303490  0.595621  1
  Br  Br32  1  0.902351  0.147094  0.924786  1
  Br  Br33  1  0.097649  0.852906  0.075214  1
  Br  Br34  1  0.473828  0.175744  0.070641  1
  Br  Br35  1  0.526172  0.824256  0.929359  1
  Br  Br36  1  0.651164  0.429318  0.647167  1
  Br  Br37  1  0.348836  0.570682  0.352833  1
