# generated using pymatgen
data_Ti13Al9(FePt)4
_symmetry_space_group_name_H-M   'P 1'
_cell_length_a   8.68151421
_cell_length_b   8.68151379
_cell_length_c   8.61831075
_cell_angle_alpha   59.84035709
_cell_angle_beta   59.84035777
_cell_angle_gamma   59.35972819
_symmetry_Int_Tables_number   1
_chemical_formula_structural   Ti13Al9(FePt)4
_chemical_formula_sum   'Ti13 Al9 Fe4 Pt4'
_cell_volume   455.94278789
_cell_formula_units_Z   1
loop_
 _symmetry_equiv_pos_site_id
 _symmetry_equiv_pos_as_xyz
  1  'x, y, z'
loop_
 _atom_site_type_symbol
 _atom_site_label
 _atom_site_symmetry_multiplicity
 _atom_site_fract_x
 _atom_site_fract_y
 _atom_site_fract_z
 _atom_site_occupancy
  Ti  Ti0  1  0.201573  0.201573  0.797054  1
  Ti  Ti1  1  0.794175  0.205747  0.202767  1
  Ti  Ti2  1  0.205747  0.794175  0.202767  1
  Ti  Ti3  1  0.804383  0.804383  0.183600  1
  Ti  Ti4  1  0.182312  0.805962  0.806202  1
  Ti  Ti5  1  0.805962  0.182312  0.806202  1
  Ti  Ti6  1  0.377113  0.377113  0.390618  1
  Ti  Ti7  1  0.387435  0.854114  0.389867  1
  Ti  Ti8  1  0.854114  0.387435  0.389867  1
  Ti  Ti9  1  0.385079  0.385079  0.851231  1
  Ti  Ti10  1  0.848473  0.481747  0.823920  1
  Ti  Ti11  1  0.481747  0.848473  0.823920  1
  Ti  Ti12  1  0.837659  0.837659  0.470732  1
  Al  Al13  1  0.155929  0.155929  0.158723  1
  Al  Al14  1  0.155722  0.517026  0.175736  1
  Al  Al15  1  0.517026  0.155722  0.175736  1
  Al  Al16  1  0.166880  0.166880  0.517783  1
  Al  Al17  1  0.620898  0.620898  0.612110  1
  Al  Al18  1  0.617374  0.149989  0.609345  1
  Al  Al19  1  0.149989  0.617374  0.609345  1
  Al  Al20  1  0.615695  0.615695  0.149829  1
  Al  Al21  1  0.827542  0.827542  0.825842  1
  Fe  Fe22  1  0.998303  0.499395  0.504892  1
  Fe  Fe23  1  0.499395  0.998303  0.504892  1
  Fe  Fe24  1  0.500937  0.500937  0.502731  1
  Fe  Fe25  1  0.002139  0.002139  0.007025  1
  Pt  Pt26  1  0.004083  0.004083  0.500840  1
  Pt  Pt27  1  0.499184  0.005616  0.002176  1
  Pt  Pt28  1  0.005616  0.499184  0.002176  1
  Pt  Pt29  1  0.497510  0.497510  0.002068  1
