# generated using pymatgen
data_Y6HoTh(ReB6)4
_symmetry_space_group_name_H-M   'P 1'
_cell_length_a   3.71000600
_cell_length_b   9.21005878
_cell_length_c   11.60908703
_cell_angle_alpha   90.04891880
_cell_angle_beta   90.00000000
_cell_angle_gamma   90.00000000
_symmetry_Int_Tables_number   1
_chemical_formula_structural   Y6HoTh(ReB6)4
_chemical_formula_sum   'Y6 Ho1 Th1 Re4 B24'
_cell_volume   396.67508445
_cell_formula_units_Z   1
loop_
 _symmetry_equiv_pos_site_id
 _symmetry_equiv_pos_as_xyz
  1  'x, y, z'
loop_
 _atom_site_type_symbol
 _atom_site_label
 _atom_site_symmetry_multiplicity
 _atom_site_fract_x
 _atom_site_fract_y
 _atom_site_fract_z
 _atom_site_occupancy
  Y  Y0  1  0.000000  0.677681  0.587406  1
  Y  Y1  1  0.000000  0.823096  0.084929  1
  Y  Y2  1  0.000000  0.176124  0.914040  1
  Y  Y3  1  0.000000  0.941898  0.369544  1
  Y  Y4  1  0.000000  0.056086  0.631455  1
  Y  Y5  1  0.000000  0.443547  0.127857  1
  Ho  Ho6  1  0.000000  0.557544  0.870291  1
  Th  Th7  1  0.000000  0.322744  0.414113  1
  Re  Re8  1  0.000000  0.638851  0.320483  1
  Re  Re9  1  0.000000  0.362193  0.680488  1
  Re  Re10  1  0.000000  0.138486  0.178345  1
  Re  Re11  1  0.000000  0.860886  0.821226  1
  B  B12  1  0.500000  0.555569  0.432056  1
  B  B13  1  0.500000  0.446785  0.569705  1
  B  B14  1  0.500000  0.053090  0.066575  1
  B  B15  1  0.500000  0.946322  0.932653  1
  B  B16  1  0.500000  0.749521  0.417955  1
  B  B17  1  0.500000  0.251478  0.585013  1
  B  B18  1  0.500000  0.248334  0.080556  1
  B  B19  1  0.500000  0.750748  0.917982  1
  B  B20  1  0.500000  0.791699  0.265144  1
  B  B21  1  0.500000  0.208684  0.735938  1
  B  B22  1  0.500000  0.290262  0.232316  1
  B  B23  1  0.500000  0.708003  0.765967  1
  B  B24  1  0.500000  0.631886  0.184722  1
  B  B25  1  0.500000  0.370066  0.815046  1
  B  B26  1  0.500000  0.129566  0.312208  1
  B  B27  1  0.500000  0.868727  0.686503  1
  B  B28  1  0.500000  0.982506  0.210865  1
  B  B29  1  0.500000  0.016538  0.788742  1
  B  B30  1  0.500000  0.485602  0.286581  1
  B  B31  1  0.500000  0.517871  0.713650  1
  B  B32  1  0.500000  0.601299  0.027254  1
  B  B33  1  0.500000  0.399838  0.971043  1
  B  B34  1  0.500000  0.097960  0.472734  1
  B  B35  1  0.500000  0.898507  0.528615  1
