# generated using pymatgen
data_NdPu(Al5Ru)4
_symmetry_space_group_name_H-M   'P 1'
_cell_length_a   6.89523700
_cell_length_b   6.89523746
_cell_length_c   9.22052000
_cell_angle_alpha   90.00000000
_cell_angle_beta   90.00000000
_cell_angle_gamma   96.84232493
_symmetry_Int_Tables_number   1
_chemical_formula_structural   NdPu(Al5Ru)4
_chemical_formula_sum   'Nd1 Pu1 Al20 Ru4'
_cell_volume   435.26087130
_cell_formula_units_Z   1
loop_
 _symmetry_equiv_pos_site_id
 _symmetry_equiv_pos_as_xyz
  1  'x, y, z'
loop_
 _atom_site_type_symbol
 _atom_site_label
 _atom_site_symmetry_multiplicity
 _atom_site_fract_x
 _atom_site_fract_y
 _atom_site_fract_z
 _atom_site_occupancy
  Nd  Nd0  1  0.123865  0.876135  0.250000  1
  Pu  Pu1  1  0.880566  0.119434  0.750000  1
  Al  Al2  1  0.624183  0.375817  0.551979  1
  Al  Al3  1  0.377230  0.622770  0.451100  1
  Al  Al4  1  0.377230  0.622770  0.048900  1
  Al  Al5  1  0.624183  0.375817  0.948021  1
  Al  Al6  1  0.225029  0.227199  0.501612  1
  Al  Al7  1  0.772801  0.774971  0.501612  1
  Al  Al8  1  0.772801  0.774971  0.998388  1
  Al  Al9  1  0.225029  0.227199  0.998388  1
  Al  Al10  1  0.840594  0.159406  0.099206  1
  Al  Al11  1  0.158270  0.841730  0.898906  1
  Al  Al12  1  0.158270  0.841730  0.601094  1
  Al  Al13  1  0.840594  0.159406  0.400794  1
  Al  Al14  1  0.860495  0.586965  0.750000  1
  Al  Al15  1  0.139841  0.411063  0.250000  1
  Al  Al16  1  0.413035  0.139505  0.750000  1
  Al  Al17  1  0.588937  0.860159  0.250000  1
  Al  Al18  1  0.218309  0.478964  0.750000  1
  Al  Al19  1  0.779284  0.518915  0.250000  1
  Al  Al20  1  0.521036  0.781691  0.750000  1
  Al  Al21  1  0.481085  0.220716  0.250000  1
  Ru  Ru22  1  0.999857  0.501187  0.499433  1
  Ru  Ru23  1  0.999857  0.501187  0.000567  1
  Ru  Ru24  1  0.498813  0.000143  0.000567  1
  Ru  Ru25  1  0.498813  0.000143  0.499433  1
