# generated using pymatgen
data_K2Te3PtO12
_symmetry_space_group_name_H-M   'P 1'
_cell_length_a   7.13658328
_cell_length_b   7.13658295
_cell_length_c   7.13691322
_cell_angle_alpha   61.73206424
_cell_angle_beta   61.73206566
_cell_angle_gamma   61.72968850
_symmetry_Int_Tables_number   1
_chemical_formula_structural   K2Te3PtO12
_chemical_formula_sum   'K2 Te3 Pt1 O12'
_cell_volume   266.99779834
_cell_formula_units_Z   1
loop_
 _symmetry_equiv_pos_site_id
 _symmetry_equiv_pos_as_xyz
  1  'x, y, z'
loop_
 _atom_site_type_symbol
 _atom_site_label
 _atom_site_symmetry_multiplicity
 _atom_site_fract_x
 _atom_site_fract_y
 _atom_site_fract_z
 _atom_site_occupancy
  K  K0  1  0.843293  0.891360  0.378945  1
  K  K1  1  0.108640  0.156707  0.621055  1
  Te  Te2  1  0.997955  0.502682  0.000491  1
  Te  Te3  1  0.497318  0.002045  0.999509  1
  Te  Te4  1  0.497923  0.502077  0.500000  1
  Pt  Pt5  1  0.497252  0.502748  0.000000  1
  O  O6  1  0.175918  0.179820  0.074996  1
  O  O7  1  0.583637  0.581814  0.663936  1
  O  O8  1  0.161122  0.583375  0.085969  1
  O  O9  1  0.574195  0.179658  0.677503  1
  O  O10  1  0.580484  0.166434  0.081261  1
  O  O11  1  0.176808  0.575445  0.678491  1
  O  O12  1  0.820180  0.824082  0.925004  1
  O  O13  1  0.418186  0.416363  0.336064  1
  O  O14  1  0.833566  0.419516  0.918739  1
  O  O15  1  0.424555  0.823192  0.321509  1
  O  O16  1  0.416625  0.838878  0.914031  1
  O  O17  1  0.820342  0.425805  0.322497  1
