# generated using pymatgen
data_Ho4Os5RuW2
_symmetry_space_group_name_H-M   'P 1'
_cell_length_a   5.56473762
_cell_length_b   5.56473624
_cell_length_c   8.38260300
_cell_angle_alpha   90.00000000
_cell_angle_beta   90.00000000
_cell_angle_gamma   121.22853012
_symmetry_Int_Tables_number   1
_chemical_formula_structural   Ho4Os5RuW2
_chemical_formula_sum   'Ho4 Os5 Ru1 W2'
_cell_volume   221.96690808
_cell_formula_units_Z   1
loop_
 _symmetry_equiv_pos_site_id
 _symmetry_equiv_pos_as_xyz
  1  'x, y, z'
loop_
 _atom_site_type_symbol
 _atom_site_label
 _atom_site_symmetry_multiplicity
 _atom_site_fract_x
 _atom_site_fract_y
 _atom_site_fract_z
 _atom_site_occupancy
  Ho  Ho0  1  0.333074  0.666926  0.436059  1
  Ho  Ho1  1  0.667303  0.332697  0.562815  1
  Ho  Ho2  1  0.667303  0.332697  0.937185  1
  Ho  Ho3  1  0.333074  0.666926  0.063941  1
  Os  Os4  1  0.823071  0.652658  0.250000  1
  Os  Os5  1  0.347342  0.176929  0.250000  1
  Os  Os6  1  0.169325  0.830675  0.750000  1
  Os  Os7  1  0.175758  0.349113  0.750000  1
  Os  Os8  1  0.650887  0.824242  0.750000  1
  Ru  Ru9  1  0.830339  0.169661  0.250000  1
  W  W10  1  0.001261  0.998739  0.499790  1
  W  W11  1  0.001261  0.998739  0.000210  1
