# generated using pymatgen
data_Tl3Bi(SO4)6
_symmetry_space_group_name_H-M   'P 1'
_cell_length_a   8.76409141
_cell_length_b   8.76334841
_cell_length_c   9.46296700
_cell_angle_alpha   62.39810816
_cell_angle_beta   62.42953224
_cell_angle_gamma   60.04712442
_symmetry_Int_Tables_number   1
_chemical_formula_structural   Tl3Bi(SO4)6
_chemical_formula_sum   'Tl3 Bi1 S6 O24'
_cell_volume   532.07262263
_cell_formula_units_Z   1
loop_
 _symmetry_equiv_pos_site_id
 _symmetry_equiv_pos_as_xyz
  1  'x, y, z'
loop_
 _atom_site_type_symbol
 _atom_site_label
 _atom_site_symmetry_multiplicity
 _atom_site_fract_x
 _atom_site_fract_y
 _atom_site_fract_z
 _atom_site_occupancy
  Tl  Tl0  1  0.648630  0.648115  0.055458  1
  Tl  Tl1  1  0.356255  0.356214  0.931169  1
  Tl  Tl2  1  0.155300  0.155381  0.534192  1
  Bi  Bi3  1  0.847819  0.847839  0.456199  1
  S  S4  1  0.751906  0.446575  0.755193  1
  S  S5  1  0.045695  0.751891  0.755767  1
  S  S6  1  0.532188  0.956466  0.245716  1
  S  S7  1  0.956755  0.265608  0.245393  1
  S  S8  1  0.265916  0.532536  0.245232  1
  S  S9  1  0.446752  0.046171  0.755008  1
  O  O10  1  0.914981  0.707770  0.926817  1
  O  O11  1  0.452396  0.914818  0.925426  1
  O  O12  1  0.632829  0.992414  0.310072  1
  O  O13  1  0.340269  0.976372  0.360828  1
  O  O14  1  0.005366  0.954238  0.697295  1
  O  O15  1  0.699065  0.637514  0.638438  1
  O  O16  1  0.707586  0.451877  0.925603  1
  O  O17  1  0.630277  0.763338  0.236758  1
  O  O18  1  0.954159  0.342753  0.697435  1
  O  O19  1  0.239232  0.647867  0.763741  1
  O  O20  1  0.647852  0.348393  0.764018  1
  O  O21  1  0.022648  0.698730  0.640327  1
  O  O22  1  0.977134  0.323034  0.359891  1
  O  O23  1  0.370222  0.630747  0.235880  1
  O  O24  1  0.763690  0.369521  0.236242  1
  O  O25  1  0.065291  0.633225  0.309758  1
  O  O26  1  0.348929  0.239494  0.763618  1
  O  O27  1  0.307322  0.532709  0.073825  1
  O  O28  1  0.322770  0.340561  0.360436  1
  O  O29  1  0.992217  0.064792  0.310557  1
  O  O30  1  0.637471  0.024816  0.637991  1
  O  O31  1  0.342390  0.005312  0.697791  1
  O  O32  1  0.532364  0.086057  0.074177  1
  O  O33  1  0.086321  0.306853  0.073752  1
