# generated using pymatgen
data_Pr12Os2Br17
_symmetry_space_group_name_H-M   'P 1'
_cell_length_a   9.68809041
_cell_length_b   11.62616369
_cell_length_c   11.71126425
_cell_angle_alpha   93.79331800
_cell_angle_beta   104.60072518
_cell_angle_gamma   114.30451500
_symmetry_Int_Tables_number   1
_chemical_formula_structural   Pr12Os2Br17
_chemical_formula_sum   'Pr12 Os2 Br17'
_cell_volume   1141.57345939
_cell_formula_units_Z   1
loop_
 _symmetry_equiv_pos_site_id
 _symmetry_equiv_pos_as_xyz
  1  'x, y, z'
loop_
 _atom_site_type_symbol
 _atom_site_label
 _atom_site_symmetry_multiplicity
 _atom_site_fract_x
 _atom_site_fract_y
 _atom_site_fract_z
 _atom_site_occupancy
  Pr  Pr0  1  0.064646  0.522426  0.324156  1
  Pr  Pr1  1  0.979992  0.811071  0.572560  1
  Pr  Pr2  1  0.635969  0.237874  0.288741  1
  Pr  Pr3  1  0.020008  0.188929  0.427440  1
  Pr  Pr4  1  0.232958  0.670882  0.999560  1
  Pr  Pr5  1  0.262933  0.999161  0.894356  1
  Pr  Pr6  1  0.364031  0.762126  0.711259  1
  Pr  Pr7  1  0.935354  0.477574  0.675844  1
  Pr  Pr8  1  0.737067  0.000839  0.105644  1
  Pr  Pr9  1  0.160933  0.288437  0.147037  1
  Pr  Pr10  1  0.767042  0.329118  0.000440  1
  Pr  Pr11  1  0.839067  0.711563  0.852963  1
  Os  Os12  1  0.104168  0.738944  0.786019  1
  Os  Os13  1  0.895832  0.261056  0.213981  1
  Br  Br14  1  0.793421  0.525234  0.422489  1
  Br  Br15  1  0.648326  0.424894  0.759127  1
  Br  Br16  1  0.847453  0.903015  0.325873  1
  Br  Br17  1  0.319595  0.213961  0.363774  1
  Br  Br18  1  0.152547  0.096985  0.674127  1
  Br  Br19  1  0.583881  0.049173  0.851068  1
  Br  Br20  1  0.759518  0.184114  0.532603  1
  Br  Br21  1  0.541964  0.706911  0.947586  1
  Br  Br22  1  0.351674  0.575106  0.240873  1
  Br  Br23  1  0.206579  0.474766  0.577511  1
  Br  Br24  1  0.053828  0.374152  0.901988  1
  Br  Br25  1  0.458036  0.293089  0.052414  1
  Br  Br26  1  0.000000  0.000000  0.000000  1
  Br  Br27  1  0.240482  0.815886  0.467397  1
  Br  Br28  1  0.416119  0.950827  0.148932  1
  Br  Br29  1  0.680405  0.786039  0.636226  1
  Br  Br30  1  0.946172  0.625848  0.098012  1
