# generated using pymatgen
data_LaTh7TiSe17
_symmetry_space_group_name_H-M   'P 1'
_cell_length_a   8.49383111
_cell_length_b   8.47979905
_cell_length_c   11.24712963
_cell_angle_alpha   80.63323835
_cell_angle_beta   80.61848747
_cell_angle_gamma   65.18031159
_symmetry_Int_Tables_number   1
_chemical_formula_structural   LaTh7TiSe17
_chemical_formula_sum   'La1 Th7 Ti1 Se17'
_cell_volume   721.39048448
_cell_formula_units_Z   1
loop_
 _symmetry_equiv_pos_site_id
 _symmetry_equiv_pos_as_xyz
  1  'x, y, z'
loop_
 _atom_site_type_symbol
 _atom_site_label
 _atom_site_symmetry_multiplicity
 _atom_site_fract_x
 _atom_site_fract_y
 _atom_site_fract_z
 _atom_site_occupancy
  La  La0  1  0.812199  0.302776  0.296630  1
  Th  Th1  1  0.300643  0.814822  0.294358  1
  Th  Th2  1  0.185494  0.699247  0.702860  1
  Th  Th3  1  0.699595  0.186257  0.703590  1
  Th  Th4  1  0.203759  0.203254  0.542539  1
  Th  Th5  1  0.795560  0.795582  0.456312  1
  Th  Th6  1  0.681657  0.682320  0.982032  1
  Th  Th7  1  0.317260  0.317542  0.020235  1
  Ti  Ti8  1  0.000443  0.002197  0.001699  1
  Se  Se9  1  0.824190  0.432407  0.537000  1
  Se  Se10  1  0.431653  0.820565  0.531373  1
  Se  Se11  1  0.178058  0.567522  0.468820  1
  Se  Se12  1  0.567796  0.173133  0.473808  1
  Se  Se13  1  0.945081  0.323226  0.022722  1
  Se  Se14  1  0.323521  0.943859  0.026268  1
  Se  Se15  1  0.056237  0.678251  0.970658  1
  Se  Se16  1  0.676728  0.058122  0.971542  1
  Se  Se17  1  0.217771  0.203561  0.277031  1
  Se  Se18  1  0.791073  0.791344  0.723979  1
  Se  Se19  1  0.061552  0.058865  0.773004  1
  Se  Se20  1  0.943074  0.931990  0.226932  1
  Se  Se21  1  0.303296  0.305282  0.754607  1
  Se  Se22  1  0.690698  0.704554  0.243800  1
  Se  Se23  1  0.519445  0.520889  0.833063  1
  Se  Se24  1  0.471635  0.486891  0.162145  1
  Se  Se25  1  0.001581  0.995544  0.502995  1
