# generated using pymatgen
data_Sc4SbW3O16
_symmetry_space_group_name_H-M   'P 1'
_cell_length_a   5.75597523
_cell_length_b   5.75601554
_cell_length_c   10.08021140
_cell_angle_alpha   81.17842298
_cell_angle_beta   78.35617380
_cell_angle_gamma   112.20809525
_symmetry_Int_Tables_number   1
_chemical_formula_structural   Sc4SbW3O16
_chemical_formula_sum   'Sc4 Sb1 W3 O16'
_cell_volume   292.96187063
_cell_formula_units_Z   1
loop_
 _symmetry_equiv_pos_site_id
 _symmetry_equiv_pos_as_xyz
  1  'x, y, z'
loop_
 _atom_site_type_symbol
 _atom_site_label
 _atom_site_symmetry_multiplicity
 _atom_site_fract_x
 _atom_site_fract_y
 _atom_site_fract_z
 _atom_site_occupancy
  Sc  Sc0  1  0.497653  0.500890  0.999282  1
  Sc  Sc1  1  0.252365  0.249114  0.500748  1
  Sc  Sc2  1  0.750159  0.746877  0.500725  1
  Sc  Sc3  1  0.999800  0.003082  0.999282  1
  Sb  Sb4  1  0.874945  0.374921  0.249996  1
  W  W5  1  0.625729  0.125028  0.749396  1
  W  W6  1  0.374927  0.874956  0.249981  1
  W  W7  1  0.124423  0.625120  0.750643  1
  O  O8  1  0.406021  0.197331  0.896682  1
  O  O9  1  0.156069  0.948287  0.395640  1
  O  O10  1  0.905955  0.697584  0.896495  1
  O  O11  1  0.650359  0.450856  0.398744  1
  O  O12  1  0.844087  0.052399  0.603499  1
  O  O13  1  0.593864  0.801792  0.104317  1
  O  O14  1  0.344029  0.552646  0.603328  1
  O  O15  1  0.099571  0.299106  0.101267  1
  O  O16  1  0.828010  0.516750  0.656559  1
  O  O17  1  0.581061  0.267215  0.155962  1
  O  O18  1  0.326814  0.015553  0.656560  1
  O  O19  1  0.076738  0.762865  0.155952  1
  O  O20  1  0.922163  0.233362  0.843400  1
  O  O21  1  0.673069  0.986974  0.344073  1
  O  O22  1  0.423339  0.734546  0.843409  1
  O  O23  1  0.168852  0.482745  0.344060  1
