# generated using pymatgen
data_Co4MoP4W3
_symmetry_space_group_name_H-M   'P 1'
_cell_length_a   3.74952200
_cell_length_b   5.81547256
_cell_length_c   6.74206098
_cell_angle_alpha   90.10767968
_cell_angle_beta   90.00000000
_cell_angle_gamma   90.00000000
_symmetry_Int_Tables_number   1
_chemical_formula_structural   Co4MoP4W3
_chemical_formula_sum   'Co4 Mo1 P4 W3'
_cell_volume   147.01201379
_cell_formula_units_Z   1
loop_
 _symmetry_equiv_pos_site_id
 _symmetry_equiv_pos_as_xyz
  1  'x, y, z'
loop_
 _atom_site_type_symbol
 _atom_site_label
 _atom_site_symmetry_multiplicity
 _atom_site_fract_x
 _atom_site_fract_y
 _atom_site_fract_z
 _atom_site_occupancy
  Co  Co0  1  0.750000  0.642005  0.429744  1
  Co  Co1  1  0.250000  0.860057  0.932056  1
  Co  Co2  1  0.750000  0.140170  0.069477  1
  Co  Co3  1  0.250000  0.358169  0.567740  1
  Mo  Mo4  1  0.750000  0.532915  0.831729  1
  P  P5  1  0.250000  0.730493  0.621957  1
  P  P6  1  0.250000  0.232450  0.879133  1
  P  P7  1  0.750000  0.269370  0.379232  1
  P  P8  1  0.750000  0.767775  0.119593  1
  W  W9  1  0.250000  0.467477  0.168994  1
  W  W10  1  0.250000  0.967578  0.332292  1
  W  W11  1  0.750000  0.031542  0.668055  1
