# generated using pymatgen
data_TbDy12Lu3(InRh)4
_symmetry_space_group_name_H-M   'P 1'
_cell_length_a   9.64310074
_cell_length_b   9.63036258
_cell_length_c   9.62514794
_cell_angle_alpha   60.01720098
_cell_angle_beta   59.93939134
_cell_angle_gamma   59.85536003
_symmetry_Int_Tables_number   1
_chemical_formula_structural   TbDy12Lu3(InRh)4
_chemical_formula_sum   'Tb1 Dy12 Lu3 In4 Rh4'
_cell_volume   631.14934063
_cell_formula_units_Z   1
loop_
 _symmetry_equiv_pos_site_id
 _symmetry_equiv_pos_as_xyz
  1  'x, y, z'
loop_
 _atom_site_type_symbol
 _atom_site_label
 _atom_site_symmetry_multiplicity
 _atom_site_fract_x
 _atom_site_fract_y
 _atom_site_fract_z
 _atom_site_occupancy
  Tb  Tb0  1  0.061149  0.436989  0.438746  1
  Dy  Dy1  1  0.648570  0.050672  0.649379  1
  Dy  Dy2  1  0.060984  0.061956  0.438573  1
  Dy  Dy3  1  0.438919  0.437010  0.061203  1
  Dy  Dy4  1  0.651460  0.650430  0.650539  1
  Dy  Dy5  1  0.812576  0.188301  0.187440  1
  Dy  Dy6  1  0.188467  0.812629  0.811614  1
  Dy  Dy7  1  0.050184  0.648573  0.649482  1
  Dy  Dy8  1  0.438826  0.061773  0.060638  1
  Dy  Dy9  1  0.438110  0.061704  0.437979  1
  Dy  Dy10  1  0.061537  0.437488  0.061524  1
  Dy  Dy11  1  0.649396  0.649281  0.050129  1
  Dy  Dy12  1  0.188550  0.812682  0.188322  1
  Lu  Lu13  1  0.810343  0.811791  0.189589  1
  Lu  Lu14  1  0.811503  0.189182  0.811975  1
  Lu  Lu15  1  0.188617  0.189067  0.811668  1
  In  In16  1  0.417402  0.416727  0.417473  1
  In  In17  1  0.417742  0.417005  0.748402  1
  In  In18  1  0.417493  0.748731  0.417406  1
  In  In19  1  0.748142  0.417343  0.417796  1
  Rh  Rh20  1  0.859810  0.424367  0.856955  1
  Rh  Rh21  1  0.856723  0.859245  0.859676  1
  Rh  Rh22  1  0.857404  0.857086  0.426033  1
  Rh  Rh23  1  0.426094  0.859971  0.857461  1
