# generated using pymatgen
data_Yb7PrZn2CuSi12Pd
_symmetry_space_group_name_H-M   'P 1'
_cell_length_a   8.13096300
_cell_length_b   8.13096180
_cell_length_c   8.40091000
_cell_angle_alpha   90.00000000
_cell_angle_beta   90.00000000
_cell_angle_gamma   119.99999266
_symmetry_Int_Tables_number   1
_chemical_formula_structural   Yb7PrZn2CuSi12Pd
_chemical_formula_sum   'Yb7 Pr1 Zn2 Cu1 Si12 Pd1'
_cell_volume   480.99537630
_cell_formula_units_Z   1
loop_
 _symmetry_equiv_pos_site_id
 _symmetry_equiv_pos_as_xyz
  1  'x, y, z'
loop_
 _atom_site_type_symbol
 _atom_site_label
 _atom_site_symmetry_multiplicity
 _atom_site_fract_x
 _atom_site_fract_y
 _atom_site_fract_z
 _atom_site_occupancy
  Yb  Yb0  1  0.500378  0.499622  0.741696  1
  Yb  Yb1  1  0.500745  0.499255  0.257922  1
  Yb  Yb2  1  0.999244  0.499622  0.741696  1
  Yb  Yb3  1  0.998511  0.499255  0.257922  1
  Yb  Yb4  1  0.500378  0.000756  0.741696  1
  Yb  Yb5  1  0.500745  0.001489  0.257922  1
  Yb  Yb6  1  0.000000  0.000000  0.746920  1
  Pr  Pr7  1  0.000000  0.000000  0.251893  1
  Zn  Zn8  1  0.666667  0.333333  0.001800  1
  Zn  Zn9  1  0.333333  0.666667  0.004670  1
  Cu  Cu10  1  0.333333  0.666667  0.497177  1
  Si  Si11  1  0.834164  0.165836  0.996906  1
  Si  Si12  1  0.165645  0.834355  0.997017  1
  Si  Si13  1  0.331672  0.165836  0.996906  1
  Si  Si14  1  0.166994  0.833006  0.502525  1
  Si  Si15  1  0.668712  0.834355  0.997017  1
  Si  Si16  1  0.834974  0.165026  0.502512  1
  Si  Si17  1  0.834164  0.668328  0.996906  1
  Si  Si18  1  0.666012  0.833006  0.502525  1
  Si  Si19  1  0.165645  0.331288  0.997017  1
  Si  Si20  1  0.330053  0.165026  0.502512  1
  Si  Si21  1  0.166994  0.333988  0.502525  1
  Si  Si22  1  0.834974  0.669947  0.502512  1
  Pd  Pd23  1  0.666667  0.333333  0.501804  1
