# generated using pymatgen
data_CaSc2(GaNi2)3
_symmetry_space_group_name_H-M   'P 1'
_cell_length_a   5.12768700
_cell_length_b   5.12768607
_cell_length_c   15.49887700
_cell_angle_alpha   90.00000000
_cell_angle_beta   90.00000000
_cell_angle_gamma   119.99998663
_symmetry_Int_Tables_number   1
_chemical_formula_structural   CaSc2(GaNi2)3
_chemical_formula_sum   'Ca2 Sc4 Ga6 Ni12'
_cell_volume   352.91803976
_cell_formula_units_Z   2
loop_
 _symmetry_equiv_pos_site_id
 _symmetry_equiv_pos_as_xyz
  1  'x, y, z'
loop_
 _atom_site_type_symbol
 _atom_site_label
 _atom_site_symmetry_multiplicity
 _atom_site_fract_x
 _atom_site_fract_y
 _atom_site_fract_z
 _atom_site_occupancy
  Ca  Ca0  1  0.333333  0.666667  0.750000  1
  Ca  Ca1  1  0.666667  0.333333  0.250000  1
  Sc  Sc2  1  0.333333  0.666667  0.539563  1
  Sc  Sc3  1  0.666667  0.333333  0.460437  1
  Sc  Sc4  1  0.666667  0.333333  0.039563  1
  Sc  Sc5  1  0.333333  0.666667  0.960437  1
  Ga  Ga6  1  0.000000  0.000000  0.250000  1
  Ga  Ga7  1  0.000000  0.000000  0.750000  1
  Ga  Ga8  1  0.333333  0.666667  0.250000  1
  Ga  Ga9  1  0.666667  0.333333  0.750000  1
  Ga  Ga10  1  0.000000  0.000000  0.000000  1
  Ga  Ga11  1  0.000000  0.000000  0.500000  1
  Ni  Ni12  1  0.169808  0.339613  0.121725  1
  Ni  Ni13  1  0.830192  0.660387  0.878275  1
  Ni  Ni14  1  0.660387  0.830192  0.121725  1
  Ni  Ni15  1  0.830192  0.660387  0.621725  1
  Ni  Ni16  1  0.339613  0.169808  0.878275  1
  Ni  Ni17  1  0.169808  0.339613  0.378275  1
  Ni  Ni18  1  0.169808  0.830192  0.121725  1
  Ni  Ni19  1  0.339613  0.169808  0.621725  1
  Ni  Ni20  1  0.830192  0.169808  0.878275  1
  Ni  Ni21  1  0.660387  0.830192  0.378275  1
  Ni  Ni22  1  0.830192  0.169808  0.621725  1
  Ni  Ni23  1  0.169808  0.830192  0.378275  1
