# generated using pymatgen
data_Tm12Al2Fe2Sn
_symmetry_space_group_name_H-M   'P 1'
_cell_length_a   8.28860383
_cell_length_b   8.28860381
_cell_length_c   8.28860400
_cell_angle_alpha   110.17820684
_cell_angle_beta   109.70080728
_cell_angle_gamma   108.53900963
_symmetry_Int_Tables_number   1
_chemical_formula_structural   Tm12Al2Fe2Sn
_chemical_formula_sum   'Tm12 Al2 Fe2 Sn1'
_cell_volume   438.25667459
_cell_formula_units_Z   1
loop_
 _symmetry_equiv_pos_site_id
 _symmetry_equiv_pos_as_xyz
  1  'x, y, z'
loop_
 _atom_site_type_symbol
 _atom_site_label
 _atom_site_symmetry_multiplicity
 _atom_site_fract_x
 _atom_site_fract_y
 _atom_site_fract_z
 _atom_site_occupancy
  Tm  Tm0  1  0.301852  0.307653  0.609505  1
  Tm  Tm1  1  0.698148  0.692347  0.390495  1
  Tm  Tm2  1  0.301852  0.692347  0.994198  1
  Tm  Tm3  1  0.698148  0.307653  0.005802  1
  Tm  Tm4  1  0.446077  0.204445  0.241633  1
  Tm  Tm5  1  0.553923  0.795555  0.758367  1
  Tm  Tm6  1  0.962812  0.204445  0.758367  1
  Tm  Tm7  1  0.202160  0.951973  0.749812  1
  Tm  Tm8  1  0.037188  0.795555  0.241633  1
  Tm  Tm9  1  0.797840  0.048027  0.250188  1
  Tm  Tm10  1  0.202160  0.452348  0.250188  1
  Tm  Tm11  1  0.797840  0.547652  0.749812  1
  Al  Al12  1  0.000000  0.000000  0.000000  1
  Al  Al13  1  0.000000  0.500000  0.500000  1
  Fe  Fe14  1  0.386727  0.386727  0.000000  1
  Fe  Fe15  1  0.613273  0.613273  0.000000  1
  Sn  Sn16  1  0.500000  0.000000  0.500000  1
