# generated using pymatgen
data_Tb2HoGa6(CuNi2)3
_symmetry_space_group_name_H-M   'P 1'
_cell_length_a   4.10387600
_cell_length_b   8.79612029
_cell_length_c   8.79611815
_cell_angle_alpha   60.04038395
_cell_angle_beta   90.00000000
_cell_angle_gamma   90.00000000
_symmetry_Int_Tables_number   1
_chemical_formula_structural   Tb2HoGa6(CuNi2)3
_chemical_formula_sum   'Tb2 Ho1 Ga6 Cu3 Ni6'
_cell_volume   275.09561108
_cell_formula_units_Z   1
loop_
 _symmetry_equiv_pos_site_id
 _symmetry_equiv_pos_as_xyz
  1  'x, y, z'
loop_
 _atom_site_type_symbol
 _atom_site_label
 _atom_site_symmetry_multiplicity
 _atom_site_fract_x
 _atom_site_fract_y
 _atom_site_fract_z
 _atom_site_occupancy
  Tb  Tb0  1  0.500000  0.333357  0.333332  1
  Tb  Tb1  1  0.500000  0.666668  0.666643  1
  Ho  Ho2  1  0.000000  0.999730  0.000270  1
  Ga  Ga3  1  0.500000  0.720634  0.279366  1
  Ga  Ga4  1  0.500000  0.279171  0.000014  1
  Ga  Ga5  1  0.500000  0.999986  0.720829  1
  Ga  Ga6  1  0.000000  0.482094  0.517906  1
  Ga  Ga7  1  0.000000  0.518096  0.999828  1
  Ga  Ga8  1  0.000000  0.000172  0.481904  1
  Cu  Cu9  1  0.500000  0.293042  0.706958  1
  Cu  Cu10  1  0.500000  0.706974  0.000046  1
  Cu  Cu11  1  0.500000  0.999954  0.293026  1
  Ni  Ni12  1  0.000000  0.199737  0.173228  1
  Ni  Ni13  1  0.000000  0.173198  0.627445  1
  Ni  Ni14  1  0.000000  0.627178  0.199415  1
  Ni  Ni15  1  0.000000  0.826771  0.800263  1
  Ni  Ni16  1  0.000000  0.372555  0.826802  1
  Ni  Ni17  1  0.000000  0.800585  0.372822  1
