# generated using pymatgen
data_Lu4TiSbRh10
_symmetry_space_group_name_H-M   'P 1'
_cell_length_a   4.25739200
_cell_length_b   5.66236098
_cell_length_c   11.06851190
_cell_angle_alpha   90.81385056
_cell_angle_beta   90.00000000
_cell_angle_gamma   90.00000000
_symmetry_Int_Tables_number   1
_chemical_formula_structural   Lu4TiSbRh10
_chemical_formula_sum   'Lu4 Ti1 Sb1 Rh10'
_cell_volume   266.80048507
_cell_formula_units_Z   1
loop_
 _symmetry_equiv_pos_site_id
 _symmetry_equiv_pos_as_xyz
  1  'x, y, z'
loop_
 _atom_site_type_symbol
 _atom_site_label
 _atom_site_symmetry_multiplicity
 _atom_site_fract_x
 _atom_site_fract_y
 _atom_site_fract_z
 _atom_site_occupancy
  Lu  Lu0  1  0.500000  0.329418  0.144219  1
  Lu  Lu1  1  0.500000  0.670582  0.855781  1
  Lu  Lu2  1  0.500000  0.834230  0.358998  1
  Lu  Lu3  1  0.500000  0.165770  0.641002  1
  Ti  Ti4  1  0.000000  0.500000  0.500000  1
  Sb  Sb5  1  0.000000  0.000000  0.000000  1
  Rh  Rh6  1  0.000000  0.000000  0.500000  1
  Rh  Rh7  1  0.000000  0.500000  0.000000  1
  Rh  Rh8  1  0.000000  0.076077  0.246662  1
  Rh  Rh9  1  0.000000  0.923923  0.753338  1
  Rh  Rh10  1  0.000000  0.577384  0.262423  1
  Rh  Rh11  1  0.000000  0.422616  0.737577  1
  Rh  Rh12  1  0.500000  0.325139  0.397812  1
  Rh  Rh13  1  0.500000  0.674861  0.602188  1
  Rh  Rh14  1  0.500000  0.811624  0.110032  1
  Rh  Rh15  1  0.500000  0.188376  0.889968  1
