# generated using pymatgen
data_Ho2MnRu3
_symmetry_space_group_name_H-M   'P 1'
_cell_length_a   5.22599920
_cell_length_b   5.39659422
_cell_length_c   5.39659400
_cell_angle_alpha   60.00000137
_cell_angle_beta   58.91415708
_cell_angle_gamma   58.91416322
_symmetry_Int_Tables_number   1
_chemical_formula_structural   Ho2MnRu3
_chemical_formula_sum   'Ho2 Mn1 Ru3'
_cell_volume   105.81994357
_cell_formula_units_Z   1
loop_
 _symmetry_equiv_pos_site_id
 _symmetry_equiv_pos_as_xyz
  1  'x, y, z'
loop_
 _atom_site_type_symbol
 _atom_site_label
 _atom_site_symmetry_multiplicity
 _atom_site_fract_x
 _atom_site_fract_y
 _atom_site_fract_z
 _atom_site_occupancy
  Ho  Ho0  1  0.249966  0.250011  0.250011  1
  Ho  Ho1  1  0.000034  0.999989  0.999989  1
  Mn  Mn2  1  0.125000  0.625000  0.625000  1
  Ru  Ru3  1  0.625000  0.625000  0.125000  1
  Ru  Ru4  1  0.625000  0.125000  0.625000  1
  Ru  Ru5  1  0.625000  0.625000  0.625000  1
