# generated using pymatgen
data_CeY2TmCdIr
_symmetry_space_group_name_H-M   'P 1'
_cell_length_a   9.63945453
_cell_length_b   9.63945420
_cell_length_c   9.65645100
_cell_angle_alpha   59.94165831
_cell_angle_beta   59.94165945
_cell_angle_gamma   60.11667992
_symmetry_Int_Tables_number   1
_chemical_formula_structural   CeY2TmCdIr
_chemical_formula_sum   'Ce4 Y8 Tm4 Cd4 Ir4'
_cell_volume   634.46071144
_cell_formula_units_Z   4
loop_
 _symmetry_equiv_pos_site_id
 _symmetry_equiv_pos_as_xyz
  1  'x, y, z'
loop_
 _atom_site_type_symbol
 _atom_site_label
 _atom_site_symmetry_multiplicity
 _atom_site_fract_x
 _atom_site_fract_y
 _atom_site_fract_z
 _atom_site_occupancy
  Ce  Ce0  1  0.349644  0.349644  0.349075  1
  Ce  Ce1  1  0.349644  0.349644  0.951638  1
  Ce  Ce2  1  0.349075  0.951638  0.349644  1
  Ce  Ce3  1  0.951638  0.349075  0.349644  1
  Y  Y4  1  0.187066  0.187066  0.812934  1
  Y  Y5  1  0.812934  0.812934  0.187066  1
  Y  Y6  1  0.937889  0.562111  0.562111  1
  Y  Y7  1  0.562111  0.937889  0.937889  1
  Y  Y8  1  0.562111  0.937889  0.562111  1
  Y  Y9  1  0.937889  0.562111  0.937889  1
  Y  Y10  1  0.561705  0.561705  0.938295  1
  Y  Y11  1  0.938295  0.938295  0.561705  1
  Tm  Tm12  1  0.812111  0.187889  0.187889  1
  Tm  Tm13  1  0.187889  0.812111  0.812111  1
  Tm  Tm14  1  0.187889  0.812111  0.187889  1
  Tm  Tm15  1  0.812111  0.187889  0.812111  1
  Cd  Cd16  1  0.581678  0.581678  0.581750  1
  Cd  Cd17  1  0.581678  0.581678  0.254895  1
  Cd  Cd18  1  0.581750  0.254895  0.581678  1
  Cd  Cd19  1  0.254895  0.581750  0.581678  1
  Ir  Ir20  1  0.141607  0.141607  0.145880  1
  Ir  Ir21  1  0.141607  0.141607  0.570907  1
  Ir  Ir22  1  0.145880  0.570907  0.141607  1
  Ir  Ir23  1  0.570907  0.145880  0.141607  1
