# generated using pymatgen
data_MnGaPO5
_symmetry_space_group_name_H-M   'P 1'
_cell_length_a   5.70837394
_cell_length_b   7.36744780
_cell_length_c   10.81618862
_cell_angle_alpha   89.97716277
_cell_angle_beta   90.03613429
_cell_angle_gamma   98.04384677
_symmetry_Int_Tables_number   1
_chemical_formula_structural   MnGaPO5
_chemical_formula_sum   'Mn4 Ga4 P4 O20'
_cell_volume   450.41159622
_cell_formula_units_Z   4
loop_
 _symmetry_equiv_pos_site_id
 _symmetry_equiv_pos_as_xyz
  1  'x, y, z'
loop_
 _atom_site_type_symbol
 _atom_site_label
 _atom_site_symmetry_multiplicity
 _atom_site_fract_x
 _atom_site_fract_y
 _atom_site_fract_z
 _atom_site_occupancy
  Mn  Mn0  1  0.620342  0.005268  0.357173  1
  Mn  Mn1  1  0.879504  0.994779  0.857262  1
  Mn  Mn2  1  0.380105  0.994610  0.642724  1
  Mn  Mn3  1  0.119986  0.005655  0.142808  1
  Ga  Ga4  1  0.553179  0.362766  0.173039  1
  Ga  Ga5  1  0.946743  0.637106  0.673056  1
  Ga  Ga6  1  0.447014  0.637162  0.827001  1
  Ga  Ga7  1  0.053213  0.362840  0.326993  1
  P  P8  1  0.075787  0.778956  0.403745  1
  P  P9  1  0.424149  0.220928  0.903834  1
  P  P10  1  0.924333  0.220942  0.596169  1
  P  P11  1  0.575708  0.779120  0.096252  1
  O  O12  1  0.753385  0.264706  0.278911  1
  O  O13  1  0.746826  0.735197  0.778848  1
  O  O14  1  0.246751  0.735058  0.720986  1
  O  O15  1  0.253249  0.265013  0.221113  1
  O  O16  1  0.132846  0.614670  0.325299  1
  O  O17  1  0.367129  0.385349  0.825257  1
  O  O18  1  0.867195  0.385273  0.674669  1
  O  O19  1  0.632864  0.614651  0.174755  1
  O  O20  1  0.598617  0.286609  0.010312  1
  O  O21  1  0.901359  0.713203  0.510131  1
  O  O22  1  0.401354  0.713390  0.989711  1
  O  O23  1  0.098644  0.286702  0.489819  1
  O  O24  1  0.953012  0.908572  0.319597  1
  O  O25  1  0.546753  0.091435  0.819755  1
  O  O26  1  0.047182  0.091390  0.680406  1
  O  O27  1  0.452924  0.908556  0.180310  1
  O  O28  1  0.689510  0.116299  0.544523  1
  O  O29  1  0.810379  0.883835  0.044652  1
  O  O30  1  0.310613  0.883607  0.455438  1
  O  O31  1  0.189345  0.116354  0.955450  1
