# generated using pymatgen
data_Tm6Al12Ga7Si5Os8
_symmetry_space_group_name_H-M   'P 1'
_cell_length_a   8.63387800
_cell_length_b   8.62122614
_cell_length_c   9.65877600
_cell_angle_alpha   90.00000000
_cell_angle_beta   90.00000000
_cell_angle_gamma   120.04855719
_symmetry_Int_Tables_number   1
_chemical_formula_structural   Tm6Al12Ga7Si5Os8
_chemical_formula_sum   'Tm6 Al12 Ga7 Si5 Os8'
_cell_volume   622.32172876
_cell_formula_units_Z   1
loop_
 _symmetry_equiv_pos_site_id
 _symmetry_equiv_pos_as_xyz
  1  'x, y, z'
loop_
 _atom_site_type_symbol
 _atom_site_label
 _atom_site_symmetry_multiplicity
 _atom_site_fract_x
 _atom_site_fract_y
 _atom_site_fract_z
 _atom_site_occupancy
  Tm  Tm0  1  0.193907  0.387815  0.250000  1
  Tm  Tm1  1  0.805775  0.611550  0.750000  1
  Tm  Tm2  1  0.610348  0.805757  0.250000  1
  Tm  Tm3  1  0.388427  0.195370  0.750000  1
  Tm  Tm4  1  0.195409  0.805757  0.250000  1
  Tm  Tm5  1  0.806943  0.195370  0.750000  1
  Al  Al6  1  0.165909  0.331818  0.577102  1
  Al  Al7  1  0.833749  0.667498  0.423307  1
  Al  Al8  1  0.667413  0.834412  0.575484  1
  Al  Al9  1  0.833749  0.667498  0.076693  1
  Al  Al10  1  0.331118  0.166372  0.422316  1
  Al  Al11  1  0.165909  0.331818  0.922898  1
  Al  Al12  1  0.166999  0.834412  0.575484  1
  Al  Al13  1  0.331118  0.166372  0.077684  1
  Al  Al14  1  0.835254  0.166372  0.422316  1
  Al  Al15  1  0.667413  0.834412  0.924516  1
  Al  Al16  1  0.835254  0.166372  0.077684  1
  Al  Al17  1  0.166999  0.834412  0.924516  1
  Ga  Ga18  1  0.438219  0.876438  0.750000  1
  Ga  Ga19  1  0.874074  0.434838  0.250000  1
  Ga  Ga20  1  0.127534  0.564700  0.750000  1
  Ga  Ga21  1  0.560765  0.434838  0.250000  1
  Ga  Ga22  1  0.437166  0.564700  0.750000  1
  Ga  Ga23  1  0.999669  0.999338  0.250000  1
  Ga  Ga24  1  0.000341  0.000683  0.750000  1
  Si  Si25  1  0.332425  0.664851  0.045847  1
  Si  Si26  1  0.666854  0.333707  0.955544  1
  Si  Si27  1  0.666854  0.333707  0.544456  1
  Si  Si28  1  0.332425  0.664851  0.454153  1
  Si  Si29  1  0.562802  0.125603  0.250000  1
  Os  Os30  1  0.500570  0.001140  0.009276  1
  Os  Os31  1  0.999534  0.499358  0.000191  1
  Os  Os32  1  0.500570  0.001140  0.490724  1
  Os  Os33  1  0.499824  0.499358  0.000191  1
  Os  Os34  1  0.999534  0.499358  0.499809  1
  Os  Os35  1  0.499824  0.499358  0.499809  1
  Os  Os36  1  0.999662  0.999322  0.000059  1
  Os  Os37  1  0.999662  0.999322  0.499941  1
