# generated using pymatgen
data_Ce2SmCd3Pt2Au
_symmetry_space_group_name_H-M   'P 1'
_cell_length_a   7.88433483
_cell_length_b   7.88433592
_cell_length_c   3.90322000
_cell_angle_alpha   90.00000000
_cell_angle_beta   90.00000000
_cell_angle_gamma   120.37770664
_symmetry_Int_Tables_number   1
_chemical_formula_structural   Ce2SmCd3Pt2Au
_chemical_formula_sum   'Ce2 Sm1 Cd3 Pt2 Au1'
_cell_volume   209.32364673
_cell_formula_units_Z   1
loop_
 _symmetry_equiv_pos_site_id
 _symmetry_equiv_pos_as_xyz
  1  'x, y, z'
loop_
 _atom_site_type_symbol
 _atom_site_label
 _atom_site_symmetry_multiplicity
 _atom_site_fract_x
 _atom_site_fract_y
 _atom_site_fract_z
 _atom_site_occupancy
  Ce  Ce0  1  0.412385  0.999498  0.000000  1
  Ce  Ce1  1  0.999498  0.412385  0.000000  1
  Sm  Sm2  1  0.591433  0.591433  0.000000  1
  Cd  Cd3  1  0.996298  0.738561  0.500000  1
  Cd  Cd4  1  0.265577  0.265577  0.500000  1
  Cd  Cd5  1  0.738561  0.996298  0.500000  1
  Pt  Pt6  1  0.325450  0.668956  0.500000  1
  Pt  Pt7  1  0.668956  0.325450  0.500000  1
  Au  Au8  1  0.001842  0.001842  0.000000  1
