# generated using pymatgen
data_TbY2Ga6Ni7Pd2
_symmetry_space_group_name_H-M   'P 1'
_cell_length_a   4.16061300
_cell_length_b   8.79069576
_cell_length_c   9.11328000
_cell_angle_alpha   59.00958875
_cell_angle_beta   90.00000000
_cell_angle_gamma   90.00000000
_symmetry_Int_Tables_number   1
_chemical_formula_structural   TbY2Ga6Ni7Pd2
_chemical_formula_sum   'Tb1 Y2 Ga6 Ni7 Pd2'
_cell_volume   285.73572569
_cell_formula_units_Z   1
loop_
 _symmetry_equiv_pos_site_id
 _symmetry_equiv_pos_as_xyz
  1  'x, y, z'
loop_
 _atom_site_type_symbol
 _atom_site_label
 _atom_site_symmetry_multiplicity
 _atom_site_fract_x
 _atom_site_fract_y
 _atom_site_fract_z
 _atom_site_occupancy
  Tb  Tb0  1  0.000000  0.999630  0.989546  1
  Y  Y1  1  0.500000  0.328562  0.333200  1
  Y  Y2  1  0.500000  0.670205  0.661620  1
  Ga  Ga3  1  0.500000  0.727865  0.279405  1
  Ga  Ga4  1  0.500000  0.271723  0.007782  1
  Ga  Ga5  1  0.500000  0.999302  0.710570  1
  Ga  Ga6  1  0.000000  0.475700  0.536373  1
  Ga  Ga7  1  0.000000  0.525621  0.010799  1
  Ga  Ga8  1  0.000000  0.001559  0.467637  1
  Ni  Ni9  1  0.000000  0.198788  0.168739  1
  Ni  Ni10  1  0.000000  0.171004  0.609473  1
  Ni  Ni11  1  0.000000  0.610626  0.227262  1
  Ni  Ni12  1  0.000000  0.828730  0.778195  1
  Ni  Ni13  1  0.000000  0.388083  0.838226  1
  Ni  Ni14  1  0.000000  0.802305  0.366931  1
  Ni  Ni15  1  0.500000  0.000338  0.292761  1
  Pd  Pd16  1  0.500000  0.285284  0.718253  1
  Pd  Pd17  1  0.500000  0.714577  0.003326  1
