# generated using pymatgen
data_TbSc(PaGa5)3
_symmetry_space_group_name_H-M   'P 1'
_cell_length_a   12.52233185
_cell_length_b   12.52233214
_cell_length_c   12.52233200
_cell_angle_alpha   28.31280307
_cell_angle_beta   28.31280062
_cell_angle_gamma   28.31280334
_symmetry_Int_Tables_number   1
_chemical_formula_structural   TbSc(PaGa5)3
_chemical_formula_sum   'Tb1 Sc1 Pa3 Ga15'
_cell_volume   390.30457002
_cell_formula_units_Z   1
loop_
 _symmetry_equiv_pos_site_id
 _symmetry_equiv_pos_as_xyz
  1  'x, y, z'
loop_
 _atom_site_type_symbol
 _atom_site_label
 _atom_site_symmetry_multiplicity
 _atom_site_fract_x
 _atom_site_fract_y
 _atom_site_fract_z
 _atom_site_occupancy
  Tb  Tb0  1  0.998734  0.998734  0.998734  1
  Sc  Sc1  1  0.599687  0.599687  0.599687  1
  Pa  Pa2  1  0.130976  0.130976  0.130976  1
  Pa  Pa3  1  0.870377  0.870377  0.870377  1
  Pa  Pa4  1  0.400325  0.400325  0.400325  1
  Ga  Ga5  1  0.132589  0.635879  0.635879  1
  Ga  Ga6  1  0.635879  0.635879  0.132589  1
  Ga  Ga7  1  0.635879  0.132589  0.635879  1
  Ga  Ga8  1  0.367998  0.867971  0.367998  1
  Ga  Ga9  1  0.367998  0.367998  0.867971  1
  Ga  Ga10  1  0.867971  0.367998  0.367998  1
  Ga  Ga11  1  0.431165  0.882133  0.882133  1
  Ga  Ga12  1  0.882133  0.882133  0.431165  1
  Ga  Ga13  1  0.882133  0.431165  0.882133  1
  Ga  Ga14  1  0.118341  0.563963  0.118341  1
  Ga  Ga15  1  0.118341  0.118341  0.563963  1
  Ga  Ga16  1  0.563963  0.118341  0.118341  1
  Ga  Ga17  1  0.499258  0.499258  0.996996  1
  Ga  Ga18  1  0.499258  0.996996  0.499258  1
  Ga  Ga19  1  0.996996  0.499258  0.499258  1
