# generated using pymatgen
data_Ac6Mg6Cd17S
_symmetry_space_group_name_H-M   'P 1'
_cell_length_a   10.27748422
_cell_length_b   10.34741091
_cell_length_c   10.34741000
_cell_angle_alpha   60.31618666
_cell_angle_beta   60.22329890
_cell_angle_gamma   60.22330128
_symmetry_Int_Tables_number   1
_chemical_formula_structural   Ac6Mg6Cd17S
_chemical_formula_sum   'Ac6 Mg6 Cd17 S1'
_cell_volume   782.57651925
_cell_formula_units_Z   1
loop_
 _symmetry_equiv_pos_site_id
 _symmetry_equiv_pos_as_xyz
  1  'x, y, z'
loop_
 _atom_site_type_symbol
 _atom_site_label
 _atom_site_symmetry_multiplicity
 _atom_site_fract_x
 _atom_site_fract_y
 _atom_site_fract_z
 _atom_site_occupancy
  Ac  Ac0  1  0.787556  0.789603  0.210397  1
  Ac  Ac1  1  0.212444  0.789603  0.210397  1
  Ac  Ac2  1  0.789170  0.210830  0.210830  1
  Ac  Ac3  1  0.212444  0.210397  0.789603  1
  Ac  Ac4  1  0.787556  0.210397  0.789603  1
  Ac  Ac5  1  0.210830  0.789170  0.789170  1
  Mg  Mg6  1  0.000000  0.000000  0.500000  1
  Mg  Mg7  1  0.500000  0.000000  0.500000  1
  Mg  Mg8  1  0.000000  0.500000  0.500000  1
  Mg  Mg9  1  0.500000  0.500000  0.000000  1
  Mg  Mg10  1  0.000000  0.500000  0.000000  1
  Mg  Mg11  1  0.500000  0.500000  0.500000  1
  Cd  Cd12  1  0.829592  0.827652  0.513164  1
  Cd  Cd13  1  0.829592  0.513164  0.827652  1
  Cd  Cd14  1  0.514480  0.827172  0.827172  1
  Cd  Cd15  1  0.831179  0.827172  0.827172  1
  Cd  Cd16  1  0.170408  0.172348  0.486836  1
  Cd  Cd17  1  0.170408  0.486836  0.172348  1
  Cd  Cd18  1  0.485520  0.172828  0.172828  1
  Cd  Cd19  1  0.168821  0.172828  0.172828  1
  Cd  Cd20  1  0.622811  0.618672  0.135708  1
  Cd  Cd21  1  0.622811  0.135708  0.618672  1
  Cd  Cd22  1  0.133933  0.621616  0.621616  1
  Cd  Cd23  1  0.622834  0.621616  0.621616  1
  Cd  Cd24  1  0.377189  0.381328  0.864292  1
  Cd  Cd25  1  0.377189  0.864292  0.381328  1
  Cd  Cd26  1  0.866067  0.378384  0.378384  1
  Cd  Cd27  1  0.377166  0.378384  0.378384  1
  Cd  Cd28  1  0.500000  0.000000  0.000000  1
  S  S29  1  0.000000  0.000000  0.000000  1
