# generated using pymatgen
data_La2Yb9Ho9Sn16
_symmetry_space_group_name_H-M   'P 1'
_cell_length_a   7.87095034
_cell_length_b   8.44277888
_cell_length_c   15.97020700
_cell_angle_alpha   90.00817757
_cell_angle_beta   89.98310452
_cell_angle_gamma   89.76702587
_symmetry_Int_Tables_number   1
_chemical_formula_structural   La2Yb9Ho9Sn16
_chemical_formula_sum   'La2 Yb9 Ho9 Sn16'
_cell_volume   1061.25443784
_cell_formula_units_Z   1
loop_
 _symmetry_equiv_pos_site_id
 _symmetry_equiv_pos_as_xyz
  1  'x, y, z'
loop_
 _atom_site_type_symbol
 _atom_site_label
 _atom_site_symmetry_multiplicity
 _atom_site_fract_x
 _atom_site_fract_y
 _atom_site_fract_z
 _atom_site_occupancy
  La  La0  1  0.506130  0.685710  0.595068  1
  La  La1  1  0.006077  0.818990  0.907446  1
  Yb  Yb2  1  0.495111  0.311382  0.092862  1
  Yb  Yb3  1  0.996614  0.187051  0.407632  1
  Yb  Yb4  1  0.493935  0.312108  0.406936  1
  Yb  Yb5  1  0.995368  0.186581  0.092700  1
  Yb  Yb6  1  0.504012  0.686863  0.904885  1
  Yb  Yb7  1  0.004800  0.816255  0.592892  1
  Yb  Yb8  1  0.335971  0.992125  0.749541  1
  Yb  Yb9  1  0.163529  0.488786  0.250009  1
  Yb  Yb10  1  0.662667  0.009741  0.250022  1
  Ho  Ho11  1  0.672714  0.165348  0.623225  1
  Ho  Ho12  1  0.173647  0.331611  0.876008  1
  Ho  Ho13  1  0.326527  0.831860  0.122498  1
  Ho  Ho14  1  0.827328  0.665584  0.377720  1
  Ho  Ho15  1  0.325758  0.832497  0.376925  1
  Ho  Ho16  1  0.826417  0.664935  0.122833  1
  Ho  Ho17  1  0.673061  0.165706  0.876627  1
  Ho  Ho18  1  0.173668  0.332566  0.624068  1
  Ho  Ho19  1  0.836634  0.508238  0.750631  1
  Sn  Sn20  1  0.672555  0.962922  0.460431  1
  Sn  Sn21  1  0.172847  0.536285  0.038764  1
  Sn  Sn22  1  0.330670  0.036933  0.959899  1
  Sn  Sn23  1  0.830377  0.464998  0.543352  1
  Sn  Sn24  1  0.328720  0.035466  0.540541  1
  Sn  Sn25  1  0.828342  0.467614  0.956301  1
  Sn  Sn26  1  0.673948  0.962288  0.039711  1
  Sn  Sn27  1  0.173911  0.537298  0.460956  1
  Sn  Sn28  1  0.474616  0.381850  0.750156  1
  Sn  Sn29  1  0.970689  0.131986  0.749938  1
  Sn  Sn30  1  0.527594  0.621013  0.250016  1
  Sn  Sn31  1  0.026847  0.876673  0.249939  1
  Sn  Sn32  1  0.717029  0.861124  0.749969  1
  Sn  Sn33  1  0.206949  0.632390  0.749583  1
  Sn  Sn34  1  0.281626  0.127864  0.249722  1
  Sn  Sn35  1  0.783313  0.369360  0.250194  1
