# generated using pymatgen
data_RbMo(CO3)2
_symmetry_space_group_name_H-M   'P 1'
_cell_length_a   6.51660024
_cell_length_b   6.51659896
_cell_length_c   7.19730154
_cell_angle_alpha   104.63039385
_cell_angle_beta   104.63000572
_cell_angle_gamma   94.80558150
_symmetry_Int_Tables_number   1
_chemical_formula_structural   RbMo(CO3)2
_chemical_formula_sum   'Rb2 Mo2 C4 O12'
_cell_volume   282.56516780
_cell_formula_units_Z   2
loop_
 _symmetry_equiv_pos_site_id
 _symmetry_equiv_pos_as_xyz
  1  'x, y, z'
loop_
 _atom_site_type_symbol
 _atom_site_label
 _atom_site_symmetry_multiplicity
 _atom_site_fract_x
 _atom_site_fract_y
 _atom_site_fract_z
 _atom_site_occupancy
  Rb  Rb0  1  0.899281  0.100718  0.249999  1
  Rb  Rb1  1  0.100719  0.899282  0.750001  1
  Mo  Mo2  1  0.340550  0.659450  0.250000  1
  Mo  Mo3  1  0.659450  0.340550  0.750000  1
  C  C4  1  0.401284  0.187911  0.291952  1
  C  C5  1  0.812089  0.598716  0.208050  1
  C  C6  1  0.187911  0.401284  0.791951  1
  C  C7  1  0.598716  0.812089  0.708049  1
  O  O8  1  0.742119  0.418293  0.069624  1
  O  O9  1  0.292663  0.318051  0.212002  1
  O  O10  1  0.322264  0.985507  0.220732  1
  O  O11  1  0.014493  0.677733  0.279270  1
  O  O12  1  0.681949  0.707343  0.287998  1
  O  O13  1  0.581705  0.257878  0.430376  1
  O  O14  1  0.418294  0.742122  0.569624  1
  O  O15  1  0.318050  0.292657  0.712003  1
  O  O16  1  0.985507  0.322267  0.720731  1
  O  O17  1  0.677736  0.014493  0.779269  1
  O  O18  1  0.707337  0.681949  0.787999  1
  O  O19  1  0.257881  0.581707  0.930376  1
