# generated using pymatgen
data_Yb3Pr17(Ir2Ru)4
_symmetry_space_group_name_H-M   'P 1'
_cell_length_a   11.21915100
_cell_length_b   11.21915100
_cell_length_c   6.62015600
_cell_angle_alpha   90.00000000
_cell_angle_beta   90.00000000
_cell_angle_gamma   90.00000000
_symmetry_Int_Tables_number   1
_chemical_formula_structural   Yb3Pr17(Ir2Ru)4
_chemical_formula_sum   'Yb3 Pr17 Ir8 Ru4'
_cell_volume   833.27472706
_cell_formula_units_Z   1
loop_
 _symmetry_equiv_pos_site_id
 _symmetry_equiv_pos_as_xyz
  1  'x, y, z'
loop_
 _atom_site_type_symbol
 _atom_site_label
 _atom_site_symmetry_multiplicity
 _atom_site_fract_x
 _atom_site_fract_y
 _atom_site_fract_z
 _atom_site_occupancy
  Yb  Yb0  1  0.000000  0.000000  0.500000  1
  Yb  Yb1  1  0.000000  0.000000  0.000000  1
  Yb  Yb2  1  0.500000  0.500000  0.000000  1
  Pr  Pr3  1  0.289102  0.088375  0.384435  1
  Pr  Pr4  1  0.290083  0.913299  0.883835  1
  Pr  Pr5  1  0.709917  0.086701  0.883835  1
  Pr  Pr6  1  0.710898  0.911625  0.384435  1
  Pr  Pr7  1  0.587776  0.790330  0.882430  1
  Pr  Pr8  1  0.589180  0.206058  0.382036  1
  Pr  Pr9  1  0.410820  0.793942  0.382036  1
  Pr  Pr10  1  0.412224  0.209670  0.882430  1
  Pr  Pr11  1  0.206058  0.410820  0.617964  1
  Pr  Pr12  1  0.209670  0.587776  0.117570  1
  Pr  Pr13  1  0.790330  0.412224  0.117570  1
  Pr  Pr14  1  0.793942  0.589180  0.617964  1
  Pr  Pr15  1  0.913299  0.709917  0.116165  1
  Pr  Pr16  1  0.911625  0.289102  0.615565  1
  Pr  Pr17  1  0.088375  0.710898  0.615565  1
  Pr  Pr18  1  0.086701  0.290083  0.116165  1
  Pr  Pr19  1  0.500000  0.500000  0.500000  1
  Ir  Ir20  1  0.846533  0.153958  0.248759  1
  Ir  Ir21  1  0.846042  0.846533  0.751241  1
  Ir  Ir22  1  0.153958  0.153467  0.751241  1
  Ir  Ir23  1  0.153467  0.846042  0.248759  1
  Ir  Ir24  1  0.653892  0.346732  0.748340  1
  Ir  Ir25  1  0.653268  0.653892  0.251660  1
  Ir  Ir26  1  0.346732  0.346108  0.251660  1
  Ir  Ir27  1  0.346108  0.653268  0.748340  1
  Ru  Ru28  1  0.500000  0.000000  0.116218  1
  Ru  Ru29  1  0.500000  0.000000  0.617702  1
  Ru  Ru30  1  0.000000  0.500000  0.883782  1
  Ru  Ru31  1  0.000000  0.500000  0.382298  1
