# generated using pymatgen
data_Zr5Al7GeAu16
_symmetry_space_group_name_H-M   'P 1'
_cell_length_a   9.11182000
_cell_length_b   9.10134509
_cell_length_c   9.11182000
_cell_angle_alpha   120.03808667
_cell_angle_beta   90.00000000
_cell_angle_gamma   120.03808667
_symmetry_Int_Tables_number   1
_chemical_formula_structural   Zr5Al7GeAu16
_chemical_formula_sum   'Zr5 Al7 Ge1 Au16'
_cell_volume   533.70349835
_cell_formula_units_Z   1
loop_
 _symmetry_equiv_pos_site_id
 _symmetry_equiv_pos_as_xyz
  1  'x, y, z'
loop_
 _atom_site_type_symbol
 _atom_site_label
 _atom_site_symmetry_multiplicity
 _atom_site_fract_x
 _atom_site_fract_y
 _atom_site_fract_z
 _atom_site_occupancy
  Zr  Zr0  1  0.296699  0.014184  0.296699  1
  Zr  Zr1  1  0.297042  0.594084  0.297042  1
  Zr  Zr2  1  0.717485  0.014184  0.296699  1
  Zr  Zr3  1  0.717484  0.014184  0.717484  1
  Zr  Zr4  1  0.296699  0.014184  0.717485  1
  Al  Al5  1  0.004017  0.008035  0.004017  1
  Al  Al6  1  0.508205  0.016410  0.008205  1
  Al  Al7  1  0.004915  0.517385  0.004915  1
  Al  Al8  1  0.512471  0.517385  0.004915  1
  Al  Al9  1  0.008205  0.016410  0.508205  1
  Al  Al10  1  0.004915  0.517385  0.512471  1
  Al  Al11  1  0.512471  0.517385  0.512471  1
  Ge  Ge12  1  0.524219  0.048437  0.524219  1
  Au  Au13  1  0.665674  0.331347  0.978800  1
  Au  Au14  1  0.889135  0.778270  0.125824  1
  Au  Au15  1  0.357631  0.245981  0.122990  1
  Au  Au16  1  0.888350  0.245981  0.122990  1
  Au  Au17  1  0.665674  0.331347  0.352547  1
  Au  Au18  1  0.663032  0.691992  0.345996  1
  Au  Au19  1  0.028961  0.691992  0.345996  1
  Au  Au20  1  0.122990  0.245981  0.357631  1
  Au  Au21  1  0.889135  0.778270  0.652446  1
  Au  Au22  1  0.978800  0.331347  0.665674  1
  Au  Au23  1  0.352547  0.331347  0.665674  1
  Au  Au24  1  0.345996  0.691992  0.663032  1
  Au  Au25  1  0.122990  0.245981  0.888350  1
  Au  Au26  1  0.125824  0.778270  0.889135  1
  Au  Au27  1  0.652446  0.778270  0.889135  1
  Au  Au28  1  0.345996  0.691992  0.028961  1
