# generated using pymatgen
data_Dy6Al25Os7
_symmetry_space_group_name_H-M   'P 1'
_cell_length_a   8.87188752
_cell_length_b   8.87188743
_cell_length_c   9.56135926
_cell_angle_alpha   90.18333436
_cell_angle_beta   89.81666914
_cell_angle_gamma   119.95769342
_symmetry_Int_Tables_number   1
_chemical_formula_structural   Dy6Al25Os7
_chemical_formula_sum   'Dy6 Al25 Os7'
_cell_volume   652.02513582
_cell_formula_units_Z   1
loop_
 _symmetry_equiv_pos_site_id
 _symmetry_equiv_pos_as_xyz
  1  'x, y, z'
loop_
 _atom_site_type_symbol
 _atom_site_label
 _atom_site_symmetry_multiplicity
 _atom_site_fract_x
 _atom_site_fract_y
 _atom_site_fract_z
 _atom_site_occupancy
  Dy  Dy0  1  0.192033  0.385202  0.245766  1
  Dy  Dy1  1  0.807967  0.614798  0.754234  1
  Dy  Dy2  1  0.614798  0.807967  0.245766  1
  Dy  Dy3  1  0.385202  0.192033  0.754234  1
  Dy  Dy4  1  0.194013  0.805987  0.255749  1
  Dy  Dy5  1  0.805987  0.194013  0.744251  1
  Al  Al6  1  0.326921  0.673079  0.022356  1
  Al  Al7  1  0.673079  0.326921  0.977644  1
  Al  Al8  1  0.666049  0.333951  0.518058  1
  Al  Al9  1  0.333951  0.666049  0.481942  1
  Al  Al10  1  0.162446  0.325651  0.571653  1
  Al  Al11  1  0.837554  0.674349  0.428347  1
  Al  Al12  1  0.674349  0.837554  0.571653  1
  Al  Al13  1  0.851829  0.678175  0.081954  1
  Al  Al14  1  0.325651  0.162446  0.428347  1
  Al  Al15  1  0.148171  0.321825  0.918046  1
  Al  Al16  1  0.162900  0.837100  0.575992  1
  Al  Al17  1  0.321825  0.148171  0.081954  1
  Al  Al18  1  0.837100  0.162900  0.424008  1
  Al  Al19  1  0.678175  0.851829  0.918046  1
  Al  Al20  1  0.836819  0.163181  0.076890  1
  Al  Al21  1  0.163181  0.836819  0.923110  1
  Al  Al22  1  0.562233  0.121337  0.249614  1
  Al  Al23  1  0.437767  0.878663  0.750386  1
  Al  Al24  1  0.878663  0.437767  0.249614  1
  Al  Al25  1  0.121337  0.562233  0.750386  1
  Al  Al26  1  0.565380  0.434620  0.258639  1
  Al  Al27  1  0.434620  0.565380  0.741361  1
  Al  Al28  1  0.999017  0.000983  0.250845  1
  Al  Al29  1  0.000983  0.999017  0.749155  1
  Al  Al30  1  0.500000  0.500000  0.000000  1
  Os  Os31  1  0.500000  0.000000  0.000000  1
  Os  Os32  1  0.000000  0.500000  0.000000  1
  Os  Os33  1  0.500000  0.000000  0.500000  1
  Os  Os34  1  0.000000  0.500000  0.500000  1
  Os  Os35  1  0.500000  0.500000  0.500000  1
  Os  Os36  1  0.000000  0.000000  0.000000  1
  Os  Os37  1  0.000000  0.000000  0.500000  1
