# generated using pymatgen
data_DyTmMnIr3
_symmetry_space_group_name_H-M   'P 1'
_cell_length_a   5.16558372
_cell_length_b   5.16558334
_cell_length_c   5.16558300
_cell_angle_alpha   63.86806547
_cell_angle_beta   63.86806521
_cell_angle_gamma   63.86806997
_symmetry_Int_Tables_number   1
_chemical_formula_structural   DyTmMnIr3
_chemical_formula_sum   'Dy1 Tm1 Mn1 Ir3'
_cell_volume   105.77561086
_cell_formula_units_Z   1
loop_
 _symmetry_equiv_pos_site_id
 _symmetry_equiv_pos_as_xyz
  1  'x, y, z'
loop_
 _atom_site_type_symbol
 _atom_site_label
 _atom_site_symmetry_multiplicity
 _atom_site_fract_x
 _atom_site_fract_y
 _atom_site_fract_z
 _atom_site_occupancy
  Dy  Dy0  1  0.251212  0.251212  0.251212  1
  Tm  Tm1  1  0.998240  0.998240  0.998240  1
  Mn  Mn2  1  0.625033  0.625033  0.625033  1
  Ir  Ir3  1  0.625394  0.625394  0.124728  1
  Ir  Ir4  1  0.625394  0.124728  0.625394  1
  Ir  Ir5  1  0.124728  0.625394  0.625394  1
