# generated using pymatgen
data_YbSm2Al3Si2Pd
_symmetry_space_group_name_H-M   'P 1'
_cell_length_a   7.04809900
_cell_length_b   6.94425931
_cell_length_c   4.33615300
_cell_angle_alpha   90.00000000
_cell_angle_beta   90.00000000
_cell_angle_gamma   120.49589204
_symmetry_Int_Tables_number   1
_chemical_formula_structural   YbSm2Al3Si2Pd
_chemical_formula_sum   'Yb1 Sm2 Al3 Si2 Pd1'
_cell_volume   182.86948920
_cell_formula_units_Z   1
loop_
 _symmetry_equiv_pos_site_id
 _symmetry_equiv_pos_as_xyz
  1  'x, y, z'
loop_
 _atom_site_type_symbol
 _atom_site_label
 _atom_site_symmetry_multiplicity
 _atom_site_fract_x
 _atom_site_fract_y
 _atom_site_fract_z
 _atom_site_occupancy
  Yb  Yb0  1  0.415989  0.000000  0.000000  1
  Sm  Sm1  1  0.999192  0.419716  0.000000  1
  Sm  Sm2  1  0.579474  0.580283  0.000000  1
  Al  Al3  1  0.764025  0.000000  0.500000  1
  Al  Al4  1  0.233484  0.238401  0.500000  1
  Al  Al5  1  0.995084  0.761599  0.500000  1
  Si  Si6  1  0.671179  0.336547  0.500000  1
  Si  Si7  1  0.334631  0.663452  0.500000  1
  Pd  Pd8  1  0.006939  0.000000  0.000000  1
