# generated using pymatgen
data_Dy2Bi2W2O11
_symmetry_space_group_name_H-M   'P 1'
_cell_length_a   6.56243070
_cell_length_b   7.72765322
_cell_length_c   9.71755438
_cell_angle_alpha   100.98849079
_cell_angle_beta   90.58018062
_cell_angle_gamma   90.10968314
_symmetry_Int_Tables_number   1
_chemical_formula_structural   Dy2Bi2W2O11
_chemical_formula_sum   'Dy4 Bi4 W4 O22'
_cell_volume   483.73472259
_cell_formula_units_Z   2
loop_
 _symmetry_equiv_pos_site_id
 _symmetry_equiv_pos_as_xyz
  1  'x, y, z'
loop_
 _atom_site_type_symbol
 _atom_site_label
 _atom_site_symmetry_multiplicity
 _atom_site_fract_x
 _atom_site_fract_y
 _atom_site_fract_z
 _atom_site_occupancy
  Dy  Dy0  1  0.744589  0.370789  0.481240  1
  Dy  Dy1  1  0.255411  0.629211  0.518760  1
  Dy  Dy2  1  0.755842  0.872383  0.490608  1
  Dy  Dy3  1  0.244158  0.127617  0.509392  1
  Bi  Bi4  1  0.454724  0.943161  0.815290  1
  Bi  Bi5  1  0.545276  0.056839  0.184710  1
  Bi  Bi6  1  0.386079  0.458411  0.825944  1
  Bi  Bi7  1  0.613921  0.541589  0.174056  1
  W  W8  1  0.921401  0.700418  0.807045  1
  W  W9  1  0.078599  0.299582  0.192955  1
  W  W10  1  0.919593  0.197125  0.797254  1
  W  W11  1  0.080407  0.802875  0.202746  1
  O  O12  1  0.228669  0.715687  0.756076  1
  O  O13  1  0.771331  0.284313  0.243924  1
  O  O14  1  0.623985  0.675178  0.840007  1
  O  O15  1  0.376015  0.324822  0.159993  1
  O  O16  1  0.641676  0.251719  0.841273  1
  O  O17  1  0.358324  0.748281  0.158727  1
  O  O18  1  0.891785  0.158537  0.582887  1
  O  O19  1  0.108215  0.841463  0.417113  1
  O  O20  1  0.211840  0.147585  0.751123  1
  O  O21  1  0.788160  0.852415  0.248877  1
  O  O22  1  0.894653  0.634562  0.595137  1
  O  O23  1  0.105347  0.365438  0.404863  1
  O  O24  1  0.003297  0.549245  0.192962  1
  O  O25  1  0.996703  0.450755  0.807038  1
  O  O26  1  0.996124  0.783909  0.996355  1
  O  O27  1  0.003876  0.216091  0.003645  1
  O  O28  1  0.570573  0.601258  0.395746  1
  O  O29  1  0.429427  0.398742  0.604254  1
  O  O30  1  0.172679  0.059754  0.232169  1
  O  O31  1  0.827321  0.940246  0.767831  1
  O  O32  1  0.546780  0.103922  0.405233  1
  O  O33  1  0.453220  0.896078  0.594767  1
