# generated using pymatgen
data_Hf6Al6NiAu5
_symmetry_space_group_name_H-M   'P 1'
_cell_length_a   6.77985500
_cell_length_b   6.77985504
_cell_length_c   8.16950900
_cell_angle_alpha   90.00000000
_cell_angle_beta   90.00000000
_cell_angle_gamma   119.99999492
_symmetry_Int_Tables_number   1
_chemical_formula_structural   Hf6Al6NiAu5
_chemical_formula_sum   'Hf6 Al6 Ni1 Au5'
_cell_volume   325.21264502
_cell_formula_units_Z   1
loop_
 _symmetry_equiv_pos_site_id
 _symmetry_equiv_pos_as_xyz
  1  'x, y, z'
loop_
 _atom_site_type_symbol
 _atom_site_label
 _atom_site_symmetry_multiplicity
 _atom_site_fract_x
 _atom_site_fract_y
 _atom_site_fract_z
 _atom_site_occupancy
  Hf  Hf0  1  0.597213  0.998992  0.750000  1
  Hf  Hf1  1  0.001008  0.598220  0.750000  1
  Hf  Hf2  1  0.401780  0.402787  0.750000  1
  Hf  Hf3  1  0.999434  0.579190  0.250000  1
  Hf  Hf4  1  0.579756  0.000566  0.250000  1
  Hf  Hf5  1  0.420810  0.420244  0.250000  1
  Al  Al6  1  0.758050  0.757556  0.988560  1
  Al  Al7  1  0.242444  0.000493  0.988560  1
  Al  Al8  1  0.999507  0.241950  0.988560  1
  Al  Al9  1  0.758050  0.757556  0.511440  1
  Al  Al10  1  0.242444  0.000493  0.511440  1
  Al  Al11  1  0.999507  0.241950  0.511440  1
  Ni  Ni12  1  0.000000  0.000000  0.750000  1
  Au  Au13  1  0.000000  0.000000  0.250000  1
  Au  Au14  1  0.666667  0.333333  0.998709  1
  Au  Au15  1  0.666667  0.333333  0.501291  1
  Au  Au16  1  0.333333  0.666667  0.499885  1
  Au  Au17  1  0.333333  0.666667  0.000115  1
