# generated using pymatgen
data_Dy9Ho(IrPt2)2
_symmetry_space_group_name_H-M   'P 1'
_cell_length_a   11.06293400
_cell_length_b   11.06293400
_cell_length_c   6.33704400
_cell_angle_alpha   90.00000000
_cell_angle_beta   90.00000000
_cell_angle_gamma   90.00000000
_symmetry_Int_Tables_number   1
_chemical_formula_structural   Dy9Ho(IrPt2)2
_chemical_formula_sum   'Dy18 Ho2 Ir4 Pt8'
_cell_volume   775.58136465
_cell_formula_units_Z   2
loop_
 _symmetry_equiv_pos_site_id
 _symmetry_equiv_pos_as_xyz
  1  'x, y, z'
loop_
 _atom_site_type_symbol
 _atom_site_label
 _atom_site_symmetry_multiplicity
 _atom_site_fract_x
 _atom_site_fract_y
 _atom_site_fract_z
 _atom_site_occupancy
  Dy  Dy0  1  0.294510  0.087528  0.374559  1
  Dy  Dy1  1  0.294510  0.912472  0.874559  1
  Dy  Dy2  1  0.705490  0.087528  0.874559  1
  Dy  Dy3  1  0.705490  0.912472  0.374559  1
  Dy  Dy4  1  0.587499  0.794402  0.874612  1
  Dy  Dy5  1  0.587499  0.205598  0.374612  1
  Dy  Dy6  1  0.412501  0.794402  0.374612  1
  Dy  Dy7  1  0.412501  0.205598  0.874612  1
  Dy  Dy8  1  0.205598  0.412501  0.625388  1
  Dy  Dy9  1  0.205598  0.587499  0.125388  1
  Dy  Dy10  1  0.794402  0.412501  0.125388  1
  Dy  Dy11  1  0.794402  0.587499  0.625388  1
  Dy  Dy12  1  0.912472  0.705490  0.125441  1
  Dy  Dy13  1  0.912472  0.294510  0.625441  1
  Dy  Dy14  1  0.087528  0.705490  0.625441  1
  Dy  Dy15  1  0.087528  0.294510  0.125441  1
  Dy  Dy16  1  0.000000  0.000000  0.500000  1
  Dy  Dy17  1  0.000000  0.000000  0.000000  1
  Ho  Ho18  1  0.500000  0.500000  0.000000  1
  Ho  Ho19  1  0.500000  0.500000  0.500000  1
  Ir  Ir20  1  0.500000  0.000000  0.120209  1
  Ir  Ir21  1  0.500000  0.000000  0.620209  1
  Ir  Ir22  1  0.000000  0.500000  0.879791  1
  Ir  Ir23  1  0.000000  0.500000  0.379791  1
  Pt  Pt24  1  0.846225  0.153775  0.250000  1
  Pt  Pt25  1  0.846225  0.846225  0.750000  1
  Pt  Pt26  1  0.153775  0.153775  0.750000  1
  Pt  Pt27  1  0.153775  0.846225  0.250000  1
  Pt  Pt28  1  0.653470  0.346530  0.750000  1
  Pt  Pt29  1  0.653470  0.653470  0.250000  1
  Pt  Pt30  1  0.346530  0.346530  0.250000  1
  Pt  Pt31  1  0.346530  0.653470  0.750000  1
