# generated using pymatgen
data_Er2Lu3(In2Cu)2
_symmetry_space_group_name_H-M   'P 1'
_cell_length_a   3.61396200
_cell_length_b   7.94385276
_cell_length_c   17.72678784
_cell_angle_alpha   89.86206138
_cell_angle_beta   90.00000000
_cell_angle_gamma   90.00000000
_symmetry_Int_Tables_number   1
_chemical_formula_structural   Er2Lu3(In2Cu)2
_chemical_formula_sum   'Er4 Lu6 In8 Cu4'
_cell_volume   508.91301276
_cell_formula_units_Z   2
loop_
 _symmetry_equiv_pos_site_id
 _symmetry_equiv_pos_as_xyz
  1  'x, y, z'
loop_
 _atom_site_type_symbol
 _atom_site_label
 _atom_site_symmetry_multiplicity
 _atom_site_fract_x
 _atom_site_fract_y
 _atom_site_fract_z
 _atom_site_occupancy
  Er  Er0  1  0.000000  0.500000  0.500000  1
  Er  Er1  1  0.000000  0.000000  0.000000  1
  Er  Er2  1  0.000000  0.736510  0.279992  1
  Er  Er3  1  0.000000  0.263490  0.720008  1
  Lu  Lu4  1  0.000000  0.763423  0.779850  1
  Lu  Lu5  1  0.000000  0.236577  0.220150  1
  Lu  Lu6  1  0.000000  0.614491  0.083512  1
  Lu  Lu7  1  0.000000  0.385509  0.916488  1
  Lu  Lu8  1  0.000000  0.885227  0.583471  1
  Lu  Lu9  1  0.000000  0.114773  0.416529  1
  In  In10  1  0.500000  0.709278  0.931342  1
  In  In11  1  0.500000  0.290722  0.068658  1
  In  In12  1  0.500000  0.791209  0.431697  1
  In  In13  1  0.500000  0.208791  0.568303  1
  In  In14  1  0.500000  0.583904  0.650148  1
  In  In15  1  0.500000  0.416096  0.349852  1
  In  In16  1  0.500000  0.916862  0.149920  1
  In  In17  1  0.500000  0.083138  0.850080  1
  Cu  Cu18  1  0.500000  0.520638  0.196870  1
  Cu  Cu19  1  0.500000  0.479362  0.803130  1
  Cu  Cu20  1  0.500000  0.976876  0.697204  1
  Cu  Cu21  1  0.500000  0.023124  0.302796  1
