# generated using pymatgen
data_Sr4AgPd3
_symmetry_space_group_name_H-M   'P 1'
_cell_length_a   4.58485400
_cell_length_b   6.21445192
_cell_length_c   16.25587392
_cell_angle_alpha   89.81659581
_cell_angle_beta   90.00000000
_cell_angle_gamma   90.00000000
_symmetry_Int_Tables_number   1
_chemical_formula_structural   Sr4AgPd3
_chemical_formula_sum   'Sr8 Ag2 Pd6'
_cell_volume   463.16575360
_cell_formula_units_Z   2
loop_
 _symmetry_equiv_pos_site_id
 _symmetry_equiv_pos_as_xyz
  1  'x, y, z'
loop_
 _atom_site_type_symbol
 _atom_site_label
 _atom_site_symmetry_multiplicity
 _atom_site_fract_x
 _atom_site_fract_y
 _atom_site_fract_z
 _atom_site_occupancy
  Sr  Sr0  1  0.250000  0.744438  0.532286  1
  Sr  Sr1  1  0.750000  0.255562  0.467714  1
  Sr  Sr2  1  0.750000  0.259571  0.967360  1
  Sr  Sr3  1  0.250000  0.740429  0.032640  1
  Sr  Sr4  1  0.250000  0.987904  0.793421  1
  Sr  Sr5  1  0.750000  0.012096  0.206579  1
  Sr  Sr6  1  0.750000  0.484618  0.722489  1
  Sr  Sr7  1  0.250000  0.515382  0.277511  1
  Ag  Ag8  1  0.750000  0.994932  0.643431  1
  Ag  Ag9  1  0.250000  0.005068  0.356569  1
  Pd  Pd10  1  0.250000  0.247311  0.606541  1
  Pd  Pd11  1  0.750000  0.752689  0.393459  1
  Pd  Pd12  1  0.750000  0.750377  0.891539  1
  Pd  Pd13  1  0.250000  0.249623  0.108461  1
  Pd  Pd14  1  0.250000  0.491305  0.856704  1
  Pd  Pd15  1  0.750000  0.508695  0.143296  1
