# generated using pymatgen
data_Er8Co3Si12Au
_symmetry_space_group_name_H-M   'P 1'
_cell_length_a   8.02869800
_cell_length_b   8.02869850
_cell_length_c   7.84016000
_cell_angle_alpha   90.00000000
_cell_angle_beta   90.00000000
_cell_angle_gamma   119.99999796
_symmetry_Int_Tables_number   1
_chemical_formula_structural   Er8Co3Si12Au
_chemical_formula_sum   'Er8 Co3 Si12 Au1'
_cell_volume   437.66905130
_cell_formula_units_Z   1
loop_
 _symmetry_equiv_pos_site_id
 _symmetry_equiv_pos_as_xyz
  1  'x, y, z'
loop_
 _atom_site_type_symbol
 _atom_site_label
 _atom_site_symmetry_multiplicity
 _atom_site_fract_x
 _atom_site_fract_y
 _atom_site_fract_z
 _atom_site_occupancy
  Er  Er0  1  0.978832  0.489417  0.243417  1
  Er  Er1  1  0.510583  0.489417  0.243417  1
  Er  Er2  1  0.496625  0.993249  0.754055  1
  Er  Er3  1  0.006751  0.503375  0.754055  1
  Er  Er4  1  0.496625  0.503375  0.754055  1
  Er  Er5  1  0.510583  0.021168  0.243417  1
  Er  Er6  1  0.000000  0.000000  0.755104  1
  Er  Er7  1  0.000000  0.000000  0.247289  1
  Co  Co8  1  0.333333  0.666667  0.030527  1
  Co  Co9  1  0.666667  0.333333  0.965712  1
  Co  Co10  1  0.666667  0.333333  0.535451  1
  Si  Si11  1  0.159874  0.840126  0.502230  1
  Si  Si12  1  0.159874  0.319748  0.502230  1
  Si  Si13  1  0.680252  0.840126  0.502230  1
  Si  Si14  1  0.341046  0.170523  0.997634  1
  Si  Si15  1  0.825706  0.651414  0.500359  1
  Si  Si16  1  0.829477  0.170523  0.997634  1
  Si  Si17  1  0.829477  0.658954  0.997634  1
  Si  Si18  1  0.172103  0.344205  0.002044  1
  Si  Si19  1  0.655795  0.827897  0.002044  1
  Si  Si20  1  0.348586  0.174294  0.500359  1
  Si  Si21  1  0.825706  0.174294  0.500359  1
  Si  Si22  1  0.172103  0.827897  0.002044  1
  Au  Au23  1  0.333333  0.666667  0.466693  1
