# generated using pymatgen
data_Li2Mn3CoNi8As7
_symmetry_space_group_name_H-M   'P 1'
_cell_length_a   9.44749910
_cell_length_b   9.43125931
_cell_length_c   3.69216400
_cell_angle_alpha   90.00000000
_cell_angle_beta   90.00000000
_cell_angle_gamma   120.07324406
_symmetry_Int_Tables_number   1
_chemical_formula_structural   Li2Mn3CoNi8As7
_chemical_formula_sum   'Li2 Mn3 Co1 Ni8 As7'
_cell_volume   284.69323867
_cell_formula_units_Z   1
loop_
 _symmetry_equiv_pos_site_id
 _symmetry_equiv_pos_as_xyz
  1  'x, y, z'
loop_
 _atom_site_type_symbol
 _atom_site_label
 _atom_site_symmetry_multiplicity
 _atom_site_fract_x
 _atom_site_fract_y
 _atom_site_fract_z
 _atom_site_occupancy
  Li  Li0  1  0.333537  0.666421  0.000000  1
  Li  Li1  1  0.000150  0.000192  0.500000  1
  Mn  Mn2  1  0.760404  0.555435  0.500000  1
  Mn  Mn3  1  0.442705  0.203921  0.500000  1
  Mn  Mn4  1  0.794366  0.240155  0.500000  1
  Co  Co5  1  0.504937  0.451833  0.000000  1
  Ni  Ni6  1  0.282530  0.380865  0.500000  1
  Ni  Ni7  1  0.618489  0.900892  0.500000  1
  Ni  Ni8  1  0.096879  0.717227  0.500000  1
  Ni  Ni9  1  0.548037  0.053035  0.000000  1
  Ni  Ni10  1  0.947132  0.494470  0.000000  1
  Ni  Ni11  1  0.721877  0.765990  0.000000  1
  Ni  Ni12  1  0.235330  0.956183  0.000000  1
  Ni  Ni13  1  0.045931  0.279563  0.000000  1
  As  As14  1  0.958846  0.753664  0.000000  1
  As  As15  1  0.248870  0.207446  0.000000  1
  As  As16  1  0.794762  0.041181  0.000000  1
  As  As17  1  0.665104  0.335264  0.000000  1
  As  As18  1  0.539633  0.623265  0.500000  1
  As  As19  1  0.373703  0.911998  0.500000  1
  As  As20  1  0.086780  0.460998  0.500000  1
