# generated using pymatgen
data_Ce10AgBi6P
_symmetry_space_group_name_H-M   'P 1'
_cell_length_a   6.60484200
_cell_length_b   9.63641732
_cell_length_c   9.63641600
_cell_angle_alpha   120.00000235
_cell_angle_beta   90.00000000
_cell_angle_gamma   90.00000000
_symmetry_Int_Tables_number   1
_chemical_formula_structural   Ce10AgBi6P
_chemical_formula_sum   'Ce10 Ag1 Bi6 P1'
_cell_volume   531.15857093
_cell_formula_units_Z   1
loop_
 _symmetry_equiv_pos_site_id
 _symmetry_equiv_pos_as_xyz
  1  'x, y, z'
loop_
 _atom_site_type_symbol
 _atom_site_label
 _atom_site_symmetry_multiplicity
 _atom_site_fract_x
 _atom_site_fract_y
 _atom_site_fract_z
 _atom_site_occupancy
  Ce  Ce0  1  0.768740  0.742807  0.742807  1
  Ce  Ce1  1  0.231260  0.257193  0.257193  1
  Ce  Ce2  1  0.768740  0.000000  0.257193  1
  Ce  Ce3  1  0.231260  0.000000  0.742807  1
  Ce  Ce4  1  0.768740  0.257193  0.000000  1
  Ce  Ce5  1  0.231260  0.742807  0.000000  1
  Ce  Ce6  1  0.000000  0.666667  0.333333  1
  Ce  Ce7  1  0.000000  0.333333  0.666667  1
  Ce  Ce8  1  0.500000  0.333333  0.666667  1
  Ce  Ce9  1  0.500000  0.666667  0.333333  1
  Ag  Ag10  1  0.500000  0.000000  0.000000  1
  Bi  Bi11  1  0.742875  0.384997  0.384997  1
  Bi  Bi12  1  0.257125  0.615003  0.615003  1
  Bi  Bi13  1  0.742875  0.000000  0.615003  1
  Bi  Bi14  1  0.257125  0.000000  0.384997  1
  Bi  Bi15  1  0.742875  0.615003  0.000000  1
  Bi  Bi16  1  0.257125  0.384997  0.000000  1
  P  P17  1  0.000000  0.000000  0.000000  1
