# generated using pymatgen
data_Hf5Re6Si6W
_symmetry_space_group_name_H-M   'P 1'
_cell_length_a   7.70021670
_cell_length_b   7.70024340
_cell_length_c   7.70021733
_cell_angle_alpha   126.17933167
_cell_angle_beta   128.09781940
_cell_angle_gamma   78.03454799
_symmetry_Int_Tables_number   1
_chemical_formula_structural   Hf5Re6Si6W
_chemical_formula_sum   'Hf5 Re6 Si6 W1'
_cell_volume   281.03358160
_cell_formula_units_Z   1
loop_
 _symmetry_equiv_pos_site_id
 _symmetry_equiv_pos_as_xyz
  1  'x, y, z'
loop_
 _atom_site_type_symbol
 _atom_site_label
 _atom_site_symmetry_multiplicity
 _atom_site_fract_x
 _atom_site_fract_y
 _atom_site_fract_z
 _atom_site_occupancy
  Hf  Hf0  1  0.551923  0.091214  0.039291  1
  Hf  Hf1  1  0.452331  0.502263  0.549933  1
  Hf  Hf2  1  0.948076  0.487385  0.039309  1
  Hf  Hf3  1  0.047664  0.097569  0.549906  1
  Hf  Hf4  1  0.749999  0.898757  0.648758  1
  Re  Re5  1  0.495143  0.240836  0.735993  1
  Re  Re6  1  0.004843  0.240836  0.245693  1
  Re  Re7  1  0.127281  0.753505  0.626418  1
  Re  Re8  1  0.872883  0.499074  0.626347  1
  Re  Re9  1  0.627088  0.753505  0.126224  1
  Re  Re10  1  0.372727  0.499074  0.126191  1
  Si  Si11  1  0.749999  0.497105  0.247106  1
  Si  Si12  1  0.249986  0.501785  0.751799  1
  Si  Si13  1  0.328277  0.830277  0.487041  1
  Si  Si14  1  0.656802  0.158780  0.487065  1
  Si  Si15  1  0.843235  0.830277  0.002000  1
  Si  Si16  1  0.171715  0.158780  0.001979  1
  W  W17  1  0.250029  0.901177  0.151148  1
