# generated using pymatgen
data_Ho8Cu(Si4Pt)3
_symmetry_space_group_name_H-M   'P 1'
_cell_length_a   8.09778000
_cell_length_b   8.09777933
_cell_length_c   8.09052900
_cell_angle_alpha   90.00000000
_cell_angle_beta   90.00000000
_cell_angle_gamma   119.99999456
_symmetry_Int_Tables_number   1
_chemical_formula_structural   Ho8Cu(Si4Pt)3
_chemical_formula_sum   'Ho8 Cu1 Si12 Pt3'
_cell_volume   459.45130140
_cell_formula_units_Z   1
loop_
 _symmetry_equiv_pos_site_id
 _symmetry_equiv_pos_as_xyz
  1  'x, y, z'
loop_
 _atom_site_type_symbol
 _atom_site_label
 _atom_site_symmetry_multiplicity
 _atom_site_fract_x
 _atom_site_fract_y
 _atom_site_fract_z
 _atom_site_occupancy
  Ho  Ho0  1  0.499455  0.998910  0.249866  1
  Ho  Ho1  1  0.500630  0.001261  0.750289  1
  Ho  Ho2  1  0.001090  0.500545  0.249866  1
  Ho  Ho3  1  0.998739  0.499370  0.750289  1
  Ho  Ho4  1  0.499455  0.500545  0.249866  1
  Ho  Ho5  1  0.500630  0.499370  0.750289  1
  Ho  Ho6  1  0.000000  0.000000  0.248907  1
  Ho  Ho7  1  0.000000  0.000000  0.751209  1
  Cu  Cu8  1  0.333333  0.666667  0.996204  1
  Si  Si9  1  0.169154  0.338307  0.999274  1
  Si  Si10  1  0.834940  0.669882  0.000779  1
  Si  Si11  1  0.661693  0.830846  0.999274  1
  Si  Si12  1  0.834331  0.668664  0.500804  1
  Si  Si13  1  0.330118  0.165060  0.000779  1
  Si  Si14  1  0.165193  0.330385  0.499357  1
  Si  Si15  1  0.169154  0.830846  0.999274  1
  Si  Si16  1  0.331336  0.165669  0.500804  1
  Si  Si17  1  0.834940  0.165060  0.000779  1
  Si  Si18  1  0.669615  0.834807  0.499357  1
  Si  Si19  1  0.834331  0.165669  0.500804  1
  Si  Si20  1  0.165193  0.834807  0.499357  1
  Pt  Pt21  1  0.666667  0.333333  0.002302  1
  Pt  Pt22  1  0.666667  0.333333  0.499162  1
  Pt  Pt23  1  0.333333  0.666667  0.501111  1
