# generated using pymatgen
data_Pr6YMoO12
_symmetry_space_group_name_H-M   'P 1'
_cell_length_a   6.97179185
_cell_length_b   6.97179194
_cell_length_c   6.97179225
_cell_angle_alpha   93.36040327
_cell_angle_beta   93.36039725
_cell_angle_gamma   93.36039783
_symmetry_Int_Tables_number   1
_chemical_formula_structural   Pr6YMoO12
_chemical_formula_sum   'Pr6 Y1 Mo1 O12'
_cell_volume   337.05050148
_cell_formula_units_Z   1
loop_
 _symmetry_equiv_pos_site_id
 _symmetry_equiv_pos_as_xyz
  1  'x, y, z'
loop_
 _atom_site_type_symbol
 _atom_site_label
 _atom_site_symmetry_multiplicity
 _atom_site_fract_x
 _atom_site_fract_y
 _atom_site_fract_z
 _atom_site_occupancy
  Pr  Pr0  1  0.741008  0.926687  0.436014  1
  Pr  Pr1  1  0.436014  0.741008  0.926687  1
  Pr  Pr2  1  0.073313  0.563986  0.258992  1
  Pr  Pr3  1  0.926687  0.436014  0.741008  1
  Pr  Pr4  1  0.563986  0.258992  0.073313  1
  Pr  Pr5  1  0.258992  0.073313  0.563986  1
  Y  Y6  1  0.000000  0.000000  0.000000  1
  Mo  Mo7  1  0.500000  0.500000  0.500000  1
  O  O8  1  0.064062  0.911892  0.310669  1
  O  O9  1  0.689331  0.935938  0.088108  1
  O  O10  1  0.461161  0.800942  0.589243  1
  O  O11  1  0.088108  0.689331  0.935938  1
  O  O12  1  0.800942  0.589243  0.461161  1
  O  O13  1  0.410757  0.538839  0.199058  1
  O  O14  1  0.589243  0.461161  0.800942  1
  O  O15  1  0.199058  0.410757  0.538839  1
  O  O16  1  0.911892  0.310669  0.064062  1
  O  O17  1  0.538839  0.199058  0.410757  1
  O  O18  1  0.310669  0.064062  0.911892  1
  O  O19  1  0.935938  0.088108  0.689331  1
