# generated using pymatgen
data_Zr4As6PbO24
_symmetry_space_group_name_H-M   'P 1'
_cell_length_a   9.18843997
_cell_length_b   9.18844044
_cell_length_c   9.69822869
_cell_angle_alpha   61.72412320
_cell_angle_beta   61.72412130
_cell_angle_gamma   60.00000058
_symmetry_Int_Tables_number   1
_chemical_formula_structural   Zr4As6PbO24
_chemical_formula_sum   'Zr4 As6 Pb1 O24'
_cell_volume   593.60873193
_cell_formula_units_Z   1
loop_
 _symmetry_equiv_pos_site_id
 _symmetry_equiv_pos_as_xyz
  1  'x, y, z'
loop_
 _atom_site_type_symbol
 _atom_site_label
 _atom_site_symmetry_multiplicity
 _atom_site_fract_x
 _atom_site_fract_y
 _atom_site_fract_z
 _atom_site_occupancy
  Zr  Zr0  1  0.143551  0.143551  0.569345  1
  Zr  Zr1  1  0.856449  0.856449  0.430655  1
  Zr  Zr2  1  0.647447  0.647447  0.057660  1
  Zr  Zr3  1  0.352553  0.352553  0.942340  1
  As  As4  1  0.960698  0.254486  0.257099  1
  As  As5  1  0.254486  0.527717  0.257099  1
  As  As6  1  0.527717  0.960698  0.257099  1
  As  As7  1  0.039302  0.745514  0.742901  1
  As  As8  1  0.745514  0.472283  0.742901  1
  As  As9  1  0.472283  0.039302  0.742901  1
  Pb  Pb10  1  0.500000  0.500000  0.500000  1
  O  O11  1  0.981808  0.269997  0.414603  1
  O  O12  1  0.269997  0.333592  0.414603  1
  O  O13  1  0.333592  0.981808  0.414603  1
  O  O14  1  0.018192  0.730003  0.585397  1
  O  O15  1  0.730003  0.666408  0.585397  1
  O  O16  1  0.666408  0.018192  0.585397  1
  O  O17  1  0.500856  0.878607  0.924231  1
  O  O18  1  0.878607  0.696306  0.924231  1
  O  O19  1  0.696306  0.500856  0.924231  1
  O  O20  1  0.499144  0.121393  0.075769  1
  O  O21  1  0.121393  0.303694  0.075769  1
  O  O22  1  0.303694  0.499144  0.075769  1
  O  O23  1  0.031419  0.948519  0.708037  1
  O  O24  1  0.948519  0.312026  0.708037  1
  O  O25  1  0.312026  0.031419  0.708037  1
  O  O26  1  0.968581  0.051481  0.291963  1
  O  O27  1  0.051481  0.687974  0.291963  1
  O  O28  1  0.687974  0.968581  0.291963  1
  O  O29  1  0.594501  0.756038  0.240210  1
  O  O30  1  0.756038  0.409251  0.240210  1
  O  O31  1  0.409251  0.594501  0.240210  1
  O  O32  1  0.405499  0.243962  0.759790  1
  O  O33  1  0.243962  0.590749  0.759790  1
  O  O34  1  0.590749  0.405499  0.759790  1
