# generated using pymatgen
data_CaLa2Pr4FeBr12
_symmetry_space_group_name_H-M   'P 1'
_cell_length_a   9.37561033
_cell_length_b   9.76901429
_cell_length_c   9.72890749
_cell_angle_alpha   107.77840973
_cell_angle_beta   106.39558523
_cell_angle_gamma   106.86808146
_symmetry_Int_Tables_number   1
_chemical_formula_structural   CaLa2Pr4FeBr12
_chemical_formula_sum   'Ca1 La2 Pr4 Fe1 Br12'
_cell_volume   741.72534584
_cell_formula_units_Z   1
loop_
 _symmetry_equiv_pos_site_id
 _symmetry_equiv_pos_as_xyz
  1  'x, y, z'
loop_
 _atom_site_type_symbol
 _atom_site_label
 _atom_site_symmetry_multiplicity
 _atom_site_fract_x
 _atom_site_fract_y
 _atom_site_fract_z
 _atom_site_occupancy
  Ca  Ca0  1  0.499479  0.500180  0.499596  1
  La  La1  1  0.976842  0.677194  0.888186  1
  La  La2  1  0.718024  0.905058  0.977022  1
  Pr  Pr3  1  0.292656  0.099673  0.024206  1
  Pr  Pr4  1  0.022669  0.317397  0.111048  1
  Pr  Pr5  1  0.111277  0.027870  0.318668  1
  Pr  Pr6  1  0.888427  0.972256  0.681579  1
  Fe  Fe7  1  0.983597  0.994265  0.999170  1
  Br  Br8  1  0.680360  0.220366  0.071154  1
  Br  Br9  1  0.378286  0.453367  0.168037  1
  Br  Br10  1  0.073021  0.687169  0.218007  1
  Br  Br11  1  0.782976  0.929091  0.318399  1
  Br  Br12  1  0.462949  0.171661  0.376388  1
  Br  Br13  1  0.161329  0.376352  0.458336  1
  Br  Br14  1  0.837998  0.624383  0.539714  1
  Br  Br15  1  0.535984  0.827331  0.616912  1
  Br  Br16  1  0.220845  0.072581  0.688831  1
  Br  Br17  1  0.928626  0.313022  0.784354  1
  Br  Br18  1  0.618421  0.540483  0.827555  1
  Br  Br19  1  0.326234  0.790302  0.932836  1
