# generated using pymatgen
data_Th4Zn2AgAu5
_symmetry_space_group_name_H-M   'P 1'
_cell_length_a   4.75729400
_cell_length_b   6.96371153
_cell_length_c   8.21723738
_cell_angle_alpha   89.47509828
_cell_angle_beta   90.00000000
_cell_angle_gamma   90.00000000
_symmetry_Int_Tables_number   1
_chemical_formula_structural   Th4Zn2AgAu5
_chemical_formula_sum   'Th4 Zn2 Ag1 Au5'
_cell_volume   272.21269282
_cell_formula_units_Z   1
loop_
 _symmetry_equiv_pos_site_id
 _symmetry_equiv_pos_as_xyz
  1  'x, y, z'
loop_
 _atom_site_type_symbol
 _atom_site_label
 _atom_site_symmetry_multiplicity
 _atom_site_fract_x
 _atom_site_fract_y
 _atom_site_fract_z
 _atom_site_occupancy
  Th  Th0  1  0.500000  0.504198  0.768829  1
  Th  Th1  1  0.500000  0.997740  0.738086  1
  Th  Th2  1  0.000000  0.490926  0.232464  1
  Th  Th3  1  0.000000  0.005421  0.260703  1
  Zn  Zn4  1  0.500000  0.722475  0.420009  1
  Zn  Zn5  1  0.000000  0.280173  0.579391  1
  Ag  Ag6  1  0.000000  0.771930  0.914588  1
  Au  Au7  1  0.500000  0.759828  0.096054  1
  Au  Au8  1  0.500000  0.267174  0.432073  1
  Au  Au9  1  0.000000  0.234179  0.899813  1
  Au  Au10  1  0.000000  0.732680  0.571555  1
  Au  Au11  1  0.500000  0.233274  0.086436  1
