# generated using pymatgen
data_Na2Dy3P12Ir16Ru3
_symmetry_space_group_name_H-M   'P 1'
_cell_length_a   12.63237810
_cell_length_b   12.60335559
_cell_length_c   3.99959200
_cell_angle_alpha   90.00000000
_cell_angle_beta   90.00000000
_cell_angle_gamma   119.92403379
_symmetry_Int_Tables_number   1
_chemical_formula_structural   Na2Dy3P12Ir16Ru3
_chemical_formula_sum   'Na2 Dy3 P12 Ir16 Ru3'
_cell_volume   551.88624017
_cell_formula_units_Z   1
loop_
 _symmetry_equiv_pos_site_id
 _symmetry_equiv_pos_as_xyz
  1  'x, y, z'
loop_
 _atom_site_type_symbol
 _atom_site_label
 _atom_site_symmetry_multiplicity
 _atom_site_fract_x
 _atom_site_fract_y
 _atom_site_fract_z
 _atom_site_occupancy
  Na  Na0  1  0.819203  0.000514  0.500000  1
  Na  Na1  1  0.180797  0.181311  0.500000  1
  Dy  Dy2  1  0.667047  0.333646  0.000000  1
  Dy  Dy3  1  0.332953  0.666600  0.000000  1
  Dy  Dy4  1  0.000000  0.822427  0.500000  1
  P  P5  1  0.642419  0.000189  0.000000  1
  P  P6  1  0.357581  0.357770  0.000000  1
  P  P7  1  0.000000  0.642126  0.000000  1
  P  P8  1  0.689761  0.520156  0.500000  1
  P  P9  1  0.829931  0.308241  0.500000  1
  P  P10  1  0.310239  0.830395  0.500000  1
  P  P11  1  0.521111  0.691131  0.500000  1
  P  P12  1  0.182496  0.002810  0.000000  1
  P  P13  1  0.817504  0.820313  0.000000  1
  P  P14  1  0.000000  0.179897  0.000000  1
  P  P15  1  0.478889  0.170020  0.500000  1
  P  P16  1  0.170069  0.478309  0.500000  1
  Ir  Ir17  1  0.619866  0.802879  0.000000  1
  Ir  Ir18  1  0.183016  0.379611  0.000000  1
  Ir  Ir19  1  0.380134  0.183013  0.000000  1
  Ir  Ir20  1  0.195163  0.817887  0.000000  1
  Ir  Ir21  1  0.804837  0.622725  0.000000  1
  Ir  Ir22  1  0.868541  0.505645  0.500000  1
  Ir  Ir23  1  0.493796  0.362979  0.500000  1
  Ir  Ir24  1  0.636067  0.130409  0.500000  1
  Ir  Ir25  1  0.131459  0.637105  0.500000  1
  Ir  Ir26  1  0.363933  0.494343  0.500000  1
  Ir  Ir27  1  0.506204  0.869183  0.500000  1
  Ir  Ir28  1  0.000000  0.996519  0.000000  1
  Ir  Ir29  1  0.458714  0.998034  0.000000  1
  Ir  Ir30  1  0.541286  0.539320  0.000000  1
  Ir  Ir31  1  0.000000  0.459641  0.000000  1
  Ir  Ir32  1  0.816984  0.196595  0.000000  1
  Ru  Ru33  1  0.713847  0.712627  0.500000  1
  Ru  Ru34  1  0.000000  0.286850  0.500000  1
  Ru  Ru35  1  0.286153  0.998780  0.500000  1
