# generated using pymatgen
data_SmMgSnH
_symmetry_space_group_name_H-M   'P 1'
_cell_length_a   4.40005000
_cell_length_b   7.99916300
_cell_length_c   9.11145800
_cell_angle_alpha   90.00000000
_cell_angle_beta   90.00000000
_cell_angle_gamma   90.00000000
_symmetry_Int_Tables_number   1
_chemical_formula_structural   SmMgSnH
_chemical_formula_sum   'Sm4 Mg4 Sn4 H4'
_cell_volume   320.69341012
_cell_formula_units_Z   4
loop_
 _symmetry_equiv_pos_site_id
 _symmetry_equiv_pos_as_xyz
  1  'x, y, z'
loop_
 _atom_site_type_symbol
 _atom_site_label
 _atom_site_symmetry_multiplicity
 _atom_site_fract_x
 _atom_site_fract_y
 _atom_site_fract_z
 _atom_site_occupancy
  Sm  Sm0  1  0.750000  0.484024  0.836206  1
  Sm  Sm1  1  0.250000  0.515976  0.163794  1
  Sm  Sm2  1  0.250000  0.015976  0.336206  1
  Sm  Sm3  1  0.750000  0.984024  0.663794  1
  Mg  Mg4  1  0.750000  0.336102  0.424386  1
  Mg  Mg5  1  0.250000  0.663898  0.575614  1
  Mg  Mg6  1  0.250000  0.163898  0.924386  1
  Mg  Mg7  1  0.750000  0.836102  0.075614  1
  Sn  Sn8  1  0.750000  0.203623  0.121013  1
  Sn  Sn9  1  0.250000  0.796377  0.878987  1
  Sn  Sn10  1  0.250000  0.296377  0.621013  1
  Sn  Sn11  1  0.750000  0.703623  0.378987  1
  H  H12  1  0.250000  0.933383  0.570986  1
  H  H13  1  0.750000  0.066617  0.429014  1
  H  H14  1  0.750000  0.566617  0.070986  1
  H  H15  1  0.250000  0.433383  0.929014  1
