# generated using pymatgen
data_Ti5Al16GaPt5Rh2
_symmetry_space_group_name_H-M   'P 1'
_cell_length_a   8.61895530
_cell_length_b   8.65329841
_cell_length_c   8.65299857
_cell_angle_alpha   59.73895928
_cell_angle_beta   60.13042756
_cell_angle_gamma   60.12803611
_symmetry_Int_Tables_number   1
_chemical_formula_structural   Ti5Al16GaPt5Rh2
_chemical_formula_sum   'Ti5 Al16 Ga1 Pt5 Rh2'
_cell_volume   456.31640868
_cell_formula_units_Z   1
loop_
 _symmetry_equiv_pos_site_id
 _symmetry_equiv_pos_as_xyz
  1  'x, y, z'
loop_
 _atom_site_type_symbol
 _atom_site_label
 _atom_site_symmetry_multiplicity
 _atom_site_fract_x
 _atom_site_fract_y
 _atom_site_fract_z
 _atom_site_occupancy
  Ti  Ti0  1  0.812803  0.187185  0.187202  1
  Ti  Ti1  1  0.790256  0.209742  0.791293  1
  Ti  Ti2  1  0.790322  0.791316  0.209678  1
  Ti  Ti3  1  0.208719  0.791277  0.209737  1
  Ti  Ti4  1  0.208686  0.209680  0.791314  1
  Al  Al5  1  0.874220  0.844210  0.844410  1
  Al  Al6  1  0.854501  0.829276  0.461554  1
  Al  Al7  1  0.437162  0.844351  0.844260  1
  Al  Al8  1  0.854591  0.461634  0.829297  1
  Al  Al9  1  0.170718  0.145484  0.145391  1
  Al  Al10  1  0.155779  0.125764  0.562808  1
  Al  Al11  1  0.155587  0.562870  0.125787  1
  Al  Al12  1  0.538403  0.145347  0.145535  1
  Al  Al13  1  0.625478  0.615450  0.615242  1
  Al  Al14  1  0.628283  0.621843  0.121701  1
  Al  Al15  1  0.143850  0.615308  0.615368  1
  Al  Al16  1  0.628203  0.121687  0.621808  1
  Al  Al17  1  0.378177  0.371733  0.371786  1
  Al  Al18  1  0.384573  0.374544  0.856176  1
  Al  Al19  1  0.384743  0.856146  0.374503  1
  Al  Al20  1  0.878308  0.371836  0.371682  1
  Ga  Ga21  1  0.036991  0.962978  0.963019  1
  Pt  Pt22  1  0.509970  0.996143  0.490064  1
  Pt  Pt23  1  0.509972  0.490017  0.996147  1
  Pt  Pt24  1  0.003863  0.490023  0.996171  1
  Pt  Pt25  1  0.003848  0.996144  0.490055  1
  Pt  Pt26  1  0.511182  0.488820  0.488816  1
  Rh  Rh27  1  0.010406  0.489588  0.489603  1
  Rh  Rh28  1  0.510407  0.989598  0.989590  1
