# generated using pymatgen
data_Na16HfGeP8
_symmetry_space_group_name_H-M   'P 1'
_cell_length_a   9.60034245
_cell_length_b   9.60034297
_cell_length_c   9.60034200
_cell_angle_alpha   59.99999645
_cell_angle_beta   59.99999466
_cell_angle_gamma   59.99999823
_symmetry_Int_Tables_number   1
_chemical_formula_structural   Na16HfGeP8
_chemical_formula_sum   'Na16 Hf1 Ge1 P8'
_cell_volume   625.66973095
_cell_formula_units_Z   1
loop_
 _symmetry_equiv_pos_site_id
 _symmetry_equiv_pos_as_xyz
  1  'x, y, z'
loop_
 _atom_site_type_symbol
 _atom_site_label
 _atom_site_symmetry_multiplicity
 _atom_site_fract_x
 _atom_site_fract_y
 _atom_site_fract_z
 _atom_site_occupancy
  Na  Na0  1  0.620732  0.620732  0.137805  1
  Na  Na1  1  0.620732  0.137805  0.620732  1
  Na  Na2  1  0.137805  0.620732  0.620732  1
  Na  Na3  1  0.620732  0.620732  0.620732  1
  Na  Na4  1  0.024773  0.475227  0.475227  1
  Na  Na5  1  0.780603  0.219397  0.219397  1
  Na  Na6  1  0.475227  0.024773  0.475227  1
  Na  Na7  1  0.475227  0.475227  0.024773  1
  Na  Na8  1  0.024773  0.024773  0.475227  1
  Na  Na9  1  0.024773  0.475227  0.024773  1
  Na  Na10  1  0.475227  0.024773  0.024773  1
  Na  Na11  1  0.780603  0.219397  0.780603  1
  Na  Na12  1  0.219397  0.780603  0.219397  1
  Na  Na13  1  0.219397  0.219397  0.780603  1
  Na  Na14  1  0.780603  0.780603  0.219397  1
  Na  Na15  1  0.219397  0.780603  0.780603  1
  Hf  Hf16  1  0.750000  0.750000  0.750000  1
  Ge  Ge17  1  0.500000  0.500000  0.500000  1
  P  P18  1  0.857077  0.857077  0.428771  1
  P  P19  1  0.857077  0.428771  0.857077  1
  P  P20  1  0.396607  0.396607  0.810176  1
  P  P21  1  0.396607  0.810176  0.396607  1
  P  P22  1  0.810176  0.396607  0.396607  1
  P  P23  1  0.857077  0.857077  0.857077  1
  P  P24  1  0.428771  0.857077  0.857077  1
  P  P25  1  0.396607  0.396607  0.396607  1
