# generated using pymatgen
data_Li(Nd3Si2)3
_symmetry_space_group_name_H-M   'P 1'
_cell_length_a   8.92737342
_cell_length_b   8.92737374
_cell_length_c   8.92737263
_cell_angle_alpha   128.93915337
_cell_angle_beta   128.93915709
_cell_angle_gamma   75.10849828
_symmetry_Int_Tables_number   1
_chemical_formula_structural   Li(Nd3Si2)3
_chemical_formula_sum   'Li1 Nd9 Si6'
_cell_volume   419.09921524
_cell_formula_units_Z   1
loop_
 _symmetry_equiv_pos_site_id
 _symmetry_equiv_pos_as_xyz
  1  'x, y, z'
loop_
 _atom_site_type_symbol
 _atom_site_label
 _atom_site_symmetry_multiplicity
 _atom_site_fract_x
 _atom_site_fract_y
 _atom_site_fract_z
 _atom_site_occupancy
  Li  Li0  1  0.000000  0.000000  0.000000  1
  Nd  Nd1  1  0.684038  0.171081  0.142059  1
  Nd  Nd2  1  0.541980  0.684038  0.512957  1
  Nd  Nd3  1  0.029023  0.541980  0.857941  1
  Nd  Nd4  1  0.828919  0.970977  0.512957  1
  Nd  Nd5  1  0.315962  0.828919  0.857941  1
  Nd  Nd6  1  0.171081  0.029023  0.487043  1
  Nd  Nd7  1  0.458020  0.315962  0.487043  1
  Nd  Nd8  1  0.500000  0.500000  0.000000  1
  Nd  Nd9  1  0.970977  0.458020  0.142059  1
  Si  Si10  1  0.885498  0.612785  0.498282  1
  Si  Si11  1  0.612785  0.114502  0.727287  1
  Si  Si12  1  0.387215  0.885498  0.272713  1
  Si  Si13  1  0.114502  0.387215  0.501718  1
  Si  Si14  1  0.737626  0.737626  0.000000  1
  Si  Si15  1  0.262374  0.262374  0.000000  1
