# generated using pymatgen
data_MgAlGaPd5
_symmetry_space_group_name_H-M   'P 1'
_cell_length_a   4.08024100
_cell_length_b   5.52186500
_cell_length_c   10.74650900
_cell_angle_alpha   90.00000000
_cell_angle_beta   90.00000000
_cell_angle_gamma   90.00000000
_symmetry_Int_Tables_number   1
_chemical_formula_structural   MgAlGaPd5
_chemical_formula_sum   'Mg2 Al2 Ga2 Pd10'
_cell_volume   242.12465056
_cell_formula_units_Z   2
loop_
 _symmetry_equiv_pos_site_id
 _symmetry_equiv_pos_as_xyz
  1  'x, y, z'
loop_
 _atom_site_type_symbol
 _atom_site_label
 _atom_site_symmetry_multiplicity
 _atom_site_fract_x
 _atom_site_fract_y
 _atom_site_fract_z
 _atom_site_occupancy
  Mg  Mg0  1  0.000000  0.827244  0.642026  1
  Mg  Mg1  1  0.000000  0.327244  0.857974  1
  Al  Al2  1  0.000000  0.156984  0.357206  1
  Al  Al3  1  0.000000  0.656984  0.142794  1
  Ga  Ga4  1  0.500000  0.520603  0.506004  1
  Ga  Ga5  1  0.500000  0.020603  0.993996  1
  Pd  Pd6  1  0.000000  0.813322  0.900916  1
  Pd  Pd7  1  0.000000  0.690350  0.385419  1
  Pd  Pd8  1  0.000000  0.313322  0.599084  1
  Pd  Pd9  1  0.500000  0.900432  0.227702  1
  Pd  Pd10  1  0.500000  0.400432  0.272298  1
  Pd  Pd11  1  0.500000  0.573715  0.745161  1
  Pd  Pd12  1  0.500000  0.073715  0.754839  1
  Pd  Pd13  1  0.500000  0.517349  0.012588  1
  Pd  Pd14  1  0.500000  0.017349  0.487412  1
  Pd  Pd15  1  0.000000  0.190350  0.114581  1
