# generated using pymatgen
data_PaTl(PO4)2
_symmetry_space_group_name_H-M   'P 1'
_cell_length_a   5.29829405
_cell_length_b   5.29829433
_cell_length_c   8.90882100
_cell_angle_alpha   87.64232506
_cell_angle_beta   87.64232494
_cell_angle_gamma   61.76320539
_symmetry_Int_Tables_number   1
_chemical_formula_structural   PaTl(PO4)2
_chemical_formula_sum   'Pa1 Tl1 P2 O8'
_cell_volume   220.07397919
_cell_formula_units_Z   1
loop_
 _symmetry_equiv_pos_site_id
 _symmetry_equiv_pos_as_xyz
  1  'x, y, z'
loop_
 _atom_site_type_symbol
 _atom_site_label
 _atom_site_symmetry_multiplicity
 _atom_site_fract_x
 _atom_site_fract_y
 _atom_site_fract_z
 _atom_site_occupancy
  Pa  Pa0  1  0.000000  0.000000  0.500000  1
  Tl  Tl1  1  0.000000  0.000000  0.000000  1
  P  P2  1  0.644648  0.644648  0.716041  1
  P  P3  1  0.355352  0.355352  0.283959  1
  O  O4  1  0.218957  0.678134  0.329216  1
  O  O5  1  0.219018  0.219018  0.400896  1
  O  O6  1  0.316359  0.316359  0.123252  1
  O  O7  1  0.678134  0.218957  0.329216  1
  O  O8  1  0.683641  0.683641  0.876748  1
  O  O9  1  0.780982  0.780982  0.599104  1
  O  O10  1  0.321866  0.781043  0.670784  1
  O  O11  1  0.781043  0.321866  0.670784  1
