# generated using pymatgen
data_NaEr7(Sn11Ru3)2
_symmetry_space_group_name_H-M   'P 1'
_cell_length_a   9.81892700
_cell_length_b   9.81892706
_cell_length_c   10.07645100
_cell_angle_alpha   90.00000000
_cell_angle_beta   90.00000000
_cell_angle_gamma   120.00000317
_symmetry_Int_Tables_number   1
_chemical_formula_structural   NaEr7(Sn11Ru3)2
_chemical_formula_sum   'Na1 Er7 Sn22 Ru6'
_cell_volume   841.32981608
_cell_formula_units_Z   1
loop_
 _symmetry_equiv_pos_site_id
 _symmetry_equiv_pos_as_xyz
  1  'x, y, z'
loop_
 _atom_site_type_symbol
 _atom_site_label
 _atom_site_symmetry_multiplicity
 _atom_site_fract_x
 _atom_site_fract_y
 _atom_site_fract_z
 _atom_site_occupancy
  Na  Na0  1  0.000000  0.000000  0.500000  1
  Er  Er1  1  0.484341  0.515659  0.306212  1
  Er  Er2  1  0.515659  0.484341  0.693788  1
  Er  Er3  1  0.484341  0.968682  0.306212  1
  Er  Er4  1  0.515659  0.031318  0.693788  1
  Er  Er5  1  0.031318  0.515659  0.306212  1
  Er  Er6  1  0.968682  0.484341  0.693788  1
  Er  Er7  1  0.000000  0.000000  0.000000  1
  Sn  Sn8  1  0.123510  0.876490  0.266125  1
  Sn  Sn9  1  0.876490  0.123510  0.733875  1
  Sn  Sn10  1  0.123510  0.247021  0.266125  1
  Sn  Sn11  1  0.876490  0.752979  0.733875  1
  Sn  Sn12  1  0.752979  0.876490  0.266125  1
  Sn  Sn13  1  0.247021  0.123510  0.733875  1
  Sn  Sn14  1  0.779436  0.220564  0.462944  1
  Sn  Sn15  1  0.220564  0.779436  0.537056  1
  Sn  Sn16  1  0.779436  0.558873  0.462944  1
  Sn  Sn17  1  0.220564  0.441127  0.537056  1
  Sn  Sn18  1  0.441127  0.220564  0.462944  1
  Sn  Sn19  1  0.558873  0.779436  0.537056  1
  Sn  Sn20  1  0.348947  0.000000  0.000000  1
  Sn  Sn21  1  0.651053  0.000000  0.000000  1
  Sn  Sn22  1  0.000000  0.348947  0.000000  1
  Sn  Sn23  1  0.000000  0.651053  0.000000  1
  Sn  Sn24  1  0.651053  0.651053  0.000000  1
  Sn  Sn25  1  0.348947  0.348947  0.000000  1
  Sn  Sn26  1  0.333333  0.666667  0.129097  1
  Sn  Sn27  1  0.666667  0.333333  0.870903  1
  Sn  Sn28  1  0.333333  0.666667  0.823201  1
  Sn  Sn29  1  0.666667  0.333333  0.176799  1
  Ru  Ru30  1  0.831421  0.168579  0.204991  1
  Ru  Ru31  1  0.168579  0.831421  0.795009  1
  Ru  Ru32  1  0.831421  0.662844  0.204991  1
  Ru  Ru33  1  0.168579  0.337156  0.795009  1
  Ru  Ru34  1  0.337156  0.168579  0.204991  1
  Ru  Ru35  1  0.662844  0.831421  0.795009  1
