# generated using pymatgen
data_Tm2HfZr(SiMo)4
_symmetry_space_group_name_H-M   'P 1'
_cell_length_a   3.57032500
_cell_length_b   7.11721436
_cell_length_c   8.31063504
_cell_angle_alpha   90.17009646
_cell_angle_beta   90.00000000
_cell_angle_gamma   90.00000000
_symmetry_Int_Tables_number   1
_chemical_formula_structural   Tm2HfZr(SiMo)4
_chemical_formula_sum   'Tm2 Hf1 Zr1 Si4 Mo4'
_cell_volume   211.17869128
_cell_formula_units_Z   1
loop_
 _symmetry_equiv_pos_site_id
 _symmetry_equiv_pos_as_xyz
  1  'x, y, z'
loop_
 _atom_site_type_symbol
 _atom_site_label
 _atom_site_symmetry_multiplicity
 _atom_site_fract_x
 _atom_site_fract_y
 _atom_site_fract_z
 _atom_site_occupancy
  Tm  Tm0  1  0.250000  0.043082  0.332020  1
  Tm  Tm1  1  0.750000  0.957007  0.668059  1
  Hf  Hf2  1  0.750000  0.457582  0.834646  1
  Zr  Zr3  1  0.250000  0.541989  0.164795  1
  Si  Si4  1  0.250000  0.267407  0.640122  1
  Si  Si5  1  0.750000  0.733110  0.360550  1
  Si  Si6  1  0.250000  0.753149  0.866862  1
  Si  Si7  1  0.750000  0.245994  0.132634  1
  Mo  Mo8  1  0.750000  0.374345  0.441151  1
  Mo  Mo9  1  0.250000  0.625392  0.560018  1
  Mo  Mo10  1  0.750000  0.869148  0.059962  1
  Mo  Mo11  1  0.250000  0.131796  0.939180  1
