# generated using pymatgen
data_TaCo5Ni15(B3W)2
_symmetry_space_group_name_H-M   'P 1'
_cell_length_a   7.44834528
_cell_length_b   7.44834546
_cell_length_c   7.45016527
_cell_angle_alpha   60.00807763
_cell_angle_beta   60.00807803
_cell_angle_gamma   59.99999941
_symmetry_Int_Tables_number   1
_chemical_formula_structural   TaCo5Ni15(B3W)2
_chemical_formula_sum   'Ta1 Co5 Ni15 B6 W2'
_cell_volume   292.29644564
_cell_formula_units_Z   1
loop_
 _symmetry_equiv_pos_site_id
 _symmetry_equiv_pos_as_xyz
  1  'x, y, z'
loop_
 _atom_site_type_symbol
 _atom_site_label
 _atom_site_symmetry_multiplicity
 _atom_site_fract_x
 _atom_site_fract_y
 _atom_site_fract_z
 _atom_site_occupancy
  Ta  Ta0  1  0.252086  0.252086  0.243744  1
  Co  Co1  1  0.618117  0.618117  0.145649  1
  Co  Co2  1  0.618647  0.144571  0.618136  1
  Co  Co3  1  0.144571  0.618647  0.618136  1
  Co  Co4  1  0.618647  0.618647  0.618136  1
  Co  Co5  1  0.383918  0.383918  0.848248  1
  Ni  Ni6  1  0.384590  0.845385  0.385434  1
  Ni  Ni7  1  0.845385  0.384590  0.385434  1
  Ni  Ni8  1  0.384590  0.384590  0.385434  1
  Ni  Ni9  1  0.999760  0.999760  0.341034  1
  Ni  Ni10  1  0.659447  0.999760  0.341034  1
  Ni  Ni11  1  0.999760  0.659447  0.341034  1
  Ni  Ni12  1  0.660018  0.340901  0.999677  1
  Ni  Ni13  1  0.999403  0.340901  0.999677  1
  Ni  Ni14  1  0.000461  0.339697  0.659381  1
  Ni  Ni15  1  0.340901  0.660018  0.999677  1
  Ni  Ni16  1  0.339697  0.000461  0.659381  1
  Ni  Ni17  1  0.340901  0.999403  0.999677  1
  Ni  Ni18  1  0.000461  0.000461  0.659381  1
  Ni  Ni19  1  0.999403  0.660018  0.999677  1
  Ni  Ni20  1  0.660018  0.999403  0.999677  1
  B  B21  1  0.726181  0.726181  0.273699  1
  B  B22  1  0.273940  0.726181  0.273699  1
  B  B23  1  0.726181  0.273940  0.273699  1
  B  B24  1  0.275007  0.275007  0.727254  1
  B  B25  1  0.722734  0.275007  0.727254  1
  B  B26  1  0.275007  0.722734  0.727254  1
  W  W27  1  0.999995  0.999995  0.000015  1
  W  W28  1  0.750176  0.750176  0.749471  1
