# generated using pymatgen
data_Dy3Mg3Al2Hg
_symmetry_space_group_name_H-M   'P 1'
_cell_length_a   7.49552500
_cell_length_b   7.49552383
_cell_length_c   4.43017400
_cell_angle_alpha   90.00000000
_cell_angle_beta   90.00000000
_cell_angle_gamma   120.00000076
_symmetry_Int_Tables_number   1
_chemical_formula_structural   Dy3Mg3Al2Hg
_chemical_formula_sum   'Dy3 Mg3 Al2 Hg1'
_cell_volume   215.55368833
_cell_formula_units_Z   1
loop_
 _symmetry_equiv_pos_site_id
 _symmetry_equiv_pos_as_xyz
  1  'x, y, z'
loop_
 _atom_site_type_symbol
 _atom_site_label
 _atom_site_symmetry_multiplicity
 _atom_site_fract_x
 _atom_site_fract_y
 _atom_site_fract_z
 _atom_site_occupancy
  Dy  Dy0  1  0.573993  0.000000  0.000000  1
  Dy  Dy1  1  0.000000  0.573993  0.000000  1
  Dy  Dy2  1  0.426007  0.426007  0.000000  1
  Mg  Mg3  1  0.248776  0.000000  0.500000  1
  Mg  Mg4  1  0.000000  0.248776  0.500000  1
  Mg  Mg5  1  0.751224  0.751224  0.500000  1
  Al  Al6  1  0.333333  0.666667  0.500000  1
  Al  Al7  1  0.666667  0.333333  0.500000  1
  Hg  Hg8  1  0.000000  0.000000  0.000000  1
