# generated using pymatgen
data_Ce4PuSi3H
_symmetry_space_group_name_H-M   'P 1'
_cell_length_a   8.45346879
_cell_length_b   8.45346871
_cell_length_c   8.42557100
_cell_angle_alpha   126.70459479
_cell_angle_beta   126.70458593
_cell_angle_gamma   78.96351803
_symmetry_Int_Tables_number   1
_chemical_formula_structural   Ce4PuSi3H
_chemical_formula_sum   'Ce8 Pu2 Si6 H2'
_cell_volume   373.91421010
_cell_formula_units_Z   2
loop_
 _symmetry_equiv_pos_site_id
 _symmetry_equiv_pos_as_xyz
  1  'x, y, z'
loop_
 _atom_site_type_symbol
 _atom_site_label
 _atom_site_symmetry_multiplicity
 _atom_site_fract_x
 _atom_site_fract_y
 _atom_site_fract_z
 _atom_site_occupancy
  Ce  Ce0  1  0.508268  0.508268  0.000000  1
  Ce  Ce1  1  0.008268  0.008268  0.000000  1
  Ce  Ce2  1  0.525055  0.025055  0.858097  1
  Ce  Ce3  1  0.166960  0.666960  0.141903  1
  Ce  Ce4  1  0.025256  0.160827  0.500000  1
  Ce  Ce5  1  0.660827  0.525256  0.500000  1
  Ce  Ce6  1  0.470795  0.970795  0.136548  1
  Ce  Ce7  1  0.834245  0.334245  0.863452  1
  Pu  Pu8  1  0.974587  0.831049  0.500000  1
  Pu  Pu9  1  0.331049  0.474587  0.500000  1
  Si  Si10  1  0.249930  0.249930  0.000000  1
  Si  Si11  1  0.749930  0.749930  0.000000  1
  Si  Si12  1  0.885495  0.385495  0.275011  1
  Si  Si13  1  0.110484  0.610484  0.724989  1
  Si  Si14  1  0.387167  0.115721  0.500000  1
  Si  Si15  1  0.615721  0.887167  0.500000  1
  H  H16  1  0.245726  0.745726  0.500000  1
  H  H17  1  0.750235  0.250235  0.500000  1
