# generated using pymatgen
data_Pr2Sm(AlI)2
_symmetry_space_group_name_H-M   'P 1'
_cell_length_a   9.96654338
_cell_length_b   9.96654208
_cell_length_c   12.16193479
_cell_angle_alpha   59.78188287
_cell_angle_beta   59.78188729
_cell_angle_gamma   25.10674259
_symmetry_Int_Tables_number   1
_chemical_formula_structural   Pr2Sm(AlI)2
_chemical_formula_sum   'Pr4 Sm2 Al4 I4'
_cell_volume   439.19692051
_cell_formula_units_Z   2
loop_
 _symmetry_equiv_pos_site_id
 _symmetry_equiv_pos_as_xyz
  1  'x, y, z'
loop_
 _atom_site_type_symbol
 _atom_site_label
 _atom_site_symmetry_multiplicity
 _atom_site_fract_x
 _atom_site_fract_y
 _atom_site_fract_z
 _atom_site_occupancy
  Pr  Pr0  1  0.755657  0.755657  0.799688  1
  Pr  Pr1  1  0.244343  0.244343  0.200312  1
  Pr  Pr2  1  0.534473  0.534473  0.311982  1
  Pr  Pr3  1  0.465527  0.465527  0.688018  1
  Sm  Sm4  1  0.831061  0.831061  0.389840  1
  Sm  Sm5  1  0.168939  0.168939  0.610160  1
  Al  Al6  1  0.926372  0.926372  0.531264  1
  Al  Al7  1  0.073628  0.073628  0.468736  1
  Al  Al8  1  0.337583  0.337583  0.582553  1
  Al  Al9  1  0.662417  0.662417  0.417447  1
  I  I10  1  0.422333  0.422333  0.173769  1
  I  I11  1  0.577667  0.577667  0.826231  1
  I  I12  1  0.859535  0.859535  0.941003  1
  I  I13  1  0.140465  0.140465  0.058997  1
