# generated using pymatgen
data_Nd4CuSn12Pd7
_symmetry_space_group_name_H-M   'P 1'
_cell_length_a   6.16152300
_cell_length_b   6.32938569
_cell_length_c   13.98235651
_cell_angle_alpha   90.05326975
_cell_angle_beta   90.00000000
_cell_angle_gamma   90.00000000
_symmetry_Int_Tables_number   1
_chemical_formula_structural   Nd4CuSn12Pd7
_chemical_formula_sum   'Nd4 Cu1 Sn12 Pd7'
_cell_volume   545.29286851
_cell_formula_units_Z   1
loop_
 _symmetry_equiv_pos_site_id
 _symmetry_equiv_pos_as_xyz
  1  'x, y, z'
loop_
 _atom_site_type_symbol
 _atom_site_label
 _atom_site_symmetry_multiplicity
 _atom_site_fract_x
 _atom_site_fract_y
 _atom_site_fract_z
 _atom_site_occupancy
  Nd  Nd0  1  0.250000  0.517160  0.799571  1
  Nd  Nd1  1  0.750000  0.484086  0.201379  1
  Nd  Nd2  1  0.750000  0.985404  0.799608  1
  Nd  Nd3  1  0.250000  0.015919  0.201364  1
  Cu  Cu4  1  0.250000  0.014165  0.882522  1
  Sn  Sn5  1  0.250000  0.020357  0.698576  1
  Sn  Sn6  1  0.750000  0.980502  0.304424  1
  Sn  Sn7  1  0.750000  0.478811  0.695050  1
  Sn  Sn8  1  0.250000  0.519061  0.304576  1
  Sn  Sn9  1  0.250000  0.893518  0.438882  1
  Sn  Sn10  1  0.750000  0.106386  0.561504  1
  Sn  Sn11  1  0.750000  0.606549  0.438991  1
  Sn  Sn12  1  0.250000  0.395104  0.561980  1
  Sn  Sn13  1  0.498300  0.751529  0.993932  1
  Sn  Sn14  1  0.002474  0.246932  0.003046  1
  Sn  Sn15  1  0.497526  0.246932  0.003046  1
  Sn  Sn16  1  0.001700  0.751529  0.993932  1
  Pd  Pd17  1  0.750000  0.983936  0.115506  1
  Pd  Pd18  1  0.750000  0.482498  0.883580  1
  Pd  Pd19  1  0.250000  0.517154  0.115503  1
  Pd  Pd20  1  0.500137  0.751505  0.594429  1
  Pd  Pd21  1  0.999956  0.249729  0.407084  1
  Pd  Pd22  1  0.500044  0.249729  0.407084  1
  Pd  Pd23  1  0.999863  0.751505  0.594429  1
