# generated using pymatgen
data_Mg5Np(SnRu2)6
_symmetry_space_group_name_H-M   'P 1'
_cell_length_a   4.51567000
_cell_length_b   6.44466500
_cell_length_c   13.47283100
_cell_angle_alpha   89.99946962
_cell_angle_beta   89.99797706
_cell_angle_gamma   90.00000000
_symmetry_Int_Tables_number   1
_chemical_formula_structural   Mg5Np(SnRu2)6
_chemical_formula_sum   'Mg5 Np1 Sn6 Ru12'
_cell_volume   392.08606357
_cell_formula_units_Z   1
loop_
 _symmetry_equiv_pos_site_id
 _symmetry_equiv_pos_as_xyz
  1  'x, y, z'
loop_
 _atom_site_type_symbol
 _atom_site_label
 _atom_site_symmetry_multiplicity
 _atom_site_fract_x
 _atom_site_fract_y
 _atom_site_fract_z
 _atom_site_occupancy
  Mg  Mg0  1  0.499915  0.500035  0.169316  1
  Mg  Mg1  1  0.999888  0.999941  0.335287  1
  Mg  Mg2  1  0.500003  0.500090  0.499997  1
  Mg  Mg3  1  0.000110  0.999945  0.664686  1
  Mg  Mg4  1  0.500072  0.500033  0.830724  1
  Np  Np5  1  0.999990  0.000019  0.999933  1
  Sn  Sn6  1  0.999992  0.500031  0.999959  1
  Sn  Sn7  1  0.499923  0.999979  0.177277  1
  Sn  Sn8  1  0.999904  0.500052  0.337849  1
  Sn  Sn9  1  0.500000  0.999906  0.499983  1
  Sn  Sn10  1  0.000109  0.500050  0.662114  1
  Sn  Sn11  1  0.500071  0.999980  0.822802  1
  Ru  Ru12  1  0.499995  0.245852  0.000017  1
  Ru  Ru13  1  0.499990  0.754122  0.000014  1
  Ru  Ru14  1  0.999931  0.243063  0.159556  1
  Ru  Ru15  1  0.999931  0.756909  0.159575  1
  Ru  Ru16  1  0.499889  0.255611  0.333190  1
  Ru  Ru17  1  0.499889  0.744398  0.333186  1
  Ru  Ru18  1  0.000001  0.244244  0.499964  1
  Ru  Ru19  1  0.000001  0.755760  0.499963  1
  Ru  Ru20  1  0.500133  0.255663  0.666779  1
  Ru  Ru21  1  0.500133  0.744350  0.666784  1
  Ru  Ru22  1  0.000061  0.243000  0.840533  1
  Ru  Ru23  1  0.000062  0.756973  0.840514  1
