# generated using pymatgen
data_HoTm7Re2(B12Ir)2
_symmetry_space_group_name_H-M   'P 1'
_cell_length_a   3.63375500
_cell_length_b   9.08876134
_cell_length_c   11.47141604
_cell_angle_alpha   90.30825906
_cell_angle_beta   90.00000000
_cell_angle_gamma   90.00000000
_symmetry_Int_Tables_number   1
_chemical_formula_structural   HoTm7Re2(B12Ir)2
_chemical_formula_sum   'Ho1 Tm7 Re2 B24 Ir2'
_cell_volume   378.85331105
_cell_formula_units_Z   1
loop_
 _symmetry_equiv_pos_site_id
 _symmetry_equiv_pos_as_xyz
  1  'x, y, z'
loop_
 _atom_site_type_symbol
 _atom_site_label
 _atom_site_symmetry_multiplicity
 _atom_site_fract_x
 _atom_site_fract_y
 _atom_site_fract_z
 _atom_site_occupancy
  Ho  Ho0  1  0.000000  0.316577  0.409845  1
  Tm  Tm1  1  0.000000  0.683941  0.590373  1
  Tm  Tm2  1  0.000000  0.826263  0.081941  1
  Tm  Tm3  1  0.000000  0.173718  0.918025  1
  Tm  Tm4  1  0.000000  0.946099  0.372395  1
  Tm  Tm5  1  0.000000  0.053642  0.627665  1
  Tm  Tm6  1  0.000000  0.441712  0.125583  1
  Tm  Tm7  1  0.000000  0.558330  0.874349  1
  Re  Re8  1  0.000000  0.138033  0.179655  1
  Re  Re9  1  0.000000  0.861728  0.820122  1
  B  B10  1  0.500000  0.554275  0.434348  1
  B  B11  1  0.500000  0.446180  0.565905  1
  B  B12  1  0.500000  0.053033  0.066796  1
  B  B13  1  0.500000  0.946909  0.933139  1
  B  B14  1  0.500000  0.749931  0.421584  1
  B  B15  1  0.500000  0.249980  0.578843  1
  B  B16  1  0.500000  0.248350  0.080145  1
  B  B17  1  0.500000  0.751640  0.919759  1
  B  B18  1  0.500000  0.791470  0.265691  1
  B  B19  1  0.500000  0.208538  0.734362  1
  B  B20  1  0.500000  0.292662  0.234193  1
  B  B21  1  0.500000  0.707165  0.765469  1
  B  B22  1  0.500000  0.631619  0.183494  1
  B  B23  1  0.500000  0.368446  0.816491  1
  B  B24  1  0.500000  0.131024  0.314974  1
  B  B25  1  0.500000  0.868646  0.684816  1
  B  B26  1  0.500000  0.981812  0.213064  1
  B  B27  1  0.500000  0.018057  0.786894  1
  B  B28  1  0.500000  0.482119  0.286991  1
  B  B29  1  0.500000  0.518302  0.712844  1
  B  B30  1  0.500000  0.606233  0.029709  1
  B  B31  1  0.500000  0.393793  0.970256  1
  B  B32  1  0.500000  0.106045  0.471228  1
  B  B33  1  0.500000  0.893377  0.528923  1
  Ir  Ir34  1  0.000000  0.637059  0.321986  1
  Ir  Ir35  1  0.000000  0.363292  0.678144  1
