# generated using pymatgen
data_Rb2U(Cl2O)2
_symmetry_space_group_name_H-M   'P 1'
_cell_length_a   5.99699147
_cell_length_b   7.05472986
_cell_length_c   7.18357219
_cell_angle_alpha   63.66251633
_cell_angle_beta   85.68055014
_cell_angle_gamma   88.15753983
_symmetry_Int_Tables_number   1
_chemical_formula_structural   Rb2U(Cl2O)2
_chemical_formula_sum   'Rb2 U1 Cl4 O2'
_cell_volume   271.59496490
_cell_formula_units_Z   1
loop_
 _symmetry_equiv_pos_site_id
 _symmetry_equiv_pos_as_xyz
  1  'x, y, z'
loop_
 _atom_site_type_symbol
 _atom_site_label
 _atom_site_symmetry_multiplicity
 _atom_site_fract_x
 _atom_site_fract_y
 _atom_site_fract_z
 _atom_site_occupancy
  Rb  Rb0  1  0.245684  0.135954  0.174049  1
  Rb  Rb1  1  0.754316  0.864046  0.825951  1
  U  U2  1  0.000000  0.500000  0.500000  1
  Cl  Cl3  1  0.774048  0.353472  0.874044  1
  Cl  Cl4  1  0.225952  0.646528  0.125956  1
  Cl  Cl5  1  0.256800  0.154250  0.659785  1
  Cl  Cl6  1  0.743200  0.845750  0.340215  1
  O  O7  1  0.825973  0.348028  0.420760  1
  O  O8  1  0.174027  0.651972  0.579240  1
