# generated using pymatgen
data_KBa(NdI4)2
_symmetry_space_group_name_H-M   'P 1'
_cell_length_a   9.23547266
_cell_length_b   9.23547218
_cell_length_c   7.44860999
_cell_angle_alpha   72.70467888
_cell_angle_beta   72.70467645
_cell_angle_gamma   111.28075916
_symmetry_Int_Tables_number   1
_chemical_formula_structural   KBa(NdI4)2
_chemical_formula_sum   'K1 Ba1 Nd2 I8'
_cell_volume   503.20817686
_cell_formula_units_Z   1
loop_
 _symmetry_equiv_pos_site_id
 _symmetry_equiv_pos_as_xyz
  1  'x, y, z'
loop_
 _atom_site_type_symbol
 _atom_site_label
 _atom_site_symmetry_multiplicity
 _atom_site_fract_x
 _atom_site_fract_y
 _atom_site_fract_z
 _atom_site_occupancy
  K  K0  1  0.637212  0.362788  0.250000  1
  Ba  Ba1  1  0.366156  0.633844  0.750000  1
  Nd  Nd2  1  0.000009  0.999991  0.750000  1
  Nd  Nd3  1  0.999982  0.000018  0.250000  1
  I  I4  1  0.649400  0.778111  0.213599  1
  I  I5  1  0.221889  0.350600  0.286401  1
  I  I6  1  0.350455  0.226145  0.788466  1
  I  I7  1  0.773855  0.649545  0.711534  1
  I  I8  1  0.719357  0.054730  0.584682  1
  I  I9  1  0.945270  0.280643  0.915318  1
  I  I10  1  0.276876  0.940461  0.422810  1
  I  I11  1  0.059539  0.723124  0.077190  1
