# generated using pymatgen
data_NdDy3(CuP2)4
_symmetry_space_group_name_H-M   'P 1'
_cell_length_a   3.71924000
_cell_length_b   3.79537206
_cell_length_c   19.60093759
_cell_angle_alpha   90.07949944
_cell_angle_beta   90.00000000
_cell_angle_gamma   90.00000000
_symmetry_Int_Tables_number   1
_chemical_formula_structural   NdDy3(CuP2)4
_chemical_formula_sum   'Nd1 Dy3 Cu4 P8'
_cell_volume   276.68460016
_cell_formula_units_Z   1
loop_
 _symmetry_equiv_pos_site_id
 _symmetry_equiv_pos_as_xyz
  1  'x, y, z'
loop_
 _atom_site_type_symbol
 _atom_site_label
 _atom_site_symmetry_multiplicity
 _atom_site_fract_x
 _atom_site_fract_y
 _atom_site_fract_z
 _atom_site_occupancy
  Nd  Nd0  1  0.750000  0.215311  0.117306  1
  Dy  Dy1  1  0.250000  0.716314  0.384458  1
  Dy  Dy2  1  0.250000  0.785415  0.878690  1
  Dy  Dy3  1  0.750000  0.283105  0.617545  1
  Cu  Cu4  1  0.250000  0.216603  0.253559  1
  Cu  Cu5  1  0.750000  0.783505  0.748475  1
  Cu  Cu6  1  0.250000  0.283585  0.748116  1
  Cu  Cu7  1  0.750000  0.716360  0.254229  1
  P  P8  1  0.750000  0.809791  0.503121  1
  P  P9  1  0.750000  0.688771  0.997344  1
  P  P10  1  0.250000  0.190009  0.498759  1
  P  P11  1  0.250000  0.311561  0.992824  1
  P  P12  1  0.250000  0.715329  0.178246  1
  P  P13  1  0.750000  0.216540  0.330681  1
  P  P14  1  0.750000  0.284577  0.825438  1
  P  P15  1  0.250000  0.783222  0.671211  1
