# generated using pymatgen
data_Hf3Mn4NbGeP3
_symmetry_space_group_name_H-M   'P 1'
_cell_length_a   3.60499000
_cell_length_b   6.41912824
_cell_length_c   7.51697867
_cell_angle_alpha   90.06173654
_cell_angle_beta   90.00000000
_cell_angle_gamma   90.00000000
_symmetry_Int_Tables_number   1
_chemical_formula_structural   Hf3Mn4NbGeP3
_chemical_formula_sum   'Hf3 Mn4 Nb1 Ge1 P3'
_cell_volume   173.94949905
_cell_formula_units_Z   1
loop_
 _symmetry_equiv_pos_site_id
 _symmetry_equiv_pos_as_xyz
  1  'x, y, z'
loop_
 _atom_site_type_symbol
 _atom_site_label
 _atom_site_symmetry_multiplicity
 _atom_site_fract_x
 _atom_site_fract_y
 _atom_site_fract_z
 _atom_site_occupancy
  Hf  Hf0  1  0.750000  0.470181  0.822924  1
  Hf  Hf1  1  0.750000  0.966758  0.674445  1
  Hf  Hf2  1  0.250000  0.026946  0.328831  1
  Mn  Mn3  1  0.250000  0.636652  0.561111  1
  Mn  Mn4  1  0.750000  0.367277  0.447342  1
  Mn  Mn5  1  0.750000  0.857157  0.059035  1
  Mn  Mn6  1  0.250000  0.130878  0.931259  1
  Nb  Nb7  1  0.250000  0.543462  0.174580  1
  Ge  Ge8  1  0.750000  0.239970  0.130089  1
  P  P9  1  0.250000  0.765053  0.871345  1
  P  P10  1  0.750000  0.729280  0.370672  1
  P  P11  1  0.250000  0.266388  0.628368  1
