# generated using pymatgen
data_MgRh3O8
_symmetry_space_group_name_H-M   'P 1'
_cell_length_a   4.60369218
_cell_length_b   5.53030318
_cell_length_c   6.24095424
_cell_angle_alpha   124.37891082
_cell_angle_beta   89.99236053
_cell_angle_gamma   90.74657861
_symmetry_Int_Tables_number   1
_chemical_formula_structural   MgRh3O8
_chemical_formula_sum   'Mg1 Rh3 O8'
_cell_volume   131.12207343
_cell_formula_units_Z   1
loop_
 _symmetry_equiv_pos_site_id
 _symmetry_equiv_pos_as_xyz
  1  'x, y, z'
loop_
 _atom_site_type_symbol
 _atom_site_label
 _atom_site_symmetry_multiplicity
 _atom_site_fract_x
 _atom_site_fract_y
 _atom_site_fract_z
 _atom_site_occupancy
  Mg  Mg0  1  0.499995  0.500007  0.249998  1
  Rh  Rh1  1  0.999977  0.000012  0.250028  1
  Rh  Rh2  1  0.500017  0.499999  0.750009  1
  Rh  Rh3  1  0.999995  0.000012  0.749985  1
  O  O4  1  0.303890  0.298935  0.407739  1
  O  O5  1  0.198804  0.809952  0.905046  1
  O  O6  1  0.824076  0.196199  0.098138  1
  O  O7  1  0.696079  0.701071  0.608689  1
  O  O8  1  0.801211  0.190045  0.594948  1
  O  O9  1  0.696100  0.701067  0.092251  1
  O  O10  1  0.303935  0.298915  0.891315  1
  O  O11  1  0.175920  0.803786  0.401851  1
