# generated using pymatgen
data_PrNd2Al12Ir3Ru
_symmetry_space_group_name_H-M   'P 1'
_cell_length_a   8.92200000
_cell_length_b   8.91630123
_cell_length_c   9.61082600
_cell_angle_alpha   90.00000000
_cell_angle_beta   90.00000000
_cell_angle_gamma   120.02115228
_symmetry_Int_Tables_number   1
_chemical_formula_structural   PrNd2Al12Ir3Ru
_chemical_formula_sum   'Pr2 Nd4 Al24 Ir6 Ru2'
_cell_volume   661.98125303
_cell_formula_units_Z   2
loop_
 _symmetry_equiv_pos_site_id
 _symmetry_equiv_pos_as_xyz
  1  'x, y, z'
loop_
 _atom_site_type_symbol
 _atom_site_label
 _atom_site_symmetry_multiplicity
 _atom_site_fract_x
 _atom_site_fract_y
 _atom_site_fract_z
 _atom_site_occupancy
  Pr  Pr0  1  0.190440  0.380879  0.250000  1
  Pr  Pr1  1  0.809560  0.619121  0.750000  1
  Nd  Nd2  1  0.619211  0.809605  0.250000  1
  Nd  Nd3  1  0.380789  0.190395  0.750000  1
  Nd  Nd4  1  0.190395  0.809605  0.250000  1
  Nd  Nd5  1  0.809605  0.190395  0.750000  1
  Al  Al6  1  0.333458  0.666916  0.014659  1
  Al  Al7  1  0.666542  0.333084  0.985341  1
  Al  Al8  1  0.666542  0.333084  0.514659  1
  Al  Al9  1  0.333458  0.666916  0.485341  1
  Al  Al10  1  0.162883  0.325765  0.575455  1
  Al  Al11  1  0.837117  0.674235  0.424545  1
  Al  Al12  1  0.674163  0.837314  0.575026  1
  Al  Al13  1  0.837117  0.674235  0.075455  1
  Al  Al14  1  0.325837  0.162686  0.424974  1
  Al  Al15  1  0.162883  0.325765  0.924545  1
  Al  Al16  1  0.163151  0.837314  0.575026  1
  Al  Al17  1  0.325837  0.162686  0.075026  1
  Al  Al18  1  0.836849  0.162686  0.424974  1
  Al  Al19  1  0.674163  0.837314  0.924974  1
  Al  Al20  1  0.836849  0.162686  0.075026  1
  Al  Al21  1  0.163151  0.837314  0.924974  1
  Al  Al22  1  0.563004  0.126009  0.250000  1
  Al  Al23  1  0.436996  0.873991  0.750000  1
  Al  Al24  1  0.873578  0.437022  0.250000  1
  Al  Al25  1  0.126422  0.562978  0.750000  1
  Al  Al26  1  0.563444  0.437022  0.250000  1
  Al  Al27  1  0.436556  0.562978  0.750000  1
  Al  Al28  1  0.999703  0.999406  0.250000  1
  Al  Al29  1  0.000297  0.000594  0.750000  1
  Ir  Ir30  1  0.500000  0.000000  0.000000  1
  Ir  Ir31  1  0.000000  0.500000  0.000000  1
  Ir  Ir32  1  0.500000  0.000000  0.500000  1
  Ir  Ir33  1  0.500000  0.500000  0.000000  1
  Ir  Ir34  1  0.000000  0.500000  0.500000  1
  Ir  Ir35  1  0.500000  0.500000  0.500000  1
  Ru  Ru36  1  0.000000  0.000000  0.000000  1
  Ru  Ru37  1  0.000000  0.000000  0.500000  1
