# generated using pymatgen
data_Al2V12SiPt
_symmetry_space_group_name_H-M   'P 1'
_cell_length_a   4.78262800
_cell_length_b   4.76769000
_cell_length_c   9.57031200
_cell_angle_alpha   90.00000000
_cell_angle_beta   90.00000000
_cell_angle_gamma   90.00000000
_symmetry_Int_Tables_number   1
_chemical_formula_structural   Al2V12SiPt
_chemical_formula_sum   'Al2 V12 Si1 Pt1'
_cell_volume   218.22309344
_cell_formula_units_Z   1
loop_
 _symmetry_equiv_pos_site_id
 _symmetry_equiv_pos_as_xyz
  1  'x, y, z'
loop_
 _atom_site_type_symbol
 _atom_site_label
 _atom_site_symmetry_multiplicity
 _atom_site_fract_x
 _atom_site_fract_y
 _atom_site_fract_z
 _atom_site_occupancy
  Al  Al0  1  0.000000  0.000000  0.748464  1
  Al  Al1  1  0.000000  0.000000  0.251536  1
  V  V2  1  0.000000  0.500000  0.120569  1
  V  V3  1  0.000000  0.500000  0.627587  1
  V  V4  1  0.500000  0.251706  0.745538  1
  V  V5  1  0.500000  0.251706  0.254462  1
  V  V6  1  0.750373  0.000000  0.000000  1
  V  V7  1  0.747134  0.000000  0.500000  1
  V  V8  1  0.000000  0.500000  0.879431  1
  V  V9  1  0.000000  0.500000  0.372413  1
  V  V10  1  0.500000  0.748294  0.745538  1
  V  V11  1  0.500000  0.748294  0.254462  1
  V  V12  1  0.249627  0.000000  0.000000  1
  V  V13  1  0.252866  0.000000  0.500000  1
  Si  Si14  1  0.500000  0.500000  0.500000  1
  Pt  Pt15  1  0.500000  0.500000  0.000000  1
