# generated using pymatgen
data_Sm3Dy(GaCo)4
_symmetry_space_group_name_H-M   'P 1'
_cell_length_a   4.48103300
_cell_length_b   6.85329359
_cell_length_c   7.16557086
_cell_angle_alpha   90.09114390
_cell_angle_beta   90.00000000
_cell_angle_gamma   90.00000000
_symmetry_Int_Tables_number   1
_chemical_formula_structural   Sm3Dy(GaCo)4
_chemical_formula_sum   'Sm3 Dy1 Ga4 Co4'
_cell_volume   220.05321863
_cell_formula_units_Z   1
loop_
 _symmetry_equiv_pos_site_id
 _symmetry_equiv_pos_as_xyz
  1  'x, y, z'
loop_
 _atom_site_type_symbol
 _atom_site_label
 _atom_site_symmetry_multiplicity
 _atom_site_fract_x
 _atom_site_fract_y
 _atom_site_fract_z
 _atom_site_occupancy
  Sm  Sm0  1  0.250000  0.190148  0.527741  1
  Sm  Sm1  1  0.250000  0.308555  0.028209  1
  Sm  Sm2  1  0.750000  0.692598  0.970031  1
  Dy  Dy3  1  0.750000  0.804217  0.469955  1
  Ga  Ga4  1  0.250000  0.889675  0.192810  1
  Ga  Ga5  1  0.750000  0.393078  0.309965  1
  Ga  Ga6  1  0.250000  0.611704  0.687616  1
  Ga  Ga7  1  0.750000  0.108034  0.809358  1
  Co  Co8  1  0.250000  0.934544  0.848988  1
  Co  Co9  1  0.250000  0.567362  0.350057  1
  Co  Co10  1  0.750000  0.064177  0.154898  1
  Co  Co11  1  0.750000  0.435908  0.650370  1
