# generated using pymatgen
data_Er7Lu9Cd4Ru3Pt
_symmetry_space_group_name_H-M   'P 1'
_cell_length_a   9.51365641
_cell_length_b   9.53982160
_cell_length_c   9.54328727
_cell_angle_alpha   59.45711229
_cell_angle_beta   59.34887242
_cell_angle_gamma   59.41061586
_symmetry_Int_Tables_number   1
_chemical_formula_structural   Er7Lu9Cd4Ru3Pt
_chemical_formula_sum   'Er7 Lu9 Cd4 Ru3 Pt1'
_cell_volume   604.16409297
_cell_formula_units_Z   1
loop_
 _symmetry_equiv_pos_site_id
 _symmetry_equiv_pos_as_xyz
  1  'x, y, z'
loop_
 _atom_site_type_symbol
 _atom_site_label
 _atom_site_symmetry_multiplicity
 _atom_site_fract_x
 _atom_site_fract_y
 _atom_site_fract_z
 _atom_site_occupancy
  Er  Er0  1  0.813966  0.805540  0.188787  1
  Er  Er1  1  0.939364  0.558643  0.560044  1
  Er  Er2  1  0.556068  0.938805  0.938198  1
  Er  Er3  1  0.555677  0.940467  0.564842  1
  Er  Er4  1  0.938659  0.559208  0.938718  1
  Er  Er5  1  0.556120  0.564082  0.940371  1
  Er  Er6  1  0.938321  0.939011  0.559892  1
  Lu  Lu7  1  0.346668  0.351178  0.351589  1
  Lu  Lu8  1  0.346431  0.350806  0.955397  1
  Lu  Lu9  1  0.345812  0.956551  0.350615  1
  Lu  Lu10  1  0.964064  0.344439  0.345518  1
  Lu  Lu11  1  0.815732  0.188638  0.188166  1
  Lu  Lu12  1  0.184614  0.812327  0.811558  1
  Lu  Lu13  1  0.187443  0.811431  0.187920  1
  Lu  Lu14  1  0.814095  0.189103  0.805273  1
  Lu  Lu15  1  0.186555  0.187745  0.811688  1
  Cd  Cd16  1  0.579824  0.579987  0.580286  1
  Cd  Cd17  1  0.580761  0.580195  0.258704  1
  Cd  Cd18  1  0.580688  0.258607  0.580478  1
  Cd  Cd19  1  0.256822  0.581151  0.581082  1
  Ru  Ru20  1  0.145215  0.138563  0.138711  1
  Ru  Ru21  1  0.145488  0.142427  0.576993  1
  Ru  Ru22  1  0.146774  0.576161  0.142391  1
  Pt  Pt23  1  0.574844  0.144935  0.142780  1
