# generated using pymatgen
data_Sc2Be2ZnPt5
_symmetry_space_group_name_H-M   'P 1'
_cell_length_a   9.62495900
_cell_length_b   9.62495900
_cell_length_c   3.25123700
_cell_angle_alpha   90.00000000
_cell_angle_beta   90.00000000
_cell_angle_gamma   90.00000000
_symmetry_Int_Tables_number   1
_chemical_formula_structural   Sc2Be2ZnPt5
_chemical_formula_sum   'Sc4 Be4 Zn2 Pt10'
_cell_volume   301.19406167
_cell_formula_units_Z   2
loop_
 _symmetry_equiv_pos_site_id
 _symmetry_equiv_pos_as_xyz
  1  'x, y, z'
loop_
 _atom_site_type_symbol
 _atom_site_label
 _atom_site_symmetry_multiplicity
 _atom_site_fract_x
 _atom_site_fract_y
 _atom_site_fract_z
 _atom_site_occupancy
  Sc  Sc0  1  0.824486  0.324486  0.000000  1
  Sc  Sc1  1  0.324486  0.175514  0.000000  1
  Sc  Sc2  1  0.675514  0.824486  0.000000  1
  Sc  Sc3  1  0.175514  0.675514  0.000000  1
  Be  Be4  1  0.624531  0.124531  0.000000  1
  Be  Be5  1  0.124531  0.375469  0.000000  1
  Be  Be6  1  0.875469  0.624531  0.000000  1
  Be  Be7  1  0.375469  0.875469  0.000000  1
  Zn  Zn8  1  0.000000  0.000000  0.000000  1
  Zn  Zn9  1  0.500000  0.500000  0.000000  1
  Pt  Pt10  1  0.070333  0.210726  0.500000  1
  Pt  Pt11  1  0.210726  0.929667  0.500000  1
  Pt  Pt12  1  0.789274  0.070333  0.500000  1
  Pt  Pt13  1  0.929667  0.789274  0.500000  1
  Pt  Pt14  1  0.429667  0.710726  0.500000  1
  Pt  Pt15  1  0.570333  0.289274  0.500000  1
  Pt  Pt16  1  0.710726  0.570333  0.500000  1
  Pt  Pt17  1  0.289274  0.429667  0.500000  1
  Pt  Pt18  1  0.500000  0.000000  0.500000  1
  Pt  Pt19  1  0.000000  0.500000  0.500000  1
