# generated using pymatgen
data_Dy5Hf3(Ni4As3)4
_symmetry_space_group_name_H-M   'P 1'
_cell_length_a   12.69924000
_cell_length_b   12.69923961
_cell_length_c   3.90824000
_cell_angle_alpha   90.00000000
_cell_angle_beta   90.00000000
_cell_angle_gamma   120.00000101
_symmetry_Int_Tables_number   1
_chemical_formula_structural   Dy5Hf3(Ni4As3)4
_chemical_formula_sum   'Dy5 Hf3 Ni16 As12'
_cell_volume   545.84244185
_cell_formula_units_Z   1
loop_
 _symmetry_equiv_pos_site_id
 _symmetry_equiv_pos_as_xyz
  1  'x, y, z'
loop_
 _atom_site_type_symbol
 _atom_site_label
 _atom_site_symmetry_multiplicity
 _atom_site_fract_x
 _atom_site_fract_y
 _atom_site_fract_z
 _atom_site_occupancy
  Dy  Dy0  1  0.184500  0.184500  0.500000  1
  Dy  Dy1  1  0.815500  0.000000  0.500000  1
  Dy  Dy2  1  0.000000  0.815500  0.500000  1
  Dy  Dy3  1  0.333333  0.666667  0.000000  1
  Dy  Dy4  1  0.666667  0.333333  0.000000  1
  Hf  Hf5  1  0.564370  0.564370  0.000000  1
  Hf  Hf6  1  0.435630  0.000000  0.000000  1
  Hf  Hf7  1  0.000000  0.435630  0.000000  1
  Ni  Ni8  1  0.722563  0.722563  0.500000  1
  Ni  Ni9  1  0.277437  0.000000  0.500000  1
  Ni  Ni10  1  0.000000  0.277437  0.500000  1
  Ni  Ni11  1  0.182751  0.376944  0.000000  1
  Ni  Ni12  1  0.623056  0.805807  0.000000  1
  Ni  Ni13  1  0.194193  0.817249  0.000000  1
  Ni  Ni14  1  0.805807  0.623056  0.000000  1
  Ni  Ni15  1  0.817249  0.194193  0.000000  1
  Ni  Ni16  1  0.376944  0.182751  0.000000  1
  Ni  Ni17  1  0.363502  0.483580  0.500000  1
  Ni  Ni18  1  0.516420  0.879924  0.500000  1
  Ni  Ni19  1  0.120076  0.636498  0.500000  1
  Ni  Ni20  1  0.879924  0.516420  0.500000  1
  Ni  Ni21  1  0.636498  0.120076  0.500000  1
  Ni  Ni22  1  0.483580  0.363502  0.500000  1
  Ni  Ni23  1  0.000000  0.000000  0.000000  1
  As  As24  1  0.822104  0.822104  0.000000  1
  As  As25  1  0.177896  0.000000  0.000000  1
  As  As26  1  0.000000  0.177896  0.000000  1
  As  As27  1  0.172518  0.479563  0.500000  1
  As  As28  1  0.520437  0.692956  0.500000  1
  As  As29  1  0.307044  0.827482  0.500000  1
  As  As30  1  0.692956  0.520437  0.500000  1
  As  As31  1  0.827482  0.307044  0.500000  1
  As  As32  1  0.479563  0.172518  0.500000  1
  As  As33  1  0.356446  0.356446  0.000000  1
  As  As34  1  0.643554  0.000000  0.000000  1
  As  As35  1  0.000000  0.643554  0.000000  1
