# generated using pymatgen
data_NaAl4Ag3I16
_symmetry_space_group_name_H-M   'P 1'
_cell_length_a   8.61475900
_cell_length_b   8.50042067
_cell_length_c   16.64957448
_cell_angle_alpha   92.02523780
_cell_angle_beta   90.00000000
_cell_angle_gamma   90.00000000
_symmetry_Int_Tables_number   1
_chemical_formula_structural   NaAl4Ag3I16
_chemical_formula_sum   'Na1 Al4 Ag3 I16'
_cell_volume   1218.47136126
_cell_formula_units_Z   1
loop_
 _symmetry_equiv_pos_site_id
 _symmetry_equiv_pos_as_xyz
  1  'x, y, z'
loop_
 _atom_site_type_symbol
 _atom_site_label
 _atom_site_symmetry_multiplicity
 _atom_site_fract_x
 _atom_site_fract_y
 _atom_site_fract_z
 _atom_site_occupancy
  Na  Na0  1  0.250000  0.018843  0.628236  1
  Al  Al1  1  0.250000  0.385073  0.893211  1
  Al  Al2  1  0.750000  0.869943  0.605486  1
  Al  Al3  1  0.750000  0.596990  0.091117  1
  Al  Al4  1  0.250000  0.130495  0.407217  1
  Ag  Ag5  1  0.250000  0.579417  0.087669  1
  Ag  Ag6  1  0.750000  0.068342  0.412009  1
  Ag  Ag7  1  0.750000  0.410662  0.895962  1
  I  I8  1  0.250000  0.250758  0.028588  1
  I  I9  1  0.750000  0.742680  0.463026  1
  I  I10  1  0.750000  0.736049  0.956209  1
  I  I11  1  0.250000  0.325942  0.528097  1
  I  I12  1  0.250000  0.849181  0.454441  1
  I  I13  1  0.750000  0.298715  0.060174  1
  I  I14  1  0.750000  0.169635  0.583964  1
  I  I15  1  0.250000  0.683592  0.921065  1
  I  I16  1  0.986816  0.679121  0.178404  1
  I  I17  1  0.007543  0.176036  0.319180  1
  I  I18  1  0.486552  0.297511  0.806454  1
  I  I19  1  0.512488  0.789173  0.687726  1
  I  I20  1  0.013448  0.297511  0.806454  1
  I  I21  1  0.987512  0.789173  0.687726  1
  I  I22  1  0.513184  0.679121  0.178404  1
  I  I23  1  0.492457  0.176036  0.319180  1
