# generated using pymatgen
data_Yb2CeP2Se
_symmetry_space_group_name_H-M   'P 1'
_cell_length_a   4.09909000
_cell_length_b   4.09908907
_cell_length_c   10.17195000
_cell_angle_alpha   90.00000000
_cell_angle_beta   90.00000000
_cell_angle_gamma   120.00000749
_symmetry_Int_Tables_number   1
_chemical_formula_structural   Yb2CeP2Se
_chemical_formula_sum   'Yb2 Ce1 P2 Se1'
_cell_volume   148.01632763
_cell_formula_units_Z   1
loop_
 _symmetry_equiv_pos_site_id
 _symmetry_equiv_pos_as_xyz
  1  'x, y, z'
loop_
 _atom_site_type_symbol
 _atom_site_label
 _atom_site_symmetry_multiplicity
 _atom_site_fract_x
 _atom_site_fract_y
 _atom_site_fract_z
 _atom_site_occupancy
  Yb  Yb0  1  0.333333  0.666667  0.170680  1
  Yb  Yb1  1  0.666667  0.333333  0.829320  1
  Ce  Ce2  1  0.000000  0.000000  0.500000  1
  P  P3  1  0.333333  0.666667  0.653574  1
  P  P4  1  0.666667  0.333333  0.346426  1
  Se  Se5  1  0.000000  0.000000  0.000000  1
