# generated using pymatgen
data_TbHo(Al5Os)4
_symmetry_space_group_name_H-M   'P 1'
_cell_length_a   6.86053913
_cell_length_b   6.86053934
_cell_length_c   9.16667400
_cell_angle_alpha   90.00000000
_cell_angle_beta   90.00000000
_cell_angle_gamma   96.52679421
_symmetry_Int_Tables_number   1
_chemical_formula_structural   TbHo(Al5Os)4
_chemical_formula_sum   'Tb1 Ho1 Al20 Os4'
_cell_volume   428.65153546
_cell_formula_units_Z   1
loop_
 _symmetry_equiv_pos_site_id
 _symmetry_equiv_pos_as_xyz
  1  'x, y, z'
loop_
 _atom_site_type_symbol
 _atom_site_label
 _atom_site_symmetry_multiplicity
 _atom_site_fract_x
 _atom_site_fract_y
 _atom_site_fract_z
 _atom_site_occupancy
  Tb  Tb0  1  0.370995  0.629005  0.250000  1
  Ho  Ho1  1  0.629600  0.370400  0.750000  1
  Al  Al2  1  0.281792  0.019357  0.750000  1
  Al  Al3  1  0.019280  0.281862  0.250000  1
  Al  Al4  1  0.718138  0.980720  0.250000  1
  Al  Al5  1  0.980643  0.718208  0.750000  1
  Al  Al6  1  0.876396  0.123604  0.951239  1
  Al  Al7  1  0.123281  0.876719  0.044431  1
  Al  Al8  1  0.876396  0.123604  0.548761  1
  Al  Al9  1  0.123281  0.876719  0.455569  1
  Al  Al10  1  0.645732  0.916305  0.750000  1
  Al  Al11  1  0.914267  0.646441  0.250000  1
  Al  Al12  1  0.353559  0.085733  0.250000  1
  Al  Al13  1  0.083695  0.354268  0.750000  1
  Al  Al14  1  0.344387  0.655613  0.898703  1
  Al  Al15  1  0.657245  0.342755  0.100731  1
  Al  Al16  1  0.344387  0.655613  0.601297  1
  Al  Al17  1  0.657245  0.342755  0.399269  1
  Al  Al18  1  0.723902  0.723848  0.999356  1
  Al  Al19  1  0.723902  0.723848  0.500644  1
  Al  Al20  1  0.276152  0.276098  0.999356  1
  Al  Al21  1  0.276152  0.276098  0.500644  1
  Os  Os22  1  0.499894  0.000109  0.999867  1
  Os  Os23  1  0.999891  0.500106  0.999867  1
  Os  Os24  1  0.499894  0.000109  0.500133  1
  Os  Os25  1  0.999891  0.500106  0.500133  1
