# generated using pymatgen
data_Dy5Ta3Co(Ni5P4)3
_symmetry_space_group_name_H-M   'P 1'
_cell_length_a   12.24225102
_cell_length_b   12.25713437
_cell_length_c   3.75103800
_cell_angle_alpha   90.00000000
_cell_angle_beta   90.00000000
_cell_angle_gamma   120.04020957
_symmetry_Int_Tables_number   1
_chemical_formula_structural   Dy5Ta3Co(Ni5P4)3
_chemical_formula_sum   'Dy5 Ta3 Co1 Ni15 P12'
_cell_volume   487.25489778
_cell_formula_units_Z   1
loop_
 _symmetry_equiv_pos_site_id
 _symmetry_equiv_pos_as_xyz
  1  'x, y, z'
loop_
 _atom_site_type_symbol
 _atom_site_label
 _atom_site_symmetry_multiplicity
 _atom_site_fract_x
 _atom_site_fract_y
 _atom_site_fract_z
 _atom_site_occupancy
  Dy  Dy0  1  0.667054  0.333961  0.000000  1
  Dy  Dy1  1  0.332946  0.666908  0.000000  1
  Dy  Dy2  1  0.184663  0.184782  0.500000  1
  Dy  Dy3  1  0.815337  0.000119  0.500000  1
  Dy  Dy4  1  0.000000  0.815196  0.500000  1
  Ta  Ta5  1  0.559035  0.559112  0.000000  1
  Ta  Ta6  1  0.440965  0.000076  0.000000  1
  Ta  Ta7  1  0.000000  0.440808  0.000000  1
  Co  Co8  1  0.000000  0.278313  0.500000  1
  Ni  Ni9  1  0.819673  0.193194  0.000000  1
  Ni  Ni10  1  0.806900  0.624222  0.000000  1
  Ni  Ni11  1  0.375780  0.181866  0.000000  1
  Ni  Ni12  1  0.193100  0.817323  0.000000  1
  Ni  Ni13  1  0.624220  0.806087  0.000000  1
  Ni  Ni14  1  0.180327  0.373522  0.000000  1
  Ni  Ni15  1  0.642662  0.126503  0.500000  1
  Ni  Ni16  1  0.875200  0.516261  0.500000  1
  Ni  Ni17  1  0.483386  0.359008  0.500000  1
  Ni  Ni18  1  0.124800  0.641061  0.500000  1
  Ni  Ni19  1  0.516614  0.875624  0.500000  1
  Ni  Ni20  1  0.357338  0.483842  0.500000  1
  Ni  Ni21  1  0.722330  0.722305  0.500000  1
  Ni  Ni22  1  0.277670  0.999974  0.500000  1
  Ni  Ni23  1  0.000000  0.000496  0.000000  1
  P  P24  1  0.360572  0.359930  0.000000  1
  P  P25  1  0.639428  0.999358  0.000000  1
  P  P26  1  0.000000  0.639827  0.000000  1
  P  P27  1  0.834313  0.312138  0.500000  1
  P  P28  1  0.688118  0.521471  0.500000  1
  P  P29  1  0.478731  0.167027  0.500000  1
  P  P30  1  0.311882  0.833353  0.500000  1
  P  P31  1  0.521269  0.688296  0.500000  1
  P  P32  1  0.165687  0.477825  0.500000  1
  P  P33  1  0.822256  0.821938  0.000000  1
  P  P34  1  0.177744  0.999682  0.000000  1
  P  P35  1  0.000000  0.178592  0.000000  1
