# generated using pymatgen
data_ZrZn3(InRh2)4
_symmetry_space_group_name_H-M   'P 1'
_cell_length_a   6.33482205
_cell_length_b   6.33353603
_cell_length_c   6.37690900
_cell_angle_alpha   89.99883691
_cell_angle_beta   89.99914350
_cell_angle_gamma   89.98709224
_symmetry_Int_Tables_number   1
_chemical_formula_structural   ZrZn3(InRh2)4
_chemical_formula_sum   'Zr1 Zn3 In4 Rh8'
_cell_volume   255.85321217
_cell_formula_units_Z   1
loop_
 _symmetry_equiv_pos_site_id
 _symmetry_equiv_pos_as_xyz
  1  'x, y, z'
loop_
 _atom_site_type_symbol
 _atom_site_label
 _atom_site_symmetry_multiplicity
 _atom_site_fract_x
 _atom_site_fract_y
 _atom_site_fract_z
 _atom_site_occupancy
  Zr  Zr0  1  0.750008  0.250023  0.000020  1
  Zn  Zn1  1  0.250047  0.750004  0.499965  1
  Zn  Zn2  1  0.749957  0.249990  0.500036  1
  Zn  Zn3  1  0.249939  0.750004  0.999964  1
  In  In4  1  0.249977  0.249994  0.999981  1
  In  In5  1  0.750055  0.750014  0.000011  1
  In  In6  1  0.749981  0.750025  0.499997  1
  In  In7  1  0.250019  0.249990  0.500014  1
  Rh  Rh8  1  0.496524  0.503467  0.253002  1
  Rh  Rh9  1  0.496506  0.996517  0.253016  1
  Rh  Rh10  1  0.003461  0.503449  0.253078  1
  Rh  Rh11  1  0.003460  0.996550  0.253068  1
  Rh  Rh12  1  0.003483  0.503479  0.746918  1
  Rh  Rh13  1  0.003493  0.996513  0.746945  1
  Rh  Rh14  1  0.496549  0.503458  0.746980  1
  Rh  Rh15  1  0.496550  0.996524  0.747007  1
