# generated using pymatgen
data_CePa3BeRh12
_symmetry_space_group_name_H-M   'P 1'
_cell_length_a   7.09497961
_cell_length_b   7.12925988
_cell_length_c   7.12926030
_cell_angle_alpha   109.56841708
_cell_angle_beta   109.37384609
_cell_angle_gamma   109.37384232
_symmetry_Int_Tables_number   1
_chemical_formula_structural   CePa3BeRh12
_chemical_formula_sum   'Ce1 Pa3 Be1 Rh12'
_cell_volume   277.93209855
_cell_formula_units_Z   1
loop_
 _symmetry_equiv_pos_site_id
 _symmetry_equiv_pos_as_xyz
  1  'x, y, z'
loop_
 _atom_site_type_symbol
 _atom_site_label
 _atom_site_symmetry_multiplicity
 _atom_site_fract_x
 _atom_site_fract_y
 _atom_site_fract_z
 _atom_site_occupancy
  Ce  Ce0  1  0.500000  0.000000  0.000000  1
  Pa  Pa1  1  0.000000  0.000000  0.500000  1
  Pa  Pa2  1  0.000000  0.500000  0.000000  1
  Pa  Pa3  1  0.500000  0.500000  0.500000  1
  Be  Be4  1  0.000000  0.000000  0.000000  1
  Rh  Rh5  1  0.752138  0.252138  0.504276  1
  Rh  Rh6  1  0.752138  0.504276  0.252138  1
  Rh  Rh7  1  0.500000  0.252138  0.747862  1
  Rh  Rh8  1  0.247862  0.495724  0.747862  1
  Rh  Rh9  1  0.247862  0.747862  0.495724  1
  Rh  Rh10  1  0.500000  0.747862  0.252138  1
  Rh  Rh11  1  0.737156  0.733007  0.000000  1
  Rh  Rh12  1  0.262844  0.000000  0.266993  1
  Rh  Rh13  1  0.004149  0.266993  0.266993  1
  Rh  Rh14  1  0.262844  0.266993  0.000000  1
  Rh  Rh15  1  0.737156  0.000000  0.733007  1
  Rh  Rh16  1  0.995851  0.733007  0.733007  1
