# generated using pymatgen
data_Li2Pr8Ho10Si15As
_symmetry_space_group_name_H-M   'P 1'
_cell_length_a   7.43008700
_cell_length_b   7.80380308
_cell_length_c   14.90457000
_cell_angle_alpha   90.00000000
_cell_angle_beta   90.00000000
_cell_angle_gamma   90.19474780
_symmetry_Int_Tables_number   1
_chemical_formula_structural   Li2Pr8Ho10Si15As
_chemical_formula_sum   'Li2 Pr8 Ho10 Si15 As1'
_cell_volume   864.20573340
_cell_formula_units_Z   1
loop_
 _symmetry_equiv_pos_site_id
 _symmetry_equiv_pos_as_xyz
  1  'x, y, z'
loop_
 _atom_site_type_symbol
 _atom_site_label
 _atom_site_symmetry_multiplicity
 _atom_site_fract_x
 _atom_site_fract_y
 _atom_site_fract_z
 _atom_site_occupancy
  Li  Li0  1  0.660593  0.988089  0.750000  1
  Li  Li1  1  0.844670  0.489581  0.250000  1
  Pr  Pr2  1  0.016657  0.188594  0.398857  1
  Pr  Pr3  1  0.526587  0.324553  0.398257  1
  Pr  Pr4  1  0.486899  0.684331  0.900464  1
  Pr  Pr5  1  0.486899  0.684331  0.599536  1
  Pr  Pr6  1  0.972360  0.825786  0.602323  1
  Pr  Pr7  1  0.972360  0.825786  0.897677  1
  Pr  Pr8  1  0.526587  0.324553  0.101743  1
  Pr  Pr9  1  0.016657  0.188594  0.101143  1
  Ho  Ho10  1  0.331811  0.173927  0.624728  1
  Ho  Ho11  1  0.679922  0.811429  0.374466  1
  Ho  Ho12  1  0.167229  0.674242  0.375485  1
  Ho  Ho13  1  0.818433  0.311902  0.874962  1
  Ho  Ho14  1  0.818433  0.311902  0.625038  1
  Ho  Ho15  1  0.345737  0.008059  0.250000  1
  Ho  Ho16  1  0.331811  0.173927  0.875272  1
  Ho  Ho17  1  0.167229  0.674242  0.124515  1
  Ho  Ho18  1  0.679922  0.811429  0.125534  1
  Ho  Ho19  1  0.152305  0.503029  0.750000  1
  Si  Si20  1  0.464497  0.609157  0.250000  1
  Si  Si21  1  0.029094  0.120712  0.750000  1
  Si  Si22  1  0.526015  0.397405  0.750000  1
  Si  Si23  1  0.147854  0.470478  0.542000  1
  Si  Si24  1  0.972752  0.898713  0.250000  1
  Si  Si25  1  0.725006  0.110954  0.250000  1
  Si  Si26  1  0.850210  0.536465  0.029360  1
  Si  Si27  1  0.351503  0.969259  0.041019  1
  Si  Si28  1  0.147854  0.470478  0.958000  1
  Si  Si29  1  0.648303  0.033510  0.530539  1
  Si  Si30  1  0.351503  0.969259  0.458981  1
  Si  Si31  1  0.850210  0.536465  0.470640  1
  Si  Si32  1  0.775755  0.611380  0.750000  1
  Si  Si33  1  0.229853  0.380914  0.250000  1
  Si  Si34  1  0.648303  0.033510  0.969461  1
  As  As35  1  0.278191  0.873054  0.750000  1
