# generated using pymatgen
data_Lu3CoSi3
_symmetry_space_group_name_H-M   'P 1'
_cell_length_a   4.10018268
_cell_length_b   5.51563823
_cell_length_c   12.50668619
_cell_angle_alpha   95.18507409
_cell_angle_beta   99.43448180
_cell_angle_gamma   68.18028762
_symmetry_Int_Tables_number   1
_chemical_formula_structural   Lu3CoSi3
_chemical_formula_sum   'Lu6 Co2 Si6'
_cell_volume   258.89139235
_cell_formula_units_Z   2
loop_
 _symmetry_equiv_pos_site_id
 _symmetry_equiv_pos_as_xyz
  1  'x, y, z'
loop_
 _atom_site_type_symbol
 _atom_site_label
 _atom_site_symmetry_multiplicity
 _atom_site_fract_x
 _atom_site_fract_y
 _atom_site_fract_z
 _atom_site_occupancy
  Lu  Lu0  1  0.398836  0.282893  0.080564  1
  Lu  Lu1  1  0.747139  0.734006  0.228283  1
  Lu  Lu2  1  0.524291  0.330352  0.378932  1
  Lu  Lu3  1  0.475711  0.669648  0.621068  1
  Lu  Lu4  1  0.252862  0.265994  0.771716  1
  Lu  Lu5  1  0.601165  0.717107  0.919436  1
  Co  Co6  1  0.247378  0.921469  0.416223  1
  Co  Co7  1  0.752624  0.078531  0.583777  1
  Si  Si8  1  0.116381  0.843132  0.075892  1
  Si  Si9  1  0.050559  0.139779  0.240898  1
  Si  Si10  1  0.862969  0.730011  0.455946  1
  Si  Si11  1  0.137032  0.269991  0.544054  1
  Si  Si12  1  0.949442  0.860221  0.759102  1
  Si  Si13  1  0.883620  0.156868  0.924108  1
