# generated using pymatgen
data_Nd2AlRe16C3
_symmetry_space_group_name_H-M   'P 1'
_cell_length_a   7.07955992
_cell_length_b   7.02129928
_cell_length_c   7.02129905
_cell_angle_alpha   82.85622105
_cell_angle_beta   82.62113494
_cell_angle_gamma   82.62111918
_symmetry_Int_Tables_number   1
_chemical_formula_structural   Nd2AlRe16C3
_chemical_formula_sum   'Nd2 Al1 Re16 C3'
_cell_volume   341.18531969
_cell_formula_units_Z   1
loop_
 _symmetry_equiv_pos_site_id
 _symmetry_equiv_pos_as_xyz
  1  'x, y, z'
loop_
 _atom_site_type_symbol
 _atom_site_label
 _atom_site_symmetry_multiplicity
 _atom_site_fract_x
 _atom_site_fract_y
 _atom_site_fract_z
 _atom_site_occupancy
  Nd  Nd0  1  0.652427  0.651839  0.651839  1
  Nd  Nd1  1  0.347573  0.348161  0.348161  1
  Al  Al2  1  0.500000  0.000000  0.000000  1
  Re  Re3  1  0.000000  0.000000  0.500000  1
  Re  Re4  1  0.000000  0.500000  0.000000  1
  Re  Re5  1  0.720233  0.276376  0.002208  1
  Re  Re6  1  0.000000  0.722152  0.277848  1
  Re  Re7  1  0.279767  0.997792  0.723624  1
  Re  Re8  1  0.000000  0.277848  0.722152  1
  Re  Re9  1  0.720233  0.002208  0.276376  1
  Re  Re10  1  0.279767  0.723624  0.997792  1
  Re  Re11  1  0.349295  0.856351  0.348225  1
  Re  Re12  1  0.349295  0.348225  0.856351  1
  Re  Re13  1  0.856343  0.352853  0.352853  1
  Re  Re14  1  0.650705  0.143649  0.651775  1
  Re  Re15  1  0.650705  0.651775  0.143649  1
  Re  Re16  1  0.143657  0.647147  0.647147  1
  Re  Re17  1  0.907285  0.900370  0.900370  1
  Re  Re18  1  0.092715  0.099630  0.099630  1
  C  C19  1  0.500000  0.500000  0.000000  1
  C  C20  1  0.000000  0.500000  0.500000  1
  C  C21  1  0.500000  0.000000  0.500000  1
