# generated using pymatgen
data_InB(Rh2Pb)3
_symmetry_space_group_name_H-M   'P 1'
_cell_length_a   5.77132400
_cell_length_b   5.77132383
_cell_length_c   14.13189500
_cell_angle_alpha   90.00000000
_cell_angle_beta   90.00000000
_cell_angle_gamma   120.00000098
_symmetry_Int_Tables_number   1
_chemical_formula_structural   InB(Rh2Pb)3
_chemical_formula_sum   'In2 B2 Rh12 Pb6'
_cell_volume   407.64482066
_cell_formula_units_Z   2
loop_
 _symmetry_equiv_pos_site_id
 _symmetry_equiv_pos_as_xyz
  1  'x, y, z'
loop_
 _atom_site_type_symbol
 _atom_site_label
 _atom_site_symmetry_multiplicity
 _atom_site_fract_x
 _atom_site_fract_y
 _atom_site_fract_z
 _atom_site_occupancy
  In  In0  1  0.333333  0.666667  0.421081  1
  In  In1  1  0.666667  0.333333  0.921081  1
  B  B2  1  0.000000  0.000000  0.499336  1
  B  B3  1  0.000000  0.000000  0.999336  1
  Rh  Rh4  1  0.335771  0.167886  0.410346  1
  Rh  Rh5  1  0.832114  0.167886  0.410346  1
  Rh  Rh6  1  0.832114  0.664229  0.410346  1
  Rh  Rh7  1  0.167886  0.335771  0.910346  1
  Rh  Rh8  1  0.663146  0.831573  0.589223  1
  Rh  Rh9  1  0.664229  0.832114  0.910346  1
  Rh  Rh10  1  0.336854  0.168427  0.089223  1
  Rh  Rh11  1  0.168427  0.336854  0.589223  1
  Rh  Rh12  1  0.168427  0.831573  0.589223  1
  Rh  Rh13  1  0.831573  0.168427  0.089223  1
  Rh  Rh14  1  0.831573  0.663146  0.089223  1
  Rh  Rh15  1  0.167886  0.832114  0.910346  1
  Pb  Pb16  1  0.000000  0.000000  0.750967  1
  Pb  Pb17  1  0.000000  0.000000  0.250967  1
  Pb  Pb18  1  0.333333  0.666667  0.751511  1
  Pb  Pb19  1  0.666667  0.333333  0.251511  1
  Pb  Pb20  1  0.666667  0.333333  0.578397  1
  Pb  Pb21  1  0.333333  0.666667  0.078397  1
