# generated using pymatgen
data_Y5Tm3Tc3B24Os
_symmetry_space_group_name_H-M   'P 1'
_cell_length_a   3.66236600
_cell_length_b   9.13665819
_cell_length_c   11.53056504
_cell_angle_alpha   89.95667059
_cell_angle_beta   90.00000000
_cell_angle_gamma   90.00000000
_symmetry_Int_Tables_number   1
_chemical_formula_structural   Y5Tm3Tc3B24Os
_chemical_formula_sum   'Y5 Tm3 Tc3 B24 Os1'
_cell_volume   385.83319271
_cell_formula_units_Z   1
loop_
 _symmetry_equiv_pos_site_id
 _symmetry_equiv_pos_as_xyz
  1  'x, y, z'
loop_
 _atom_site_type_symbol
 _atom_site_label
 _atom_site_symmetry_multiplicity
 _atom_site_fract_x
 _atom_site_fract_y
 _atom_site_fract_z
 _atom_site_occupancy
  Y  Y0  1  0.000000  0.323351  0.413997  1
  Y  Y1  1  0.000000  0.675733  0.584797  1
  Y  Y2  1  0.000000  0.822344  0.086742  1
  Y  Y3  1  0.000000  0.178828  0.914397  1
  Y  Y4  1  0.000000  0.942896  0.370687  1
  Tm  Tm5  1  0.000000  0.058389  0.630782  1
  Tm  Tm6  1  0.000000  0.442941  0.129804  1
  Tm  Tm7  1  0.000000  0.556879  0.869481  1
  Tc  Tc8  1  0.000000  0.637600  0.319523  1
  Tc  Tc9  1  0.000000  0.361317  0.681122  1
  Tc  Tc10  1  0.000000  0.139142  0.178079  1
  B  B11  1  0.500000  0.552671  0.432630  1
  B  B12  1  0.500000  0.446371  0.567433  1
  B  B13  1  0.500000  0.053529  0.066804  1
  B  B14  1  0.500000  0.946000  0.932426  1
  B  B15  1  0.500000  0.747962  0.418450  1
  B  B16  1  0.500000  0.250341  0.582013  1
  B  B17  1  0.500000  0.250488  0.081469  1
  B  B18  1  0.500000  0.750274  0.917956  1
  B  B19  1  0.500000  0.791051  0.265150  1
  B  B20  1  0.500000  0.208209  0.734987  1
  B  B21  1  0.500000  0.292629  0.234354  1
  B  B22  1  0.500000  0.708583  0.765430  1
  B  B23  1  0.500000  0.629712  0.184939  1
  B  B24  1  0.500000  0.369837  0.815288  1
  B  B25  1  0.500000  0.131008  0.313795  1
  B  B26  1  0.500000  0.869668  0.685683  1
  B  B27  1  0.500000  0.982218  0.211498  1
  B  B28  1  0.500000  0.017080  0.787750  1
  B  B29  1  0.500000  0.481486  0.287275  1
  B  B30  1  0.500000  0.517914  0.712404  1
  B  B31  1  0.500000  0.599803  0.027328  1
  B  B32  1  0.500000  0.401327  0.972179  1
  B  B33  1  0.500000  0.101616  0.473260  1
  B  B34  1  0.500000  0.899603  0.529531  1
  Os  Os35  1  0.000000  0.861198  0.820559  1
