# generated using pymatgen
data_CaPuO5
_symmetry_space_group_name_H-M   'P 1'
_cell_length_a   5.69968063
_cell_length_b   5.69968114
_cell_length_c   8.22714904
_cell_angle_alpha   69.29395361
_cell_angle_beta   69.29395468
_cell_angle_gamma   69.69061831
_symmetry_Int_Tables_number   1
_chemical_formula_structural   CaPuO5
_chemical_formula_sum   'Ca2 Pu2 O10'
_cell_volume   226.20005046
_cell_formula_units_Z   2
loop_
 _symmetry_equiv_pos_site_id
 _symmetry_equiv_pos_as_xyz
  1  'x, y, z'
loop_
 _atom_site_type_symbol
 _atom_site_label
 _atom_site_symmetry_multiplicity
 _atom_site_fract_x
 _atom_site_fract_y
 _atom_site_fract_z
 _atom_site_occupancy
  Ca  Ca0  1  0.546306  0.453694  0.250000  1
  Ca  Ca1  1  0.453694  0.546306  0.750000  1
  Pu  Pu2  1  0.000000  0.000000  0.500000  1
  Pu  Pu3  1  0.000000  0.000000  0.000000  1
  O  O4  1  0.095025  0.904975  0.750000  1
  O  O5  1  0.904975  0.095025  0.250000  1
  O  O6  1  0.208268  0.232651  0.889331  1
  O  O7  1  0.767349  0.791732  0.610669  1
  O  O8  1  0.717353  0.298605  0.532820  1
  O  O9  1  0.701395  0.282647  0.967180  1
  O  O10  1  0.282647  0.701395  0.467180  1
  O  O11  1  0.298605  0.717353  0.032820  1
  O  O12  1  0.232651  0.208268  0.389331  1
  O  O13  1  0.791732  0.767349  0.110669  1
