# generated using pymatgen
data_SrLiMgCoH8
_symmetry_space_group_name_H-M   'P 1'
_cell_length_a   4.44792400
_cell_length_b   4.44792521
_cell_length_c   6.59011700
_cell_angle_alpha   90.00000000
_cell_angle_beta   90.00000000
_cell_angle_gamma   120.00000586
_symmetry_Int_Tables_number   1
_chemical_formula_structural   SrLiMgCoH8
_chemical_formula_sum   'Sr1 Li1 Mg1 Co1 H8'
_cell_volume   112.91160101
_cell_formula_units_Z   1
loop_
 _symmetry_equiv_pos_site_id
 _symmetry_equiv_pos_as_xyz
  1  'x, y, z'
loop_
 _atom_site_type_symbol
 _atom_site_label
 _atom_site_symmetry_multiplicity
 _atom_site_fract_x
 _atom_site_fract_y
 _atom_site_fract_z
 _atom_site_occupancy
  Sr  Sr0  1  0.000000  0.000000  0.492883  1
  Li  Li1  1  0.333334  0.666667  0.131760  1
  Mg  Mg2  1  0.666666  0.333334  0.883485  1
  Co  Co3  1  0.000000  0.000000  0.994270  1
  H  H4  1  0.313947  0.156973  0.135178  1
  H  H5  1  0.843027  0.156973  0.135178  1
  H  H6  1  0.843026  0.686053  0.135178  1
  H  H7  1  0.333334  0.666667  0.416516  1
  H  H8  1  0.666666  0.333334  0.595479  1
  H  H9  1  0.161815  0.323632  0.860025  1
  H  H10  1  0.161816  0.838185  0.860025  1
  H  H11  1  0.676368  0.838185  0.860025  1
