# generated using pymatgen
data_Sr6TmSc(BO3)6
_symmetry_space_group_name_H-M   'P 1'
_cell_length_a   7.79050241
_cell_length_b   7.79050217
_cell_length_c   7.79050291
_cell_angle_alpha   105.14656552
_cell_angle_beta   105.14657500
_cell_angle_gamma   105.14656227
_symmetry_Int_Tables_number   1
_chemical_formula_structural   Sr6TmSc(BO3)6
_chemical_formula_sum   'Sr6 Tm1 Sc1 B6 O18'
_cell_volume   412.06162281
_cell_formula_units_Z   1
loop_
 _symmetry_equiv_pos_site_id
 _symmetry_equiv_pos_as_xyz
  1  'x, y, z'
loop_
 _atom_site_type_symbol
 _atom_site_label
 _atom_site_symmetry_multiplicity
 _atom_site_fract_x
 _atom_site_fract_y
 _atom_site_fract_z
 _atom_site_occupancy
  Sr  Sr0  1  0.648940  0.263815  0.159407  1
  Sr  Sr1  1  0.159407  0.648940  0.263815  1
  Sr  Sr2  1  0.736184  0.840594  0.351060  1
  Sr  Sr3  1  0.263816  0.159406  0.648940  1
  Sr  Sr4  1  0.840594  0.351060  0.736185  1
  Sr  Sr5  1  0.351060  0.736185  0.840593  1
  Tm  Tm6  1  0.000000  0.000000  0.000000  1
  Sc  Sc7  1  0.500000  0.500000  0.500000  1
  B  B8  1  0.293312  0.376682  0.042113  1
  B  B9  1  0.376681  0.042113  0.293312  1
  B  B10  1  0.042113  0.293312  0.376681  1
  B  B11  1  0.957887  0.706689  0.623319  1
  B  B12  1  0.623319  0.957888  0.706688  1
  B  B13  1  0.706689  0.623319  0.957888  1
  O  O14  1  0.733075  0.816854  0.017546  1
  O  O15  1  0.807496  0.548969  0.072245  1
  O  O16  1  0.982454  0.266925  0.183144  1
  O  O17  1  0.451030  0.927755  0.192503  1
  O  O18  1  0.432391  0.495607  0.218585  1
  O  O19  1  0.183145  0.982454  0.266924  1
  O  O20  1  0.495606  0.218585  0.432391  1
  O  O21  1  0.927755  0.192503  0.451031  1
  O  O22  1  0.218585  0.432391  0.495607  1
  O  O23  1  0.781415  0.567609  0.504394  1
  O  O24  1  0.072245  0.807496  0.548969  1
  O  O25  1  0.504394  0.781415  0.567609  1
  O  O26  1  0.816854  0.017545  0.733075  1
  O  O27  1  0.567609  0.504394  0.781416  1
  O  O28  1  0.548969  0.072245  0.807497  1
  O  O29  1  0.017545  0.733074  0.816855  1
  O  O30  1  0.192503  0.451030  0.927755  1
  O  O31  1  0.266925  0.183145  0.982454  1
