# generated using pymatgen
data_Pr13Th3MgCd3Ir4
_symmetry_space_group_name_H-M   'P 1'
_cell_length_a   10.03009241
_cell_length_b   10.06011876
_cell_length_c   10.06012116
_cell_angle_alpha   60.18363404
_cell_angle_beta   60.08258208
_cell_angle_gamma   60.08257777
_symmetry_Int_Tables_number   1
_chemical_formula_structural   Pr13Th3MgCd3Ir4
_chemical_formula_sum   'Pr13 Th3 Mg1 Cd3 Ir4'
_cell_volume   719.67731894
_cell_formula_units_Z   1
loop_
 _symmetry_equiv_pos_site_id
 _symmetry_equiv_pos_as_xyz
  1  'x, y, z'
loop_
 _atom_site_type_symbol
 _atom_site_label
 _atom_site_symmetry_multiplicity
 _atom_site_fract_x
 _atom_site_fract_y
 _atom_site_fract_z
 _atom_site_occupancy
  Pr  Pr0  1  0.952962  0.348872  0.348872  1
  Pr  Pr1  1  0.809382  0.191228  0.191228  1
  Pr  Pr2  1  0.190409  0.809786  0.809786  1
  Pr  Pr3  1  0.191511  0.808683  0.191434  1
  Pr  Pr4  1  0.809921  0.189456  0.809532  1
  Pr  Pr5  1  0.191511  0.191434  0.808683  1
  Pr  Pr6  1  0.809921  0.809532  0.189456  1
  Pr  Pr7  1  0.942343  0.562507  0.562507  1
  Pr  Pr8  1  0.559673  0.939082  0.939082  1
  Pr  Pr9  1  0.561162  0.941024  0.562292  1
  Pr  Pr10  1  0.939966  0.560740  0.936700  1
  Pr  Pr11  1  0.561162  0.562292  0.941024  1
  Pr  Pr12  1  0.939966  0.936700  0.560740  1
  Th  Th13  1  0.344449  0.345674  0.345674  1
  Th  Th14  1  0.344306  0.346337  0.962927  1
  Th  Th15  1  0.344306  0.962927  0.346337  1
  Mg  Mg16  1  0.574026  0.577142  0.577142  1
  Cd  Cd17  1  0.578463  0.581240  0.259984  1
  Cd  Cd18  1  0.578463  0.259984  0.581240  1
  Cd  Cd19  1  0.258399  0.580783  0.580783  1
  Ir  Ir20  1  0.152182  0.141290  0.141290  1
  Ir  Ir21  1  0.151805  0.141489  0.565625  1
  Ir  Ir22  1  0.151805  0.565625  0.141489  1
  Ir  Ir23  1  0.561902  0.146171  0.146171  1
