# generated using pymatgen
data_Ag2Sn3RuS8
_symmetry_space_group_name_H-M   'P 1'
_cell_length_a   7.57083233
_cell_length_b   7.57083277
_cell_length_c   7.57083174
_cell_angle_alpha   60.37754261
_cell_angle_beta   60.37753927
_cell_angle_gamma   60.37753501
_symmetry_Int_Tables_number   1
_chemical_formula_structural   Ag2Sn3RuS8
_chemical_formula_sum   'Ag2 Sn3 Ru1 S8'
_cell_volume   309.46293034
_cell_formula_units_Z   1
loop_
 _symmetry_equiv_pos_site_id
 _symmetry_equiv_pos_as_xyz
  1  'x, y, z'
loop_
 _atom_site_type_symbol
 _atom_site_label
 _atom_site_symmetry_multiplicity
 _atom_site_fract_x
 _atom_site_fract_y
 _atom_site_fract_z
 _atom_site_occupancy
  Ag  Ag0  1  0.383756  0.383756  0.383756  1
  Ag  Ag1  1  0.616244  0.616244  0.616244  1
  Sn  Sn2  1  0.000000  0.500000  0.000000  1
  Sn  Sn3  1  0.000000  0.000000  0.500000  1
  Sn  Sn4  1  0.500000  0.000000  0.000000  1
  Ru  Ru5  1  0.000000  0.000000  0.000000  1
  S  S6  1  0.775843  0.209045  0.775843  1
  S  S7  1  0.754039  0.754039  0.754039  1
  S  S8  1  0.790955  0.224157  0.224157  1
  S  S9  1  0.224157  0.224157  0.790955  1
  S  S10  1  0.224157  0.790955  0.224157  1
  S  S11  1  0.245961  0.245961  0.245961  1
  S  S12  1  0.209045  0.775843  0.775843  1
  S  S13  1  0.775843  0.775843  0.209045  1
