# generated using pymatgen
data_Ca3Si2IrPd
_symmetry_space_group_name_H-M   'P 1'
_cell_length_a   5.77190600
_cell_length_b   7.79126100
_cell_length_c   13.40700400
_cell_angle_alpha   90.00000000
_cell_angle_beta   90.00000000
_cell_angle_gamma   90.00000000
_symmetry_Int_Tables_number   1
_chemical_formula_structural   Ca3Si2IrPd
_chemical_formula_sum   'Ca12 Si8 Ir4 Pd4'
_cell_volume   602.91868278
_cell_formula_units_Z   4
loop_
 _symmetry_equiv_pos_site_id
 _symmetry_equiv_pos_as_xyz
  1  'x, y, z'
loop_
 _atom_site_type_symbol
 _atom_site_label
 _atom_site_symmetry_multiplicity
 _atom_site_fract_x
 _atom_site_fract_y
 _atom_site_fract_z
 _atom_site_occupancy
  Ca  Ca0  1  0.135412  0.607658  0.104720  1
  Ca  Ca1  1  0.135412  0.892342  0.895280  1
  Ca  Ca2  1  0.864588  0.107658  0.395280  1
  Ca  Ca3  1  0.864588  0.392342  0.604720  1
  Ca  Ca4  1  0.869802  0.387102  0.899157  1
  Ca  Ca5  1  0.869802  0.112898  0.100843  1
  Ca  Ca6  1  0.130198  0.887102  0.600843  1
  Ca  Ca7  1  0.130198  0.612898  0.399157  1
  Ca  Ca8  1  0.356045  0.261508  0.249617  1
  Ca  Ca9  1  0.356045  0.238492  0.750383  1
  Ca  Ca10  1  0.643955  0.761508  0.250383  1
  Ca  Ca11  1  0.643955  0.738492  0.749617  1
  Si  Si12  1  0.408207  0.250000  0.000000  1
  Si  Si13  1  0.591793  0.750000  0.500000  1
  Si  Si14  1  0.623894  0.750000  0.000000  1
  Si  Si15  1  0.376106  0.250000  0.500000  1
  Si  Si16  1  0.837343  0.409075  0.245696  1
  Si  Si17  1  0.837343  0.090925  0.754304  1
  Si  Si18  1  0.162657  0.909075  0.254304  1
  Si  Si19  1  0.162657  0.590925  0.745696  1
  Ir  Ir20  1  0.627267  0.474543  0.087995  1
  Ir  Ir21  1  0.627267  0.025457  0.912005  1
  Ir  Ir22  1  0.372733  0.974543  0.412005  1
  Ir  Ir23  1  0.372733  0.525457  0.587995  1
  Pd  Pd24  1  0.369630  0.533192  0.907763  1
  Pd  Pd25  1  0.369630  0.966808  0.092237  1
  Pd  Pd26  1  0.630370  0.033192  0.592237  1
  Pd  Pd27  1  0.630370  0.466808  0.407763  1
