# generated using pymatgen
data_Tb7Sn22Ru6Pb
_symmetry_space_group_name_H-M   'P 1'
_cell_length_a   9.88102700
_cell_length_b   9.88102517
_cell_length_c   10.12038800
_cell_angle_alpha   90.00000000
_cell_angle_beta   90.00000000
_cell_angle_gamma   120.00000946
_symmetry_Int_Tables_number   1
_chemical_formula_structural   Tb7Sn22Ru6Pb
_chemical_formula_sum   'Tb7 Sn22 Ru6 Pb1'
_cell_volume   855.72032027
_cell_formula_units_Z   1
loop_
 _symmetry_equiv_pos_site_id
 _symmetry_equiv_pos_as_xyz
  1  'x, y, z'
loop_
 _atom_site_type_symbol
 _atom_site_label
 _atom_site_symmetry_multiplicity
 _atom_site_fract_x
 _atom_site_fract_y
 _atom_site_fract_z
 _atom_site_occupancy
  Tb  Tb0  1  0.000000  0.000000  0.000000  1
  Tb  Tb1  1  0.484190  0.515810  0.302872  1
  Tb  Tb2  1  0.515810  0.484190  0.697128  1
  Tb  Tb3  1  0.484190  0.968379  0.302872  1
  Tb  Tb4  1  0.515810  0.031621  0.697128  1
  Tb  Tb5  1  0.031621  0.515810  0.302872  1
  Tb  Tb6  1  0.968379  0.484190  0.697128  1
  Sn  Sn7  1  0.348878  0.000000  0.000000  1
  Sn  Sn8  1  0.651122  0.000000  0.000000  1
  Sn  Sn9  1  0.000000  0.348878  0.000000  1
  Sn  Sn10  1  0.000000  0.651122  0.000000  1
  Sn  Sn11  1  0.651122  0.651122  0.000000  1
  Sn  Sn12  1  0.348878  0.348878  0.000000  1
  Sn  Sn13  1  0.333333  0.666667  0.822079  1
  Sn  Sn14  1  0.666667  0.333333  0.177921  1
  Sn  Sn15  1  0.780183  0.219817  0.462431  1
  Sn  Sn16  1  0.219817  0.780183  0.537569  1
  Sn  Sn17  1  0.780183  0.560366  0.462431  1
  Sn  Sn18  1  0.219817  0.439634  0.537569  1
  Sn  Sn19  1  0.439634  0.219817  0.462431  1
  Sn  Sn20  1  0.560366  0.780183  0.537569  1
  Sn  Sn21  1  0.333333  0.666667  0.126009  1
  Sn  Sn22  1  0.666667  0.333333  0.873991  1
  Sn  Sn23  1  0.119647  0.880353  0.269974  1
  Sn  Sn24  1  0.880353  0.119647  0.730026  1
  Sn  Sn25  1  0.119647  0.239296  0.269974  1
  Sn  Sn26  1  0.880353  0.760704  0.730026  1
  Sn  Sn27  1  0.760704  0.880353  0.269974  1
  Sn  Sn28  1  0.239296  0.119647  0.730026  1
  Ru  Ru29  1  0.830345  0.169655  0.202287  1
  Ru  Ru30  1  0.169655  0.830345  0.797713  1
  Ru  Ru31  1  0.830345  0.660689  0.202287  1
  Ru  Ru32  1  0.169655  0.339311  0.797713  1
  Ru  Ru33  1  0.339311  0.169655  0.202287  1
  Ru  Ru34  1  0.660689  0.830345  0.797713  1
  Pb  Pb35  1  0.000000  0.000000  0.500000  1
