# generated using pymatgen
data_Dy5CrCo18(As5P)2
_symmetry_space_group_name_H-M   'P 1'
_cell_length_a   12.39320523
_cell_length_b   12.39320586
_cell_length_c   3.78259500
_cell_angle_alpha   90.00000000
_cell_angle_beta   90.00000000
_cell_angle_gamma   119.96429241
_symmetry_Int_Tables_number   1
_chemical_formula_structural   Dy5CrCo18(As5P)2
_chemical_formula_sum   'Dy5 Cr1 Co18 As10 P2'
_cell_volume   503.31970548
_cell_formula_units_Z   1
loop_
 _symmetry_equiv_pos_site_id
 _symmetry_equiv_pos_as_xyz
  1  'x, y, z'
loop_
 _atom_site_type_symbol
 _atom_site_label
 _atom_site_symmetry_multiplicity
 _atom_site_fract_x
 _atom_site_fract_y
 _atom_site_fract_z
 _atom_site_occupancy
  Dy  Dy0  1  0.666260  0.332384  0.000000  1
  Dy  Dy1  1  0.332384  0.666260  0.000000  1
  Dy  Dy2  1  0.181100  0.181100  0.500000  1
  Dy  Dy3  1  0.816565  0.002959  0.500000  1
  Dy  Dy4  1  0.002959  0.816565  0.500000  1
  Cr  Cr5  1  0.560557  0.560557  0.000000  1
  Co  Co6  1  0.443702  0.999329  0.000000  1
  Co  Co7  1  0.999329  0.443702  0.000000  1
  Co  Co8  1  0.828579  0.198931  0.000000  1
  Co  Co9  1  0.801939  0.624467  0.000000  1
  Co  Co10  1  0.370775  0.171276  0.000000  1
  Co  Co11  1  0.198931  0.828579  0.000000  1
  Co  Co12  1  0.624467  0.801939  0.000000  1
  Co  Co13  1  0.171276  0.370775  0.000000  1
  Co  Co14  1  0.645152  0.125205  0.500000  1
  Co  Co15  1  0.875950  0.519168  0.500000  1
  Co  Co16  1  0.478647  0.353533  0.500000  1
  Co  Co17  1  0.125205  0.645152  0.500000  1
  Co  Co18  1  0.519168  0.875950  0.500000  1
  Co  Co19  1  0.353533  0.478647  0.500000  1
  Co  Co20  1  0.718213  0.718213  0.500000  1
  Co  Co21  1  0.276189  0.999803  0.500000  1
  Co  Co22  1  0.999803  0.276189  0.500000  1
  Co  Co23  1  0.009117  0.009117  0.000000  1
  As  As24  1  0.361071  0.361071  0.000000  1
  As  As25  1  0.635016  0.001263  0.000000  1
  As  As26  1  0.001263  0.635016  0.000000  1
  As  As27  1  0.836635  0.316178  0.500000  1
  As  As28  1  0.683573  0.517514  0.500000  1
  As  As29  1  0.479503  0.162467  0.500000  1
  As  As30  1  0.316178  0.836635  0.500000  1
  As  As31  1  0.517514  0.683573  0.500000  1
  As  As32  1  0.162467  0.479503  0.500000  1
  As  As33  1  0.825790  0.825790  0.000000  1
  P  P34  1  0.180350  0.000842  0.000000  1
  P  P35  1  0.000842  0.180350  0.000000  1
