# generated using pymatgen
data_Yb2SmPa5(Pt2Pb)4
_symmetry_space_group_name_H-M   'P 1'
_cell_length_a   7.94339769
_cell_length_b   7.94339703
_cell_length_c   7.32271400
_cell_angle_alpha   90.00000000
_cell_angle_beta   90.00000000
_cell_angle_gamma   92.13725038
_symmetry_Int_Tables_number   1
_chemical_formula_structural   Yb2SmPa5(Pt2Pb)4
_chemical_formula_sum   'Yb2 Sm1 Pa5 Pt8 Pb4'
_cell_volume   461.72398041
_cell_formula_units_Z   1
loop_
 _symmetry_equiv_pos_site_id
 _symmetry_equiv_pos_as_xyz
  1  'x, y, z'
loop_
 _atom_site_type_symbol
 _atom_site_label
 _atom_site_symmetry_multiplicity
 _atom_site_fract_x
 _atom_site_fract_y
 _atom_site_fract_z
 _atom_site_occupancy
  Yb  Yb0  1  0.838475  0.161525  0.000000  1
  Yb  Yb1  1  0.160485  0.839515  0.000000  1
  Sm  Sm2  1  0.177464  0.822536  0.500000  1
  Pa  Pa3  1  0.681977  0.676800  0.000000  1
  Pa  Pa4  1  0.337489  0.337475  0.500000  1
  Pa  Pa5  1  0.825125  0.174875  0.500000  1
  Pa  Pa6  1  0.662525  0.662511  0.500000  1
  Pa  Pa7  1  0.323200  0.318023  0.000000  1
  Pt  Pt8  1  0.859638  0.872446  0.730584  1
  Pt  Pt9  1  0.127554  0.140362  0.730584  1
  Pt  Pt10  1  0.629444  0.370556  0.757392  1
  Pt  Pt11  1  0.629444  0.370556  0.242608  1
  Pt  Pt12  1  0.381063  0.618937  0.229944  1
  Pt  Pt13  1  0.127554  0.140362  0.269416  1
  Pt  Pt14  1  0.859638  0.872446  0.269416  1
  Pt  Pt15  1  0.381063  0.618937  0.770056  1
  Pb  Pb16  1  0.496690  0.997758  0.756006  1
  Pb  Pb17  1  0.496690  0.997758  0.243994  1
  Pb  Pb18  1  0.002242  0.503310  0.756006  1
  Pb  Pb19  1  0.002242  0.503310  0.243994  1
