# generated using pymatgen
data_Er2U(Co3P2)3
_symmetry_space_group_name_H-M   'P 1'
_cell_length_a   3.69666800
_cell_length_b   10.51317100
_cell_length_c   12.04163000
_cell_angle_alpha   90.00000000
_cell_angle_beta   90.00000000
_cell_angle_gamma   90.00000000
_symmetry_Int_Tables_number   1
_chemical_formula_structural   Er2U(Co3P2)3
_chemical_formula_sum   'Er4 U2 Co18 P12'
_cell_volume   467.98232972
_cell_formula_units_Z   2
loop_
 _symmetry_equiv_pos_site_id
 _symmetry_equiv_pos_as_xyz
  1  'x, y, z'
loop_
 _atom_site_type_symbol
 _atom_site_label
 _atom_site_symmetry_multiplicity
 _atom_site_fract_x
 _atom_site_fract_y
 _atom_site_fract_z
 _atom_site_occupancy
  Er  Er0  1  0.250000  0.934227  0.794604  1
  Er  Er1  1  0.250000  0.565773  0.794604  1
  Er  Er2  1  0.750000  0.065773  0.205396  1
  Er  Er3  1  0.750000  0.434227  0.205396  1
  U  U4  1  0.750000  0.250000  0.469142  1
  U  U5  1  0.250000  0.750000  0.530858  1
  Co  Co6  1  0.250000  0.250000  0.840443  1
  Co  Co7  1  0.750000  0.750000  0.159557  1
  Co  Co8  1  0.250000  0.250000  0.306514  1
  Co  Co9  1  0.750000  0.750000  0.693486  1
  Co  Co10  1  0.750000  0.250000  0.014987  1
  Co  Co11  1  0.250000  0.750000  0.985013  1
  Co  Co12  1  0.250000  0.415934  0.006775  1
  Co  Co13  1  0.250000  0.084066  0.006775  1
  Co  Co14  1  0.750000  0.584066  0.993225  1
  Co  Co15  1  0.750000  0.915934  0.993225  1
  Co  Co16  1  0.250000  0.450208  0.567811  1
  Co  Co17  1  0.250000  0.049792  0.567811  1
  Co  Co18  1  0.750000  0.549792  0.432189  1
  Co  Co19  1  0.750000  0.950208  0.432189  1
  Co  Co20  1  0.250000  0.870255  0.290944  1
  Co  Co21  1  0.250000  0.629745  0.290944  1
  Co  Co22  1  0.750000  0.129745  0.709056  1
  Co  Co23  1  0.750000  0.370255  0.709056  1
  P  P24  1  0.250000  0.250000  0.122373  1
  P  P25  1  0.750000  0.750000  0.877627  1
  P  P26  1  0.250000  0.250000  0.653165  1
  P  P27  1  0.750000  0.750000  0.346835  1
  P  P28  1  0.250000  0.442423  0.383049  1
  P  P29  1  0.250000  0.057577  0.383049  1
  P  P30  1  0.750000  0.557577  0.616951  1
  P  P31  1  0.750000  0.942423  0.616951  1
  P  P32  1  0.250000  0.902806  0.106121  1
  P  P33  1  0.250000  0.597194  0.106121  1
  P  P34  1  0.750000  0.097194  0.893879  1
  P  P35  1  0.750000  0.402806  0.893879  1
