# generated using pymatgen
data_Ba2Ca(AlAs2)2
_symmetry_space_group_name_H-M   'P 1'
_cell_length_a   7.32427100
_cell_length_b   11.54382300
_cell_length_c   11.71498500
_cell_angle_alpha   90.00000000
_cell_angle_beta   90.00000000
_cell_angle_gamma   90.00000000
_symmetry_Int_Tables_number   1
_chemical_formula_structural   Ba2Ca(AlAs2)2
_chemical_formula_sum   'Ba8 Ca4 Al8 As16'
_cell_volume   990.50301300
_cell_formula_units_Z   4
loop_
 _symmetry_equiv_pos_site_id
 _symmetry_equiv_pos_as_xyz
  1  'x, y, z'
loop_
 _atom_site_type_symbol
 _atom_site_label
 _atom_site_symmetry_multiplicity
 _atom_site_fract_x
 _atom_site_fract_y
 _atom_site_fract_z
 _atom_site_occupancy
  Ba  Ba0  1  0.592641  0.069684  0.364421  1
  Ba  Ba1  1  0.092641  0.430316  0.135579  1
  Ba  Ba2  1  0.407359  0.569684  0.635579  1
  Ba  Ba3  1  0.907359  0.930316  0.864421  1
  Ba  Ba4  1  0.407359  0.930316  0.635579  1
  Ba  Ba5  1  0.907359  0.569684  0.864421  1
  Ba  Ba6  1  0.592641  0.430316  0.364421  1
  Ba  Ba7  1  0.092641  0.069684  0.135579  1
  Ca  Ca8  1  0.591680  0.250000  0.746302  1
  Ca  Ca9  1  0.091680  0.250000  0.753698  1
  Ca  Ca10  1  0.408320  0.750000  0.253698  1
  Ca  Ca11  1  0.908320  0.750000  0.246302  1
  Al  Al12  1  0.569358  0.124230  0.036526  1
  Al  Al13  1  0.069358  0.375770  0.463474  1
  Al  Al14  1  0.430642  0.624230  0.963474  1
  Al  Al15  1  0.930642  0.875770  0.536526  1
  Al  Al16  1  0.430642  0.875770  0.963474  1
  Al  Al17  1  0.930642  0.624230  0.536526  1
  Al  Al18  1  0.569358  0.375770  0.036526  1
  Al  Al19  1  0.069358  0.124230  0.463474  1
  As  As20  1  0.657570  0.569781  0.118467  1
  As  As21  1  0.157570  0.930219  0.381533  1
  As  As22  1  0.342430  0.069781  0.881533  1
  As  As23  1  0.842430  0.430219  0.618467  1
  As  As24  1  0.342430  0.430219  0.881533  1
  As  As25  1  0.842430  0.069781  0.618467  1
  As  As26  1  0.657570  0.930219  0.118467  1
  As  As27  1  0.157570  0.569781  0.381533  1
  As  As28  1  0.827364  0.250000  0.956200  1
  As  As29  1  0.327364  0.250000  0.543800  1
  As  As30  1  0.172636  0.750000  0.043800  1
  As  As31  1  0.672636  0.750000  0.456200  1
  As  As32  1  0.920812  0.250000  0.320490  1
  As  As33  1  0.420812  0.250000  0.179510  1
  As  As34  1  0.079188  0.750000  0.679510  1
  As  As35  1  0.579188  0.750000  0.820490  1
