# generated using pymatgen
data_Rb2BeO2
_symmetry_space_group_name_H-M   'P 1'
_cell_length_a   6.02136400
_cell_length_b   7.60611998
_cell_length_c   11.13298505
_cell_angle_alpha   49.56869449
_cell_angle_beta   90.00000000
_cell_angle_gamma   90.00000000
_symmetry_Int_Tables_number   1
_chemical_formula_structural   Rb2BeO2
_chemical_formula_sum   'Rb8 Be4 O8'
_cell_volume   388.11405519
_cell_formula_units_Z   4
loop_
 _symmetry_equiv_pos_site_id
 _symmetry_equiv_pos_as_xyz
  1  'x, y, z'
loop_
 _atom_site_type_symbol
 _atom_site_label
 _atom_site_symmetry_multiplicity
 _atom_site_fract_x
 _atom_site_fract_y
 _atom_site_fract_z
 _atom_site_occupancy
  Rb  Rb0  1  0.632286  0.716034  0.119751  1
  Rb  Rb1  1  0.132286  0.283966  0.380249  1
  Rb  Rb2  1  0.367714  0.283966  0.880249  1
  Rb  Rb3  1  0.867714  0.716034  0.619751  1
  Rb  Rb4  1  0.554935  0.129558  0.264303  1
  Rb  Rb5  1  0.054935  0.870442  0.235697  1
  Rb  Rb6  1  0.445065  0.870442  0.735697  1
  Rb  Rb7  1  0.945065  0.129558  0.764303  1
  Be  Be8  1  0.080366  0.601575  0.018323  1
  Be  Be9  1  0.419634  0.601575  0.518323  1
  Be  Be10  1  0.919634  0.398425  0.981677  1
  Be  Be11  1  0.580366  0.398425  0.481677  1
  O  O12  1  0.814869  0.249511  0.952332  1
  O  O13  1  0.625026  0.661130  0.403823  1
  O  O14  1  0.374974  0.338870  0.596177  1
  O  O15  1  0.874974  0.661130  0.903823  1
  O  O16  1  0.314869  0.750489  0.547668  1
  O  O17  1  0.185131  0.750489  0.047668  1
  O  O18  1  0.685131  0.249511  0.452332  1
  O  O19  1  0.125026  0.338870  0.096177  1
