# generated using pymatgen
data_Pa3TcF20
_symmetry_space_group_name_H-M   'P 1'
_cell_length_a   9.27273344
_cell_length_b   9.27273213
_cell_length_c   5.42130490
_cell_angle_alpha   86.05867718
_cell_angle_beta   86.05869192
_cell_angle_gamma   112.81815291
_symmetry_Int_Tables_number   1
_chemical_formula_structural   Pa3TcF20
_chemical_formula_sum   'Pa3 Tc1 F20'
_cell_volume   426.33423414
_cell_formula_units_Z   1
loop_
 _symmetry_equiv_pos_site_id
 _symmetry_equiv_pos_as_xyz
  1  'x, y, z'
loop_
 _atom_site_type_symbol
 _atom_site_label
 _atom_site_symmetry_multiplicity
 _atom_site_fract_x
 _atom_site_fract_y
 _atom_site_fract_z
 _atom_site_occupancy
  Pa  Pa0  1  0.803967  0.214046  0.007508  1
  Pa  Pa1  1  0.214046  0.803967  0.007508  1
  Pa  Pa2  1  0.735666  0.735666  0.734820  1
  Tc  Tc3  1  0.254424  0.254424  0.256746  1
  F  F4  1  0.853448  0.853448  0.396997  1
  F  F5  1  0.127120  0.127120  0.532328  1
  F  F6  1  0.630082  0.630082  0.081296  1
  F  F7  1  0.323077  0.323077  0.924539  1
  F  F8  1  0.523495  0.723555  0.628060  1
  F  F9  1  0.277994  0.446054  0.365434  1
  F  F10  1  0.446054  0.277994  0.365434  1
  F  F11  1  0.723555  0.523495  0.628060  1
  F  F12  1  0.782845  0.976284  0.876083  1
  F  F13  1  0.039264  0.226671  0.135070  1
  F  F14  1  0.226671  0.039264  0.135070  1
  F  F15  1  0.976284  0.782845  0.876083  1
  F  F16  1  0.920434  0.309203  0.663020  1
  F  F17  1  0.703534  0.098990  0.351776  1
  F  F18  1  0.098990  0.703534  0.351776  1
  F  F19  1  0.309203  0.920434  0.663020  1
  F  F20  1  0.585713  0.174044  0.893782  1
  F  F21  1  0.837577  0.432515  0.115903  1
  F  F22  1  0.432515  0.837577  0.115903  1
  F  F23  1  0.174044  0.585713  0.893782  1
