# generated using pymatgen
data_Tb2Nd2LuPb4
_symmetry_space_group_name_H-M   'P 1'
_cell_length_a   8.22038900
_cell_length_b   8.35223600
_cell_length_c   15.77423800
_cell_angle_alpha   90.00000000
_cell_angle_beta   90.00000000
_cell_angle_gamma   90.00000000
_symmetry_Int_Tables_number   1
_chemical_formula_structural   Tb2Nd2LuPb4
_chemical_formula_sum   'Tb8 Nd8 Lu4 Pb16'
_cell_volume   1083.03755365
_cell_formula_units_Z   4
loop_
 _symmetry_equiv_pos_site_id
 _symmetry_equiv_pos_as_xyz
  1  'x, y, z'
loop_
 _atom_site_type_symbol
 _atom_site_label
 _atom_site_symmetry_multiplicity
 _atom_site_fract_x
 _atom_site_fract_y
 _atom_site_fract_z
 _atom_site_occupancy
  Tb  Tb0  1  0.629687  0.158074  0.621657  1
  Tb  Tb1  1  0.129687  0.341926  0.878343  1
  Tb  Tb2  1  0.370313  0.841926  0.121657  1
  Tb  Tb3  1  0.870313  0.658074  0.378343  1
  Tb  Tb4  1  0.370313  0.841926  0.378343  1
  Tb  Tb5  1  0.870313  0.658074  0.121657  1
  Tb  Tb6  1  0.629687  0.158074  0.878343  1
  Tb  Tb7  1  0.129687  0.341926  0.621657  1
  Nd  Nd8  1  0.472207  0.677680  0.597779  1
  Nd  Nd9  1  0.972207  0.822320  0.902221  1
  Nd  Nd10  1  0.527793  0.322320  0.097779  1
  Nd  Nd11  1  0.027793  0.177680  0.402221  1
  Nd  Nd12  1  0.527793  0.322320  0.402221  1
  Nd  Nd13  1  0.027793  0.177680  0.097779  1
  Nd  Nd14  1  0.472207  0.677680  0.902221  1
  Nd  Nd15  1  0.972207  0.822320  0.597779  1
  Lu  Lu16  1  0.796112  0.494596  0.750000  1
  Lu  Lu17  1  0.296112  0.005404  0.750000  1
  Lu  Lu18  1  0.203888  0.505404  0.250000  1
  Lu  Lu19  1  0.703888  0.994596  0.250000  1
  Pb  Pb20  1  0.710848  0.962606  0.455666  1
  Pb  Pb21  1  0.210848  0.537394  0.044334  1
  Pb  Pb22  1  0.289152  0.037394  0.955666  1
  Pb  Pb23  1  0.789152  0.462606  0.544334  1
  Pb  Pb24  1  0.289152  0.037394  0.544334  1
  Pb  Pb25  1  0.789152  0.462606  0.955666  1
  Pb  Pb26  1  0.710848  0.962606  0.044334  1
  Pb  Pb27  1  0.210848  0.537394  0.455666  1
  Pb  Pb28  1  0.433852  0.374068  0.750000  1
  Pb  Pb29  1  0.933852  0.125932  0.750000  1
  Pb  Pb30  1  0.566148  0.625932  0.250000  1
  Pb  Pb31  1  0.066148  0.874068  0.250000  1
  Pb  Pb32  1  0.660458  0.847110  0.750000  1
  Pb  Pb33  1  0.160458  0.652890  0.750000  1
  Pb  Pb34  1  0.339542  0.152890  0.250000  1
  Pb  Pb35  1  0.839542  0.347110  0.250000  1
