# generated using pymatgen
data_Sc4FeTcOs6
_symmetry_space_group_name_H-M   'P 1'
_cell_length_a   5.16732068
_cell_length_b   5.16252433
_cell_length_c   8.64900700
_cell_angle_alpha   90.00000000
_cell_angle_beta   90.00000000
_cell_angle_gamma   120.72039192
_symmetry_Int_Tables_number   1
_chemical_formula_structural   Sc4FeTcOs6
_chemical_formula_sum   'Sc4 Fe1 Tc1 Os6'
_cell_volume   198.34707711
_cell_formula_units_Z   1
loop_
 _symmetry_equiv_pos_site_id
 _symmetry_equiv_pos_as_xyz
  1  'x, y, z'
loop_
 _atom_site_type_symbol
 _atom_site_label
 _atom_site_symmetry_multiplicity
 _atom_site_fract_x
 _atom_site_fract_y
 _atom_site_fract_z
 _atom_site_occupancy
  Sc  Sc0  1  0.332396  0.662337  0.436933  1
  Sc  Sc1  1  0.666955  0.334916  0.567117  1
  Sc  Sc2  1  0.666955  0.334916  0.932883  1
  Sc  Sc3  1  0.332396  0.662337  0.063067  1
  Fe  Fe4  1  0.168720  0.338596  0.750000  1
  Tc  Tc5  1  0.344025  0.171629  0.250000  1
  Os  Os6  1  0.175497  0.831049  0.750000  1
  Os  Os7  1  0.830100  0.660501  0.250000  1
  Os  Os8  1  0.653569  0.829992  0.750000  1
  Os  Os9  1  0.001458  0.000513  0.997095  1
  Os  Os10  1  0.826467  0.172703  0.250000  1
  Os  Os11  1  0.001458  0.000513  0.502905  1
