# generated using pymatgen
data_Li2La5Yb3Ir2
_symmetry_space_group_name_H-M   'P 1'
_cell_length_a   10.09574793
_cell_length_b   10.09575902
_cell_length_c   10.09597100
_cell_angle_alpha   60.01586737
_cell_angle_beta   60.01429129
_cell_angle_gamma   60.01439515
_symmetry_Int_Tables_number   1
_chemical_formula_structural   Li2La5Yb3Ir2
_chemical_formula_sum   'Li4 La10 Yb6 Ir4'
_cell_volume   727.87493818
_cell_formula_units_Z   2
loop_
 _symmetry_equiv_pos_site_id
 _symmetry_equiv_pos_as_xyz
  1  'x, y, z'
loop_
 _atom_site_type_symbol
 _atom_site_label
 _atom_site_symmetry_multiplicity
 _atom_site_fract_x
 _atom_site_fract_y
 _atom_site_fract_z
 _atom_site_occupancy
  Li  Li0  1  0.422271  0.422282  0.733135  1
  Li  Li1  1  0.422281  0.733141  0.422286  1
  Li  Li2  1  0.733124  0.422293  0.422300  1
  Li  Li3  1  0.422300  0.422292  0.422318  1
  La  La4  1  0.812992  0.812988  0.186995  1
  La  La5  1  0.187525  0.812865  0.187530  1
  La  La6  1  0.812893  0.187552  0.187544  1
  La  La7  1  0.187559  0.187554  0.812822  1
  La  La8  1  0.812987  0.186962  0.813024  1
  La  La9  1  0.187000  0.812988  0.812976  1
  La  La10  1  0.656256  0.656243  0.033339  1
  La  La11  1  0.656262  0.033331  0.656262  1
  La  La12  1  0.033314  0.656258  0.656253  1
  La  La13  1  0.654050  0.654075  0.654083  1
  Yb  Yb14  1  0.439785  0.439747  0.060140  1
  Yb  Yb15  1  0.060032  0.439937  0.060006  1
  Yb  Yb16  1  0.439943  0.059990  0.059993  1
  Yb  Yb17  1  0.060037  0.060028  0.439941  1
  Yb  Yb18  1  0.439818  0.060141  0.439711  1
  Yb  Yb19  1  0.060109  0.439790  0.439777  1
  Ir  Ir20  1  0.859641  0.859679  0.420356  1
  Ir  Ir21  1  0.859673  0.420348  0.859677  1
  Ir  Ir22  1  0.420334  0.859699  0.859705  1
  Ir  Ir23  1  0.859815  0.859815  0.859826  1
