# generated using pymatgen
data_Y3Tm3Hf2(Co4P3)4
_symmetry_space_group_name_H-M   'P 1'
_cell_length_a   3.70904700
_cell_length_b   10.64465879
_cell_length_c   12.34322292
_cell_angle_alpha   89.95587466
_cell_angle_beta   90.00000000
_cell_angle_gamma   90.00000000
_symmetry_Int_Tables_number   1
_chemical_formula_structural   Y3Tm3Hf2(Co4P3)4
_chemical_formula_sum   'Y3 Tm3 Hf2 Co16 P12'
_cell_volume   487.32930162
_cell_formula_units_Z   1
loop_
 _symmetry_equiv_pos_site_id
 _symmetry_equiv_pos_as_xyz
  1  'x, y, z'
loop_
 _atom_site_type_symbol
 _atom_site_label
 _atom_site_symmetry_multiplicity
 _atom_site_fract_x
 _atom_site_fract_y
 _atom_site_fract_z
 _atom_site_occupancy
  Y  Y0  1  0.000000  0.499954  0.529206  1
  Y  Y1  1  0.500000  0.000138  0.471035  1
  Y  Y2  1  0.500000  0.821919  0.204321  1
  Tm  Tm3  1  0.500000  0.178126  0.204194  1
  Tm  Tm4  1  0.000000  0.677790  0.795897  1
  Tm  Tm5  1  0.000000  0.322219  0.795734  1
  Hf  Hf6  1  0.500000  0.499544  0.157523  1
  Hf  Hf7  1  0.000000  0.000085  0.842379  1
  Co  Co8  1  0.500000  0.499902  0.704255  1
  Co  Co9  1  0.000000  0.001470  0.296292  1
  Co  Co10  1  0.000000  0.499620  0.986412  1
  Co  Co11  1  0.500000  0.000470  0.012821  1
  Co  Co12  1  0.500000  0.331957  0.993207  1
  Co  Co13  1  0.500000  0.667582  0.992732  1
  Co  Co14  1  0.000000  0.168422  0.006378  1
  Co  Co15  1  0.000000  0.831992  0.005979  1
  Co  Co16  1  0.500000  0.295075  0.432979  1
  Co  Co17  1  0.500000  0.704799  0.433594  1
  Co  Co18  1  0.000000  0.205124  0.567170  1
  Co  Co19  1  0.000000  0.794936  0.567527  1
  Co  Co20  1  0.500000  0.877154  0.703398  1
  Co  Co21  1  0.500000  0.122836  0.703243  1
  Co  Co22  1  0.000000  0.621849  0.297466  1
  Co  Co23  1  0.000000  0.377040  0.296649  1
  P  P24  1  0.500000  0.499813  0.882821  1
  P  P25  1  0.000000  0.001143  0.116431  1
  P  P26  1  0.500000  0.500118  0.362027  1
  P  P27  1  0.000000  0.000027  0.638050  1
  P  P28  1  0.500000  0.310326  0.616742  1
  P  P29  1  0.500000  0.689518  0.617052  1
  P  P30  1  0.000000  0.189966  0.383373  1
  P  P31  1  0.000000  0.810114  0.384453  1
  P  P32  1  0.500000  0.837803  0.892105  1
  P  P33  1  0.500000  0.162369  0.891887  1
  P  P34  1  0.000000  0.661089  0.106812  1
  P  P35  1  0.000000  0.337708  0.107858  1
