# generated using pymatgen
data_La4TbIr3
_symmetry_space_group_name_H-M   'P 1'
_cell_length_a   11.38929200
_cell_length_b   11.38929200
_cell_length_c   6.54942300
_cell_angle_alpha   90.00000000
_cell_angle_beta   90.00000000
_cell_angle_gamma   90.00000000
_symmetry_Int_Tables_number   1
_chemical_formula_structural   La4TbIr3
_chemical_formula_sum   'La16 Tb4 Ir12'
_cell_volume   849.56477220
_cell_formula_units_Z   4
loop_
 _symmetry_equiv_pos_site_id
 _symmetry_equiv_pos_as_xyz
  1  'x, y, z'
loop_
 _atom_site_type_symbol
 _atom_site_label
 _atom_site_symmetry_multiplicity
 _atom_site_fract_x
 _atom_site_fract_y
 _atom_site_fract_z
 _atom_site_occupancy
  La  La0  1  0.288228  0.088811  0.385035  1
  La  La1  1  0.288228  0.911189  0.885035  1
  La  La2  1  0.711772  0.088811  0.885035  1
  La  La3  1  0.711772  0.911189  0.385035  1
  La  La4  1  0.588811  0.788228  0.885035  1
  La  La5  1  0.588811  0.211772  0.385035  1
  La  La6  1  0.411189  0.788228  0.385035  1
  La  La7  1  0.411189  0.211772  0.885035  1
  La  La8  1  0.211772  0.411189  0.614965  1
  La  La9  1  0.211772  0.588811  0.114965  1
  La  La10  1  0.788228  0.411189  0.114965  1
  La  La11  1  0.788228  0.588811  0.614965  1
  La  La12  1  0.911189  0.711772  0.114965  1
  La  La13  1  0.911189  0.288228  0.614965  1
  La  La14  1  0.088811  0.711772  0.614965  1
  La  La15  1  0.088811  0.288228  0.114965  1
  Tb  Tb16  1  0.000000  0.000000  0.500000  1
  Tb  Tb17  1  0.000000  0.000000  0.000000  1
  Tb  Tb18  1  0.500000  0.500000  0.000000  1
  Tb  Tb19  1  0.500000  0.500000  0.500000  1
  Ir  Ir20  1  0.850794  0.149206  0.250000  1
  Ir  Ir21  1  0.850794  0.850794  0.750000  1
  Ir  Ir22  1  0.149206  0.149206  0.750000  1
  Ir  Ir23  1  0.149206  0.850794  0.250000  1
  Ir  Ir24  1  0.649206  0.350794  0.750000  1
  Ir  Ir25  1  0.649206  0.649206  0.250000  1
  Ir  Ir26  1  0.350794  0.350794  0.250000  1
  Ir  Ir27  1  0.350794  0.649206  0.750000  1
  Ir  Ir28  1  0.500000  0.000000  0.117566  1
  Ir  Ir29  1  0.500000  0.000000  0.617566  1
  Ir  Ir30  1  0.000000  0.500000  0.882434  1
  Ir  Ir31  1  0.000000  0.500000  0.382434  1
