# generated using pymatgen
data_Sm4Co16Re4Si5P7
_symmetry_space_group_name_H-M   'P 1'
_cell_length_a   3.74645400
_cell_length_b   10.46844150
_cell_length_c   11.90997255
_cell_angle_alpha   89.96495050
_cell_angle_beta   90.00000000
_cell_angle_gamma   90.00000000
_symmetry_Int_Tables_number   1
_chemical_formula_structural   Sm4Co16Re4Si5P7
_chemical_formula_sum   'Sm4 Co16 Re4 Si5 P7'
_cell_volume   467.10349212
_cell_formula_units_Z   1
loop_
 _symmetry_equiv_pos_site_id
 _symmetry_equiv_pos_as_xyz
  1  'x, y, z'
loop_
 _atom_site_type_symbol
 _atom_site_label
 _atom_site_symmetry_multiplicity
 _atom_site_fract_x
 _atom_site_fract_y
 _atom_site_fract_z
 _atom_site_occupancy
  Sm  Sm0  1  0.250000  0.582440  0.701738  1
  Sm  Sm1  1  0.250000  0.916463  0.202125  1
  Sm  Sm2  1  0.750000  0.416720  0.297825  1
  Sm  Sm3  1  0.750000  0.080894  0.798221  1
  Co  Co4  1  0.250000  0.405973  0.487388  1
  Co  Co5  1  0.250000  0.091039  0.991848  1
  Co  Co6  1  0.750000  0.594955  0.510399  1
  Co  Co7  1  0.750000  0.903755  0.011580  1
  Co  Co8  1  0.250000  0.215213  0.176942  1
  Co  Co9  1  0.250000  0.285850  0.671823  1
  Co  Co10  1  0.750000  0.784422  0.823996  1
  Co  Co11  1  0.750000  0.715831  0.323999  1
  Co  Co12  1  0.250000  0.882848  0.699809  1
  Co  Co13  1  0.250000  0.617001  0.200669  1
  Co  Co14  1  0.750000  0.116093  0.299894  1
  Co  Co15  1  0.750000  0.385367  0.798631  1
  Co  Co16  1  0.250000  0.469723  0.933710  1
  Co  Co17  1  0.250000  0.034301  0.432249  1
  Co  Co18  1  0.750000  0.535685  0.068907  1
  Co  Co19  1  0.750000  0.965495  0.567874  1
  Re  Re20  1  0.250000  0.707690  0.988908  1
  Re  Re21  1  0.250000  0.792905  0.487997  1
  Re  Re22  1  0.750000  0.293256  0.012113  1
  Re  Re23  1  0.750000  0.207093  0.510708  1
  Si  Si24  1  0.250000  0.417260  0.113233  1
  Si  Si25  1  0.250000  0.083158  0.613905  1
  Si  Si26  1  0.750000  0.582266  0.886730  1
  Si  Si27  1  0.750000  0.917547  0.386534  1
  Si  Si28  1  0.250000  0.272960  0.865335  1
  P  P29  1  0.250000  0.226258  0.364834  1
  P  P30  1  0.750000  0.726750  0.135165  1
  P  P31  1  0.750000  0.773450  0.635176  1
  P  P32  1  0.250000  0.599226  0.391576  1
  P  P33  1  0.250000  0.900479  0.892407  1
  P  P34  1  0.750000  0.400327  0.608028  1
  P  P35  1  0.750000  0.099307  0.107724  1
