# generated using pymatgen
data_Rb8Na4HoEr3Sb8
_symmetry_space_group_name_H-M   'P 1'
_cell_length_a   11.32270764
_cell_length_b   11.32270655
_cell_length_c   7.47459300
_cell_angle_alpha   89.99713498
_cell_angle_beta   90.00286589
_cell_angle_gamma   98.54302426
_symmetry_Int_Tables_number   1
_chemical_formula_structural   Rb8Na4HoEr3Sb8
_chemical_formula_sum   'Rb8 Na4 Ho1 Er3 Sb8'
_cell_volume   947.63804539
_cell_formula_units_Z   1
loop_
 _symmetry_equiv_pos_site_id
 _symmetry_equiv_pos_as_xyz
  1  'x, y, z'
loop_
 _atom_site_type_symbol
 _atom_site_label
 _atom_site_symmetry_multiplicity
 _atom_site_fract_x
 _atom_site_fract_y
 _atom_site_fract_z
 _atom_site_occupancy
  Rb  Rb0  1  0.070906  0.429092  0.249994  1
  Rb  Rb1  1  0.429092  0.070906  0.750006  1
  Rb  Rb2  1  0.929102  0.570911  0.750013  1
  Rb  Rb3  1  0.570911  0.929102  0.249987  1
  Rb  Rb4  1  0.676195  0.323800  0.215994  1
  Rb  Rb5  1  0.823812  0.176186  0.716024  1
  Rb  Rb6  1  0.323800  0.676195  0.784006  1
  Rb  Rb7  1  0.176186  0.823812  0.283976  1
  Na  Na8  1  0.382422  0.382422  0.000000  1
  Na  Na9  1  0.117576  0.117576  0.500000  1
  Na  Na10  1  0.617577  0.617577  0.000000  1
  Na  Na11  1  0.882437  0.882437  0.500000  1
  Ho  Ho12  1  0.630584  0.630584  0.500000  1
  Er  Er13  1  0.130522  0.130522  0.000000  1
  Er  Er14  1  0.369426  0.369426  0.500000  1
  Er  Er15  1  0.869454  0.869454  0.000000  1
  Sb  Sb16  1  0.846404  0.653726  0.249852  1
  Sb  Sb17  1  0.653726  0.846404  0.750148  1
  Sb  Sb18  1  0.153714  0.346292  0.749995  1
  Sb  Sb19  1  0.346292  0.153714  0.250005  1
  Sb  Sb20  1  0.899862  0.100146  0.211090  1
  Sb  Sb21  1  0.600119  0.399733  0.711195  1
  Sb  Sb22  1  0.100146  0.899862  0.788910  1
  Sb  Sb23  1  0.399733  0.600119  0.288805  1
