# generated using pymatgen
data_HfZrSc4Sn5
_symmetry_space_group_name_H-M   'P 1'
_cell_length_a   10.99638544
_cell_length_b   10.99638546
_cell_length_c   10.99857331
_cell_angle_alpha   148.26370450
_cell_angle_beta   132.36970442
_cell_angle_gamma   58.35239878
_symmetry_Int_Tables_number   1
_chemical_formula_structural   HfZrSc4Sn5
_chemical_formula_sum   'Hf2 Zr2 Sc8 Sn10'
_cell_volume   512.81692897
_cell_formula_units_Z   2
loop_
 _symmetry_equiv_pos_site_id
 _symmetry_equiv_pos_as_xyz
  1  'x, y, z'
loop_
 _atom_site_type_symbol
 _atom_site_label
 _atom_site_symmetry_multiplicity
 _atom_site_fract_x
 _atom_site_fract_y
 _atom_site_fract_z
 _atom_site_occupancy
  Hf  Hf0  1  0.691560  0.941560  0.250000  1
  Hf  Hf1  1  0.308440  0.058440  0.750000  1
  Zr  Zr2  1  0.308324  0.558324  0.250000  1
  Zr  Zr3  1  0.691676  0.441676  0.750000  1
  Sc  Sc4  1  0.676018  0.436376  0.239411  1
  Sc  Sc5  1  0.323982  0.563624  0.760589  1
  Sc  Sc6  1  0.196967  0.936607  0.260589  1
  Sc  Sc7  1  0.803033  0.063393  0.739411  1
  Sc  Sc8  1  0.258907  0.143474  0.115373  1
  Sc  Sc9  1  0.741093  0.856526  0.884627  1
  Sc  Sc10  1  0.028100  0.643534  0.384627  1
  Sc  Sc11  1  0.971900  0.356466  0.615373  1
  Sn  Sn12  1  0.593931  0.289682  0.301545  1
  Sn  Sn13  1  0.406069  0.710318  0.698455  1
  Sn  Sn14  1  0.988138  0.792386  0.198455  1
  Sn  Sn15  1  0.011862  0.207614  0.801545  1
  Sn  Sn16  1  0.000087  0.250087  0.250000  1
  Sn  Sn17  1  0.999913  0.749913  0.750000  1
  Sn  Sn18  1  0.469737  0.069028  0.399265  1
  Sn  Sn19  1  0.530263  0.930972  0.600735  1
  Sn  Sn20  1  0.669763  0.570471  0.100735  1
  Sn  Sn21  1  0.330237  0.429529  0.899265  1
