# generated using pymatgen
data_Lu5(Tl2Rh)2
_symmetry_space_group_name_H-M   'P 1'
_cell_length_a   3.54531700
_cell_length_b   8.02549800
_cell_length_c   18.22097100
_cell_angle_alpha   90.00000000
_cell_angle_beta   90.00000000
_cell_angle_gamma   90.00000000
_symmetry_Int_Tables_number   1
_chemical_formula_structural   Lu5(Tl2Rh)2
_chemical_formula_sum   'Lu10 Tl8 Rh4'
_cell_volume   518.44009426
_cell_formula_units_Z   2
loop_
 _symmetry_equiv_pos_site_id
 _symmetry_equiv_pos_as_xyz
  1  'x, y, z'
loop_
 _atom_site_type_symbol
 _atom_site_label
 _atom_site_symmetry_multiplicity
 _atom_site_fract_x
 _atom_site_fract_y
 _atom_site_fract_z
 _atom_site_occupancy
  Lu  Lu0  1  0.000000  0.884925  0.089072  1
  Lu  Lu1  1  0.000000  0.754187  0.279143  1
  Lu  Lu2  1  0.000000  0.745813  0.779143  1
  Lu  Lu3  1  0.000000  0.384925  0.410928  1
  Lu  Lu4  1  0.000000  0.115075  0.910928  1
  Lu  Lu5  1  0.000000  0.245813  0.720857  1
  Lu  Lu6  1  0.000000  0.500000  0.000000  1
  Lu  Lu7  1  0.000000  0.254187  0.220857  1
  Lu  Lu8  1  0.000000  0.615075  0.589072  1
  Lu  Lu9  1  0.000000  0.000000  0.500000  1
  Tl  Tl10  1  0.500000  0.205465  0.064368  1
  Tl  Tl11  1  0.500000  0.424379  0.850840  1
  Tl  Tl12  1  0.500000  0.575621  0.149160  1
  Tl  Tl13  1  0.500000  0.075621  0.350840  1
  Tl  Tl14  1  0.500000  0.924379  0.649160  1
  Tl  Tl15  1  0.500000  0.794535  0.935632  1
  Tl  Tl16  1  0.500000  0.705465  0.435632  1
  Tl  Tl17  1  0.500000  0.294535  0.564368  1
  Rh  Rh18  1  0.500000  0.973153  0.195940  1
  Rh  Rh19  1  0.500000  0.026847  0.804060  1
  Rh  Rh20  1  0.500000  0.526847  0.695940  1
  Rh  Rh21  1  0.500000  0.473153  0.304060  1
