# generated using pymatgen
data_Sc3CdIr2
_symmetry_space_group_name_H-M   'P 1'
_cell_length_a   3.19631300
_cell_length_b   3.19631300
_cell_length_c   11.02574100
_cell_angle_alpha   90.00000000
_cell_angle_beta   90.00000000
_cell_angle_gamma   90.00000000
_symmetry_Int_Tables_number   1
_chemical_formula_structural   Sc3CdIr2
_chemical_formula_sum   'Sc3 Cd1 Ir2'
_cell_volume   112.64356552
_cell_formula_units_Z   1
loop_
 _symmetry_equiv_pos_site_id
 _symmetry_equiv_pos_as_xyz
  1  'x, y, z'
loop_
 _atom_site_type_symbol
 _atom_site_label
 _atom_site_symmetry_multiplicity
 _atom_site_fract_x
 _atom_site_fract_y
 _atom_site_fract_z
 _atom_site_occupancy
  Sc  Sc0  1  0.000000  0.000000  0.000000  1
  Sc  Sc1  1  0.000000  0.000000  0.702529  1
  Sc  Sc2  1  0.000000  0.000000  0.297471  1
  Cd  Cd3  1  0.500000  0.500000  0.500000  1
  Ir  Ir4  1  0.500000  0.500000  0.847229  1
  Ir  Ir5  1  0.500000  0.500000  0.152771  1
