# generated using pymatgen
data_PuP2NCl12
_symmetry_space_group_name_H-M   'P 1'
_cell_length_a   8.45982592
_cell_length_b   8.45924496
_cell_length_c   16.27315447
_cell_angle_alpha   78.44118160
_cell_angle_beta   78.44456638
_cell_angle_gamma   66.16980020
_symmetry_Int_Tables_number   1
_chemical_formula_structural   PuP2NCl12
_chemical_formula_sum   'Pu2 P4 N2 Cl24'
_cell_volume   1034.38233786
_cell_formula_units_Z   2
loop_
 _symmetry_equiv_pos_site_id
 _symmetry_equiv_pos_as_xyz
  1  'x, y, z'
loop_
 _atom_site_type_symbol
 _atom_site_label
 _atom_site_symmetry_multiplicity
 _atom_site_fract_x
 _atom_site_fract_y
 _atom_site_fract_z
 _atom_site_occupancy
  Pu  Pu0  1  0.000000  0.000000  0.500000  1
  Pu  Pu1  1  0.000000  0.000000  0.000000  1
  P  P2  1  0.460705  0.322100  0.770520  1
  P  P3  1  0.677902  0.539250  0.729491  1
  P  P4  1  0.322098  0.460750  0.270509  1
  P  P5  1  0.539295  0.677900  0.229480  1
  N  N6  1  0.618168  0.381874  0.749996  1
  N  N7  1  0.381832  0.618126  0.250004  1
  Cl  Cl8  1  0.692930  0.226093  0.009103  1
  Cl  Cl9  1  0.778649  0.893055  0.471218  1
  Cl  Cl10  1  0.307070  0.773907  0.990897  1
  Cl  Cl11  1  0.896880  0.483017  0.650831  1
  Cl  Cl12  1  0.243355  0.494116  0.823377  1
  Cl  Cl13  1  0.516989  0.103117  0.849164  1
  Cl  Cl14  1  0.107019  0.221403  0.028806  1
  Cl  Cl15  1  0.483011  0.896883  0.150836  1
  Cl  Cl16  1  0.951397  0.906168  0.156695  1
  Cl  Cl17  1  0.773917  0.307045  0.490914  1
  Cl  Cl18  1  0.906131  0.951414  0.656687  1
  Cl  Cl19  1  0.221351  0.106945  0.528782  1
  Cl  Cl20  1  0.892981  0.778597  0.971194  1
  Cl  Cl21  1  0.274721  0.402673  0.168253  1
  Cl  Cl22  1  0.597312  0.725280  0.331748  1
  Cl  Cl23  1  0.093869  0.048586  0.343313  1
  Cl  Cl24  1  0.725279  0.597327  0.831747  1
  Cl  Cl25  1  0.226083  0.692955  0.509086  1
  Cl  Cl26  1  0.048603  0.093832  0.843305  1
  Cl  Cl27  1  0.103120  0.516983  0.349169  1
  Cl  Cl28  1  0.756645  0.505884  0.176623  1
  Cl  Cl29  1  0.505892  0.756635  0.676628  1
  Cl  Cl30  1  0.402688  0.274720  0.668252  1
  Cl  Cl31  1  0.494108  0.243365  0.323372  1
