# generated using pymatgen
data_YTmSc3Pt4
_symmetry_space_group_name_H-M   'P 1'
_cell_length_a   7.33356565
_cell_length_b   7.34066318
_cell_length_c   13.86314393
_cell_angle_alpha   90.00264948
_cell_angle_beta   90.04178373
_cell_angle_gamma   90.02464466
_symmetry_Int_Tables_number   1
_chemical_formula_structural   YTmSc3Pt4
_chemical_formula_sum   'Y4 Tm4 Sc12 Pt16'
_cell_volume   746.29762115
_cell_formula_units_Z   4
loop_
 _symmetry_equiv_pos_site_id
 _symmetry_equiv_pos_as_xyz
  1  'x, y, z'
loop_
 _atom_site_type_symbol
 _atom_site_label
 _atom_site_symmetry_multiplicity
 _atom_site_fract_x
 _atom_site_fract_y
 _atom_site_fract_z
 _atom_site_occupancy
  Y  Y0  1  0.005450  0.177100  0.094490  1
  Y  Y1  1  0.993909  0.823212  0.905557  1
  Y  Y2  1  0.494446  0.675565  0.906485  1
  Y  Y3  1  0.993798  0.824307  0.593396  1
  Tm  Tm4  1  0.506176  0.321923  0.095229  1
  Tm  Tm5  1  0.006819  0.178197  0.404821  1
  Tm  Tm6  1  0.506205  0.322967  0.405737  1
  Tm  Tm7  1  0.493093  0.676661  0.594268  1
  Sc  Sc8  1  0.166707  0.499472  0.749423  1
  Sc  Sc9  1  0.833160  0.500468  0.250540  1
  Sc  Sc10  1  0.333383  0.999753  0.250518  1
  Sc  Sc11  1  0.666480  0.000316  0.749457  1
  Sc  Sc12  1  0.334518  0.164986  0.623485  1
  Sc  Sc13  1  0.666118  0.834969  0.376634  1
  Sc  Sc14  1  0.167300  0.663950  0.376167  1
  Sc  Sc15  1  0.666271  0.835511  0.124569  1
  Sc  Sc16  1  0.833937  0.335170  0.623120  1
  Sc  Sc17  1  0.334945  0.165416  0.876156  1
  Sc  Sc18  1  0.833836  0.335722  0.875685  1
  Sc  Sc19  1  0.166841  0.664261  0.124212  1
  Pt  Pt20  1  0.032210  0.124989  0.749821  1
  Pt  Pt21  1  0.968418  0.876886  0.251277  1
  Pt  Pt22  1  0.469912  0.622116  0.250180  1
  Pt  Pt23  1  0.530688  0.376041  0.748791  1
  Pt  Pt24  1  0.298134  0.855233  0.748346  1
  Pt  Pt25  1  0.701594  0.146350  0.251311  1
  Pt  Pt26  1  0.205500  0.354304  0.251715  1
  Pt  Pt27  1  0.794272  0.644075  0.748687  1
  Pt  Pt28  1  0.176723  0.456214  0.541551  1
  Pt  Pt29  1  0.823582  0.539473  0.456628  1
  Pt  Pt30  1  0.324496  0.959465  0.456529  1
  Pt  Pt31  1  0.822998  0.541222  0.043420  1
  Pt  Pt32  1  0.673127  0.043577  0.541941  1
  Pt  Pt33  1  0.174617  0.455855  0.958079  1
  Pt  Pt34  1  0.673694  0.045325  0.957985  1
  Pt  Pt35  1  0.326644  0.958950  0.043792  1
