# generated using pymatgen
data_Th2CS
_symmetry_space_group_name_H-M   'P 1'
_cell_length_a   7.00931451
_cell_length_b   7.00931426
_cell_length_c   7.00931460
_cell_angle_alpha   32.01200278
_cell_angle_beta   32.01200809
_cell_angle_gamma   32.01199966
_symmetry_Int_Tables_number   1
_chemical_formula_structural   Th2CS
_chemical_formula_sum   'Th2 C1 S1'
_cell_volume   85.98047144
_cell_formula_units_Z   1
loop_
 _symmetry_equiv_pos_site_id
 _symmetry_equiv_pos_as_xyz
  1  'x, y, z'
loop_
 _atom_site_type_symbol
 _atom_site_label
 _atom_site_symmetry_multiplicity
 _atom_site_fract_x
 _atom_site_fract_y
 _atom_site_fract_z
 _atom_site_occupancy
  Th  Th0  1  0.262577  0.262577  0.262577  1
  Th  Th1  1  0.737423  0.737423  0.737423  1
  C  C2  1  0.000000  0.000000  0.000000  1
  S  S3  1  0.500000  0.500000  0.500000  1
