# generated using pymatgen
data_Tb7Co6Sn22Au
_symmetry_space_group_name_H-M   'P 1'
_cell_length_a   9.69126700
_cell_length_b   9.69126689
_cell_length_c   9.93117200
_cell_angle_alpha   90.00000000
_cell_angle_beta   90.00000000
_cell_angle_gamma   120.00000379
_symmetry_Int_Tables_number   1
_chemical_formula_structural   Tb7Co6Sn22Au
_chemical_formula_sum   'Tb7 Co6 Sn22 Au1'
_cell_volume   807.77839137
_cell_formula_units_Z   1
loop_
 _symmetry_equiv_pos_site_id
 _symmetry_equiv_pos_as_xyz
  1  'x, y, z'
loop_
 _atom_site_type_symbol
 _atom_site_label
 _atom_site_symmetry_multiplicity
 _atom_site_fract_x
 _atom_site_fract_y
 _atom_site_fract_z
 _atom_site_occupancy
  Tb  Tb0  1  0.000000  0.000000  0.000000  1
  Tb  Tb1  1  0.478634  0.521366  0.306104  1
  Tb  Tb2  1  0.521366  0.478634  0.693896  1
  Tb  Tb3  1  0.478634  0.957268  0.306104  1
  Tb  Tb4  1  0.521366  0.042732  0.693896  1
  Tb  Tb5  1  0.042732  0.521366  0.306104  1
  Tb  Tb6  1  0.957268  0.478634  0.693896  1
  Co  Co7  1  0.832204  0.167796  0.196201  1
  Co  Co8  1  0.167796  0.832204  0.803799  1
  Co  Co9  1  0.832204  0.664408  0.196201  1
  Co  Co10  1  0.167796  0.335592  0.803799  1
  Co  Co11  1  0.335592  0.167796  0.196201  1
  Co  Co12  1  0.664408  0.832204  0.803799  1
  Sn  Sn13  1  0.346550  0.000000  0.000000  1
  Sn  Sn14  1  0.653450  0.000000  0.000000  1
  Sn  Sn15  1  0.000000  0.346550  0.000000  1
  Sn  Sn16  1  0.000000  0.653450  0.000000  1
  Sn  Sn17  1  0.653450  0.653450  0.000000  1
  Sn  Sn18  1  0.346550  0.346550  0.000000  1
  Sn  Sn19  1  0.333333  0.666667  0.816471  1
  Sn  Sn20  1  0.666667  0.333333  0.183529  1
  Sn  Sn21  1  0.783434  0.216566  0.452751  1
  Sn  Sn22  1  0.216566  0.783434  0.547249  1
  Sn  Sn23  1  0.783434  0.566868  0.452751  1
  Sn  Sn24  1  0.216566  0.433132  0.547249  1
  Sn  Sn25  1  0.433132  0.216566  0.452751  1
  Sn  Sn26  1  0.566868  0.783434  0.547249  1
  Sn  Sn27  1  0.333333  0.666667  0.117607  1
  Sn  Sn28  1  0.666667  0.333333  0.882393  1
  Sn  Sn29  1  0.113088  0.886912  0.278416  1
  Sn  Sn30  1  0.886912  0.113088  0.721584  1
  Sn  Sn31  1  0.113088  0.226178  0.278416  1
  Sn  Sn32  1  0.886912  0.773822  0.721584  1
  Sn  Sn33  1  0.773822  0.886912  0.278416  1
  Sn  Sn34  1  0.226178  0.113088  0.721584  1
  Au  Au35  1  0.000000  0.000000  0.500000  1
