# generated using pymatgen
data_Tm3Zn2Cd3Pt
_symmetry_space_group_name_H-M   'P 1'
_cell_length_a   7.73155500
_cell_length_b   7.73155371
_cell_length_c   3.75774400
_cell_angle_alpha   90.00000000
_cell_angle_beta   90.00000000
_cell_angle_gamma   119.99998411
_symmetry_Int_Tables_number   1
_chemical_formula_structural   Tm3Zn2Cd3Pt
_chemical_formula_sum   'Tm3 Zn2 Cd3 Pt1'
_cell_volume   194.53220900
_cell_formula_units_Z   1
loop_
 _symmetry_equiv_pos_site_id
 _symmetry_equiv_pos_as_xyz
  1  'x, y, z'
loop_
 _atom_site_type_symbol
 _atom_site_label
 _atom_site_symmetry_multiplicity
 _atom_site_fract_x
 _atom_site_fract_y
 _atom_site_fract_z
 _atom_site_occupancy
  Tm  Tm0  1  0.397573  0.421902  0.000000  1
  Tm  Tm1  1  0.578098  0.975671  0.000000  1
  Tm  Tm2  1  0.024329  0.602427  0.000000  1
  Zn  Zn3  1  0.000000  0.000000  0.000000  1
  Zn  Zn4  1  0.666667  0.333333  0.500000  1
  Cd  Cd5  1  0.745063  0.733392  0.500000  1
  Cd  Cd6  1  0.266608  0.011671  0.500000  1
  Cd  Cd7  1  0.988329  0.254937  0.500000  1
  Pt  Pt8  1  0.333333  0.666667  0.500000  1
