# generated using pymatgen
data_Mn7SnPd16
_symmetry_space_group_name_H-M   'P 1'
_cell_length_a   4.04086801
_cell_length_b   5.56145128
_cell_length_c   16.56036800
_cell_angle_alpha   91.47599966
_cell_angle_beta   89.99534926
_cell_angle_gamma   90.00267477
_symmetry_Int_Tables_number   1
_chemical_formula_structural   Mn7SnPd16
_chemical_formula_sum   'Mn7 Sn1 Pd16'
_cell_volume   372.03916603
_cell_formula_units_Z   1
loop_
 _symmetry_equiv_pos_site_id
 _symmetry_equiv_pos_as_xyz
  1  'x, y, z'
loop_
 _atom_site_type_symbol
 _atom_site_label
 _atom_site_symmetry_multiplicity
 _atom_site_fract_x
 _atom_site_fract_y
 _atom_site_fract_z
 _atom_site_occupancy
  Mn  Mn0  1  0.525136  0.340743  0.048507  1
  Mn  Mn1  1  0.524963  0.841237  0.209877  1
  Mn  Mn2  1  0.525907  0.343380  0.367891  1
  Mn  Mn3  1  0.026425  0.040174  0.456165  1
  Mn  Mn4  1  0.526876  0.736546  0.544405  1
  Mn  Mn5  1  0.527053  0.237287  0.702384  1
  Mn  Mn6  1  0.526233  0.736781  0.863797  1
  Sn  Sn7  1  0.025903  0.038916  0.956041  1
  Pd  Pd8  1  0.525224  0.825997  0.036986  1
  Pd  Pd9  1  0.024873  0.089425  0.122862  1
  Pd  Pd10  1  0.024842  0.590022  0.124532  1
  Pd  Pd11  1  0.524942  0.339001  0.207842  1
  Pd  Pd12  1  0.025292  0.596367  0.290872  1
  Pd  Pd13  1  0.025349  0.095467  0.294918  1
  Pd  Pd14  1  0.525977  0.837125  0.381559  1
  Pd  Pd15  1  0.026500  0.540147  0.456140  1
  Pd  Pd16  1  0.526756  0.242850  0.530665  1
  Pd  Pd17  1  0.027065  0.983816  0.617308  1
  Pd  Pd18  1  0.027031  0.483064  0.621361  1
  Pd  Pd19  1  0.526913  0.739483  0.704481  1
  Pd  Pd20  1  0.026612  0.487985  0.787830  1
  Pd  Pd21  1  0.026708  0.988493  0.789486  1
  Pd  Pd22  1  0.526157  0.251821  0.875438  1
  Pd  Pd23  1  0.025599  0.538834  0.956193  1
