# generated using pymatgen
data_Cs2NaSbS4
_symmetry_space_group_name_H-M   'P 1'
_cell_length_a   7.32623001
_cell_length_b   7.55119493
_cell_length_c   11.93899065
_cell_angle_alpha   73.02594546
_cell_angle_beta   72.34432958
_cell_angle_gamma   67.86317760
_symmetry_Int_Tables_number   1
_chemical_formula_structural   Cs2NaSbS4
_chemical_formula_sum   'Cs4 Na2 Sb2 S8'
_cell_volume   571.05164710
_cell_formula_units_Z   2
loop_
 _symmetry_equiv_pos_site_id
 _symmetry_equiv_pos_as_xyz
  1  'x, y, z'
loop_
 _atom_site_type_symbol
 _atom_site_label
 _atom_site_symmetry_multiplicity
 _atom_site_fract_x
 _atom_site_fract_y
 _atom_site_fract_z
 _atom_site_occupancy
  Cs  Cs0  1  0.740037  0.773227  0.594448  1
  Cs  Cs1  1  0.259963  0.226773  0.405552  1
  Cs  Cs2  1  0.761564  0.515853  0.194803  1
  Cs  Cs3  1  0.238436  0.484147  0.805197  1
  Na  Na4  1  0.645106  0.093142  0.062713  1
  Na  Na5  1  0.354894  0.906858  0.937287  1
  Sb  Sb6  1  0.873614  0.147520  0.759586  1
  Sb  Sb7  1  0.126386  0.852480  0.240414  1
  S  S8  1  0.266813  0.607816  0.124001  1
  S  S9  1  0.768939  0.950314  0.279559  1
  S  S10  1  0.752514  0.272457  0.582425  1
  S  S11  1  0.733187  0.392184  0.875999  1
  S  S12  1  0.226742  0.128940  0.123839  1
  S  S13  1  0.247486  0.727543  0.417575  1
  S  S14  1  0.773258  0.871060  0.876161  1
  S  S15  1  0.231061  0.049686  0.720441  1
