# generated using pymatgen
data_TbEr5(SiPd5)2
_symmetry_space_group_name_H-M   'P 1'
_cell_length_a   8.20913033
_cell_length_b   8.20913057
_cell_length_c   8.20913000
_cell_angle_alpha   127.67455249
_cell_angle_beta   125.50126672
_cell_angle_gamma   78.93652037
_symmetry_Int_Tables_number   1
_chemical_formula_structural   TbEr5(SiPd5)2
_chemical_formula_sum   'Tb1 Er5 Si2 Pd10'
_cell_volume   344.86892465
_cell_formula_units_Z   1
loop_
 _symmetry_equiv_pos_site_id
 _symmetry_equiv_pos_as_xyz
  1  'x, y, z'
loop_
 _atom_site_type_symbol
 _atom_site_label
 _atom_site_symmetry_multiplicity
 _atom_site_fract_x
 _atom_site_fract_y
 _atom_site_fract_z
 _atom_site_occupancy
  Tb  Tb0  1  0.612298  0.750000  0.862298  1
  Er  Er1  1  0.225651  0.449295  0.776357  1
  Er  Er2  1  0.773557  0.549046  0.224511  1
  Er  Er3  1  0.827062  0.050705  0.776357  1
  Er  Er4  1  0.175466  0.950954  0.224511  1
  Er  Er5  1  0.390898  0.250000  0.140898  1
  Si  Si6  1  0.781165  0.250000  0.531165  1
  Si  Si7  1  0.218813  0.750000  0.468813  1
  Pd  Pd8  1  0.167339  0.398815  0.354588  1
  Pd  Pd9  1  0.832515  0.188873  0.231878  1
  Pd  Pd10  1  0.455773  0.101185  0.768525  1
  Pd  Pd11  1  0.543005  0.311127  0.643642  1
  Pd  Pd12  1  0.998911  0.501752  0.000663  1
  Pd  Pd13  1  0.998911  0.998248  0.497158  1
  Pd  Pd14  1  0.455773  0.687248  0.354588  1
  Pd  Pd15  1  0.543005  0.899364  0.231878  1
  Pd  Pd16  1  0.167339  0.812752  0.768525  1
  Pd  Pd17  1  0.832515  0.600636  0.643642  1
