# generated using pymatgen
data_PrDy6Sn23Rh6
_symmetry_space_group_name_H-M   'P 1'
_cell_length_a   9.87540500
_cell_length_b   9.87540596
_cell_length_c   10.12693600
_cell_angle_alpha   90.00000000
_cell_angle_beta   90.00000000
_cell_angle_gamma   119.99999343
_symmetry_Int_Tables_number   1
_chemical_formula_structural   PrDy6Sn23Rh6
_chemical_formula_sum   'Pr1 Dy6 Sn23 Rh6'
_cell_volume   855.30025007
_cell_formula_units_Z   1
loop_
 _symmetry_equiv_pos_site_id
 _symmetry_equiv_pos_as_xyz
  1  'x, y, z'
loop_
 _atom_site_type_symbol
 _atom_site_label
 _atom_site_symmetry_multiplicity
 _atom_site_fract_x
 _atom_site_fract_y
 _atom_site_fract_z
 _atom_site_occupancy
  Pr  Pr0  1  0.000000  0.000000  0.000000  1
  Dy  Dy1  1  0.478956  0.521044  0.307768  1
  Dy  Dy2  1  0.521044  0.478956  0.692232  1
  Dy  Dy3  1  0.478956  0.957911  0.307768  1
  Dy  Dy4  1  0.521044  0.042089  0.692232  1
  Dy  Dy5  1  0.042089  0.521044  0.307768  1
  Dy  Dy6  1  0.957911  0.478956  0.692232  1
  Sn  Sn7  1  0.352210  0.000000  0.000000  1
  Sn  Sn8  1  0.647790  0.000000  0.000000  1
  Sn  Sn9  1  0.000000  0.352210  0.000000  1
  Sn  Sn10  1  0.000000  0.647790  0.000000  1
  Sn  Sn11  1  0.647790  0.647790  0.000000  1
  Sn  Sn12  1  0.352210  0.352210  0.000000  1
  Sn  Sn13  1  0.333333  0.666667  0.819218  1
  Sn  Sn14  1  0.666667  0.333333  0.180782  1
  Sn  Sn15  1  0.000000  0.000000  0.500000  1
  Sn  Sn16  1  0.778441  0.221559  0.455256  1
  Sn  Sn17  1  0.221559  0.778441  0.544744  1
  Sn  Sn18  1  0.778441  0.556882  0.455256  1
  Sn  Sn19  1  0.221559  0.443118  0.544744  1
  Sn  Sn20  1  0.443118  0.221559  0.455256  1
  Sn  Sn21  1  0.556882  0.778441  0.544744  1
  Sn  Sn22  1  0.333333  0.666667  0.120053  1
  Sn  Sn23  1  0.666667  0.333333  0.879947  1
  Sn  Sn24  1  0.119847  0.880153  0.281601  1
  Sn  Sn25  1  0.880153  0.119847  0.718399  1
  Sn  Sn26  1  0.119847  0.239694  0.281601  1
  Sn  Sn27  1  0.880153  0.760306  0.718399  1
  Sn  Sn28  1  0.760306  0.880153  0.281601  1
  Sn  Sn29  1  0.239694  0.119847  0.718399  1
  Rh  Rh30  1  0.830903  0.169097  0.198754  1
  Rh  Rh31  1  0.169097  0.830903  0.801246  1
  Rh  Rh32  1  0.830903  0.661805  0.198754  1
  Rh  Rh33  1  0.169097  0.338195  0.801246  1
  Rh  Rh34  1  0.338195  0.169097  0.198754  1
  Rh  Rh35  1  0.661805  0.830903  0.801246  1
