# generated using pymatgen
data_Na2MnI4
_symmetry_space_group_name_H-M   'P 1'
_cell_length_a   7.46747500
_cell_length_b   9.42598000
_cell_length_c   16.01818400
_cell_angle_alpha   90.00000000
_cell_angle_beta   90.00000000
_cell_angle_gamma   90.00000000
_symmetry_Int_Tables_number   1
_chemical_formula_structural   Na2MnI4
_chemical_formula_sum   'Na8 Mn4 I16'
_cell_volume   1127.49226031
_cell_formula_units_Z   4
loop_
 _symmetry_equiv_pos_site_id
 _symmetry_equiv_pos_as_xyz
  1  'x, y, z'
loop_
 _atom_site_type_symbol
 _atom_site_label
 _atom_site_symmetry_multiplicity
 _atom_site_fract_x
 _atom_site_fract_y
 _atom_site_fract_z
 _atom_site_occupancy
  Na  Na0  1  0.000000  0.000000  0.000000  1
  Na  Na1  1  0.500000  0.000000  0.500000  1
  Na  Na2  1  0.000000  0.500000  0.000000  1
  Na  Na3  1  0.500000  0.500000  0.500000  1
  Na  Na4  1  0.007534  0.750000  0.269239  1
  Na  Na5  1  0.507534  0.250000  0.230761  1
  Na  Na6  1  0.992466  0.250000  0.730761  1
  Na  Na7  1  0.492466  0.750000  0.769239  1
  Mn  Mn8  1  0.595772  0.750000  0.090970  1
  Mn  Mn9  1  0.095772  0.250000  0.409030  1
  Mn  Mn10  1  0.404228  0.250000  0.909030  1
  Mn  Mn11  1  0.904228  0.750000  0.590970  1
  I  I12  1  0.235877  0.750000  0.092395  1
  I  I13  1  0.735877  0.250000  0.407605  1
  I  I14  1  0.764123  0.250000  0.907605  1
  I  I15  1  0.264123  0.750000  0.592395  1
  I  I16  1  0.761119  0.750000  0.434831  1
  I  I17  1  0.261119  0.250000  0.065169  1
  I  I18  1  0.238881  0.250000  0.565169  1
  I  I19  1  0.738881  0.750000  0.934831  1
  I  I20  1  0.745750  0.977545  0.167245  1
  I  I21  1  0.245750  0.022455  0.332755  1
  I  I22  1  0.254250  0.477545  0.832755  1
  I  I23  1  0.754250  0.522455  0.667245  1
  I  I24  1  0.254250  0.022455  0.832755  1
  I  I25  1  0.754250  0.977545  0.667245  1
  I  I26  1  0.745750  0.522455  0.167245  1
  I  I27  1  0.245750  0.477545  0.332755  1
