# generated using pymatgen
data_CeErPa(SnRu)3
_symmetry_space_group_name_H-M   'P 1'
_cell_length_a   7.14886147
_cell_length_b   7.17592250
_cell_length_c   4.14558800
_cell_angle_alpha   90.00000000
_cell_angle_beta   90.00000000
_cell_angle_gamma   114.10569613
_symmetry_Int_Tables_number   1
_chemical_formula_structural   CeErPa(SnRu)3
_chemical_formula_sum   'Ce1 Er1 Pa1 Sn3 Ru3'
_cell_volume   194.12136475
_cell_formula_units_Z   1
loop_
 _symmetry_equiv_pos_site_id
 _symmetry_equiv_pos_as_xyz
  1  'x, y, z'
loop_
 _atom_site_type_symbol
 _atom_site_label
 _atom_site_symmetry_multiplicity
 _atom_site_fract_x
 _atom_site_fract_y
 _atom_site_fract_z
 _atom_site_occupancy
  Ce  Ce0  1  0.013012  0.600161  0.000000  1
  Er  Er1  1  0.601987  0.014524  0.000000  1
  Pa  Pa2  1  0.408168  0.407095  0.000000  1
  Sn  Sn3  1  0.979503  0.250557  0.500000  1
  Sn  Sn4  1  0.761661  0.770383  0.500000  1
  Sn  Sn5  1  0.262531  0.986774  0.500000  1
  Ru  Ru6  1  0.011949  0.004571  0.000000  1
  Ru  Ru7  1  0.621608  0.353336  0.500000  1
  Ru  Ru8  1  0.339580  0.612600  0.500000  1
