# generated using pymatgen
data_YbCd(S2O7)2
_symmetry_space_group_name_H-M   'P 1'
_cell_length_a   5.27889447
_cell_length_b   7.40927312
_cell_length_c   8.98358541
_cell_angle_alpha   92.71321660
_cell_angle_beta   94.81446645
_cell_angle_gamma   107.27891302
_symmetry_Int_Tables_number   1
_chemical_formula_structural   YbCd(S2O7)2
_chemical_formula_sum   'Yb1 Cd1 S4 O14'
_cell_volume   333.36606414
_cell_formula_units_Z   1
loop_
 _symmetry_equiv_pos_site_id
 _symmetry_equiv_pos_as_xyz
  1  'x, y, z'
loop_
 _atom_site_type_symbol
 _atom_site_label
 _atom_site_symmetry_multiplicity
 _atom_site_fract_x
 _atom_site_fract_y
 _atom_site_fract_z
 _atom_site_occupancy
  Yb  Yb0  1  0.500000  0.000000  0.500000  1
  Cd  Cd1  1  0.000000  0.500000  0.000000  1
  S  S2  1  0.502269  0.642070  0.768787  1
  S  S3  1  0.497731  0.357930  0.231213  1
  S  S4  1  0.140350  0.257583  0.693198  1
  S  S5  1  0.859650  0.742417  0.306802  1
  O  O6  1  0.715106  0.560709  0.810100  1
  O  O7  1  0.284894  0.439291  0.189900  1
  O  O8  1  0.361172  0.683377  0.892962  1
  O  O9  1  0.638828  0.316623  0.107038  1
  O  O10  1  0.575945  0.795625  0.671104  1
  O  O11  1  0.424055  0.204375  0.328896  1
  O  O12  1  0.278711  0.479185  0.652594  1
  O  O13  1  0.721289  0.520815  0.347406  1
  O  O14  1  0.918738  0.198815  0.576147  1
  O  O15  1  0.081262  0.801185  0.423853  1
  O  O16  1  0.340652  0.160838  0.678968  1
  O  O17  1  0.659348  0.839162  0.321032  1
  O  O18  1  0.063935  0.265371  0.845468  1
  O  O19  1  0.936065  0.734629  0.154532  1
