# generated using pymatgen
data_CePaCo3Si5
_symmetry_space_group_name_H-M   'P 1'
_cell_length_a   7.89812998
_cell_length_b   7.92639058
_cell_length_c   7.92638946
_cell_angle_alpha   138.21693745
_cell_angle_beta   104.80981605
_cell_angle_gamma   89.97854617
_symmetry_Int_Tables_number   1
_chemical_formula_structural   CePaCo3Si5
_chemical_formula_sum   'Ce2 Pa2 Co6 Si10'
_cell_volume   305.39861249
_cell_formula_units_Z   2
loop_
 _symmetry_equiv_pos_site_id
 _symmetry_equiv_pos_as_xyz
  1  'x, y, z'
loop_
 _atom_site_type_symbol
 _atom_site_label
 _atom_site_symmetry_multiplicity
 _atom_site_fract_x
 _atom_site_fract_y
 _atom_site_fract_z
 _atom_site_occupancy
  Ce  Ce0  1  0.396613  0.132021  0.264592  1
  Ce  Ce1  1  0.603387  0.867979  0.735408  1
  Pa  Pa2  1  0.867365  0.631994  0.235370  1
  Pa  Pa3  1  0.132635  0.368006  0.764630  1
  Co  Co4  1  0.000000  0.746899  0.746899  1
  Co  Co5  1  0.000000  0.253101  0.253101  1
  Co  Co6  1  0.239810  0.859641  0.380169  1
  Co  Co7  1  0.760190  0.140359  0.619831  1
  Co  Co8  1  0.480010  0.366001  0.114008  1
  Co  Co9  1  0.519990  0.633999  0.885992  1
  Si  Si10  1  0.500000  0.753404  0.253404  1
  Si  Si11  1  0.500000  0.246596  0.746596  1
  Si  Si12  1  0.234083  0.984505  0.750856  1
  Si  Si13  1  0.765917  0.516773  0.750421  1
  Si  Si14  1  0.765917  0.015495  0.249144  1
  Si  Si15  1  0.234083  0.483227  0.249579  1
  Si  Si16  1  0.043198  0.894972  0.148225  1
  Si  Si17  1  0.956802  0.105028  0.851775  1
  Si  Si18  1  0.743691  0.394455  0.349236  1
  Si  Si19  1  0.256309  0.605545  0.650764  1
