# generated using pymatgen
data_Tb5IrOs
_symmetry_space_group_name_H-M   'P 1'
_cell_length_a   6.47337077
_cell_length_b   7.28602110
_cell_length_c   8.53362656
_cell_angle_alpha   96.54619882
_cell_angle_beta   112.28946318
_cell_angle_gamma   89.99999731
_symmetry_Int_Tables_number   1
_chemical_formula_structural   Tb5IrOs
_chemical_formula_sum   'Tb10 Ir2 Os2'
_cell_volume   369.57766144
_cell_formula_units_Z   2
loop_
 _symmetry_equiv_pos_site_id
 _symmetry_equiv_pos_as_xyz
  1  'x, y, z'
loop_
 _atom_site_type_symbol
 _atom_site_label
 _atom_site_symmetry_multiplicity
 _atom_site_fract_x
 _atom_site_fract_y
 _atom_site_fract_z
 _atom_site_occupancy
  Tb  Tb0  1  0.970352  0.916220  0.180888  1
  Tb  Tb1  1  0.789464  0.583780  0.819112  1
  Tb  Tb2  1  0.026318  0.081577  0.816422  1
  Tb  Tb3  1  0.209896  0.418423  0.183578  1
  Tb  Tb4  1  0.654182  0.817224  0.440692  1
  Tb  Tb5  1  0.213491  0.682776  0.559308  1
  Tb  Tb6  1  0.347658  0.181495  0.561352  1
  Tb  Tb7  1  0.786306  0.318505  0.438648  1
  Tb  Tb8  1  0.429165  0.750000  0.000000  1
  Tb  Tb9  1  0.573636  0.250000  0.000000  1
  Ir  Ir10  1  0.173319  0.425861  0.779364  1
  Ir  Ir11  1  0.393955  0.074139  0.220636  1
  Os  Os12  1  0.825752  0.572070  0.219247  1
  Os  Os13  1  0.606505  0.927930  0.780753  1
