# generated using pymatgen
data_KS2IO8
_symmetry_space_group_name_H-M   'P 1'
_cell_length_a   6.99153009
_cell_length_b   6.99153044
_cell_length_c   10.11117165
_cell_angle_alpha   65.78434260
_cell_angle_beta   65.78433913
_cell_angle_gamma   65.83968066
_symmetry_Int_Tables_number   1
_chemical_formula_structural   KS2IO8
_chemical_formula_sum   'K2 S4 I2 O16'
_cell_volume   393.45384744
_cell_formula_units_Z   2
loop_
 _symmetry_equiv_pos_site_id
 _symmetry_equiv_pos_as_xyz
  1  'x, y, z'
loop_
 _atom_site_type_symbol
 _atom_site_label
 _atom_site_symmetry_multiplicity
 _atom_site_fract_x
 _atom_site_fract_y
 _atom_site_fract_z
 _atom_site_occupancy
  K  K0  1  0.995936  0.004064  0.250000  1
  K  K1  1  0.004064  0.995936  0.750000  1
  S  S2  1  0.682729  0.722911  0.136461  1
  S  S3  1  0.277089  0.317271  0.363539  1
  S  S4  1  0.722911  0.682729  0.636461  1
  S  S5  1  0.317271  0.277089  0.863539  1
  I  I6  1  0.500000  0.500000  0.500000  1
  I  I7  1  0.500000  0.500000  0.000000  1
  O  O8  1  0.150728  0.545003  0.326827  1
  O  O9  1  0.479211  0.271724  0.222304  1
  O  O10  1  0.846832  0.835329  0.081956  1
  O  O11  1  0.391788  0.260695  0.483941  1
  O  O12  1  0.153168  0.164671  0.918044  1
  O  O13  1  0.164671  0.153168  0.418044  1
  O  O14  1  0.520789  0.728276  0.777696  1
  O  O15  1  0.260695  0.391788  0.983941  1
  O  O16  1  0.271724  0.479211  0.722304  1
  O  O17  1  0.739305  0.608212  0.016059  1
  O  O18  1  0.728276  0.520789  0.277696  1
  O  O19  1  0.849272  0.454997  0.673173  1
  O  O20  1  0.545003  0.150728  0.826827  1
  O  O21  1  0.454997  0.849272  0.173173  1
  O  O22  1  0.835329  0.846832  0.581956  1
  O  O23  1  0.608212  0.739305  0.516059  1
