# generated using pymatgen
data_Mg2Zn3Rh
_symmetry_space_group_name_H-M   'P 1'
_cell_length_a   5.16005895
_cell_length_b   5.28580663
_cell_length_c   8.32748000
_cell_angle_alpha   90.00000000
_cell_angle_beta   90.00000000
_cell_angle_gamma   120.80946099
_symmetry_Int_Tables_number   1
_chemical_formula_structural   Mg2Zn3Rh
_chemical_formula_sum   'Mg4 Zn6 Rh2'
_cell_volume   195.07861490
_cell_formula_units_Z   2
loop_
 _symmetry_equiv_pos_site_id
 _symmetry_equiv_pos_as_xyz
  1  'x, y, z'
loop_
 _atom_site_type_symbol
 _atom_site_label
 _atom_site_symmetry_multiplicity
 _atom_site_fract_x
 _atom_site_fract_y
 _atom_site_fract_z
 _atom_site_occupancy
  Mg  Mg0  1  0.325381  0.656688  0.065948  1
  Mg  Mg1  1  0.674619  0.331306  0.565948  1
  Mg  Mg2  1  0.674619  0.331306  0.934052  1
  Mg  Mg3  1  0.325381  0.656688  0.434052  1
  Zn  Zn4  1  0.000000  0.014410  0.000000  1
  Zn  Zn5  1  0.000000  0.014410  0.500000  1
  Zn  Zn6  1  0.340495  0.166871  0.250000  1
  Zn  Zn7  1  0.659505  0.826376  0.750000  1
  Zn  Zn8  1  0.168765  0.829871  0.750000  1
  Zn  Zn9  1  0.831235  0.661106  0.250000  1
  Rh  Rh10  1  0.176104  0.343535  0.750000  1
  Rh  Rh11  1  0.823896  0.167431  0.250000  1
