# generated using pymatgen
data_LiLu(CuO2)4
_symmetry_space_group_name_H-M   'P 1'
_cell_length_a   6.13433037
_cell_length_b   6.13433049
_cell_length_c   6.13433069
_cell_angle_alpha   125.73081519
_cell_angle_beta   125.73081401
_cell_angle_gamma   80.33101495
_symmetry_Int_Tables_number   1
_chemical_formula_structural   LiLu(CuO2)4
_chemical_formula_sum   'Li1 Lu1 Cu4 O8'
_cell_volume   146.77298907
_cell_formula_units_Z   1
loop_
 _symmetry_equiv_pos_site_id
 _symmetry_equiv_pos_as_xyz
  1  'x, y, z'
loop_
 _atom_site_type_symbol
 _atom_site_label
 _atom_site_symmetry_multiplicity
 _atom_site_fract_x
 _atom_site_fract_y
 _atom_site_fract_z
 _atom_site_occupancy
  Li  Li0  1  0.000000  0.000000  0.000000  1
  Lu  Lu1  1  0.750000  0.250000  0.500000  1
  Cu  Cu2  1  0.875499  0.631680  0.259296  1
  Cu  Cu3  1  0.372384  0.616203  0.740704  1
  Cu  Cu4  1  0.383797  0.124501  0.756181  1
  Cu  Cu5  1  0.368320  0.627616  0.243819  1
  O  O6  1  0.414570  0.260266  0.569404  1
  O  O7  1  0.044887  0.415928  0.061644  1
  O  O8  1  0.016757  0.955113  0.371042  1
  O  O9  1  0.154835  0.585430  0.845696  1
  O  O10  1  0.584072  0.645716  0.628958  1
  O  O11  1  0.739734  0.309139  0.154304  1
  O  O12  1  0.690861  0.845165  0.430596  1
  O  O13  1  0.354284  0.983243  0.938356  1
