# generated using pymatgen
data_Sm12IrOsI17
_symmetry_space_group_name_H-M   'P 1'
_cell_length_a   9.95051262
_cell_length_b   11.93167165
_cell_length_c   11.94452000
_cell_angle_alpha   93.45292527
_cell_angle_beta   104.75804500
_cell_angle_gamma   114.29710913
_symmetry_Int_Tables_number   1
_chemical_formula_structural   Sm12IrOsI17
_chemical_formula_sum   'Sm12 Ir1 Os1 I17'
_cell_volume   1227.76571723
_cell_formula_units_Z   1
loop_
 _symmetry_equiv_pos_site_id
 _symmetry_equiv_pos_as_xyz
  1  'x, y, z'
loop_
 _atom_site_type_symbol
 _atom_site_label
 _atom_site_symmetry_multiplicity
 _atom_site_fract_x
 _atom_site_fract_y
 _atom_site_fract_z
 _atom_site_occupancy
  Sm  Sm0  1  0.057206  0.511142  0.322945  1
  Sm  Sm1  1  0.988569  0.809494  0.582655  1
  Sm  Sm2  1  0.643540  0.240732  0.285381  1
  Sm  Sm3  1  0.011796  0.190008  0.419002  1
  Sm  Sm4  1  0.222951  0.670214  0.989030  1
  Sm  Sm5  1  0.257481  0.984569  0.890256  1
  Sm  Sm6  1  0.354737  0.759277  0.715591  1
  Sm  Sm7  1  0.944274  0.490375  0.678120  1
  Sm  Sm8  1  0.741283  0.014384  0.107879  1
  Sm  Sm9  1  0.152365  0.287491  0.149630  1
  Sm  Sm10  1  0.775883  0.330454  0.010216  1
  Sm  Sm11  1  0.848591  0.713022  0.848614  1
  Ir  Ir12  1  0.895998  0.262173  0.214953  1
  Os  Os13  1  0.104077  0.737880  0.785498  1
  I  I14  1  0.784229  0.528134  0.417546  1
  I  I15  1  0.641721  0.417594  0.762291  1
  I  I16  1  0.844252  0.896975  0.325783  1
  I  I17  1  0.327694  0.212025  0.367785  1
  I  I18  1  0.155685  0.105455  0.671513  1
  I  I19  1  0.588164  0.053949  0.844579  1
  I  I20  1  0.755383  0.183623  0.538369  1
  I  I21  1  0.553550  0.712717  0.957018  1
  I  I22  1  0.358613  0.579627  0.241583  1
  I  I23  1  0.215732  0.470923  0.580555  1
  I  I24  1  0.053834  0.366861  0.897305  1
  I  I25  1  0.449233  0.292746  0.046796  1
  I  I26  1  0.000839  0.000466  0.001093  1
  I  I27  1  0.241399  0.811640  0.458242  1
  I  I28  1  0.415397  0.948274  0.156649  1
  I  I29  1  0.671994  0.786793  0.630005  1
  I  I30  1  0.943531  0.630979  0.103116  1
