# generated using pymatgen
data_Tb3Dy7(SnSb)3
_symmetry_space_group_name_H-M   'P 1'
_cell_length_a   6.41380400
_cell_length_b   9.00507957
_cell_length_c   9.00504700
_cell_angle_alpha   120.00012307
_cell_angle_beta   89.99987102
_cell_angle_gamma   90.00022985
_symmetry_Int_Tables_number   1
_chemical_formula_structural   Tb3Dy7(SnSb)3
_chemical_formula_sum   'Tb3 Dy7 Sn3 Sb3'
_cell_volume   450.42171083
_cell_formula_units_Z   1
loop_
 _symmetry_equiv_pos_site_id
 _symmetry_equiv_pos_as_xyz
  1  'x, y, z'
loop_
 _atom_site_type_symbol
 _atom_site_label
 _atom_site_symmetry_multiplicity
 _atom_site_fract_x
 _atom_site_fract_y
 _atom_site_fract_z
 _atom_site_occupancy
  Tb  Tb0  1  0.249998  0.757799  0.000000  1
  Tb  Tb1  1  0.250001  0.242211  0.242218  1
  Tb  Tb2  1  0.250001  0.999993  0.757782  1
  Dy  Dy3  1  0.500608  0.333336  0.666680  1
  Dy  Dy4  1  0.500608  0.666656  0.333320  1
  Dy  Dy5  1  0.999393  0.666658  0.333323  1
  Dy  Dy6  1  0.999393  0.333336  0.666677  1
  Dy  Dy7  1  0.749998  0.241692  0.000000  1
  Dy  Dy8  1  0.750001  0.758301  0.758292  1
  Dy  Dy9  1  0.750001  0.000010  0.241708  1
  Sn  Sn10  1  0.750000  0.607324  0.000000  1
  Sn  Sn11  1  0.750000  0.392715  0.392719  1
  Sn  Sn12  1  0.750000  0.999995  0.607281  1
  Sb  Sb13  1  0.249990  0.391414  0.000000  1
  Sb  Sb14  1  0.250005  0.608569  0.608575  1
  Sb  Sb15  1  0.250005  0.999993  0.391425  1
