# generated using pymatgen
data_Ca3(RhPb)2
_symmetry_space_group_name_H-M   'P 1'
_cell_length_a   6.02140500
_cell_length_b   8.28269100
_cell_length_c   14.33741400
_cell_angle_alpha   90.00000000
_cell_angle_beta   90.00000000
_cell_angle_gamma   90.00000000
_symmetry_Int_Tables_number   1
_chemical_formula_structural   Ca3(RhPb)2
_chemical_formula_sum   'Ca12 Rh8 Pb8'
_cell_volume   715.05611388
_cell_formula_units_Z   4
loop_
 _symmetry_equiv_pos_site_id
 _symmetry_equiv_pos_as_xyz
  1  'x, y, z'
loop_
 _atom_site_type_symbol
 _atom_site_label
 _atom_site_symmetry_multiplicity
 _atom_site_fract_x
 _atom_site_fract_y
 _atom_site_fract_z
 _atom_site_occupancy
  Ca  Ca0  1  0.166654  0.601343  0.091275  1
  Ca  Ca1  1  0.166654  0.898657  0.908725  1
  Ca  Ca2  1  0.833346  0.101343  0.408725  1
  Ca  Ca3  1  0.833346  0.398657  0.591275  1
  Ca  Ca4  1  0.833346  0.398657  0.908725  1
  Ca  Ca5  1  0.833346  0.101343  0.091275  1
  Ca  Ca6  1  0.166654  0.898657  0.591275  1
  Ca  Ca7  1  0.166654  0.601343  0.408725  1
  Ca  Ca8  1  0.381975  0.245621  0.250000  1
  Ca  Ca9  1  0.381975  0.254379  0.750000  1
  Ca  Ca10  1  0.618025  0.745621  0.250000  1
  Ca  Ca11  1  0.618025  0.754379  0.750000  1
  Rh  Rh12  1  0.633662  0.459362  0.092751  1
  Rh  Rh13  1  0.633662  0.040638  0.907249  1
  Rh  Rh14  1  0.366338  0.959362  0.407249  1
  Rh  Rh15  1  0.366338  0.540638  0.592751  1
  Rh  Rh16  1  0.366338  0.540638  0.907249  1
  Rh  Rh17  1  0.366338  0.959362  0.092751  1
  Rh  Rh18  1  0.633662  0.040638  0.592751  1
  Rh  Rh19  1  0.633662  0.459362  0.407249  1
  Pb  Pb20  1  0.345334  0.250000  0.000000  1
  Pb  Pb21  1  0.654666  0.750000  0.500000  1
  Pb  Pb22  1  0.654666  0.750000  0.000000  1
  Pb  Pb23  1  0.345334  0.250000  0.500000  1
  Pb  Pb24  1  0.880405  0.400474  0.250000  1
  Pb  Pb25  1  0.880405  0.099526  0.750000  1
  Pb  Pb26  1  0.119595  0.900474  0.250000  1
  Pb  Pb27  1  0.119595  0.599526  0.750000  1
