# generated using pymatgen
data_Np2SiIr3
_symmetry_space_group_name_H-M   'P 1'
_cell_length_a   5.60900764
_cell_length_b   4.94684282
_cell_length_c   5.60900700
_cell_angle_alpha   55.46371343
_cell_angle_beta   59.99999786
_cell_angle_gamma   55.46371428
_symmetry_Int_Tables_number   1
_chemical_formula_structural   Np2SiIr3
_chemical_formula_sum   'Np2 Si1 Ir3'
_cell_volume   101.88786095
_cell_formula_units_Z   1
loop_
 _symmetry_equiv_pos_site_id
 _symmetry_equiv_pos_as_xyz
  1  'x, y, z'
loop_
 _atom_site_type_symbol
 _atom_site_label
 _atom_site_symmetry_multiplicity
 _atom_site_fract_x
 _atom_site_fract_y
 _atom_site_fract_z
 _atom_site_occupancy
  Np  Np0  1  0.731491  0.805526  0.731491  1
  Np  Np1  1  0.518509  0.444474  0.518509  1
  Si  Si2  1  0.125000  0.625000  0.125000  1
  Ir  Ir3  1  0.125000  0.125000  0.625000  1
  Ir  Ir4  1  0.625000  0.125000  0.125000  1
  Ir  Ir5  1  0.125000  0.125000  0.125000  1
