# generated using pymatgen
data_NdLu5(Si3Ru)8
_symmetry_space_group_name_H-M   'P 1'
_cell_length_a   10.10400404
_cell_length_b   10.10400431
_cell_length_c   8.10742880
_cell_angle_alpha   89.83736962
_cell_angle_beta   90.16263176
_cell_angle_gamma   132.66355918
_symmetry_Int_Tables_number   1
_chemical_formula_structural   NdLu5(Si3Ru)8
_chemical_formula_sum   'Nd1 Lu5 Si24 Ru8'
_cell_volume   608.63887381
_cell_formula_units_Z   1
loop_
 _symmetry_equiv_pos_site_id
 _symmetry_equiv_pos_as_xyz
  1  'x, y, z'
loop_
 _atom_site_type_symbol
 _atom_site_label
 _atom_site_symmetry_multiplicity
 _atom_site_fract_x
 _atom_site_fract_y
 _atom_site_fract_z
 _atom_site_occupancy
  Nd  Nd0  1  0.002749  0.502749  0.750000  1
  Lu  Lu1  1  0.500075  0.500063  0.499540  1
  Lu  Lu2  1  0.000063  0.000075  0.000460  1
  Lu  Lu3  1  0.502704  0.002704  0.750000  1
  Lu  Lu4  1  0.997991  0.497991  0.250000  1
  Lu  Lu5  1  0.498486  0.998486  0.250000  1
  Si  Si6  1  0.793702  0.203562  0.497633  1
  Si  Si7  1  0.296822  0.706614  0.002233  1
  Si  Si8  1  0.206614  0.796822  0.497767  1
  Si  Si9  1  0.703562  0.293702  0.002367  1
  Si  Si10  1  0.331381  0.333083  0.832511  1
  Si  Si11  1  0.667578  0.667888  0.166763  1
  Si  Si12  1  0.167888  0.167578  0.333237  1
  Si  Si13  1  0.833083  0.831381  0.667489  1
  Si  Si14  1  0.123965  0.889375  0.730095  1
  Si  Si15  1  0.110281  0.876758  0.272101  1
  Si  Si16  1  0.613891  0.381046  0.227741  1
  Si  Si17  1  0.619419  0.385255  0.771200  1
  Si  Si18  1  0.881046  0.113891  0.272259  1
  Si  Si19  1  0.885255  0.119419  0.728800  1
  Si  Si20  1  0.389375  0.623965  0.769905  1
  Si  Si21  1  0.376758  0.610281  0.227899  1
  Si  Si22  1  0.343185  0.111276  0.504989  1
  Si  Si23  1  0.886479  0.651292  0.491254  1
  Si  Si24  1  0.389155  0.157327  0.002986  1
  Si  Si25  1  0.847201  0.613267  0.998166  1
  Si  Si26  1  0.657327  0.889155  0.497014  1
  Si  Si27  1  0.113267  0.347201  0.501834  1
  Si  Si28  1  0.611276  0.843185  0.995011  1
  Si  Si29  1  0.151292  0.386479  0.008746  1
  Ru  Ru30  1  0.663991  0.325461  0.497395  1
  Ru  Ru31  1  0.174537  0.835904  0.003929  1
  Ru  Ru32  1  0.335904  0.674537  0.496071  1
  Ru  Ru33  1  0.825461  0.163991  0.002605  1
  Ru  Ru34  1  0.125923  0.126550  0.628114  1
  Ru  Ru35  1  0.873261  0.872500  0.372936  1
  Ru  Ru36  1  0.372500  0.373261  0.127064  1
  Ru  Ru37  1  0.626550  0.625923  0.871886  1
