# generated using pymatgen
data_Hf16TaCo3NiRh3
_symmetry_space_group_name_H-M   'P 1'
_cell_length_a   8.68013014
_cell_length_b   8.61544656
_cell_length_c   8.61544856
_cell_angle_alpha   59.92307583
_cell_angle_beta   60.20301665
_cell_angle_gamma   60.20302658
_symmetry_Int_Tables_number   1
_chemical_formula_structural   Hf16TaCo3NiRh3
_chemical_formula_sum   'Hf16 Ta1 Co3 Ni1 Rh3'
_cell_volume   456.70754755
_cell_formula_units_Z   1
loop_
 _symmetry_equiv_pos_site_id
 _symmetry_equiv_pos_as_xyz
  1  'x, y, z'
loop_
 _atom_site_type_symbol
 _atom_site_label
 _atom_site_symmetry_multiplicity
 _atom_site_fract_x
 _atom_site_fract_y
 _atom_site_fract_z
 _atom_site_occupancy
  Hf  Hf0  1  0.678856  0.108507  0.108507  1
  Hf  Hf1  1  0.101979  0.696728  0.102082  1
  Hf  Hf2  1  0.101979  0.102082  0.696728  1
  Hf  Hf3  1  0.097725  0.099531  0.099531  1
  Hf  Hf4  1  0.315638  0.313953  0.685113  1
  Hf  Hf5  1  0.692880  0.679479  0.314213  1
  Hf  Hf6  1  0.315638  0.685113  0.313953  1
  Hf  Hf7  1  0.692880  0.314213  0.679479  1
  Hf  Hf8  1  0.692560  0.314495  0.314495  1
  Hf  Hf9  1  0.316758  0.685117  0.685117  1
  Hf  Hf10  1  0.943897  0.949362  0.550063  1
  Hf  Hf11  1  0.553095  0.553400  0.947375  1
  Hf  Hf12  1  0.943897  0.550063  0.949362  1
  Hf  Hf13  1  0.553095  0.947375  0.553400  1
  Hf  Hf14  1  0.546261  0.950524  0.950524  1
  Hf  Hf15  1  0.941707  0.555500  0.555500  1
  Ta  Ta16  1  0.017597  0.326976  0.326976  1
  Co  Co17  1  0.327495  0.890604  0.890604  1
  Co  Co18  1  0.886679  0.323776  0.893652  1
  Co  Co19  1  0.886679  0.893652  0.323776  1
  Ni  Ni20  1  0.886658  0.895014  0.895014  1
  Rh  Rh21  1  0.335579  0.990443  0.336976  1
  Rh  Rh22  1  0.335579  0.336976  0.990443  1
  Rh  Rh23  1  0.334889  0.337121  0.337121  1
