# generated using pymatgen
data_Tb16CdCo2Hg3Pt2
_symmetry_space_group_name_H-M   'P 1'
_cell_length_a   9.63868519
_cell_length_b   9.63087052
_cell_length_c   9.63588966
_cell_angle_alpha   59.99253435
_cell_angle_beta   59.99039670
_cell_angle_gamma   59.97316063
_symmetry_Int_Tables_number   1
_chemical_formula_structural   Tb16CdCo2Hg3Pt2
_chemical_formula_sum   'Tb16 Cd1 Co2 Hg3 Pt2'
_cell_volume   632.28951234
_cell_formula_units_Z   1
loop_
 _symmetry_equiv_pos_site_id
 _symmetry_equiv_pos_as_xyz
  1  'x, y, z'
loop_
 _atom_site_type_symbol
 _atom_site_label
 _atom_site_symmetry_multiplicity
 _atom_site_fract_x
 _atom_site_fract_y
 _atom_site_fract_z
 _atom_site_occupancy
  Tb  Tb0  1  0.441119  0.438051  0.052123  1
  Tb  Tb1  1  0.589196  0.602300  0.602075  1
  Tb  Tb2  1  0.185172  0.814554  0.815102  1
  Tb  Tb3  1  0.068129  0.051594  0.438882  1
  Tb  Tb4  1  0.438791  0.061170  0.061247  1
  Tb  Tb5  1  0.812873  0.187734  0.813415  1
  Tb  Tb6  1  0.441395  0.051594  0.438882  1
  Tb  Tb7  1  0.597875  0.191567  0.612683  1
  Tb  Tb8  1  0.812582  0.812768  0.189139  1
  Tb  Tb9  1  0.206429  0.602300  0.602075  1
  Tb  Tb10  1  0.810206  0.188842  0.190747  1
  Tb  Tb11  1  0.059077  0.440691  0.441155  1
  Tb  Tb12  1  0.185511  0.812768  0.189139  1
  Tb  Tb13  1  0.597000  0.612571  0.193429  1
  Tb  Tb14  1  0.185977  0.187734  0.813415  1
  Tb  Tb15  1  0.068707  0.438051  0.052123  1
  Cd  Cd16  1  0.831403  0.508438  0.828756  1
  Co  Co17  1  0.391934  0.825008  0.391126  1
  Co  Co18  1  0.392009  0.390883  0.825100  1
  Hg  Hg19  1  0.835967  0.831949  0.496117  1
  Hg  Hg20  1  0.837334  0.833158  0.834751  1
  Hg  Hg21  1  0.494756  0.833158  0.834751  1
  Pt  Pt22  1  0.396026  0.391556  0.391885  1
  Pt  Pt23  1  0.820534  0.391556  0.391885  1
