# generated using pymatgen
data_Tb8Sc12Si15Bi
_symmetry_space_group_name_H-M   'P 1'
_cell_length_a   7.18639299
_cell_length_b   7.43685244
_cell_length_c   14.10716238
_cell_angle_alpha   90.07361899
_cell_angle_beta   88.87226003
_cell_angle_gamma   90.16852591
_symmetry_Int_Tables_number   1
_chemical_formula_structural   Tb8Sc12Si15Bi
_chemical_formula_sum   'Tb8 Sc12 Si15 Bi1'
_cell_volume   753.79535441
_cell_formula_units_Z   1
loop_
 _symmetry_equiv_pos_site_id
 _symmetry_equiv_pos_as_xyz
  1  'x, y, z'
loop_
 _atom_site_type_symbol
 _atom_site_label
 _atom_site_symmetry_multiplicity
 _atom_site_fract_x
 _atom_site_fract_y
 _atom_site_fract_z
 _atom_site_occupancy
  Tb  Tb0  1  0.012705  0.176482  0.096755  1
  Tb  Tb1  1  0.987597  0.824945  0.903955  1
  Tb  Tb2  1  0.488279  0.675614  0.903784  1
  Tb  Tb3  1  0.991346  0.831427  0.598501  1
  Tb  Tb4  1  0.512249  0.324508  0.097423  1
  Tb  Tb5  1  0.001306  0.169750  0.398861  1
  Tb  Tb6  1  0.512291  0.318361  0.397584  1
  Tb  Tb7  1  0.510265  0.685758  0.601264  1
  Sc  Sc8  1  0.163041  0.500947  0.756332  1
  Sc  Sc9  1  0.836409  0.498951  0.251260  1
  Sc  Sc10  1  0.336597  0.001586  0.249894  1
  Sc  Sc11  1  0.665184  0.999060  0.751460  1
  Sc  Sc12  1  0.347123  0.156189  0.632152  1
  Sc  Sc13  1  0.660609  0.826951  0.372273  1
  Sc  Sc14  1  0.156731  0.683409  0.369240  1
  Sc  Sc15  1  0.668203  0.823092  0.123942  1
  Sc  Sc16  1  0.824677  0.325861  0.625860  1
  Sc  Sc17  1  0.330090  0.175307  0.875312  1
  Sc  Sc18  1  0.830844  0.323625  0.875581  1
  Sc  Sc19  1  0.169215  0.676405  0.124871  1
  Si  Si20  1  0.034974  0.120049  0.751022  1
  Si  Si21  1  0.962107  0.884478  0.246150  1
  Si  Si22  1  0.462148  0.617074  0.247502  1
  Si  Si23  1  0.534697  0.383530  0.752961  1
  Si  Si24  1  0.288151  0.867840  0.752965  1
  Si  Si25  1  0.711913  0.125648  0.246558  1
  Si  Si26  1  0.210784  0.374410  0.248965  1
  Si  Si27  1  0.792639  0.627611  0.751704  1
  Si  Si28  1  0.814611  0.541392  0.456438  1
  Si  Si29  1  0.333484  0.963617  0.460066  1
  Si  Si30  1  0.844298  0.534491  0.039760  1
  Si  Si31  1  0.667734  0.038703  0.538481  1
  Si  Si32  1  0.154875  0.465287  0.961308  1
  Si  Si33  1  0.654719  0.034733  0.960229  1
  Si  Si34  1  0.343848  0.965998  0.040024  1
  Bi  Bi35  1  0.184253  0.456913  0.539564  1
