# generated using pymatgen
data_Tb4Pr16Ir11Rh
_symmetry_space_group_name_H-M   'P 1'
_cell_length_a   11.26567400
_cell_length_b   11.26567400
_cell_length_c   6.58703700
_cell_angle_alpha   90.00000000
_cell_angle_beta   90.00000000
_cell_angle_gamma   90.00000000
_symmetry_Int_Tables_number   1
_chemical_formula_structural   Tb4Pr16Ir11Rh
_chemical_formula_sum   'Tb4 Pr16 Ir11 Rh1'
_cell_volume   835.99650598
_cell_formula_units_Z   1
loop_
 _symmetry_equiv_pos_site_id
 _symmetry_equiv_pos_as_xyz
  1  'x, y, z'
loop_
 _atom_site_type_symbol
 _atom_site_label
 _atom_site_symmetry_multiplicity
 _atom_site_fract_x
 _atom_site_fract_y
 _atom_site_fract_z
 _atom_site_occupancy
  Tb  Tb0  1  0.000000  0.000000  0.499993  1
  Tb  Tb1  1  0.000000  0.000000  0.000022  1
  Tb  Tb2  1  0.500000  0.500000  0.000022  1
  Tb  Tb3  1  0.500000  0.500000  0.499993  1
  Pr  Pr4  1  0.289301  0.088252  0.383203  1
  Pr  Pr5  1  0.289014  0.911643  0.881231  1
  Pr  Pr6  1  0.710986  0.088357  0.881231  1
  Pr  Pr7  1  0.710699  0.911748  0.383203  1
  Pr  Pr8  1  0.588357  0.789014  0.881231  1
  Pr  Pr9  1  0.588252  0.210699  0.383203  1
  Pr  Pr10  1  0.411748  0.789301  0.383203  1
  Pr  Pr11  1  0.411643  0.210986  0.881231  1
  Pr  Pr12  1  0.210526  0.411796  0.618091  1
  Pr  Pr13  1  0.210581  0.588362  0.118012  1
  Pr  Pr14  1  0.789419  0.411638  0.118012  1
  Pr  Pr15  1  0.789474  0.588204  0.618091  1
  Pr  Pr16  1  0.911638  0.710581  0.118012  1
  Pr  Pr17  1  0.911796  0.289474  0.618091  1
  Pr  Pr18  1  0.088204  0.710526  0.618091  1
  Pr  Pr19  1  0.088362  0.289419  0.118012  1
  Ir  Ir20  1  0.850854  0.148353  0.249807  1
  Ir  Ir21  1  0.851102  0.851428  0.749620  1
  Ir  Ir22  1  0.148898  0.148572  0.749620  1
  Ir  Ir23  1  0.149146  0.851647  0.249807  1
  Ir  Ir24  1  0.648572  0.351102  0.749620  1
  Ir  Ir25  1  0.648353  0.649146  0.249807  1
  Ir  Ir26  1  0.351647  0.350854  0.249807  1
  Ir  Ir27  1  0.351428  0.648898  0.749620  1
  Ir  Ir28  1  0.500000  0.000000  0.618965  1
  Ir  Ir29  1  0.000000  0.500000  0.881764  1
  Ir  Ir30  1  0.000000  0.500000  0.381758  1
  Rh  Rh31  1  0.500000  0.000000  0.117626  1
