# generated using pymatgen
data_Yb11Ce(PrSn2)8
_symmetry_space_group_name_H-M   'P 1'
_cell_length_a   7.97345880
_cell_length_b   8.51449597
_cell_length_c   16.02952400
_cell_angle_alpha   90.06387362
_cell_angle_beta   90.06912753
_cell_angle_gamma   89.92815601
_symmetry_Int_Tables_number   1
_chemical_formula_structural   Yb11Ce(PrSn2)8
_chemical_formula_sum   'Yb11 Ce1 Pr8 Sn16'
_cell_volume   1088.24178747
_cell_formula_units_Z   1
loop_
 _symmetry_equiv_pos_site_id
 _symmetry_equiv_pos_as_xyz
  1  'x, y, z'
loop_
 _atom_site_type_symbol
 _atom_site_label
 _atom_site_symmetry_multiplicity
 _atom_site_fract_x
 _atom_site_fract_y
 _atom_site_fract_z
 _atom_site_occupancy
  Yb  Yb0  1  0.830693  0.671476  0.623467  1
  Yb  Yb1  1  0.668261  0.171474  0.376333  1
  Yb  Yb2  1  0.167889  0.328634  0.123454  1
  Yb  Yb3  1  0.669995  0.170962  0.123526  1
  Yb  Yb4  1  0.168359  0.328567  0.376409  1
  Yb  Yb5  1  0.331556  0.828729  0.623185  1
  Yb  Yb6  1  0.830884  0.671063  0.877840  1
  Yb  Yb7  1  0.158460  0.502929  0.748687  1
  Yb  Yb8  1  0.660238  0.996504  0.749165  1
  Yb  Yb9  1  0.840361  0.494441  0.250285  1
  Yb  Yb10  1  0.340324  0.005143  0.250083  1
  Ce  Ce11  1  0.333864  0.827095  0.875408  1
  Pr  Pr12  1  0.494845  0.317683  0.904073  1
  Pr  Pr13  1  0.991739  0.185330  0.594641  1
  Pr  Pr14  1  0.507337  0.685761  0.403595  1
  Pr  Pr15  1  0.006262  0.814253  0.097051  1
  Pr  Pr16  1  0.508341  0.684943  0.096929  1
  Pr  Pr17  1  0.007274  0.814193  0.403861  1
  Pr  Pr18  1  0.493376  0.315110  0.595223  1
  Pr  Pr19  1  0.992283  0.186055  0.905544  1
  Sn  Sn20  1  0.329304  0.036073  0.038576  1
  Sn  Sn21  1  0.830108  0.463986  0.461127  1
  Sn  Sn22  1  0.668921  0.964555  0.539314  1
  Sn  Sn23  1  0.170244  0.537627  0.960135  1
  Sn  Sn24  1  0.668364  0.965205  0.959603  1
  Sn  Sn25  1  0.169377  0.536172  0.539409  1
  Sn  Sn26  1  0.330487  0.036110  0.460791  1
  Sn  Sn27  1  0.830497  0.463326  0.039571  1
  Sn  Sn28  1  0.531866  0.604162  0.751159  1
  Sn  Sn29  1  0.032298  0.895971  0.751715  1
  Sn  Sn30  1  0.468022  0.396417  0.249320  1
  Sn  Sn31  1  0.967812  0.103021  0.250229  1
  Sn  Sn32  1  0.287085  0.139297  0.751372  1
  Sn  Sn33  1  0.786585  0.357665  0.749872  1
  Sn  Sn34  1  0.713579  0.858589  0.249596  1
  Sn  Sn35  1  0.213110  0.641481  0.249450  1
