# generated using pymatgen
data_RbTb6(CBr6)2
_symmetry_space_group_name_H-M   'P 1'
_cell_length_a   8.95230959
_cell_length_b   8.93270764
_cell_length_c   9.47342424
_cell_angle_alpha   72.10820001
_cell_angle_beta   70.80706024
_cell_angle_gamma   72.76168574
_symmetry_Int_Tables_number   1
_chemical_formula_structural   RbTb6(CBr6)2
_chemical_formula_sum   'Rb1 Tb6 C2 Br12'
_cell_volume   664.58684906
_cell_formula_units_Z   1
loop_
 _symmetry_equiv_pos_site_id
 _symmetry_equiv_pos_as_xyz
  1  'x, y, z'
loop_
 _atom_site_type_symbol
 _atom_site_label
 _atom_site_symmetry_multiplicity
 _atom_site_fract_x
 _atom_site_fract_y
 _atom_site_fract_z
 _atom_site_occupancy
  Rb  Rb0  1  0.000000  0.500000  0.999999  1
  Tb  Tb1  1  0.475015  0.116738  0.182957  1
  Tb  Tb2  1  0.777388  0.032916  0.406873  1
  Tb  Tb3  1  0.593371  0.725645  0.475657  1
  Tb  Tb4  1  0.406629  0.274355  0.524343  1
  Tb  Tb5  1  0.222613  0.967083  0.593127  1
  Tb  Tb6  1  0.524986  0.883262  0.817043  1
  C  C7  1  0.493101  0.026415  0.422855  1
  C  C8  1  0.506900  0.973586  0.577144  1
  Br  Br9  1  0.797900  0.160106  0.083495  1
  Br  Br10  1  0.585128  0.786625  0.140626  1
  Br  Br11  1  0.351205  0.432429  0.224608  1
  Br  Br12  1  0.136133  0.069903  0.297431  1
  Br  Br13  1  0.922236  0.722813  0.354653  1
  Br  Br14  1  0.712171  0.364974  0.430995  1
  Br  Br15  1  0.287829  0.635026  0.569006  1
  Br  Br16  1  0.077764  0.277187  0.645348  1
  Br  Br17  1  0.863868  0.930097  0.702569  1
  Br  Br18  1  0.648795  0.567571  0.775392  1
  Br  Br19  1  0.414872  0.213375  0.859375  1
  Br  Br20  1  0.202101  0.839893  0.916505  1
