# generated using pymatgen
data_HfTa(GaRh2)2
_symmetry_space_group_name_H-M   'P 1'
_cell_length_a   4.12130600
_cell_length_b   7.27474500
_cell_length_c   12.31064100
_cell_angle_alpha   89.99981706
_cell_angle_beta   89.99972135
_cell_angle_gamma   90.00042119
_symmetry_Int_Tables_number   1
_chemical_formula_structural   HfTa(GaRh2)2
_chemical_formula_sum   'Hf3 Ta3 Ga6 Rh12'
_cell_volume   369.09087027
_cell_formula_units_Z   3
loop_
 _symmetry_equiv_pos_site_id
 _symmetry_equiv_pos_as_xyz
  1  'x, y, z'
loop_
 _atom_site_type_symbol
 _atom_site_label
 _atom_site_symmetry_multiplicity
 _atom_site_fract_x
 _atom_site_fract_y
 _atom_site_fract_z
 _atom_site_occupancy
  Hf  Hf0  1  0.500000  0.999999  0.499138  1
  Hf  Hf1  1  0.999986  0.499999  0.666685  1
  Hf  Hf2  1  0.499982  0.000002  0.834211  1
  Ta  Ta3  1  0.000003  0.500003  0.000857  1
  Ta  Ta4  1  0.500013  0.999996  0.166641  1
  Ta  Ta5  1  0.000026  0.500003  0.332454  1
  Ga  Ga6  1  0.999998  0.000000  0.002078  1
  Ga  Ga7  1  0.500019  0.500004  0.166651  1
  Ga  Ga8  1  0.000015  0.000001  0.331239  1
  Ga  Ga9  1  0.499997  0.500000  0.497668  1
  Ga  Ga10  1  0.999985  0.000001  0.666673  1
  Ga  Ga11  1  0.499982  0.500000  0.835659  1
  Rh  Rh12  1  0.500002  0.253721  0.003936  1
  Rh  Rh13  1  0.500004  0.746276  0.003938  1
  Rh  Rh14  1  0.000017  0.249978  0.166662  1
  Rh  Rh15  1  0.000012  0.750016  0.166662  1
  Rh  Rh16  1  0.500010  0.253700  0.329391  1
  Rh  Rh17  1  0.500009  0.746303  0.329393  1
  Rh  Rh18  1  0.000000  0.253758  0.495955  1
  Rh  Rh19  1  0.000000  0.746238  0.495955  1
  Rh  Rh20  1  0.499986  0.251343  0.666686  1
  Rh  Rh21  1  0.499981  0.748659  0.666684  1
  Rh  Rh22  1  0.999987  0.253725  0.837392  1
  Rh  Rh23  1  0.999991  0.746275  0.837391  1
