# generated using pymatgen
data_Pr3DyHo(Sn5Rh2)2
_symmetry_space_group_name_H-M   'P 1'
_cell_length_a   14.19837716
_cell_length_b   14.19837716
_cell_length_c   4.59069300
_cell_angle_alpha   90.00000000
_cell_angle_beta   90.00000000
_cell_angle_gamma   89.98300300
_symmetry_Int_Tables_number   1
_chemical_formula_structural   Pr3DyHo(Sn5Rh2)2
_chemical_formula_sum   'Pr6 Dy2 Ho2 Sn20 Rh8'
_cell_volume   925.45572852
_cell_formula_units_Z   2
loop_
 _symmetry_equiv_pos_site_id
 _symmetry_equiv_pos_as_xyz
  1  'x, y, z'
loop_
 _atom_site_type_symbol
 _atom_site_label
 _atom_site_symmetry_multiplicity
 _atom_site_fract_x
 _atom_site_fract_y
 _atom_site_fract_z
 _atom_site_occupancy
  Pr  Pr0  1  0.500000  0.500000  0.000000  1
  Pr  Pr1  1  0.000000  0.000000  0.000000  1
  Pr  Pr2  1  0.888043  0.388043  0.500000  1
  Pr  Pr3  1  0.111957  0.611957  0.500000  1
  Pr  Pr4  1  0.388092  0.111908  0.500000  1
  Pr  Pr5  1  0.611908  0.888092  0.500000  1
  Dy  Dy6  1  0.177126  0.322874  0.500000  1
  Dy  Dy7  1  0.822874  0.677126  0.500000  1
  Ho  Ho8  1  0.677037  0.177037  0.500000  1
  Ho  Ho9  1  0.322963  0.822963  0.500000  1
  Sn  Sn10  1  0.570233  0.070233  0.000000  1
  Sn  Sn11  1  0.429767  0.929767  0.000000  1
  Sn  Sn12  1  0.070159  0.429841  0.000000  1
  Sn  Sn13  1  0.929841  0.570159  0.000000  1
  Sn  Sn14  1  0.654539  0.698137  0.000000  1
  Sn  Sn15  1  0.345461  0.301863  0.000000  1
  Sn  Sn16  1  0.154656  0.801885  0.000000  1
  Sn  Sn17  1  0.845344  0.198115  0.000000  1
  Sn  Sn18  1  0.301885  0.654656  0.000000  1
  Sn  Sn19  1  0.698115  0.345344  0.000000  1
  Sn  Sn20  1  0.198137  0.154539  0.000000  1
  Sn  Sn21  1  0.801863  0.845461  0.000000  1
  Sn  Sn22  1  0.664058  0.505544  0.500000  1
  Sn  Sn23  1  0.335942  0.494456  0.500000  1
  Sn  Sn24  1  0.164082  0.994414  0.500000  1
  Sn  Sn25  1  0.835918  0.005586  0.500000  1
  Sn  Sn26  1  0.494414  0.664082  0.500000  1
  Sn  Sn27  1  0.505586  0.335918  0.500000  1
  Sn  Sn28  1  0.005544  0.164058  0.500000  1
  Sn  Sn29  1  0.994456  0.835942  0.500000  1
  Rh  Rh30  1  0.747167  0.529339  0.000000  1
  Rh  Rh31  1  0.252833  0.470661  0.000000  1
  Rh  Rh32  1  0.247228  0.970528  0.000000  1
  Rh  Rh33  1  0.752772  0.029472  0.000000  1
  Rh  Rh34  1  0.470528  0.747228  0.000000  1
  Rh  Rh35  1  0.529472  0.252772  0.000000  1
  Rh  Rh36  1  0.029339  0.247167  0.000000  1
  Rh  Rh37  1  0.970661  0.752833  0.000000  1
