# generated using pymatgen
data_Tb4Al18Co5Au
_symmetry_space_group_name_H-M   'P 1'
_cell_length_a   7.44174406
_cell_length_b   7.44174387
_cell_length_c   9.36434600
_cell_angle_alpha   89.78818405
_cell_angle_beta   89.78819509
_cell_angle_gamma   119.15755043
_symmetry_Int_Tables_number   1
_chemical_formula_structural   Tb4Al18Co5Au
_chemical_formula_sum   'Tb4 Al18 Co5 Au1'
_cell_volume   452.86678958
_cell_formula_units_Z   1
loop_
 _symmetry_equiv_pos_site_id
 _symmetry_equiv_pos_as_xyz
  1  'x, y, z'
loop_
 _atom_site_type_symbol
 _atom_site_label
 _atom_site_symmetry_multiplicity
 _atom_site_fract_x
 _atom_site_fract_y
 _atom_site_fract_z
 _atom_site_occupancy
  Tb  Tb0  1  0.995552  0.677557  0.251308  1
  Tb  Tb1  1  0.004448  0.322443  0.748692  1
  Tb  Tb2  1  0.677557  0.995552  0.251308  1
  Tb  Tb3  1  0.322443  0.004448  0.748692  1
  Al  Al4  1  0.137533  0.137533  0.263287  1
  Al  Al5  1  0.862467  0.862467  0.736713  1
  Al  Al6  1  0.332319  0.332319  0.542373  1
  Al  Al7  1  0.655000  0.655000  0.051850  1
  Al  Al8  1  0.345000  0.345000  0.948150  1
  Al  Al9  1  0.667681  0.667681  0.457627  1
  Al  Al10  1  0.340032  0.557815  0.252374  1
  Al  Al11  1  0.659968  0.442185  0.747626  1
  Al  Al12  1  0.557815  0.340032  0.252374  1
  Al  Al13  1  0.442185  0.659968  0.747626  1
  Al  Al14  1  0.001389  0.349706  0.076414  1
  Al  Al15  1  0.003302  0.663107  0.569692  1
  Al  Al16  1  0.336893  0.996698  0.430308  1
  Al  Al17  1  0.650294  0.998611  0.923586  1
  Al  Al18  1  0.998611  0.650294  0.923586  1
  Al  Al19  1  0.996698  0.336893  0.430308  1
  Al  Al20  1  0.663107  0.003302  0.569692  1
  Al  Al21  1  0.349706  0.001389  0.076414  1
  Co  Co22  1  0.000000  0.000000  0.500000  1
  Co  Co23  1  0.671023  0.328977  0.000000  1
  Co  Co24  1  0.329021  0.670979  0.500000  1
  Co  Co25  1  0.328977  0.671023  0.000000  1
  Co  Co26  1  0.670979  0.329021  0.500000  1
  Au  Au27  1  0.000000  0.000000  0.000000  1
