# generated using pymatgen
data_HoErIr2O7
_symmetry_space_group_name_H-M   'P 1'
_cell_length_a   7.22355867
_cell_length_b   7.22228511
_cell_length_c   7.22355904
_cell_angle_alpha   60.00583502
_cell_angle_beta   60.01116352
_cell_angle_gamma   60.00582625
_symmetry_Int_Tables_number   1
_chemical_formula_structural   HoErIr2O7
_chemical_formula_sum   'Ho2 Er2 Ir4 O14'
_cell_volume   266.52439424
_cell_formula_units_Z   2
loop_
 _symmetry_equiv_pos_site_id
 _symmetry_equiv_pos_as_xyz
  1  'x, y, z'
loop_
 _atom_site_type_symbol
 _atom_site_label
 _atom_site_symmetry_multiplicity
 _atom_site_fract_x
 _atom_site_fract_y
 _atom_site_fract_z
 _atom_site_occupancy
  Ho  Ho0  1  0.625000  0.125000  0.125000  1
  Ho  Ho1  1  0.125000  0.125000  0.625000  1
  Er  Er2  1  0.125000  0.625000  0.125000  1
  Er  Er3  1  0.125000  0.125000  0.125000  1
  Ir  Ir4  1  0.125000  0.625000  0.625000  1
  Ir  Ir5  1  0.625000  0.125000  0.625000  1
  Ir  Ir6  1  0.625000  0.625000  0.125000  1
  Ir  Ir7  1  0.625000  0.625000  0.625000  1
  O  O8  1  0.714189  0.713115  0.286397  1
  O  O9  1  0.286397  0.286299  0.714189  1
  O  O10  1  0.713457  0.286543  0.713457  1
  O  O11  1  0.286160  0.713840  0.286160  1
  O  O12  1  0.286397  0.713115  0.714189  1
  O  O13  1  0.714189  0.286299  0.286397  1
  O  O14  1  0.535811  0.536885  0.963603  1
  O  O15  1  0.963603  0.963701  0.535811  1
  O  O16  1  0.536543  0.963457  0.536543  1
  O  O17  1  0.963840  0.536160  0.963840  1
  O  O18  1  0.963603  0.536885  0.535811  1
  O  O19  1  0.535811  0.963701  0.963603  1
  O  O20  1  0.249195  0.250805  0.249195  1
  O  O21  1  0.000805  0.999195  0.000805  1
