# generated using pymatgen
data_Dy3Zr(Co5P3)4
_symmetry_space_group_name_H-M   'P 1'
_cell_length_a   3.63714500
_cell_length_b   10.23783671
_cell_length_c   11.69045600
_cell_angle_alpha   89.96790085
_cell_angle_beta   90.00000000
_cell_angle_gamma   90.00000000
_symmetry_Int_Tables_number   1
_chemical_formula_structural   Dy3Zr(Co5P3)4
_chemical_formula_sum   'Dy3 Zr1 Co20 P12'
_cell_volume   435.31155665
_cell_formula_units_Z   1
loop_
 _symmetry_equiv_pos_site_id
 _symmetry_equiv_pos_as_xyz
  1  'x, y, z'
loop_
 _atom_site_type_symbol
 _atom_site_label
 _atom_site_symmetry_multiplicity
 _atom_site_fract_x
 _atom_site_fract_y
 _atom_site_fract_z
 _atom_site_occupancy
  Dy  Dy0  1  0.250000  0.917007  0.202564  1
  Dy  Dy1  1  0.750000  0.417469  0.297370  1
  Dy  Dy2  1  0.750000  0.082881  0.797449  1
  Zr  Zr3  1  0.250000  0.582024  0.700873  1
  Co  Co4  1  0.250000  0.716860  0.992441  1
  Co  Co5  1  0.250000  0.782103  0.492933  1
  Co  Co6  1  0.750000  0.283778  0.006936  1
  Co  Co7  1  0.750000  0.217476  0.510153  1
  Co  Co8  1  0.250000  0.409698  0.490520  1
  Co  Co9  1  0.250000  0.093271  0.988337  1
  Co  Co10  1  0.750000  0.593622  0.515981  1
  Co  Co11  1  0.750000  0.906709  0.011422  1
  Co  Co12  1  0.250000  0.222064  0.176864  1
  Co  Co13  1  0.250000  0.279217  0.677289  1
  Co  Co14  1  0.750000  0.775609  0.822259  1
  Co  Co15  1  0.750000  0.720425  0.324105  1
  Co  Co16  1  0.250000  0.880025  0.699330  1
  Co  Co17  1  0.250000  0.616802  0.198104  1
  Co  Co18  1  0.750000  0.117634  0.302122  1
  Co  Co19  1  0.750000  0.386205  0.798771  1
  Co  Co20  1  0.250000  0.470084  0.928000  1
  Co  Co21  1  0.250000  0.031617  0.432480  1
  Co  Co22  1  0.750000  0.532577  0.065611  1
  Co  Co23  1  0.750000  0.965699  0.568947  1
  P  P24  1  0.250000  0.418900  0.110032  1
  P  P25  1  0.250000  0.080664  0.612501  1
  P  P26  1  0.750000  0.581152  0.883849  1
  P  P27  1  0.750000  0.918298  0.388305  1
  P  P28  1  0.250000  0.271176  0.870428  1
  P  P29  1  0.250000  0.229627  0.371560  1
  P  P30  1  0.750000  0.728765  0.129656  1
  P  P31  1  0.750000  0.767485  0.631633  1
  P  P32  1  0.250000  0.602013  0.391020  1
  P  P33  1  0.250000  0.897952  0.891401  1
  P  P34  1  0.750000  0.400599  0.609796  1
  P  P35  1  0.750000  0.102511  0.108958  1
