# generated using pymatgen
data_Ce2V3Fe3P7Ir6
_symmetry_space_group_name_H-M   'P 1'
_cell_length_a   9.42989000
_cell_length_b   9.42988974
_cell_length_c   3.82941500
_cell_angle_alpha   90.00000000
_cell_angle_beta   90.00000000
_cell_angle_gamma   120.00000090
_symmetry_Int_Tables_number   1
_chemical_formula_structural   Ce2V3Fe3P7Ir6
_chemical_formula_sum   'Ce2 V3 Fe3 P7 Ir6'
_cell_volume   294.90103959
_cell_formula_units_Z   1
loop_
 _symmetry_equiv_pos_site_id
 _symmetry_equiv_pos_as_xyz
  1  'x, y, z'
loop_
 _atom_site_type_symbol
 _atom_site_label
 _atom_site_symmetry_multiplicity
 _atom_site_fract_x
 _atom_site_fract_y
 _atom_site_fract_z
 _atom_site_occupancy
  Ce  Ce0  1  0.000000  0.000000  0.000000  1
  Ce  Ce1  1  0.333333  0.666667  0.500000  1
  V  V2  1  0.874776  0.429933  0.500000  1
  V  V3  1  0.555157  0.125224  0.500000  1
  V  V4  1  0.570067  0.444843  0.500000  1
  Fe  Fe5  1  0.822755  0.601266  0.000000  1
  Fe  Fe6  1  0.778512  0.177245  0.000000  1
  Fe  Fe7  1  0.398734  0.221488  0.000000  1
  P  P8  1  0.066941  0.626850  0.000000  1
  P  P9  1  0.559909  0.933059  0.000000  1
  P  P10  1  0.373150  0.440091  0.000000  1
  P  P11  1  0.780779  0.724372  0.500000  1
  P  P12  1  0.943592  0.219221  0.500000  1
  P  P13  1  0.275628  0.056408  0.500000  1
  P  P14  1  0.666667  0.333333  0.000000  1
  Ir  Ir15  1  0.097072  0.398798  0.000000  1
  Ir  Ir16  1  0.301726  0.902928  0.000000  1
  Ir  Ir17  1  0.601202  0.698274  0.000000  1
  Ir  Ir18  1  0.050645  0.772210  0.500000  1
  Ir  Ir19  1  0.721564  0.949355  0.500000  1
  Ir  Ir20  1  0.227790  0.278436  0.500000  1
