# generated using pymatgen
data_Y11ThCo3Ni
_symmetry_space_group_name_H-M   'P 1'
_cell_length_a   6.31347726
_cell_length_b   6.92577709
_cell_length_c   9.56494400
_cell_angle_alpha   90.00000000
_cell_angle_beta   90.00000000
_cell_angle_gamma   91.15889395
_symmetry_Int_Tables_number   1
_chemical_formula_structural   Y11ThCo3Ni
_chemical_formula_sum   'Y11 Th1 Co3 Ni1'
_cell_volume   418.14866832
_cell_formula_units_Z   1
loop_
 _symmetry_equiv_pos_site_id
 _symmetry_equiv_pos_as_xyz
  1  'x, y, z'
loop_
 _atom_site_type_symbol
 _atom_site_label
 _atom_site_symmetry_multiplicity
 _atom_site_fract_x
 _atom_site_fract_y
 _atom_site_fract_z
 _atom_site_occupancy
  Y  Y0  1  0.324575  0.672591  0.067041  1
  Y  Y1  1  0.176240  0.174022  0.429718  1
  Y  Y2  1  0.675725  0.327517  0.566997  1
  Y  Y3  1  0.821719  0.825625  0.932002  1
  Y  Y4  1  0.675725  0.327517  0.933003  1
  Y  Y5  1  0.821719  0.825625  0.567998  1
  Y  Y6  1  0.324575  0.672591  0.432959  1
  Y  Y7  1  0.176240  0.174022  0.070282  1
  Y  Y8  1  0.641109  0.043979  0.250000  1
  Y  Y9  1  0.145369  0.461144  0.750000  1
  Y  Y10  1  0.360931  0.954995  0.750000  1
  Th  Th11  1  0.847530  0.555873  0.250000  1
  Co  Co12  1  0.038002  0.869712  0.250000  1
  Co  Co13  1  0.472800  0.391446  0.250000  1
  Co  Co14  1  0.547353  0.610882  0.750000  1
  Ni  Ni15  1  0.950389  0.112458  0.750000  1
