# generated using pymatgen
data_CaU2(SnIr)3
_symmetry_space_group_name_H-M   'P 1'
_cell_length_a   7.49452211
_cell_length_b   7.49452138
_cell_length_c   4.01517400
_cell_angle_alpha   90.00000000
_cell_angle_beta   90.00000000
_cell_angle_gamma   121.43314727
_symmetry_Int_Tables_number   1
_chemical_formula_structural   CaU2(SnIr)3
_chemical_formula_sum   'Ca1 U2 Sn3 Ir3'
_cell_volume   192.42793824
_cell_formula_units_Z   1
loop_
 _symmetry_equiv_pos_site_id
 _symmetry_equiv_pos_as_xyz
  1  'x, y, z'
loop_
 _atom_site_type_symbol
 _atom_site_label
 _atom_site_symmetry_multiplicity
 _atom_site_fract_x
 _atom_site_fract_y
 _atom_site_fract_z
 _atom_site_occupancy
  Ca  Ca0  1  0.408051  0.408051  0.500000  1
  U  U1  1  0.587767  0.003054  0.500000  1
  U  U2  1  0.003054  0.587767  0.500000  1
  Sn  Sn3  1  0.730113  0.730113  0.000000  1
  Sn  Sn4  1  0.254506  0.012640  0.000000  1
  Sn  Sn5  1  0.012640  0.254506  0.000000  1
  Ir  Ir6  1  0.693103  0.330326  0.000000  1
  Ir  Ir7  1  0.330326  0.693103  0.000000  1
  Ir  Ir8  1  0.980440  0.980440  0.500000  1
