# generated using pymatgen
data_CePrPtN2
_symmetry_space_group_name_H-M   'P 1'
_cell_length_a   3.64340455
_cell_length_b   3.64340442
_cell_length_c   6.83769147
_cell_angle_alpha   105.45191594
_cell_angle_beta   105.45190058
_cell_angle_gamma   89.99805643
_symmetry_Int_Tables_number   1
_chemical_formula_structural   CePrPtN2
_chemical_formula_sum   'Ce1 Pr1 Pt1 N2'
_cell_volume   84.07694214
_cell_formula_units_Z   1
loop_
 _symmetry_equiv_pos_site_id
 _symmetry_equiv_pos_as_xyz
  1  'x, y, z'
loop_
 _atom_site_type_symbol
 _atom_site_label
 _atom_site_symmetry_multiplicity
 _atom_site_fract_x
 _atom_site_fract_y
 _atom_site_fract_z
 _atom_site_occupancy
  Ce  Ce0  1  0.153440  0.653440  0.806881  1
  Pr  Pr1  1  0.852694  0.352694  0.205385  1
  Pt  Pt2  1  0.499226  0.999226  0.498452  1
  N  N3  1  0.662080  0.162080  0.824157  1
  N  N4  1  0.332561  0.832561  0.165124  1
