# generated using pymatgen
data_Ti24Si3Se5
_symmetry_space_group_name_H-M   'P 1'
_cell_length_a   10.12305712
_cell_length_b   10.15844622
_cell_length_c   5.09285989
_cell_angle_alpha   90.20812623
_cell_angle_beta   90.34769406
_cell_angle_gamma   90.06226438
_symmetry_Int_Tables_number   1
_chemical_formula_structural   Ti24Si3Se5
_chemical_formula_sum   'Ti24 Si3 Se5'
_cell_volume   523.70844003
_cell_formula_units_Z   1
loop_
 _symmetry_equiv_pos_site_id
 _symmetry_equiv_pos_as_xyz
  1  'x, y, z'
loop_
 _atom_site_type_symbol
 _atom_site_label
 _atom_site_symmetry_multiplicity
 _atom_site_fract_x
 _atom_site_fract_y
 _atom_site_fract_z
 _atom_site_occupancy
  Ti  Ti0  1  0.217084  0.683031  0.993863  1
  Ti  Ti1  1  0.784000  0.317415  0.991140  1
  Ti  Ti2  1  0.183657  0.283972  0.492784  1
  Ti  Ti3  1  0.815717  0.715656  0.495230  1
  Ti  Ti4  1  0.286311  0.818286  0.503834  1
  Ti  Ti5  1  0.713081  0.182388  0.510676  1
  Ti  Ti6  1  0.318214  0.212808  0.004551  1
  Ti  Ti7  1  0.683088  0.783883  0.004147  1
  Ti  Ti8  1  0.639003  0.527445  0.715392  1
  Ti  Ti9  1  0.361008  0.472569  0.715594  1
  Ti  Ti10  1  0.027882  0.859774  0.214873  1
  Ti  Ti11  1  0.972333  0.140368  0.211602  1
  Ti  Ti12  1  0.859986  0.972703  0.789572  1
  Ti  Ti13  1  0.143102  0.027858  0.784435  1
  Ti  Ti14  1  0.473077  0.643808  0.285465  1
  Ti  Ti15  1  0.529385  0.356672  0.285121  1
  Ti  Ti16  1  0.103618  0.581291  0.463150  1
  Ti  Ti17  1  0.895788  0.418437  0.465069  1
  Ti  Ti18  1  0.081682  0.397168  0.964072  1
  Ti  Ti19  1  0.918348  0.602583  0.962600  1
  Ti  Ti20  1  0.394754  0.918121  0.036611  1
  Ti  Ti21  1  0.603354  0.084261  0.028513  1
  Ti  Ti22  1  0.417406  0.104363  0.539432  1
  Ti  Ti23  1  0.580253  0.893650  0.544109  1
  Si  Si24  1  0.205587  0.040814  0.287311  1
  Si  Si25  1  0.458601  0.705718  0.789426  1
  Si  Si26  1  0.539891  0.294631  0.787767  1
  Se  Se27  1  0.706780  0.539806  0.210889  1
  Se  Se28  1  0.293875  0.459395  0.211387  1
  Se  Se29  1  0.040875  0.792597  0.711564  1
  Se  Se30  1  0.960909  0.207514  0.710113  1
  Se  Se31  1  0.791354  0.961014  0.289709  1
