# generated using pymatgen
data_La2Tb3Nd3(CdPt)2
_symmetry_space_group_name_H-M   'P 1'
_cell_length_a   9.96839449
_cell_length_b   9.96839446
_cell_length_c   9.96839500
_cell_angle_alpha   60.00000153
_cell_angle_beta   60.00000161
_cell_angle_gamma   59.99999908
_symmetry_Int_Tables_number   1
_chemical_formula_structural   La2Tb3Nd3(CdPt)2
_chemical_formula_sum   'La4 Tb6 Nd6 Cd4 Pt4'
_cell_volume   700.42345312
_cell_formula_units_Z   2
loop_
 _symmetry_equiv_pos_site_id
 _symmetry_equiv_pos_as_xyz
  1  'x, y, z'
loop_
 _atom_site_type_symbol
 _atom_site_label
 _atom_site_symmetry_multiplicity
 _atom_site_fract_x
 _atom_site_fract_y
 _atom_site_fract_z
 _atom_site_occupancy
  La  La0  1  0.351895  0.351895  0.351895  1
  La  La1  1  0.351895  0.351895  0.944314  1
  La  La2  1  0.351895  0.944314  0.351895  1
  La  La3  1  0.944314  0.351895  0.351895  1
  Tb  Tb4  1  0.813459  0.186541  0.186541  1
  Tb  Tb5  1  0.186541  0.813459  0.813459  1
  Tb  Tb6  1  0.186541  0.813459  0.186541  1
  Tb  Tb7  1  0.813459  0.186541  0.813459  1
  Tb  Tb8  1  0.186541  0.186541  0.813459  1
  Tb  Tb9  1  0.813459  0.813459  0.186541  1
  Nd  Nd10  1  0.935187  0.564813  0.564813  1
  Nd  Nd11  1  0.564813  0.935187  0.935187  1
  Nd  Nd12  1  0.564813  0.935187  0.564813  1
  Nd  Nd13  1  0.935187  0.564813  0.935187  1
  Nd  Nd14  1  0.564813  0.564813  0.935187  1
  Nd  Nd15  1  0.935187  0.935187  0.564813  1
  Cd  Cd16  1  0.580962  0.580962  0.580962  1
  Cd  Cd17  1  0.580962  0.580962  0.257115  1
  Cd  Cd18  1  0.580962  0.257115  0.580962  1
  Cd  Cd19  1  0.257115  0.580962  0.580962  1
  Pt  Pt20  1  0.140662  0.140662  0.140662  1
  Pt  Pt21  1  0.140662  0.140662  0.578012  1
  Pt  Pt22  1  0.140662  0.578012  0.140662  1
  Pt  Pt23  1  0.578012  0.140662  0.140662  1
