# generated using pymatgen
data_Zr3ScW8
_symmetry_space_group_name_H-M   'P 1'
_cell_length_a   9.39618486
_cell_length_b   9.39618395
_cell_length_c   9.39618522
_cell_angle_alpha   33.45307919
_cell_angle_beta   33.45307790
_cell_angle_gamma   33.45308619
_symmetry_Int_Tables_number   1
_chemical_formula_structural   Zr3ScW8
_chemical_formula_sum   'Zr3 Sc1 W8'
_cell_volume   224.50532302
_cell_formula_units_Z   1
loop_
 _symmetry_equiv_pos_site_id
 _symmetry_equiv_pos_as_xyz
  1  'x, y, z'
loop_
 _atom_site_type_symbol
 _atom_site_label
 _atom_site_symmetry_multiplicity
 _atom_site_fract_x
 _atom_site_fract_y
 _atom_site_fract_z
 _atom_site_occupancy
  Zr  Zr0  1  0.624909  0.624909  0.624909  1
  Zr  Zr1  1  0.000282  0.000282  0.000282  1
  Zr  Zr2  1  0.499912  0.499912  0.499912  1
  Sc  Sc3  1  0.125042  0.125042  0.125042  1
  W  W4  1  0.562543  0.062639  0.562543  1
  W  W5  1  0.062629  0.561983  0.062629  1
  W  W6  1  0.062639  0.562543  0.562543  1
  W  W7  1  0.561983  0.062629  0.062629  1
  W  W8  1  0.812415  0.812415  0.812415  1
  W  W9  1  0.312474  0.312474  0.312474  1
  W  W10  1  0.562543  0.562543  0.062639  1
  W  W11  1  0.062629  0.062629  0.561983  1
