# generated using pymatgen
data_BeI16
_symmetry_space_group_name_H-M   'P 1'
_cell_length_a   13.14239686
_cell_length_b   11.29319295
_cell_length_c   10.61069090
_cell_angle_alpha   93.88267214
_cell_angle_beta   123.54414195
_cell_angle_gamma   121.59360798
_symmetry_Int_Tables_number   1
_chemical_formula_structural   BeI16
_chemical_formula_sum   'Be1 I16'
_cell_volume   966.18955607
_cell_formula_units_Z   1
loop_
 _symmetry_equiv_pos_site_id
 _symmetry_equiv_pos_as_xyz
  1  'x, y, z'
loop_
 _atom_site_type_symbol
 _atom_site_label
 _atom_site_symmetry_multiplicity
 _atom_site_fract_x
 _atom_site_fract_y
 _atom_site_fract_z
 _atom_site_occupancy
  Be  Be0  1  0.000000  0.000000  0.000000  1
  I  I1  1  0.998374  0.983457  0.755488  1
  I  I2  1  0.001626  0.016543  0.244512  1
  I  I3  1  0.998772  0.233699  0.036029  1
  I  I4  1  0.654308  0.802829  0.777871  1
  I  I5  1  0.345692  0.197171  0.222129  1
  I  I6  1  0.001228  0.766301  0.963971  1
  I  I7  1  0.506029  0.517143  0.298132  1
  I  I8  1  0.493971  0.482857  0.701868  1
  I  I9  1  0.698535  0.885440  0.408651  1
  I  I10  1  0.034889  0.382285  0.842995  1
  I  I11  1  0.965111  0.617715  0.157005  1
  I  I12  1  0.462548  0.869975  0.102410  1
  I  I13  1  0.537452  0.130025  0.897590  1
  I  I14  1  0.858997  0.402067  0.312675  1
  I  I15  1  0.141003  0.597933  0.687325  1
  I  I16  1  0.301465  0.114560  0.591349  1
