# generated using pymatgen
data_HoSb5(ClO4)2
_symmetry_space_group_name_H-M   'P 1'
_cell_length_a   5.66089100
_cell_length_b   5.65004961
_cell_length_c   8.99823225
_cell_angle_alpha   87.29444402
_cell_angle_beta   90.00000000
_cell_angle_gamma   90.00000000
_symmetry_Int_Tables_number   1
_chemical_formula_structural   HoSb5(ClO4)2
_chemical_formula_sum   'Ho1 Sb5 Cl2 O8'
_cell_volume   287.48148215
_cell_formula_units_Z   1
loop_
 _symmetry_equiv_pos_site_id
 _symmetry_equiv_pos_as_xyz
  1  'x, y, z'
loop_
 _atom_site_type_symbol
 _atom_site_label
 _atom_site_symmetry_multiplicity
 _atom_site_fract_x
 _atom_site_fract_y
 _atom_site_fract_z
 _atom_site_occupancy
  Ho  Ho0  1  0.774828  0.750000  0.500000  1
  Sb  Sb1  1  0.691591  0.299273  0.789060  1
  Sb  Sb2  1  0.165711  0.250000  0.500000  1
  Sb  Sb3  1  0.691591  0.200727  0.210940  1
  Sb  Sb4  1  0.308344  0.694507  0.212543  1
  Sb  Sb5  1  0.308344  0.805493  0.787457  1
  Cl  Cl6  1  0.756381  0.750000  0.000000  1
  Cl  Cl7  1  0.255849  0.250000  0.000000  1
  O  O8  1  0.071834  0.912921  0.633075  1
  O  O9  1  0.071834  0.587079  0.366925  1
  O  O10  1  0.914300  0.091114  0.375096  1
  O  O11  1  0.914300  0.408886  0.624904  1
  O  O12  1  0.486813  0.552145  0.674468  1
  O  O13  1  0.550735  0.474936  0.320055  1
  O  O14  1  0.486813  0.947855  0.325532  1
  O  O15  1  0.550735  0.025064  0.679945  1
