# generated using pymatgen
data_TaNbAl3Pd
_symmetry_space_group_name_H-M   'P 1'
_cell_length_a   5.23569400
_cell_length_b   5.23569399
_cell_length_c   7.98441200
_cell_angle_alpha   90.00000000
_cell_angle_beta   90.00000000
_cell_angle_gamma   120.00000006
_symmetry_Int_Tables_number   1
_chemical_formula_structural   TaNbAl3Pd
_chemical_formula_sum   'Ta2 Nb2 Al6 Pd2'
_cell_volume   189.54925506
_cell_formula_units_Z   2
loop_
 _symmetry_equiv_pos_site_id
 _symmetry_equiv_pos_as_xyz
  1  'x, y, z'
loop_
 _atom_site_type_symbol
 _atom_site_label
 _atom_site_symmetry_multiplicity
 _atom_site_fract_x
 _atom_site_fract_y
 _atom_site_fract_z
 _atom_site_occupancy
  Ta  Ta0  1  0.333334  0.666667  0.572759  1
  Ta  Ta1  1  0.333334  0.666667  0.927241  1
  Nb  Nb2  1  0.666668  0.333334  0.073345  1
  Nb  Nb3  1  0.666668  0.333334  0.426654  1
  Al  Al4  1  0.171272  0.342544  0.250000  1
  Al  Al5  1  0.171273  0.828728  0.250000  1
  Al  Al6  1  0.657455  0.828728  0.250000  1
  Al  Al7  1  0.342263  0.171131  0.750000  1
  Al  Al8  1  0.828868  0.171131  0.750000  1
  Al  Al9  1  0.828869  0.657737  0.750000  1
  Pd  Pd10  1  0.000000  0.000000  0.999658  1
  Pd  Pd11  1  0.000000  0.000000  0.500342  1
