# generated using pymatgen
data_Sc12Co4AgRh
_symmetry_space_group_name_H-M   'P 1'
_cell_length_a   7.69322312
_cell_length_b   7.69322354
_cell_length_c   7.69322333
_cell_angle_alpha   110.97830797
_cell_angle_beta   111.33389437
_cell_angle_gamma   106.15180193
_symmetry_Int_Tables_number   1
_chemical_formula_structural   Sc12Co4AgRh
_chemical_formula_sum   'Sc12 Co4 Ag1 Rh1'
_cell_volume   349.63280130
_cell_formula_units_Z   1
loop_
 _symmetry_equiv_pos_site_id
 _symmetry_equiv_pos_as_xyz
  1  'x, y, z'
loop_
 _atom_site_type_symbol
 _atom_site_label
 _atom_site_symmetry_multiplicity
 _atom_site_fract_x
 _atom_site_fract_y
 _atom_site_fract_z
 _atom_site_occupancy
  Sc  Sc0  1  0.424285  0.226753  0.197531  1
  Sc  Sc1  1  0.575715  0.773247  0.802469  1
  Sc  Sc2  1  0.029221  0.226753  0.802469  1
  Sc  Sc3  1  0.970779  0.773247  0.197531  1
  Sc  Sc4  1  0.315348  0.617354  0.302005  1
  Sc  Sc5  1  0.684652  0.382646  0.697995  1
  Sc  Sc6  1  0.315348  0.013342  0.697995  1
  Sc  Sc7  1  0.684652  0.986658  0.302005  1
  Sc  Sc8  1  0.185348  0.279676  0.465025  1
  Sc  Sc9  1  0.814652  0.720323  0.534975  1
  Sc  Sc10  1  0.185348  0.720323  0.905671  1
  Sc  Sc11  1  0.814652  0.279676  0.094329  1
  Co  Co12  1  0.361685  0.000000  0.361685  1
  Co  Co13  1  0.638315  0.000000  0.638315  1
  Co  Co14  1  0.119284  0.619284  0.500000  1
  Co  Co15  1  0.880716  0.380716  0.500000  1
  Ag  Ag16  1  0.500000  0.500000  0.000000  1
  Rh  Rh17  1  0.000000  0.000000  0.000000  1
