# generated using pymatgen
data_LiYb2YPd2Pb3
_symmetry_space_group_name_H-M   'P 1'
_cell_length_a   8.13295649
_cell_length_b   8.13295762
_cell_length_c   3.64195000
_cell_angle_alpha   90.00000000
_cell_angle_beta   90.00000000
_cell_angle_gamma   119.70207978
_symmetry_Int_Tables_number   1
_chemical_formula_structural   LiYb2YPd2Pb3
_chemical_formula_sum   'Li1 Yb2 Y1 Pd2 Pb3'
_cell_volume   209.24617430
_cell_formula_units_Z   1
loop_
 _symmetry_equiv_pos_site_id
 _symmetry_equiv_pos_as_xyz
  1  'x, y, z'
loop_
 _atom_site_type_symbol
 _atom_site_label
 _atom_site_symmetry_multiplicity
 _atom_site_fract_x
 _atom_site_fract_y
 _atom_site_fract_z
 _atom_site_occupancy
  Li  Li0  1  0.000391  0.000391  0.500000  1
  Yb  Yb1  1  0.603552  0.001184  0.500000  1
  Yb  Yb2  1  0.001184  0.603552  0.500000  1
  Y  Y3  1  0.394810  0.394810  0.500000  1
  Pd  Pd4  1  0.663507  0.336114  0.000000  1
  Pd  Pd5  1  0.336114  0.663507  0.000000  1
  Pb  Pb6  1  0.725372  0.725372  0.000000  1
  Pb  Pb7  1  0.276475  0.998594  0.000000  1
  Pb  Pb8  1  0.998594  0.276475  0.000000  1
