# generated using pymatgen
data_Nd16Cd4Tc3Ni
_symmetry_space_group_name_H-M   'P 1'
_cell_length_a   9.87007904
_cell_length_b   9.98062634
_cell_length_c   9.98062600
_cell_angle_alpha   59.99999449
_cell_angle_beta   59.62879650
_cell_angle_gamma   59.62880024
_symmetry_Int_Tables_number   1
_chemical_formula_structural   Nd16Cd4Tc3Ni
_chemical_formula_sum   'Nd16 Cd4 Tc3 Ni1'
_cell_volume   691.29206003
_cell_formula_units_Z   1
loop_
 _symmetry_equiv_pos_site_id
 _symmetry_equiv_pos_as_xyz
  1  'x, y, z'
loop_
 _atom_site_type_symbol
 _atom_site_label
 _atom_site_symmetry_multiplicity
 _atom_site_fract_x
 _atom_site_fract_y
 _atom_site_fract_z
 _atom_site_occupancy
  Nd  Nd0  1  0.599365  0.596644  0.596644  1
  Nd  Nd1  1  0.599365  0.596644  0.207348  1
  Nd  Nd2  1  0.599365  0.207348  0.596644  1
  Nd  Nd3  1  0.209321  0.596893  0.596893  1
  Nd  Nd4  1  0.058873  0.440180  0.440180  1
  Nd  Nd5  1  0.440913  0.059310  0.059310  1
  Nd  Nd6  1  0.440913  0.059310  0.440467  1
  Nd  Nd7  1  0.058873  0.440180  0.060767  1
  Nd  Nd8  1  0.440913  0.440467  0.059310  1
  Nd  Nd9  1  0.058873  0.060767  0.440180  1
  Nd  Nd10  1  0.190335  0.808434  0.808434  1
  Nd  Nd11  1  0.807518  0.188401  0.188401  1
  Nd  Nd12  1  0.807518  0.188401  0.815681  1
  Nd  Nd13  1  0.190335  0.808434  0.192798  1
  Nd  Nd14  1  0.807518  0.815681  0.188401  1
  Nd  Nd15  1  0.190335  0.192798  0.808434  1
  Cd  Cd16  1  0.828329  0.829651  0.829651  1
  Cd  Cd17  1  0.828329  0.829651  0.512369  1
  Cd  Cd18  1  0.828329  0.512369  0.829651  1
  Cd  Cd19  1  0.511677  0.829441  0.829441  1
  Tc  Tc20  1  0.390432  0.384776  0.384776  1
  Tc  Tc21  1  0.390432  0.384776  0.840017  1
  Tc  Tc22  1  0.390432  0.840017  0.384776  1
  Ni  Ni23  1  0.831712  0.389429  0.389429  1
