# generated using pymatgen
data_TbPr2Dy(Co2Cl)2
_symmetry_space_group_name_H-M   'P 1'
_cell_length_a   3.91016200
_cell_length_b   3.91016319
_cell_length_c   16.25599600
_cell_angle_alpha   90.00000000
_cell_angle_beta   90.00000000
_cell_angle_gamma   119.99998993
_symmetry_Int_Tables_number   1
_chemical_formula_structural   TbPr2Dy(Co2Cl)2
_chemical_formula_sum   'Tb1 Pr2 Dy1 Co4 Cl2'
_cell_volume   215.24540717
_cell_formula_units_Z   1
loop_
 _symmetry_equiv_pos_site_id
 _symmetry_equiv_pos_as_xyz
  1  'x, y, z'
loop_
 _atom_site_type_symbol
 _atom_site_label
 _atom_site_symmetry_multiplicity
 _atom_site_fract_x
 _atom_site_fract_y
 _atom_site_fract_z
 _atom_site_occupancy
  Tb  Tb0  1  0.000000  0.000000  0.608596  1
  Pr  Pr1  1  0.000000  0.000000  0.117651  1
  Pr  Pr2  1  0.000000  0.000000  0.882674  1
  Dy  Dy3  1  0.000000  0.000000  0.391455  1
  Co  Co4  1  0.333333  0.666667  0.502576  1
  Co  Co5  1  0.666667  0.333333  0.496230  1
  Co  Co6  1  0.666667  0.333333  0.999924  1
  Co  Co7  1  0.333333  0.666667  0.000403  1
  Cl  Cl8  1  0.333333  0.666667  0.261713  1
  Cl  Cl9  1  0.666667  0.333333  0.738780  1
