# generated using pymatgen
data_Dy3Lu3ReSb2
_symmetry_space_group_name_H-M   'P 1'
_cell_length_a   8.05556900
_cell_length_b   8.05556841
_cell_length_c   4.28965200
_cell_angle_alpha   90.00000000
_cell_angle_beta   90.00000000
_cell_angle_gamma   119.99999833
_symmetry_Int_Tables_number   1
_chemical_formula_structural   Dy3Lu3ReSb2
_chemical_formula_sum   'Dy3 Lu3 Re1 Sb2'
_cell_volume   241.07107928
_cell_formula_units_Z   1
loop_
 _symmetry_equiv_pos_site_id
 _symmetry_equiv_pos_as_xyz
  1  'x, y, z'
loop_
 _atom_site_type_symbol
 _atom_site_label
 _atom_site_symmetry_multiplicity
 _atom_site_fract_x
 _atom_site_fract_y
 _atom_site_fract_z
 _atom_site_occupancy
  Dy  Dy0  1  0.605991  0.000000  0.000000  1
  Dy  Dy1  1  0.000000  0.605991  0.000000  1
  Dy  Dy2  1  0.394009  0.394009  0.000000  1
  Lu  Lu3  1  0.233090  0.000000  0.500000  1
  Lu  Lu4  1  0.000000  0.233090  0.500000  1
  Lu  Lu5  1  0.766910  0.766910  0.500000  1
  Re  Re6  1  0.000000  0.000000  0.000000  1
  Sb  Sb7  1  0.333333  0.666667  0.500000  1
  Sb  Sb8  1  0.666667  0.333333  0.500000  1
