# generated using pymatgen
data_La2Ta3P7Rh9
_symmetry_space_group_name_H-M   'P 1'
_cell_length_a   3.96914000
_cell_length_b   9.72721230
_cell_length_c   9.72614016
_cell_angle_alpha   119.97844400
_cell_angle_beta   89.99995218
_cell_angle_gamma   90.00041617
_symmetry_Int_Tables_number   1
_chemical_formula_structural   La2Ta3P7Rh9
_chemical_formula_sum   'La2 Ta3 P7 Rh9'
_cell_volume   325.27468185
_cell_formula_units_Z   1
loop_
 _symmetry_equiv_pos_site_id
 _symmetry_equiv_pos_as_xyz
  1  'x, y, z'
loop_
 _atom_site_type_symbol
 _atom_site_label
 _atom_site_symmetry_multiplicity
 _atom_site_fract_x
 _atom_site_fract_y
 _atom_site_fract_z
 _atom_site_occupancy
  La  La0  1  0.261884  0.666574  0.333305  1
  La  La1  1  0.761905  0.333386  0.666635  1
  Ta  Ta2  1  0.761946  0.095272  0.875935  1
  Ta  Ta3  1  0.761936  0.123838  0.219317  1
  Ta  Ta4  1  0.761949  0.780545  0.904460  1
  P  P5  1  0.262000  0.000001  0.000022  1
  P  P6  1  0.761851  0.884666  0.594381  1
  P  P7  1  0.761838  0.405616  0.290095  1
  P  P8  1  0.761846  0.709790  0.115507  1
  P  P9  1  0.261964  0.112871  0.411464  1
  P  P10  1  0.261956  0.588678  0.701576  1
  P  P11  1  0.261964  0.298687  0.887235  1
  Rh  Rh12  1  0.261907  0.885811  0.159278  1
  Rh  Rh13  1  0.261903  0.840726  0.726506  1
  Rh  Rh14  1  0.261899  0.273463  0.114388  1
  Rh  Rh15  1  0.761881  0.612896  0.562623  1
  Rh  Rh16  1  0.761886  0.437145  0.050070  1
  Rh  Rh17  1  0.761899  0.949717  0.386986  1
  Rh  Rh18  1  0.261847  0.367842  0.435363  1
  Rh  Rh19  1  0.261855  0.564840  0.932495  1
  Rh  Rh20  1  0.261886  0.067638  0.632357  1
