# generated using pymatgen
data_Ce3Sc5(B6W)4
_symmetry_space_group_name_H-M   'P 1'
_cell_length_a   3.56469800
_cell_length_b   9.15588328
_cell_length_c   11.55924346
_cell_angle_alpha   90.00190927
_cell_angle_beta   90.00000000
_cell_angle_gamma   90.00000000
_symmetry_Int_Tables_number   1
_chemical_formula_structural   Ce3Sc5(B6W)4
_chemical_formula_sum   'Ce3 Sc5 B24 W4'
_cell_volume   377.27011167
_cell_formula_units_Z   1
loop_
 _symmetry_equiv_pos_site_id
 _symmetry_equiv_pos_as_xyz
  1  'x, y, z'
loop_
 _atom_site_type_symbol
 _atom_site_label
 _atom_site_symmetry_multiplicity
 _atom_site_fract_x
 _atom_site_fract_y
 _atom_site_fract_z
 _atom_site_occupancy
  Ce  Ce0  1  0.000000  0.819718  0.085201  1
  Ce  Ce1  1  0.000000  0.180169  0.913870  1
  Ce  Ce2  1  0.000000  0.320793  0.415606  1
  Sc  Sc3  1  0.000000  0.680001  0.586290  1
  Sc  Sc4  1  0.000000  0.445692  0.128141  1
  Sc  Sc5  1  0.000000  0.555434  0.870612  1
  Sc  Sc6  1  0.000000  0.943908  0.373988  1
  Sc  Sc7  1  0.000000  0.054085  0.627141  1
  B  B8  1  0.500000  0.053472  0.067107  1
  B  B9  1  0.500000  0.945780  0.931473  1
  B  B10  1  0.500000  0.554675  0.436796  1
  B  B11  1  0.500000  0.449094  0.566619  1
  B  B12  1  0.500000  0.256629  0.081241  1
  B  B13  1  0.500000  0.743038  0.916916  1
  B  B14  1  0.500000  0.755677  0.424052  1
  B  B15  1  0.500000  0.244036  0.580831  1
  B  B16  1  0.500000  0.296686  0.236301  1
  B  B17  1  0.500000  0.702184  0.760377  1
  B  B18  1  0.500000  0.796635  0.266326  1
  B  B19  1  0.500000  0.203836  0.734804  1
  B  B20  1  0.500000  0.128305  0.319357  1
  B  B21  1  0.500000  0.868573  0.678026  1
  B  B22  1  0.500000  0.628978  0.182668  1
  B  B23  1  0.500000  0.372825  0.817762  1
  B  B24  1  0.500000  0.480122  0.286594  1
  B  B25  1  0.500000  0.523120  0.712663  1
  B  B26  1  0.500000  0.979279  0.216275  1
  B  B27  1  0.500000  0.019842  0.782816  1
  B  B28  1  0.500000  0.094646  0.474507  1
  B  B29  1  0.500000  0.901504  0.526888  1
  B  B30  1  0.500000  0.595698  0.025565  1
  B  B31  1  0.500000  0.404912  0.973411  1
  W  W32  1  0.000000  0.141174  0.181704  1
  W  W33  1  0.000000  0.858522  0.816581  1
  W  W34  1  0.000000  0.641271  0.320877  1
  W  W35  1  0.000000  0.359691  0.680608  1
