# generated using pymatgen
data_La3CoO6
_symmetry_space_group_name_H-M   'P 1'
_cell_length_a   7.56859567
_cell_length_b   7.56859697
_cell_length_c   5.69964100
_cell_angle_alpha   90.00000000
_cell_angle_beta   90.00000000
_cell_angle_gamma   102.17587317
_symmetry_Int_Tables_number   1
_chemical_formula_structural   La3CoO6
_chemical_formula_sum   'La6 Co2 O12'
_cell_volume   319.15164176
_cell_formula_units_Z   2
loop_
 _symmetry_equiv_pos_site_id
 _symmetry_equiv_pos_as_xyz
  1  'x, y, z'
loop_
 _atom_site_type_symbol
 _atom_site_label
 _atom_site_symmetry_multiplicity
 _atom_site_fract_x
 _atom_site_fract_y
 _atom_site_fract_z
 _atom_site_occupancy
  La  La0  1  0.412992  0.191942  0.539634  1
  La  La1  1  0.808058  0.587008  0.539634  1
  La  La2  1  0.587008  0.808058  0.039634  1
  La  La3  1  0.191942  0.412992  0.039634  1
  La  La4  1  0.105719  0.894281  0.075323  1
  La  La5  1  0.894281  0.105719  0.575323  1
  Co  Co6  1  0.311410  0.688590  0.501314  1
  Co  Co7  1  0.688590  0.311410  0.001314  1
  O  O8  1  0.168675  0.146454  0.803664  1
  O  O9  1  0.853546  0.831325  0.803664  1
  O  O10  1  0.831325  0.853546  0.303664  1
  O  O11  1  0.146454  0.168675  0.303664  1
  O  O12  1  0.602907  0.089341  0.838422  1
  O  O13  1  0.910659  0.397093  0.838422  1
  O  O14  1  0.397093  0.910659  0.338422  1
  O  O15  1  0.089341  0.602907  0.338422  1
  O  O16  1  0.552883  0.447117  0.842401  1
  O  O17  1  0.447117  0.552883  0.342401  1
  O  O18  1  0.287060  0.712940  0.827643  1
  O  O19  1  0.712940  0.287060  0.327643  1
