# generated using pymatgen
data_La2Th2Mg3Au10
_symmetry_space_group_name_H-M   'P 1'
_cell_length_a   8.73390614
_cell_length_b   8.73390555
_cell_length_c   10.42707700
_cell_angle_alpha   90.00000000
_cell_angle_beta   90.00000000
_cell_angle_gamma   108.30960631
_symmetry_Int_Tables_number   1
_chemical_formula_structural   La2Th2Mg3Au10
_chemical_formula_sum   'La4 Th4 Mg6 Au20'
_cell_volume   755.12071804
_cell_formula_units_Z   2
loop_
 _symmetry_equiv_pos_site_id
 _symmetry_equiv_pos_as_xyz
  1  'x, y, z'
loop_
 _atom_site_type_symbol
 _atom_site_label
 _atom_site_symmetry_multiplicity
 _atom_site_fract_x
 _atom_site_fract_y
 _atom_site_fract_z
 _atom_site_occupancy
  La  La0  1  0.299890  0.299890  0.203753  1
  La  La1  1  0.700110  0.700110  0.796247  1
  La  La2  1  0.200110  0.200110  0.703753  1
  La  La3  1  0.799890  0.799890  0.296247  1
  Th  Th4  1  0.698200  0.301800  0.000000  1
  Th  Th5  1  0.301800  0.698200  0.000000  1
  Th  Th6  1  0.801800  0.198200  0.500000  1
  Th  Th7  1  0.198200  0.801800  0.500000  1
  Mg  Mg8  1  0.009639  0.509639  0.250000  1
  Mg  Mg9  1  0.990361  0.490361  0.750000  1
  Mg  Mg10  1  0.490361  0.990361  0.750000  1
  Mg  Mg11  1  0.509639  0.009639  0.250000  1
  Mg  Mg12  1  0.000000  0.000000  0.000000  1
  Mg  Mg13  1  0.500000  0.500000  0.500000  1
  Au  Au14  1  0.096037  0.096037  0.402481  1
  Au  Au15  1  0.903963  0.903963  0.597519  1
  Au  Au16  1  0.403963  0.403963  0.902481  1
  Au  Au17  1  0.596037  0.596037  0.097519  1
  Au  Au18  1  0.877329  0.163941  0.206549  1
  Au  Au19  1  0.122671  0.836059  0.793451  1
  Au  Au20  1  0.622671  0.336059  0.706549  1
  Au  Au21  1  0.663941  0.377329  0.293451  1
  Au  Au22  1  0.377329  0.663941  0.293451  1
  Au  Au23  1  0.336059  0.622671  0.706549  1
  Au  Au24  1  0.836059  0.122671  0.793451  1
  Au  Au25  1  0.163941  0.877329  0.206549  1
  Au  Au26  1  0.936959  0.654228  0.019754  1
  Au  Au27  1  0.063041  0.345772  0.980246  1
  Au  Au28  1  0.563041  0.845772  0.519754  1
  Au  Au29  1  0.154228  0.436959  0.480246  1
  Au  Au30  1  0.436959  0.154228  0.480246  1
  Au  Au31  1  0.845772  0.563041  0.519754  1
  Au  Au32  1  0.345772  0.063041  0.980246  1
  Au  Au33  1  0.654228  0.936959  0.019754  1
