# generated using pymatgen
data_PrNdY(CuSn)4
_symmetry_space_group_name_H-M   'P 1'
_cell_length_a   8.56439938
_cell_length_b   8.56440015
_cell_length_c   8.56439955
_cell_angle_alpha   148.92056832
_cell_angle_beta   132.20650049
_cell_angle_gamma   58.11223114
_symmetry_Int_Tables_number   1
_chemical_formula_structural   PrNdY(CuSn)4
_chemical_formula_sum   'Pr1 Nd1 Y1 Cu4 Sn4'
_cell_volume   238.37905509
_cell_formula_units_Z   1
loop_
 _symmetry_equiv_pos_site_id
 _symmetry_equiv_pos_as_xyz
  1  'x, y, z'
loop_
 _atom_site_type_symbol
 _atom_site_label
 _atom_site_symmetry_multiplicity
 _atom_site_fract_x
 _atom_site_fract_y
 _atom_site_fract_z
 _atom_site_occupancy
  Pr  Pr0  1  0.867643  0.867643  0.000000  1
  Nd  Nd1  1  0.132669  0.132669  0.000000  1
  Y  Y2  1  0.500143  0.000143  0.500000  1
  Cu  Cu3  1  0.483409  0.668376  0.815034  1
  Cu  Cu4  1  0.853342  0.668376  0.184966  1
  Cu  Cu5  1  0.147011  0.331382  0.815630  1
  Cu  Cu6  1  0.515752  0.331382  0.184370  1
  Sn  Sn7  1  0.205553  0.500348  0.705205  1
  Sn  Sn8  1  0.795143  0.500348  0.294795  1
  Sn  Sn9  1  0.714184  0.214184  0.500000  1
  Sn  Sn10  1  0.285150  0.785150  0.500000  1
