# generated using pymatgen
data_Tb9NdCuBi6As
_symmetry_space_group_name_H-M   'P 1'
_cell_length_a   9.38971700
_cell_length_b   9.38971735
_cell_length_c   6.49777900
_cell_angle_alpha   90.00000000
_cell_angle_beta   90.00000000
_cell_angle_gamma   120.00000932
_symmetry_Int_Tables_number   1
_chemical_formula_structural   Tb9NdCuBi6As
_chemical_formula_sum   'Tb9 Nd1 Cu1 Bi6 As1'
_cell_volume   496.13578161
_cell_formula_units_Z   1
loop_
 _symmetry_equiv_pos_site_id
 _symmetry_equiv_pos_as_xyz
  1  'x, y, z'
loop_
 _atom_site_type_symbol
 _atom_site_label
 _atom_site_symmetry_multiplicity
 _atom_site_fract_x
 _atom_site_fract_y
 _atom_site_fract_z
 _atom_site_occupancy
  Tb  Tb0  1  0.333333  0.666667  0.500000  1
  Tb  Tb1  1  0.333333  0.666667  0.000000  1
  Tb  Tb2  1  0.666667  0.333333  0.000000  1
  Tb  Tb3  1  0.748686  0.748798  0.247891  1
  Tb  Tb4  1  0.251202  0.999889  0.247891  1
  Tb  Tb5  1  0.000111  0.251314  0.247891  1
  Tb  Tb6  1  0.251202  0.251314  0.752109  1
  Tb  Tb7  1  0.748686  0.999889  0.752109  1
  Tb  Tb8  1  0.000111  0.748798  0.752109  1
  Nd  Nd9  1  0.666667  0.333333  0.500000  1
  Cu  Cu10  1  0.000000  0.000000  0.000000  1
  Bi  Bi11  1  0.387725  0.390415  0.246387  1
  Bi  Bi12  1  0.609585  0.997310  0.246387  1
  Bi  Bi13  1  0.002690  0.612275  0.246387  1
  Bi  Bi14  1  0.609585  0.612275  0.753613  1
  Bi  Bi15  1  0.387725  0.997310  0.753613  1
  Bi  Bi16  1  0.002690  0.390415  0.753613  1
  As  As17  1  0.000000  0.000000  0.500000  1
