# generated using pymatgen
data_Sm2CrPdF14
_symmetry_space_group_name_H-M   'P 1'
_cell_length_a   5.59295100
_cell_length_b   8.98836685
_cell_length_c   11.99821635
_cell_angle_alpha   62.32653814
_cell_angle_beta   90.00000000
_cell_angle_gamma   90.00000000
_symmetry_Int_Tables_number   1
_chemical_formula_structural   Sm2CrPdF14
_chemical_formula_sum   'Sm4 Cr2 Pd2 F28'
_cell_volume   534.17115602
_cell_formula_units_Z   2
loop_
 _symmetry_equiv_pos_site_id
 _symmetry_equiv_pos_as_xyz
  1  'x, y, z'
loop_
 _atom_site_type_symbol
 _atom_site_label
 _atom_site_symmetry_multiplicity
 _atom_site_fract_x
 _atom_site_fract_y
 _atom_site_fract_z
 _atom_site_occupancy
  Sm  Sm0  1  0.763638  0.810354  0.767233  1
  Sm  Sm1  1  0.263638  0.189646  0.732767  1
  Sm  Sm2  1  0.237399  0.190445  0.236676  1
  Sm  Sm3  1  0.737399  0.809555  0.263324  1
  Cr  Cr4  1  0.243662  0.725466  0.043425  1
  Cr  Cr5  1  0.743662  0.274534  0.456575  1
  Pd  Pd6  1  0.757060  0.272538  0.957209  1
  Pd  Pd7  1  0.257060  0.727462  0.542791  1
  F  F8  1  0.437977  0.709582  0.925358  1
  F  F9  1  0.937977  0.290418  0.574642  1
  F  F10  1  0.569796  0.297091  0.084593  1
  F  F11  1  0.069796  0.702909  0.415407  1
  F  F12  1  0.464475  0.282182  0.543625  1
  F  F13  1  0.964475  0.717818  0.956375  1
  F  F14  1  0.554297  0.715699  0.461964  1
  F  F15  1  0.054297  0.284301  0.038036  1
  F  F16  1  0.764896  0.516096  0.858718  1
  F  F17  1  0.264896  0.483904  0.641282  1
  F  F18  1  0.232822  0.493975  0.136041  1
  F  F19  1  0.732822  0.506025  0.363959  1
  F  F20  1  0.758481  0.028767  0.047713  1
  F  F21  1  0.258481  0.971233  0.452287  1
  F  F22  1  0.242624  0.955406  0.953313  1
  F  F23  1  0.742624  0.044594  0.546687  1
  F  F24  1  0.964007  0.730151  0.629199  1
  F  F25  1  0.464007  0.269849  0.870801  1
  F  F26  1  0.014783  0.271539  0.363932  1
  F  F27  1  0.514783  0.728461  0.136068  1
  F  F28  1  0.050490  0.742119  0.164260  1
  F  F29  1  0.550490  0.257881  0.335740  1
  F  F30  1  0.940329  0.254979  0.825451  1
  F  F31  1  0.440329  0.745021  0.674549  1
  F  F32  1  0.410100  0.969466  0.231870  1
  F  F33  1  0.910100  0.030534  0.268130  1
  F  F34  1  0.593163  0.029573  0.774061  1
  F  F35  1  0.093163  0.970427  0.725939  1
