# generated using pymatgen
data_TbLu9(ZnIn3)2
_symmetry_space_group_name_H-M   'P 1'
_cell_length_a   9.02107300
_cell_length_b   9.03750936
_cell_length_c   6.55637000
_cell_angle_alpha   90.00000000
_cell_angle_beta   90.00000000
_cell_angle_gamma   119.93985302
_symmetry_Int_Tables_number   1
_chemical_formula_structural   TbLu9(ZnIn3)2
_chemical_formula_sum   'Tb1 Lu9 Zn2 In6'
_cell_volume   463.19508463
_cell_formula_units_Z   1
loop_
 _symmetry_equiv_pos_site_id
 _symmetry_equiv_pos_as_xyz
  1  'x, y, z'
loop_
 _atom_site_type_symbol
 _atom_site_label
 _atom_site_symmetry_multiplicity
 _atom_site_fract_x
 _atom_site_fract_y
 _atom_site_fract_z
 _atom_site_occupancy
  Tb  Tb0  1  0.275657  0.000000  0.750000  1
  Lu  Lu1  1  0.333632  0.665483  0.499691  1
  Lu  Lu2  1  0.668150  0.334517  0.499691  1
  Lu  Lu3  1  0.668150  0.334517  0.000309  1
  Lu  Lu4  1  0.333632  0.665483  0.000309  1
  Lu  Lu5  1  0.722093  0.000000  0.250000  1
  Lu  Lu6  1  0.000939  0.275925  0.750000  1
  Lu  Lu7  1  0.999914  0.724358  0.250000  1
  Lu  Lu8  1  0.725014  0.724075  0.750000  1
  Lu  Lu9  1  0.275556  0.275642  0.250000  1
  Zn  Zn10  1  0.997258  0.000000  0.498373  1
  Zn  Zn11  1  0.997258  0.000000  0.001627  1
  In  In12  1  0.625157  0.000000  0.750000  1
  In  In13  1  0.378637  0.000000  0.250000  1
  In  In14  1  0.997940  0.619528  0.750000  1
  In  In15  1  0.000100  0.377602  0.250000  1
  In  In16  1  0.378413  0.380472  0.750000  1
  In  In17  1  0.622498  0.622398  0.250000  1
