# generated using pymatgen
data_Tb8TmLu(BiAu2)2
_symmetry_space_group_name_H-M   'P 1'
_cell_length_a   8.74093533
_cell_length_b   8.74093490
_cell_length_c   8.74093506
_cell_angle_alpha   124.31172096
_cell_angle_beta   124.31172065
_cell_angle_gamma   82.68120290
_symmetry_Int_Tables_number   1
_chemical_formula_structural   Tb8TmLu(BiAu2)2
_chemical_formula_sum   'Tb8 Tm1 Lu1 Bi2 Au4'
_cell_volume   437.53816072
_cell_formula_units_Z   1
loop_
 _symmetry_equiv_pos_site_id
 _symmetry_equiv_pos_as_xyz
  1  'x, y, z'
loop_
 _atom_site_type_symbol
 _atom_site_label
 _atom_site_symmetry_multiplicity
 _atom_site_fract_x
 _atom_site_fract_y
 _atom_site_fract_z
 _atom_site_occupancy
  Tb  Tb0  1  0.516198  0.016075  0.812021  1
  Tb  Tb1  1  0.204053  0.704176  0.187979  1
  Tb  Tb2  1  0.016075  0.204053  0.499877  1
  Tb  Tb3  1  0.704176  0.516198  0.500123  1
  Tb  Tb4  1  0.483802  0.983925  0.187979  1
  Tb  Tb5  1  0.795947  0.295824  0.812021  1
  Tb  Tb6  1  0.983925  0.795947  0.500123  1
  Tb  Tb7  1  0.295824  0.483802  0.499877  1
  Tm  Tm8  1  0.500000  0.500000  0.000000  1
  Lu  Lu9  1  0.000000  0.000000  0.000000  1
  Bi  Bi10  1  0.249952  0.249952  0.000000  1
  Bi  Bi11  1  0.750048  0.750048  0.000000  1
  Au  Au12  1  0.138051  0.638148  0.776198  1
  Au  Au13  1  0.861949  0.361852  0.223802  1
  Au  Au14  1  0.638148  0.861949  0.500097  1
  Au  Au15  1  0.361852  0.138051  0.499903  1
