# generated using pymatgen
data_Ho5Cu3(Ni4P3)4
_symmetry_space_group_name_H-M   'P 1'
_cell_length_a   12.06264800
_cell_length_b   12.06264971
_cell_length_c   3.76643200
_cell_angle_alpha   90.00000000
_cell_angle_beta   90.00000000
_cell_angle_gamma   120.00000080
_symmetry_Int_Tables_number   1
_chemical_formula_structural   Ho5Cu3(Ni4P3)4
_chemical_formula_sum   'Ho5 Cu3 Ni16 P12'
_cell_volume   474.62010428
_cell_formula_units_Z   1
loop_
 _symmetry_equiv_pos_site_id
 _symmetry_equiv_pos_as_xyz
  1  'x, y, z'
loop_
 _atom_site_type_symbol
 _atom_site_label
 _atom_site_symmetry_multiplicity
 _atom_site_fract_x
 _atom_site_fract_y
 _atom_site_fract_z
 _atom_site_occupancy
  Ho  Ho0  1  0.666667  0.333333  0.000000  1
  Ho  Ho1  1  0.333333  0.666667  0.000000  1
  Ho  Ho2  1  0.812524  0.812524  0.500000  1
  Ho  Ho3  1  0.187476  0.000000  0.500000  1
  Ho  Ho4  1  0.000000  0.187476  0.500000  1
  Cu  Cu5  1  0.445776  0.445776  0.000000  1
  Cu  Cu6  1  0.554224  0.000000  0.000000  1
  Cu  Cu7  1  0.000000  0.554224  0.000000  1
  Ni  Ni8  1  0.876645  0.361969  0.500000  1
  Ni  Ni9  1  0.638031  0.514676  0.500000  1
  Ni  Ni10  1  0.485324  0.123355  0.500000  1
  Ni  Ni11  1  0.361969  0.876645  0.500000  1
  Ni  Ni12  1  0.514676  0.638031  0.500000  1
  Ni  Ni13  1  0.123355  0.485324  0.500000  1
  Ni  Ni14  1  0.800319  0.180450  0.000000  1
  Ni  Ni15  1  0.819550  0.619867  0.000000  1
  Ni  Ni16  1  0.380133  0.199681  0.000000  1
  Ni  Ni17  1  0.180450  0.800319  0.000000  1
  Ni  Ni18  1  0.619867  0.819550  0.000000  1
  Ni  Ni19  1  0.199681  0.380133  0.000000  1
  Ni  Ni20  1  0.283746  0.283746  0.500000  1
  Ni  Ni21  1  0.716254  0.000000  0.500000  1
  Ni  Ni22  1  0.000000  0.716254  0.500000  1
  Ni  Ni23  1  0.000000  0.000000  0.000000  1
  P  P24  1  0.691186  0.170373  0.500000  1
  P  P25  1  0.829627  0.520813  0.500000  1
  P  P26  1  0.479187  0.308814  0.500000  1
  P  P27  1  0.170373  0.691186  0.500000  1
  P  P28  1  0.520813  0.829627  0.500000  1
  P  P29  1  0.308814  0.479187  0.500000  1
  P  P30  1  0.177665  0.177665  0.000000  1
  P  P31  1  0.822335  0.000000  0.000000  1
  P  P32  1  0.000000  0.822335  0.000000  1
  P  P33  1  0.636927  0.636927  0.000000  1
  P  P34  1  0.363073  0.000000  0.000000  1
  P  P35  1  0.000000  0.363073  0.000000  1
