# generated using pymatgen
data_Ca4HoU5O18
_symmetry_space_group_name_H-M   'P 1'
_cell_length_a   6.84909593
_cell_length_b   7.56707790
_cell_length_c   8.49184092
_cell_angle_alpha   99.50272515
_cell_angle_beta   98.48207937
_cell_angle_gamma   107.76204545
_symmetry_Int_Tables_number   1
_chemical_formula_structural   Ca4HoU5O18
_chemical_formula_sum   'Ca4 Ho1 U5 O18'
_cell_volume   404.10479165
_cell_formula_units_Z   1
loop_
 _symmetry_equiv_pos_site_id
 _symmetry_equiv_pos_as_xyz
  1  'x, y, z'
loop_
 _atom_site_type_symbol
 _atom_site_label
 _atom_site_symmetry_multiplicity
 _atom_site_fract_x
 _atom_site_fract_y
 _atom_site_fract_z
 _atom_site_occupancy
  Ca  Ca0  1  0.595725  0.699291  0.195234  1
  Ca  Ca1  1  0.405060  0.301596  0.804372  1
  Ca  Ca2  1  0.204522  0.897123  0.419010  1
  Ca  Ca3  1  0.001259  0.503153  0.002354  1
  Ho  Ho4  1  0.798689  0.108657  0.578834  1
  U  U5  1  0.998163  0.998369  0.999986  1
  U  U6  1  0.790205  0.581877  0.589638  1
  U  U7  1  0.627303  0.204139  0.191644  1
  U  U8  1  0.374268  0.795911  0.806249  1
  U  U9  1  0.210850  0.421433  0.410514  1
  O  O10  1  0.819225  0.809076  0.478790  1
  O  O11  1  0.002367  0.250552  0.166982  1
  O  O12  1  0.672700  0.414717  0.064634  1
  O  O13  1  0.474283  0.999030  0.674749  1
  O  O14  1  0.861091  0.336047  0.428458  1
  O  O15  1  0.507667  0.403432  0.346734  1
  O  O16  1  0.255564  0.621337  0.279353  1
  O  O17  1  0.987418  0.834053  0.165088  1
  O  O18  1  0.657948  0.929957  0.003091  1
  O  O19  1  0.339153  0.069300  0.996097  1
  O  O20  1  0.002060  0.157526  0.826369  1
  O  O21  1  0.746306  0.371983  0.717410  1
  O  O22  1  0.495438  0.595438  0.654927  1
  O  O23  1  0.136920  0.659094  0.574947  1
  O  O24  1  0.549308  0.003047  0.327688  1
  O  O25  1  0.325990  0.584307  0.933480  1
  O  O26  1  0.992678  0.747266  0.831950  1
  O  O27  1  0.167838  0.202286  0.531417  1
