# generated using pymatgen
data_Ba4CoAgH12
_symmetry_space_group_name_H-M   'P 1'
_cell_length_a   8.02494334
_cell_length_b   8.02494337
_cell_length_c   5.88762007
_cell_angle_alpha   90.01370298
_cell_angle_beta   90.01370629
_cell_angle_gamma   137.06236092
_symmetry_Int_Tables_number   1
_chemical_formula_structural   Ba4CoAgH12
_chemical_formula_sum   'Ba4 Co1 Ag1 H12'
_cell_volume   258.28519721
_cell_formula_units_Z   1
loop_
 _symmetry_equiv_pos_site_id
 _symmetry_equiv_pos_as_xyz
  1  'x, y, z'
loop_
 _atom_site_type_symbol
 _atom_site_label
 _atom_site_symmetry_multiplicity
 _atom_site_fract_x
 _atom_site_fract_y
 _atom_site_fract_z
 _atom_site_occupancy
  Ba  Ba0  1  0.357217  0.642783  0.000000  1
  Ba  Ba1  1  0.857167  0.142833  0.500000  1
  Ba  Ba2  1  0.642783  0.357217  0.000000  1
  Ba  Ba3  1  0.142833  0.857167  0.500000  1
  Co  Co4  1  0.000000  0.000000  0.000000  1
  Ag  Ag5  1  0.500000  0.500000  0.500000  1
  H  H6  1  0.999956  0.499685  0.251400  1
  H  H7  1  0.500315  0.000044  0.748600  1
  H  H8  1  0.000044  0.500315  0.748600  1
  H  H9  1  0.499685  0.999956  0.251400  1
  H  H10  1  0.104809  0.895191  0.000000  1
  H  H11  1  0.615555  0.384445  0.500000  1
  H  H12  1  0.895191  0.104809  0.000000  1
  H  H13  1  0.384445  0.615555  0.500000  1
  H  H14  1  0.809512  0.809512  0.189825  1
  H  H15  1  0.190488  0.190488  0.810175  1
  H  H16  1  0.809017  0.809017  0.810342  1
  H  H17  1  0.190983  0.190983  0.189658  1
