# generated using pymatgen
data_Th5SiSb3
_symmetry_space_group_name_H-M   'P 1'
_cell_length_a   9.49639504
_cell_length_b   9.49636090
_cell_length_c   6.54950500
_cell_angle_alpha   89.99991852
_cell_angle_beta   90.00019129
_cell_angle_gamma   119.99993669
_symmetry_Int_Tables_number   1
_chemical_formula_structural   Th5SiSb3
_chemical_formula_sum   'Th10 Si2 Sb6'
_cell_volume   511.51146272
_cell_formula_units_Z   2
loop_
 _symmetry_equiv_pos_site_id
 _symmetry_equiv_pos_as_xyz
  1  'x, y, z'
loop_
 _atom_site_type_symbol
 _atom_site_label
 _atom_site_symmetry_multiplicity
 _atom_site_fract_x
 _atom_site_fract_y
 _atom_site_fract_z
 _atom_site_occupancy
  Th  Th0  1  0.333336  0.666662  0.000001  1
  Th  Th1  1  0.666664  0.333335  0.000000  1
  Th  Th2  1  0.000010  0.257254  0.250003  1
  Th  Th3  1  0.257253  0.000009  0.250001  1
  Th  Th4  1  0.742751  0.742751  0.250003  1
  Th  Th5  1  0.333335  0.666662  0.500002  1
  Th  Th6  1  0.666663  0.333336  0.500001  1
  Th  Th7  1  0.742748  0.999992  0.750000  1
  Th  Th8  1  0.999990  0.742749  0.749999  1
  Th  Th9  1  0.257250  0.257251  0.750000  1
  Si  Si10  1  0.000001  0.000001  0.000000  1
  Si  Si11  1  0.000001  0.000002  0.500001  1
  Sb  Sb12  1  0.610110  0.000008  0.249996  1
  Sb  Sb13  1  0.000007  0.610110  0.249995  1
  Sb  Sb14  1  0.389891  0.389891  0.249991  1
  Sb  Sb15  1  0.610110  0.610110  0.750011  1
  Sb  Sb16  1  0.999989  0.389891  0.750005  1
  Sb  Sb17  1  0.389889  0.999989  0.750006  1
