# generated using pymatgen
data_Sb11TeRu3Pt
_symmetry_space_group_name_H-M   'P 1'
_cell_length_a   8.20437758
_cell_length_b   8.19644375
_cell_length_c   8.19497500
_cell_angle_alpha   109.29349991
_cell_angle_beta   109.43018612
_cell_angle_gamma   109.69912710
_symmetry_Int_Tables_number   1
_chemical_formula_structural   Sb11TeRu3Pt
_chemical_formula_sum   'Sb11 Te1 Ru3 Pt1'
_cell_volume   424.17352482
_cell_formula_units_Z   1
loop_
 _symmetry_equiv_pos_site_id
 _symmetry_equiv_pos_as_xyz
  1  'x, y, z'
loop_
 _atom_site_type_symbol
 _atom_site_label
 _atom_site_symmetry_multiplicity
 _atom_site_fract_x
 _atom_site_fract_y
 _atom_site_fract_z
 _atom_site_occupancy
  Sb  Sb0  1  0.851546  0.502336  0.660873  1
  Sb  Sb1  1  0.502801  0.659566  0.851162  1
  Sb  Sb2  1  0.665792  0.163782  0.828236  1
  Sb  Sb3  1  0.845062  0.177078  0.332049  1
  Sb  Sb4  1  0.156514  0.820635  0.665611  1
  Sb  Sb5  1  0.181796  0.337037  0.844427  1
  Sb  Sb6  1  0.148398  0.493311  0.336649  1
  Sb  Sb7  1  0.338529  0.149649  0.497774  1
  Sb  Sb8  1  0.497976  0.337306  0.150146  1
  Sb  Sb9  1  0.324689  0.845262  0.168508  1
  Sb  Sb10  1  0.822846  0.664267  0.157033  1
  Te  Te11  1  0.660902  0.852960  0.505384  1
  Ru  Ru12  1  0.500414  0.998210  0.999297  1
  Ru  Ru13  1  0.999879  0.999504  0.501308  1
  Ru  Ru14  1  0.002508  0.500573  0.000242  1
  Pt  Pt15  1  0.500348  0.498521  0.501299  1
