# generated using pymatgen
data_Pr2Nd10IrPd3
_symmetry_space_group_name_H-M   'P 1'
_cell_length_a   6.63670502
_cell_length_b   7.33841332
_cell_length_c   10.05034500
_cell_angle_alpha   90.00000000
_cell_angle_beta   90.00000000
_cell_angle_gamma   90.02158680
_symmetry_Int_Tables_number   1
_chemical_formula_structural   Pr2Nd10IrPd3
_chemical_formula_sum   'Pr2 Nd10 Ir1 Pd3'
_cell_volume   489.48075752
_cell_formula_units_Z   1
loop_
 _symmetry_equiv_pos_site_id
 _symmetry_equiv_pos_as_xyz
  1  'x, y, z'
loop_
 _atom_site_type_symbol
 _atom_site_label
 _atom_site_symmetry_multiplicity
 _atom_site_fract_x
 _atom_site_fract_y
 _atom_site_fract_z
 _atom_site_occupancy
  Pr  Pr0  1  0.861743  0.527178  0.250000  1
  Pr  Pr1  1  0.636912  0.027962  0.250000  1
  Nd  Nd2  1  0.331687  0.678289  0.058485  1
  Nd  Nd3  1  0.166976  0.177657  0.439761  1
  Nd  Nd4  1  0.666682  0.328054  0.565189  1
  Nd  Nd5  1  0.827263  0.818878  0.936029  1
  Nd  Nd6  1  0.666682  0.328054  0.934811  1
  Nd  Nd7  1  0.827263  0.818878  0.563971  1
  Nd  Nd8  1  0.331687  0.678289  0.441515  1
  Nd  Nd9  1  0.166976  0.177657  0.060239  1
  Nd  Nd10  1  0.146804  0.472413  0.750000  1
  Nd  Nd11  1  0.368044  0.961111  0.750000  1
  Ir  Ir12  1  0.567951  0.618178  0.750000  1
  Pd  Pd13  1  0.071824  0.885128  0.250000  1
  Pd  Pd14  1  0.425350  0.386611  0.250000  1
  Pd  Pd15  1  0.936157  0.115666  0.750000  1
