# generated using pymatgen
data_Y13Th3(HgIr)4
_symmetry_space_group_name_H-M   'P 1'
_cell_length_a   9.71276217
_cell_length_b   9.71774759
_cell_length_c   9.71774800
_cell_angle_alpha   59.99999861
_cell_angle_beta   59.98301780
_cell_angle_gamma   59.98302484
_symmetry_Int_Tables_number   1
_chemical_formula_structural   Y13Th3(HgIr)4
_chemical_formula_sum   'Y13 Th3 Hg4 Ir4'
_cell_volume   648.40670573
_cell_formula_units_Z   1
loop_
 _symmetry_equiv_pos_site_id
 _symmetry_equiv_pos_as_xyz
  1  'x, y, z'
loop_
 _atom_site_type_symbol
 _atom_site_label
 _atom_site_symmetry_multiplicity
 _atom_site_fract_x
 _atom_site_fract_y
 _atom_site_fract_z
 _atom_site_occupancy
  Y  Y0  1  0.942596  0.352468  0.352468  1
  Y  Y1  1  0.810324  0.190798  0.190798  1
  Y  Y2  1  0.189030  0.811162  0.811162  1
  Y  Y3  1  0.189030  0.811162  0.188645  1
  Y  Y4  1  0.810324  0.190798  0.808080  1
  Y  Y5  1  0.189030  0.188645  0.811162  1
  Y  Y6  1  0.810324  0.808080  0.190798  1
  Y  Y7  1  0.936873  0.563267  0.563267  1
  Y  Y8  1  0.563892  0.935945  0.935945  1
  Y  Y9  1  0.563892  0.935945  0.564217  1
  Y  Y10  1  0.936873  0.563267  0.936593  1
  Y  Y11  1  0.563892  0.564217  0.935945  1
  Y  Y12  1  0.936873  0.936593  0.563267  1
  Th  Th13  1  0.348944  0.350993  0.350993  1
  Th  Th14  1  0.348944  0.350993  0.949071  1
  Th  Th15  1  0.348944  0.949071  0.350993  1
  Hg  Hg16  1  0.588875  0.585406  0.585406  1
  Hg  Hg17  1  0.588875  0.585406  0.240315  1
  Hg  Hg18  1  0.588875  0.240315  0.585406  1
  Hg  Hg19  1  0.237878  0.587374  0.587374  1
  Ir  Ir20  1  0.145198  0.141692  0.141692  1
  Ir  Ir21  1  0.145198  0.141692  0.571418  1
  Ir  Ir22  1  0.145198  0.571418  0.141692  1
  Ir  Ir23  1  0.570120  0.143293  0.143293  1
