# generated using pymatgen
data_Dy10Si16Ge
_symmetry_space_group_name_H-M   'P 1'
_cell_length_a   11.03333370
_cell_length_b   11.02035092
_cell_length_c   11.03333375
_cell_angle_alpha   144.76747870
_cell_angle_beta   135.78784185
_cell_angle_gamma   57.77491961
_symmetry_Int_Tables_number   1
_chemical_formula_structural   Dy10Si16Ge
_chemical_formula_sum   'Dy10 Si16 Ge1'
_cell_volume   535.11477446
_cell_formula_units_Z   1
loop_
 _symmetry_equiv_pos_site_id
 _symmetry_equiv_pos_as_xyz
  1  'x, y, z'
loop_
 _atom_site_type_symbol
 _atom_site_label
 _atom_site_symmetry_multiplicity
 _atom_site_fract_x
 _atom_site_fract_y
 _atom_site_fract_z
 _atom_site_occupancy
  Dy  Dy0  1  0.755411  0.759797  0.515600  1
  Dy  Dy1  1  0.448647  0.963808  0.013284  1
  Dy  Dy2  1  0.848322  0.367436  0.016078  1
  Dy  Dy3  1  0.950524  0.963808  0.515161  1
  Dy  Dy4  1  0.151591  0.166909  0.519397  1
  Dy  Dy5  1  0.351358  0.367436  0.519113  1
  Dy  Dy6  1  0.244197  0.759797  0.004387  1
  Dy  Dy7  1  0.548615  0.561869  0.509033  1
  Dy  Dy8  1  0.052835  0.561869  0.013254  1
  Dy  Dy9  1  0.647512  0.166909  0.015318  1
  Si  Si10  1  0.199435  0.577650  0.378213  1
  Si  Si11  1  0.000168  0.081606  0.081438  1
  Si  Si12  1  0.699001  0.290009  0.591008  1
  Si  Si13  1  0.800765  0.180348  0.379583  1
  Si  Si14  1  0.895721  0.504992  0.609271  1
  Si  Si15  1  0.417680  0.872456  0.454777  1
  Si  Si16  1  0.104353  0.713235  0.608882  1
  Si  Si17  1  0.300755  0.896455  0.595700  1
  Si  Si18  1  0.581486  0.037828  0.456342  1
  Si  Si19  1  0.999860  0.430825  0.430965  1
  Si  Si20  1  0.880530  0.843095  0.962566  1
  Si  Si21  1  0.399826  0.500503  0.100677  1
  Si  Si22  1  0.120338  0.084765  0.964427  1
  Si  Si23  1  0.285572  0.241023  0.955452  1
  Si  Si24  1  0.499589  0.387735  0.888146  1
  Si  Si25  1  0.598645  0.701585  0.102940  1
  Ge  Ge26  1  0.717263  0.677750  0.960487  1
