# generated using pymatgen
data_Cs6LaPuI12
_symmetry_space_group_name_H-M   'P 1'
_cell_length_a   10.70021882
_cell_length_b   10.74894599
_cell_length_c   8.93562800
_cell_angle_alpha   90.00000000
_cell_angle_beta   90.00000000
_cell_angle_gamma   89.57937529
_symmetry_Int_Tables_number   1
_chemical_formula_structural   Cs6LaPuI12
_chemical_formula_sum   'Cs6 La1 Pu1 I12'
_cell_volume   1027.71315854
_cell_formula_units_Z   1
loop_
 _symmetry_equiv_pos_site_id
 _symmetry_equiv_pos_as_xyz
  1  'x, y, z'
loop_
 _atom_site_type_symbol
 _atom_site_label
 _atom_site_symmetry_multiplicity
 _atom_site_fract_x
 _atom_site_fract_y
 _atom_site_fract_z
 _atom_site_occupancy
  Cs  Cs0  1  0.000000  0.000000  0.500000  1
  Cs  Cs1  1  0.000000  0.000000  0.000000  1
  Cs  Cs2  1  0.234196  0.587204  0.500000  1
  Cs  Cs3  1  0.765804  0.412796  0.500000  1
  Cs  Cs4  1  0.411903  0.232863  0.000000  1
  Cs  Cs5  1  0.588097  0.767137  0.000000  1
  La  La6  1  0.000000  0.500000  0.000000  1
  Pu  Pu7  1  0.500000  0.000000  0.500000  1
  I  I8  1  0.696617  0.060159  0.748878  1
  I  I9  1  0.303383  0.939841  0.748878  1
  I  I10  1  0.938568  0.701093  0.251485  1
  I  I11  1  0.061432  0.298907  0.251485  1
  I  I12  1  0.303383  0.939841  0.251122  1
  I  I13  1  0.696617  0.060159  0.251122  1
  I  I14  1  0.061432  0.298907  0.748515  1
  I  I15  1  0.938568  0.701093  0.748515  1
  I  I16  1  0.569769  0.721450  0.500000  1
  I  I17  1  0.430231  0.278550  0.500000  1
  I  I18  1  0.285828  0.570788  0.000000  1
  I  I19  1  0.714172  0.429212  0.000000  1
