# generated using pymatgen
data_HoEr5NiBr10
_symmetry_space_group_name_H-M   'P 1'
_cell_length_a   7.27198557
_cell_length_b   9.06177702
_cell_length_c   9.12331453
_cell_angle_alpha   107.58355612
_cell_angle_beta   97.05952649
_cell_angle_gamma   104.82032405
_symmetry_Int_Tables_number   1
_chemical_formula_structural   HoEr5NiBr10
_chemical_formula_sum   'Ho1 Er5 Ni1 Br10'
_cell_volume   540.81671431
_cell_formula_units_Z   1
loop_
 _symmetry_equiv_pos_site_id
 _symmetry_equiv_pos_as_xyz
  1  'x, y, z'
loop_
 _atom_site_type_symbol
 _atom_site_label
 _atom_site_symmetry_multiplicity
 _atom_site_fract_x
 _atom_site_fract_y
 _atom_site_fract_z
 _atom_site_occupancy
  Ho  Ho0  1  0.351965  0.130752  0.174622  1
  Er  Er1  1  0.878620  0.954568  0.241332  1
  Er  Er2  1  0.120095  0.044373  0.758723  1
  Er  Er3  1  0.031797  0.708512  0.909858  1
  Er  Er4  1  0.967676  0.290846  0.089539  1
  Er  Er5  1  0.650080  0.870411  0.826811  1
  Ni  Ni6  1  0.000390  0.999791  0.000618  1
  Br  Br7  1  0.652516  0.548456  0.726402  1
  Br  Br8  1  0.346141  0.453582  0.272191  1
  Br  Br9  1  0.748276  0.916440  0.540061  1
  Br  Br10  1  0.248751  0.083042  0.461215  1
  Br  Br11  1  0.913544  0.626937  0.173538  1
  Br  Br12  1  0.085211  0.372196  0.825329  1
  Br  Br13  1  0.545709  0.180184  0.911006  1
  Br  Br14  1  0.455001  0.818232  0.086547  1
  Br  Br15  1  0.223855  0.745714  0.656643  1
  Br  Br16  1  0.780372  0.255965  0.345564  1
