# generated using pymatgen
data_Tb10Y2Si11Ni
_symmetry_space_group_name_H-M   'P 1'
_cell_length_a   3.87041000
_cell_length_b   5.73330646
_cell_length_c   23.94639606
_cell_angle_alpha   82.79401779
_cell_angle_beta   90.00000000
_cell_angle_gamma   90.00000000
_symmetry_Int_Tables_number   1
_chemical_formula_structural   Tb10Y2Si11Ni
_chemical_formula_sum   'Tb10 Y2 Si11 Ni1'
_cell_volume   527.17941683
_cell_formula_units_Z   1
loop_
 _symmetry_equiv_pos_site_id
 _symmetry_equiv_pos_as_xyz
  1  'x, y, z'
loop_
 _atom_site_type_symbol
 _atom_site_label
 _atom_site_symmetry_multiplicity
 _atom_site_fract_x
 _atom_site_fract_y
 _atom_site_fract_z
 _atom_site_occupancy
  Tb  Tb0  1  0.250000  0.660775  0.940817  1
  Tb  Tb1  1  0.250000  0.469529  0.773657  1
  Tb  Tb2  1  0.750000  0.167429  0.392549  1
  Tb  Tb3  1  0.250000  0.828316  0.606353  1
  Tb  Tb4  1  0.750000  0.352856  0.559478  1
  Tb  Tb5  1  0.250000  0.643882  0.438883  1
  Tb  Tb6  1  0.750000  0.996514  0.726994  1
  Tb  Tb7  1  0.250000  0.994165  0.272120  1
  Tb  Tb8  1  0.750000  0.170044  0.893842  1
  Tb  Tb9  1  0.250000  0.837606  0.108085  1
  Y  Y10  1  0.750000  0.355876  0.065531  1
  Y  Y11  1  0.750000  0.520090  0.221252  1
  Si  Si12  1  0.750000  0.877759  0.013828  1
  Si  Si13  1  0.250000  0.148032  0.989305  1
  Si  Si14  1  0.750000  0.054425  0.178694  1
  Si  Si15  1  0.250000  0.955487  0.821545  1
  Si  Si16  1  0.750000  0.701062  0.344224  1
  Si  Si17  1  0.250000  0.292305  0.654111  1
  Si  Si18  1  0.750000  0.864932  0.511813  1
  Si  Si19  1  0.250000  0.131978  0.486775  1
  Si  Si20  1  0.750000  0.533077  0.679246  1
  Si  Si21  1  0.250000  0.462233  0.318404  1
  Si  Si22  1  0.750000  0.683427  0.846318  1
  Ni  Ni23  1  0.250000  0.298202  0.156176  1
