# generated using pymatgen
data_Yb4AlGa4Os3
_symmetry_space_group_name_H-M   'P 1'
_cell_length_a   5.51452499
_cell_length_b   5.52853452
_cell_length_c   8.54159500
_cell_angle_alpha   90.00000000
_cell_angle_beta   90.00000000
_cell_angle_gamma   120.60984240
_symmetry_Int_Tables_number   1
_chemical_formula_structural   Yb4AlGa4Os3
_chemical_formula_sum   'Yb4 Al1 Ga4 Os3'
_cell_volume   224.12277410
_cell_formula_units_Z   1
loop_
 _symmetry_equiv_pos_site_id
 _symmetry_equiv_pos_as_xyz
  1  'x, y, z'
loop_
 _atom_site_type_symbol
 _atom_site_label
 _atom_site_symmetry_multiplicity
 _atom_site_fract_x
 _atom_site_fract_y
 _atom_site_fract_z
 _atom_site_occupancy
  Yb  Yb0  1  0.330774  0.667179  0.438621  1
  Yb  Yb1  1  0.666923  0.333708  0.549537  1
  Yb  Yb2  1  0.666923  0.333708  0.950463  1
  Yb  Yb3  1  0.330774  0.667179  0.061379  1
  Al  Al4  1  0.190518  0.337867  0.750000  1
  Ga  Ga5  1  0.837056  0.160638  0.250000  1
  Ga  Ga6  1  0.837184  0.676154  0.250000  1
  Ga  Ga7  1  0.322076  0.162897  0.250000  1
  Ga  Ga8  1  0.195690  0.846036  0.750000  1
  Os  Os9  1  0.976896  0.989764  0.512357  1
  Os  Os10  1  0.976896  0.989764  0.987643  1
  Os  Os11  1  0.668292  0.835107  0.750000  1
