# generated using pymatgen
data_Th3In2GeRu3
_symmetry_space_group_name_H-M   'P 1'
_cell_length_a   7.54731999
_cell_length_b   7.55096084
_cell_length_c   4.00941300
_cell_angle_alpha   90.00000000
_cell_angle_beta   90.00000000
_cell_angle_gamma   120.01596605
_symmetry_Int_Tables_number   1
_chemical_formula_structural   Th3In2GeRu3
_chemical_formula_sum   'Th3 In2 Ge1 Ru3'
_cell_volume   197.85020895
_cell_formula_units_Z   1
loop_
 _symmetry_equiv_pos_site_id
 _symmetry_equiv_pos_as_xyz
  1  'x, y, z'
loop_
 _atom_site_type_symbol
 _atom_site_label
 _atom_site_symmetry_multiplicity
 _atom_site_fract_x
 _atom_site_fract_y
 _atom_site_fract_z
 _atom_site_occupancy
  Th  Th0  1  0.405122  0.409833  0.500000  1
  Th  Th1  1  0.594878  0.004712  0.500000  1
  Th  Th2  1  0.000000  0.564787  0.500000  1
  In  In3  1  0.758436  0.751482  0.000000  1
  In  In4  1  0.241564  0.993047  0.000000  1
  Ge  Ge5  1  0.000000  0.251189  0.000000  1
  Ru  Ru6  1  0.673318  0.327485  0.000000  1
  Ru  Ru7  1  0.326682  0.654167  0.000000  1
  Ru  Ru8  1  0.000000  0.043299  0.500000  1
