# generated using pymatgen
data_Th2BeB10
_symmetry_space_group_name_H-M   'P 1'
_cell_length_a   4.16641000
_cell_length_b   5.59068200
_cell_length_c   11.09745400
_cell_angle_alpha   90.00000000
_cell_angle_beta   90.00000000
_cell_angle_gamma   90.00000000
_symmetry_Int_Tables_number   1
_chemical_formula_structural   Th2BeB10
_chemical_formula_sum   'Th4 Be2 B20'
_cell_volume   258.49381048
_cell_formula_units_Z   2
loop_
 _symmetry_equiv_pos_site_id
 _symmetry_equiv_pos_as_xyz
  1  'x, y, z'
loop_
 _atom_site_type_symbol
 _atom_site_label
 _atom_site_symmetry_multiplicity
 _atom_site_fract_x
 _atom_site_fract_y
 _atom_site_fract_z
 _atom_site_occupancy
  Th  Th0  1  0.500000  0.298330  0.866167  1
  Th  Th1  1  0.500000  0.701670  0.133833  1
  Th  Th2  1  0.500000  0.798330  0.633833  1
  Th  Th3  1  0.500000  0.201670  0.366167  1
  Be  Be4  1  0.000000  0.500000  0.500000  1
  Be  Be5  1  0.000000  0.000000  0.000000  1
  B  B6  1  0.000000  0.128922  0.538661  1
  B  B7  1  0.000000  0.871078  0.461339  1
  B  B8  1  0.000000  0.628922  0.961339  1
  B  B9  1  0.000000  0.371078  0.038661  1
  B  B10  1  0.000000  0.156618  0.696472  1
  B  B11  1  0.000000  0.843382  0.303528  1
  B  B12  1  0.299926  0.200022  0.111963  1
  B  B13  1  0.299926  0.799978  0.888037  1
  B  B14  1  0.700074  0.700022  0.388037  1
  B  B15  1  0.700074  0.299978  0.611963  1
  B  B16  1  0.700074  0.799978  0.888037  1
  B  B17  1  0.700074  0.200022  0.111963  1
  B  B18  1  0.299926  0.299978  0.611963  1
  B  B19  1  0.299926  0.700022  0.388037  1
  B  B20  1  0.000000  0.031086  0.186107  1
  B  B21  1  0.000000  0.968914  0.813893  1
  B  B22  1  0.000000  0.531086  0.313893  1
  B  B23  1  0.000000  0.468914  0.686107  1
  B  B24  1  0.000000  0.343382  0.196472  1
  B  B25  1  0.000000  0.656618  0.803528  1
