# generated using pymatgen
data_Ba(NiH3)2
_symmetry_space_group_name_H-M   'P 1'
_cell_length_a   4.65323497
_cell_length_b   4.64685641
_cell_length_c   4.87585359
_cell_angle_alpha   89.69289807
_cell_angle_beta   90.18501583
_cell_angle_gamma   120.11460950
_symmetry_Int_Tables_number   1
_chemical_formula_structural   Ba(NiH3)2
_chemical_formula_sum   'Ba1 Ni2 H6'
_cell_volume   91.19824528
_cell_formula_units_Z   1
loop_
 _symmetry_equiv_pos_site_id
 _symmetry_equiv_pos_as_xyz
  1  'x, y, z'
loop_
 _atom_site_type_symbol
 _atom_site_label
 _atom_site_symmetry_multiplicity
 _atom_site_fract_x
 _atom_site_fract_y
 _atom_site_fract_z
 _atom_site_occupancy
  Ba  Ba0  1  0.474663  0.394113  0.510331  1
  Ni  Ni1  1  0.140933  0.727711  0.008091  1
  Ni  Ni2  1  0.808912  0.060576  0.008082  1
  H  H3  1  0.008390  0.393555  0.199763  1
  H  H4  1  0.474748  0.861101  0.817556  1
  H  H5  1  0.941160  0.859789  0.199927  1
  H  H6  1  0.003259  0.923355  0.815430  1
  H  H7  1  0.475143  0.933075  0.197414  1
  H  H8  1  0.945928  0.394610  0.815678  1
