# generated using pymatgen
data_Ce5Co(SiOs)2
_symmetry_space_group_name_H-M   'P 1'
_cell_length_a   8.21748907
_cell_length_b   8.26315265
_cell_length_c   8.23099700
_cell_angle_alpha   108.69453852
_cell_angle_beta   109.68859829
_cell_angle_gamma   110.56277666
_symmetry_Int_Tables_number   1
_chemical_formula_structural   Ce5Co(SiOs)2
_chemical_formula_sum   'Ce10 Co2 Si4 Os4'
_cell_volume   427.31004024
_cell_formula_units_Z   2
loop_
 _symmetry_equiv_pos_site_id
 _symmetry_equiv_pos_as_xyz
  1  'x, y, z'
loop_
 _atom_site_type_symbol
 _atom_site_label
 _atom_site_symmetry_multiplicity
 _atom_site_fract_x
 _atom_site_fract_y
 _atom_site_fract_z
 _atom_site_occupancy
  Ce  Ce0  1  0.762182  0.768877  0.769151  1
  Ce  Ce1  1  0.303306  0.553608  0.749924  1
  Ce  Ce2  1  0.753131  0.291927  0.550580  1
  Ce  Ce3  1  0.555372  0.752694  0.295524  1
  Ce  Ce4  1  0.731896  0.513225  0.004230  1
  Ce  Ce5  1  0.001882  0.723665  0.497871  1
  Ce  Ce6  1  0.511963  0.001964  0.733158  1
  Ce  Ce7  1  0.238976  0.197389  0.944128  1
  Ce  Ce8  1  0.940202  0.237532  0.193406  1
  Ce  Ce9  1  0.194018  0.943371  0.250929  1
  Co  Co10  1  0.905771  0.146347  0.748065  1
  Co  Co11  1  0.745455  0.907007  0.159432  1
  Si  Si12  1  0.393233  0.388303  0.390391  1
  Si  Si13  1  0.103068  0.494445  0.995460  1
  Si  Si14  1  0.003037  0.110906  0.502836  1
  Si  Si15  1  0.493948  0.000136  0.107523  1
  Os  Os16  1  0.121149  0.743868  0.877379  1
  Os  Os17  1  0.252723  0.611859  0.364400  1
  Os  Os18  1  0.373844  0.248055  0.620763  1
  Os  Os19  1  0.614843  0.364827  0.244851  1
