# generated using pymatgen
data_Ho5Pa3(Si3Pt)4
_symmetry_space_group_name_H-M   'P 1'
_cell_length_a   8.20051800
_cell_length_b   8.20051863
_cell_length_c   8.01345100
_cell_angle_alpha   90.00000000
_cell_angle_beta   90.00000000
_cell_angle_gamma   120.11773502
_symmetry_Int_Tables_number   1
_chemical_formula_structural   Ho5Pa3(Si3Pt)4
_chemical_formula_sum   'Ho5 Pa3 Si12 Pt4'
_cell_volume   466.13999087
_cell_formula_units_Z   1
loop_
 _symmetry_equiv_pos_site_id
 _symmetry_equiv_pos_as_xyz
  1  'x, y, z'
loop_
 _atom_site_type_symbol
 _atom_site_label
 _atom_site_symmetry_multiplicity
 _atom_site_fract_x
 _atom_site_fract_y
 _atom_site_fract_z
 _atom_site_occupancy
  Ho  Ho0  1  0.501393  0.002278  0.250000  1
  Ho  Ho1  1  0.997722  0.498607  0.250000  1
  Ho  Ho2  1  0.498751  0.501249  0.750000  1
  Ho  Ho3  1  0.499062  0.998034  0.750000  1
  Ho  Ho4  1  0.001966  0.500938  0.750000  1
  Pa  Pa5  1  0.000135  0.999865  0.250000  1
  Pa  Pa6  1  0.999821  0.000179  0.750000  1
  Pa  Pa7  1  0.501407  0.498593  0.250000  1
  Si  Si8  1  0.165550  0.834450  0.498434  1
  Si  Si9  1  0.165460  0.330011  0.498790  1
  Si  Si10  1  0.669989  0.834540  0.498790  1
  Si  Si11  1  0.834399  0.165601  0.500304  1
  Si  Si12  1  0.834609  0.670061  0.501066  1
  Si  Si13  1  0.329939  0.165391  0.501066  1
  Si  Si14  1  0.834399  0.165601  0.999696  1
  Si  Si15  1  0.834609  0.670061  0.998934  1
  Si  Si16  1  0.329939  0.165391  0.998934  1
  Si  Si17  1  0.165550  0.834450  0.001566  1
  Si  Si18  1  0.165460  0.330011  0.001210  1
  Si  Si19  1  0.669989  0.834540  0.001210  1
  Pt  Pt20  1  0.333300  0.666700  0.497735  1
  Pt  Pt21  1  0.666626  0.333374  0.504196  1
  Pt  Pt22  1  0.666626  0.333374  0.995804  1
  Pt  Pt23  1  0.333300  0.666700  0.002265  1
