# generated using pymatgen
data_ThU(NiP)4
_symmetry_space_group_name_H-M   'P 1'
_cell_length_a   3.76932900
_cell_length_b   8.66980208
_cell_length_c   9.48232657
_cell_angle_alpha   90.26617727
_cell_angle_beta   90.00000000
_cell_angle_gamma   90.00000000
_symmetry_Int_Tables_number   1
_chemical_formula_structural   ThU(NiP)4
_chemical_formula_sum   'Th2 U2 Ni8 P8'
_cell_volume   309.87279581
_cell_formula_units_Z   2
loop_
 _symmetry_equiv_pos_site_id
 _symmetry_equiv_pos_as_xyz
  1  'x, y, z'
loop_
 _atom_site_type_symbol
 _atom_site_label
 _atom_site_symmetry_multiplicity
 _atom_site_fract_x
 _atom_site_fract_y
 _atom_site_fract_z
 _atom_site_occupancy
  Th  Th0  1  0.250000  0.740781  0.824935  1
  Th  Th1  1  0.750000  0.259219  0.175065  1
  U  U2  1  0.250000  0.248076  0.674994  1
  U  U3  1  0.750000  0.751924  0.325006  1
  Ni  Ni4  1  0.750000  0.078134  0.449080  1
  Ni  Ni5  1  0.250000  0.921866  0.550920  1
  Ni  Ni6  1  0.750000  0.582540  0.045510  1
  Ni  Ni7  1  0.250000  0.417460  0.954490  1
  Ni  Ni8  1  0.250000  0.965586  0.100088  1
  Ni  Ni9  1  0.750000  0.034414  0.899912  1
  Ni  Ni10  1  0.250000  0.452492  0.396954  1
  Ni  Ni11  1  0.750000  0.547508  0.603046  1
  P  P12  1  0.250000  0.162403  0.948794  1
  P  P13  1  0.750000  0.837597  0.051206  1
  P  P14  1  0.250000  0.665539  0.533247  1
  P  P15  1  0.750000  0.334461  0.466753  1
  P  P16  1  0.250000  0.541790  0.174501  1
  P  P17  1  0.750000  0.458210  0.825499  1
  P  P18  1  0.250000  0.019378  0.328442  1
  P  P19  1  0.750000  0.980622  0.671558  1
