# generated using pymatgen
data_Gd2FeTc3
_symmetry_space_group_name_H-M   'P 1'
_cell_length_a   5.27649332
_cell_length_b   5.27649397
_cell_length_c   5.46108600
_cell_angle_alpha   61.11198813
_cell_angle_beta   61.11198422
_cell_angle_gamma   60.00000042
_symmetry_Int_Tables_number   1
_chemical_formula_structural   Gd2FeTc3
_chemical_formula_sum   'Gd2 Fe1 Tc3'
_cell_volume   109.28320392
_cell_formula_units_Z   1
loop_
 _symmetry_equiv_pos_site_id
 _symmetry_equiv_pos_as_xyz
  1  'x, y, z'
loop_
 _atom_site_type_symbol
 _atom_site_label
 _atom_site_symmetry_multiplicity
 _atom_site_fract_x
 _atom_site_fract_y
 _atom_site_fract_z
 _atom_site_occupancy
  Gd  Gd0  1  0.498504  0.498504  0.504490  1
  Gd  Gd1  1  0.751496  0.751496  0.745510  1
  Fe  Fe2  1  0.125000  0.125000  0.625000  1
  Tc  Tc3  1  0.125000  0.125000  0.125000  1
  Tc  Tc4  1  0.125000  0.625000  0.125000  1
  Tc  Tc5  1  0.625000  0.125000  0.125000  1
