# generated using pymatgen
data_LiCe6HfSb10
_symmetry_space_group_name_H-M   'P 1'
_cell_length_a   9.39946000
_cell_length_b   9.39946074
_cell_length_c   6.30187600
_cell_angle_alpha   90.00000000
_cell_angle_beta   90.00000000
_cell_angle_gamma   119.99999738
_symmetry_Int_Tables_number   1
_chemical_formula_structural   LiCe6HfSb10
_chemical_formula_sum   'Li1 Ce6 Hf1 Sb10'
_cell_volume   482.17683178
_cell_formula_units_Z   1
loop_
 _symmetry_equiv_pos_site_id
 _symmetry_equiv_pos_as_xyz
  1  'x, y, z'
loop_
 _atom_site_type_symbol
 _atom_site_label
 _atom_site_symmetry_multiplicity
 _atom_site_fract_x
 _atom_site_fract_y
 _atom_site_fract_z
 _atom_site_occupancy
  Li  Li0  1  0.000000  0.000000  0.000000  1
  Ce  Ce1  1  0.617006  0.000000  0.248118  1
  Ce  Ce2  1  0.382994  0.000000  0.751882  1
  Ce  Ce3  1  0.000000  0.617006  0.248118  1
  Ce  Ce4  1  0.000000  0.382994  0.751882  1
  Ce  Ce5  1  0.382994  0.382994  0.248118  1
  Ce  Ce6  1  0.617006  0.617006  0.751882  1
  Hf  Hf7  1  0.000000  0.000000  0.500000  1
  Sb  Sb8  1  0.261918  0.000000  0.249565  1
  Sb  Sb9  1  0.738082  0.000000  0.750435  1
  Sb  Sb10  1  0.000000  0.261918  0.249565  1
  Sb  Sb11  1  0.000000  0.738082  0.750435  1
  Sb  Sb12  1  0.738082  0.738082  0.249565  1
  Sb  Sb13  1  0.261918  0.261918  0.750435  1
  Sb  Sb14  1  0.333333  0.666667  0.000000  1
  Sb  Sb15  1  0.666667  0.333333  0.000000  1
  Sb  Sb16  1  0.666667  0.333333  0.500000  1
  Sb  Sb17  1  0.333333  0.666667  0.500000  1
