# generated using pymatgen
data_DyPd2Au3
_symmetry_space_group_name_H-M   'P 1'
_cell_length_a   5.43492538
_cell_length_b   5.43492610
_cell_length_c   5.43492614
_cell_angle_alpha   120.02173417
_cell_angle_beta   119.45218436
_cell_angle_gamma   90.45690291
_symmetry_Int_Tables_number   1
_chemical_formula_structural   DyPd2Au3
_chemical_formula_sum   'Dy1 Pd2 Au3'
_cell_volume   113.96222930
_cell_formula_units_Z   1
loop_
 _symmetry_equiv_pos_site_id
 _symmetry_equiv_pos_as_xyz
  1  'x, y, z'
loop_
 _atom_site_type_symbol
 _atom_site_label
 _atom_site_symmetry_multiplicity
 _atom_site_fract_x
 _atom_site_fract_y
 _atom_site_fract_z
 _atom_site_occupancy
  Dy  Dy0  1  0.003652  0.003652  0.000000  1
  Pd  Pd1  1  0.623959  0.374373  0.249586  1
  Pd  Pd2  1  0.124788  0.374373  0.750414  1
  Au  Au3  1  0.623891  0.374332  0.750442  1
  Au  Au4  1  0.623891  0.873448  0.249558  1
  Au  Au5  1  0.249821  0.749821  0.500000  1
