# generated using pymatgen
data_CeY(Co3P2)2
_symmetry_space_group_name_H-M   'P 1'
_cell_length_a   3.72721000
_cell_length_b   10.54592839
_cell_length_c   12.21793534
_cell_angle_alpha   90.17560184
_cell_angle_beta   90.00000000
_cell_angle_gamma   90.00000000
_symmetry_Int_Tables_number   1
_chemical_formula_structural   CeY(Co3P2)2
_chemical_formula_sum   'Ce3 Y3 Co18 P12'
_cell_volume   480.24678178
_cell_formula_units_Z   3
loop_
 _symmetry_equiv_pos_site_id
 _symmetry_equiv_pos_as_xyz
  1  'x, y, z'
loop_
 _atom_site_type_symbol
 _atom_site_label
 _atom_site_symmetry_multiplicity
 _atom_site_fract_x
 _atom_site_fract_y
 _atom_site_fract_z
 _atom_site_occupancy
  Ce  Ce0  1  0.000000  0.499415  0.526522  1
  Ce  Ce1  1  0.500000  0.000842  0.475061  1
  Ce  Ce2  1  0.500000  0.818818  0.207190  1
  Y  Y3  1  0.500000  0.186005  0.204434  1
  Y  Y4  1  0.000000  0.684209  0.795581  1
  Y  Y5  1  0.000000  0.315213  0.794522  1
  Co  Co6  1  0.500000  0.499929  0.158680  1
  Co  Co7  1  0.000000  0.999759  0.841981  1
  Co  Co8  1  0.500000  0.499419  0.700212  1
  Co  Co9  1  0.000000  0.996520  0.297899  1
  Co  Co10  1  0.000000  0.499488  0.984034  1
  Co  Co11  1  0.500000  0.001044  0.013699  1
  Co  Co12  1  0.500000  0.334179  0.994094  1
  Co  Co13  1  0.500000  0.665936  0.994719  1
  Co  Co14  1  0.000000  0.167727  0.004774  1
  Co  Co15  1  0.000000  0.834276  0.004864  1
  Co  Co16  1  0.500000  0.298555  0.429764  1
  Co  Co17  1  0.500000  0.699925  0.431243  1
  Co  Co18  1  0.000000  0.200044  0.569400  1
  Co  Co19  1  0.000000  0.799258  0.571475  1
  Co  Co20  1  0.500000  0.880231  0.712125  1
  Co  Co21  1  0.500000  0.119353  0.711050  1
  Co  Co22  1  0.000000  0.620509  0.288749  1
  Co  Co23  1  0.000000  0.380302  0.288613  1
  P  P24  1  0.500000  0.499677  0.880489  1
  P  P25  1  0.000000  0.002682  0.115913  1
  P  P26  1  0.500000  0.499406  0.342512  1
  P  P27  1  0.000000  0.999705  0.658457  1
  P  P28  1  0.500000  0.306401  0.616111  1
  P  P29  1  0.500000  0.692477  0.617734  1
  P  P30  1  0.000000  0.192267  0.382830  1
  P  P31  1  0.000000  0.805532  0.387934  1
  P  P32  1  0.500000  0.847420  0.894507  1
  P  P33  1  0.500000  0.153249  0.893704  1
  P  P34  1  0.000000  0.651598  0.103893  1
  P  P35  1  0.000000  0.348631  0.105229  1
