# generated using pymatgen
data_Zr5Si6Tc6W
_symmetry_space_group_name_H-M   'P 1'
_cell_length_a   7.74554477
_cell_length_b   7.74610561
_cell_length_c   7.74554500
_cell_angle_alpha   126.45545782
_cell_angle_beta   127.65447368
_cell_angle_gamma   78.16324050
_symmetry_Int_Tables_number   1
_chemical_formula_structural   Zr5Si6Tc6W
_chemical_formula_sum   'Zr5 Si6 Tc6 W1'
_cell_volume   286.68643283
_cell_formula_units_Z   1
loop_
 _symmetry_equiv_pos_site_id
 _symmetry_equiv_pos_as_xyz
  1  'x, y, z'
loop_
 _atom_site_type_symbol
 _atom_site_label
 _atom_site_symmetry_multiplicity
 _atom_site_fract_x
 _atom_site_fract_y
 _atom_site_fract_z
 _atom_site_occupancy
  Zr  Zr0  1  0.949025  0.911780  0.462755  1
  Zr  Zr1  1  0.045749  0.494584  0.948835  1
  Zr  Zr2  1  0.550964  0.513724  0.462760  1
  Zr  Zr3  1  0.454238  0.903067  0.948829  1
  Zr  Zr4  1  0.749996  0.099411  0.849415  1
  Si  Si5  1  0.750008  0.505762  0.255753  1
  Si  Si6  1  0.249995  0.496555  0.746560  1
  Si  Si7  1  0.653049  0.168656  0.495273  1
  Si  Si8  1  0.326608  0.842252  0.495295  1
  Si  Si9  1  0.173384  0.168656  0.015608  1
  Si  Si10  1  0.846957  0.842252  0.015643  1
  Tc  Tc11  1  0.490952  0.757561  0.248526  1
  Tc  Tc12  1  0.009035  0.757561  0.766609  1
  Tc  Tc13  1  0.875127  0.248767  0.374458  1
  Tc  Tc14  1  0.125718  0.499329  0.374452  1
  Tc  Tc15  1  0.374309  0.248767  0.873639  1
  Tc  Tc16  1  0.624876  0.499329  0.873611  1
  W  W17  1  0.250006  0.099784  0.349778  1
