# generated using pymatgen
data_Nd6Er10Cd3InIr4
_symmetry_space_group_name_H-M   'P 1'
_cell_length_a   9.69108657
_cell_length_b   9.69108750
_cell_length_c   9.69108849
_cell_angle_alpha   60.18308167
_cell_angle_beta   60.18307802
_cell_angle_gamma   60.18308189
_symmetry_Int_Tables_number   1
_chemical_formula_structural   Nd6Er10Cd3InIr4
_chemical_formula_sum   'Nd6 Er10 Cd3 In1 Ir4'
_cell_volume   646.24834635
_cell_formula_units_Z   1
loop_
 _symmetry_equiv_pos_site_id
 _symmetry_equiv_pos_as_xyz
  1  'x, y, z'
loop_
 _atom_site_type_symbol
 _atom_site_label
 _atom_site_symmetry_multiplicity
 _atom_site_fract_x
 _atom_site_fract_y
 _atom_site_fract_z
 _atom_site_occupancy
  Nd  Nd0  1  0.943564  0.558606  0.558606  1
  Nd  Nd1  1  0.557594  0.942273  0.942273  1
  Nd  Nd2  1  0.558606  0.943564  0.558606  1
  Nd  Nd3  1  0.942273  0.557594  0.942273  1
  Nd  Nd4  1  0.558606  0.558606  0.943564  1
  Nd  Nd5  1  0.942273  0.942273  0.557594  1
  Er  Er6  1  0.346486  0.346486  0.346486  1
  Er  Er7  1  0.348453  0.348453  0.957950  1
  Er  Er8  1  0.348453  0.957950  0.348453  1
  Er  Er9  1  0.957950  0.348453  0.348453  1
  Er  Er10  1  0.811936  0.186670  0.186670  1
  Er  Er11  1  0.185499  0.811403  0.811403  1
  Er  Er12  1  0.186670  0.811936  0.186670  1
  Er  Er13  1  0.811403  0.185499  0.811403  1
  Er  Er14  1  0.186670  0.186670  0.811936  1
  Er  Er15  1  0.811403  0.811403  0.185499  1
  Cd  Cd16  1  0.578848  0.578848  0.261764  1
  Cd  Cd17  1  0.578848  0.261764  0.578848  1
  Cd  Cd18  1  0.261764  0.578848  0.578848  1
  In  In19  1  0.580123  0.580123  0.580123  1
  Ir  Ir20  1  0.141790  0.141790  0.141790  1
  Ir  Ir21  1  0.141856  0.141856  0.577074  1
  Ir  Ir22  1  0.141856  0.577074  0.141856  1
  Ir  Ir23  1  0.577074  0.141856  0.141856  1
