# generated using pymatgen
data_Ba6Er2Fe2O13
_symmetry_space_group_name_H-M   'P 1'
_cell_length_a   11.59885657
_cell_length_b   11.59885686
_cell_length_c   5.82814700
_cell_angle_alpha   90.00000000
_cell_angle_beta   90.00000000
_cell_angle_gamma   150.83573828
_symmetry_Int_Tables_number   1
_chemical_formula_structural   Ba6Er2Fe2O13
_chemical_formula_sum   'Ba6 Er2 Fe2 O13'
_cell_volume   382.09443601
_cell_formula_units_Z   1
loop_
 _symmetry_equiv_pos_site_id
 _symmetry_equiv_pos_as_xyz
  1  'x, y, z'
loop_
 _atom_site_type_symbol
 _atom_site_label
 _atom_site_symmetry_multiplicity
 _atom_site_fract_x
 _atom_site_fract_y
 _atom_site_fract_z
 _atom_site_occupancy
  Ba  Ba0  1  0.500000  0.500000  0.000000  1
  Ba  Ba1  1  0.000000  0.000000  0.500000  1
  Ba  Ba2  1  0.185365  0.814635  0.500000  1
  Ba  Ba3  1  0.685801  0.314199  0.000000  1
  Ba  Ba4  1  0.314199  0.685801  0.000000  1
  Ba  Ba5  1  0.814635  0.185365  0.500000  1
  Er  Er6  1  0.903166  0.096834  0.000000  1
  Er  Er7  1  0.096834  0.903166  0.000000  1
  Fe  Fe8  1  0.392972  0.607028  0.500000  1
  Fe  Fe9  1  0.607028  0.392972  0.500000  1
  O  O10  1  0.635126  0.818943  0.726924  1
  O  O11  1  0.181057  0.364874  0.273076  1
  O  O12  1  0.818943  0.635126  0.726924  1
  O  O13  1  0.364874  0.181057  0.273076  1
  O  O14  1  0.181057  0.364874  0.726924  1
  O  O15  1  0.635126  0.818943  0.273076  1
  O  O16  1  0.364874  0.181057  0.726924  1
  O  O17  1  0.818943  0.635126  0.273076  1
  O  O18  1  0.305803  0.694197  0.500000  1
  O  O19  1  0.804180  0.195820  0.000000  1
  O  O20  1  0.195820  0.804180  0.000000  1
  O  O21  1  0.694197  0.305803  0.500000  1
  O  O22  1  0.000000  0.000000  0.000000  1
