# generated using pymatgen
data_Cs2RbV3F12
_symmetry_space_group_name_H-M   'P 1'
_cell_length_a   7.65965333
_cell_length_b   7.65965205
_cell_length_c   13.62673417
_cell_angle_alpha   74.30205044
_cell_angle_beta   74.30205300
_cell_angle_gamma   59.87066136
_symmetry_Int_Tables_number   1
_chemical_formula_structural   Cs2RbV3F12
_chemical_formula_sum   'Cs4 Rb2 V6 F24'
_cell_volume   656.90302735
_cell_formula_units_Z   2
loop_
 _symmetry_equiv_pos_site_id
 _symmetry_equiv_pos_as_xyz
  1  'x, y, z'
loop_
 _atom_site_type_symbol
 _atom_site_label
 _atom_site_symmetry_multiplicity
 _atom_site_fract_x
 _atom_site_fract_y
 _atom_site_fract_z
 _atom_site_occupancy
  Cs  Cs0  1  0.899839  0.474004  0.682572  1
  Cs  Cs1  1  0.100161  0.525996  0.317428  1
  Cs  Cs2  1  0.525996  0.100161  0.817428  1
  Cs  Cs3  1  0.474004  0.899839  0.182572  1
  Rb  Rb4  1  0.224894  0.775106  0.750000  1
  Rb  Rb5  1  0.775106  0.224894  0.250000  1
  V  V6  1  0.500000  0.000000  0.500000  1
  V  V7  1  0.000000  0.500000  0.000000  1
  V  V8  1  0.000000  0.000000  0.500000  1
  V  V9  1  0.000000  0.000000  0.000000  1
  V  V10  1  0.500000  0.500000  0.500000  1
  V  V11  1  0.500000  0.500000  0.000000  1
  F  F12  1  0.889128  0.971697  0.644168  1
  F  F13  1  0.522224  0.895379  0.643707  1
  F  F14  1  0.277587  0.410772  0.025331  1
  F  F15  1  0.695343  0.203177  0.027130  1
  F  F16  1  0.895379  0.522224  0.143707  1
  F  F17  1  0.104621  0.477776  0.856293  1
  F  F18  1  0.477776  0.104621  0.356293  1
  F  F19  1  0.796823  0.304657  0.472870  1
  F  F20  1  0.110872  0.028303  0.355832  1
  F  F21  1  0.589228  0.722413  0.474669  1
  F  F22  1  0.450308  0.514449  0.143476  1
  F  F23  1  0.410772  0.277587  0.525331  1
  F  F24  1  0.514449  0.450308  0.643476  1
  F  F25  1  0.806190  0.930218  0.465876  1
  F  F26  1  0.193810  0.069782  0.534124  1
  F  F27  1  0.549692  0.485551  0.856524  1
  F  F28  1  0.930218  0.806190  0.965876  1
  F  F29  1  0.485551  0.549692  0.356524  1
  F  F30  1  0.722413  0.589228  0.974669  1
  F  F31  1  0.971697  0.889128  0.144168  1
  F  F32  1  0.069782  0.193810  0.034124  1
  F  F33  1  0.304657  0.796823  0.972870  1
  F  F34  1  0.028303  0.110872  0.855832  1
  F  F35  1  0.203177  0.695343  0.527130  1
