# generated using pymatgen
data_Zr10In2(SnBi)3
_symmetry_space_group_name_H-M   'P 1'
_cell_length_a   8.93418500
_cell_length_b   8.93281285
_cell_length_c   5.97825500
_cell_angle_alpha   90.00000000
_cell_angle_beta   90.00000000
_cell_angle_gamma   120.00507773
_symmetry_Int_Tables_number   1
_chemical_formula_structural   Zr10In2(SnBi)3
_chemical_formula_sum   'Zr10 In2 Sn3 Bi3'
_cell_volume   413.16737441
_cell_formula_units_Z   1
loop_
 _symmetry_equiv_pos_site_id
 _symmetry_equiv_pos_as_xyz
  1  'x, y, z'
loop_
 _atom_site_type_symbol
 _atom_site_label
 _atom_site_symmetry_multiplicity
 _atom_site_fract_x
 _atom_site_fract_y
 _atom_site_fract_z
 _atom_site_occupancy
  Zr  Zr0  1  0.331343  0.666677  0.001564  1
  Zr  Zr1  1  0.664667  0.333323  0.498436  1
  Zr  Zr2  1  0.664667  0.333323  0.001564  1
  Zr  Zr3  1  0.331343  0.666677  0.498436  1
  Zr  Zr4  1  0.280756  0.000000  0.250000  1
  Zr  Zr5  1  0.282881  0.277951  0.750000  1
  Zr  Zr6  1  0.004928  0.722049  0.750000  1
  Zr  Zr7  1  0.005295  0.285673  0.250000  1
  Zr  Zr8  1  0.719621  0.714327  0.250000  1
  Zr  Zr9  1  0.717323  0.000000  0.750000  1
  In  In10  1  0.999750  0.000000  0.000629  1
  In  In11  1  0.999750  0.000000  0.499371  1
  Sn  Sn12  1  0.999991  0.618193  0.250000  1
  Sn  Sn13  1  0.381795  0.381807  0.250000  1
  Sn  Sn14  1  0.382786  0.000000  0.750000  1
  Bi  Bi15  1  0.617165  0.000000  0.250000  1
  Bi  Bi16  1  0.616123  0.616308  0.750000  1
  Bi  Bi17  1  0.999813  0.383692  0.750000  1
