# generated using pymatgen
data_Yb4Lu3B24Ru4W
_symmetry_space_group_name_H-M   'P 1'
_cell_length_a   3.56428000
_cell_length_b   9.01872475
_cell_length_c   11.39363719
_cell_angle_alpha   90.07122289
_cell_angle_beta   90.00000000
_cell_angle_gamma   90.00000000
_symmetry_Int_Tables_number   1
_chemical_formula_structural   Yb4Lu3B24Ru4W
_chemical_formula_sum   'Yb4 Lu3 B24 Ru4 W1'
_cell_volume   366.25114974
_cell_formula_units_Z   1
loop_
 _symmetry_equiv_pos_site_id
 _symmetry_equiv_pos_as_xyz
  1  'x, y, z'
loop_
 _atom_site_type_symbol
 _atom_site_label
 _atom_site_symmetry_multiplicity
 _atom_site_fract_x
 _atom_site_fract_y
 _atom_site_fract_z
 _atom_site_occupancy
  Yb  Yb0  1  0.000000  0.322124  0.415393  1
  Yb  Yb1  1  0.000000  0.677338  0.585241  1
  Yb  Yb2  1  0.000000  0.824526  0.085530  1
  Yb  Yb3  1  0.000000  0.175778  0.913187  1
  Lu  Lu4  1  0.000000  0.055234  0.626040  1
  Lu  Lu5  1  0.000000  0.442496  0.132083  1
  Lu  Lu6  1  0.000000  0.556687  0.869179  1
  B  B7  1  0.500000  0.556403  0.434265  1
  B  B8  1  0.500000  0.446833  0.566244  1
  B  B9  1  0.500000  0.052833  0.067616  1
  B  B10  1  0.500000  0.945731  0.932351  1
  B  B11  1  0.500000  0.755963  0.417327  1
  B  B12  1  0.500000  0.250219  0.581411  1
  B  B13  1  0.500000  0.247804  0.084832  1
  B  B14  1  0.500000  0.750544  0.917064  1
  B  B15  1  0.500000  0.796074  0.263521  1
  B  B16  1  0.500000  0.207296  0.735043  1
  B  B17  1  0.500000  0.291899  0.238370  1
  B  B18  1  0.500000  0.707320  0.763488  1
  B  B19  1  0.500000  0.633429  0.183951  1
  B  B20  1  0.500000  0.368102  0.814855  1
  B  B21  1  0.500000  0.125817  0.318393  1
  B  B22  1  0.500000  0.869193  0.684031  1
  B  B23  1  0.500000  0.979558  0.213471  1
  B  B24  1  0.500000  0.017634  0.787021  1
  B  B25  1  0.500000  0.485778  0.289298  1
  B  B26  1  0.500000  0.516347  0.711550  1
  B  B27  1  0.500000  0.598922  0.027556  1
  B  B28  1  0.500000  0.400532  0.974508  1
  B  B29  1  0.500000  0.095273  0.468004  1
  B  B30  1  0.500000  0.899835  0.520432  1
  Ru  Ru31  1  0.000000  0.647582  0.321966  1
  Ru  Ru32  1  0.000000  0.358938  0.678142  1
  Ru  Ru33  1  0.000000  0.134394  0.187331  1
  Ru  Ru34  1  0.000000  0.860912  0.817162  1
  W  W35  1  0.000000  0.944651  0.374142  1
