# generated using pymatgen
data_Cs2NdPa(AgTe3)2
_symmetry_space_group_name_H-M   'P 1'
_cell_length_a   8.90316227
_cell_length_b   8.90316293
_cell_length_c   11.71445876
_cell_angle_alpha   89.86462127
_cell_angle_beta   90.13537924
_cell_angle_gamma   150.19548620
_symmetry_Int_Tables_number   1
_chemical_formula_structural   Cs2NdPa(AgTe3)2
_chemical_formula_sum   'Cs2 Nd1 Pa1 Ag2 Te6'
_cell_volume   461.53316039
_cell_formula_units_Z   1
loop_
 _symmetry_equiv_pos_site_id
 _symmetry_equiv_pos_as_xyz
  1  'x, y, z'
loop_
 _atom_site_type_symbol
 _atom_site_label
 _atom_site_symmetry_multiplicity
 _atom_site_fract_x
 _atom_site_fract_y
 _atom_site_fract_z
 _atom_site_occupancy
  Cs  Cs0  1  0.748772  0.251230  0.235715  1
  Cs  Cs1  1  0.251230  0.748772  0.764285  1
  Nd  Nd2  1  0.000000  0.000000  0.000000  1
  Pa  Pa3  1  0.000000  0.000000  0.500000  1
  Ag  Ag4  1  0.463367  0.536635  0.250491  1
  Ag  Ag5  1  0.536635  0.463367  0.749509  1
  Te  Te6  1  0.375739  0.624263  0.050682  1
  Te  Te7  1  0.062764  0.937237  0.262786  1
  Te  Te8  1  0.383432  0.616570  0.459627  1
  Te  Te9  1  0.616570  0.383432  0.540373  1
  Te  Te10  1  0.937237  0.062764  0.737214  1
  Te  Te11  1  0.624263  0.375739  0.949318  1
