# generated using pymatgen
data_KIn5(HgSe3)4
_symmetry_space_group_name_H-M   'P 1'
_cell_length_a   9.39863130
_cell_length_b   9.38129744
_cell_length_c   9.43445400
_cell_angle_alpha   107.34752092
_cell_angle_beta   107.57368344
_cell_angle_gamma   107.21155376
_symmetry_Int_Tables_number   1
_chemical_formula_structural   KIn5(HgSe3)4
_chemical_formula_sum   'K1 In5 Hg4 Se12'
_cell_volume   685.50529399
_cell_formula_units_Z   1
loop_
 _symmetry_equiv_pos_site_id
 _symmetry_equiv_pos_as_xyz
  1  'x, y, z'
loop_
 _atom_site_type_symbol
 _atom_site_label
 _atom_site_symmetry_multiplicity
 _atom_site_fract_x
 _atom_site_fract_y
 _atom_site_fract_z
 _atom_site_occupancy
  K  K0  1  0.005052  0.002722  0.996768  1
  In  In1  1  0.488125  0.340805  0.943994  1
  In  In2  1  0.942750  0.493213  0.341828  1
  In  In3  1  0.334547  0.935542  0.483648  1
  In  In4  1  0.016489  0.181949  0.557520  1
  In  In5  1  0.555490  0.017805  0.178571  1
  Hg  Hg6  1  0.628720  0.703839  0.395761  1
  Hg  Hg7  1  0.400823  0.637929  0.716326  1
  Hg  Hg8  1  0.712235  0.394935  0.633336  1
  Hg  Hg9  1  0.185269  0.559167  0.016840  1
  Se  Se10  1  0.784319  0.919895  0.284470  1
  Se  Se11  1  0.286659  0.793455  0.918960  1
  Se  Se12  1  0.916171  0.277800  0.780497  1
  Se  Se13  1  0.063309  0.703994  0.228874  1
  Se  Se14  1  0.227417  0.070943  0.700173  1
  Se  Se15  1  0.704760  0.228182  0.071833  1
  Se  Se16  1  0.370898  0.426880  0.156806  1
  Se  Se17  1  0.156035  0.371470  0.436199  1
  Se  Se18  1  0.431618  0.153200  0.368154  1
  Se  Se19  1  0.872713  0.642321  0.571773  1
  Se  Se20  1  0.568159  0.872312  0.640432  1
  Se  Se21  1  0.643082  0.566285  0.871874  1
