# generated using pymatgen
data_Yb4UCo6Si
_symmetry_space_group_name_H-M   'P 1'
_cell_length_a   5.36748000
_cell_length_b   5.36747997
_cell_length_c   7.48721600
_cell_angle_alpha   90.00000000
_cell_angle_beta   90.00000000
_cell_angle_gamma   120.00000018
_symmetry_Int_Tables_number   1
_chemical_formula_structural   Yb4UCo6Si
_chemical_formula_sum   'Yb4 U1 Co6 Si1'
_cell_volume   186.80644708
_cell_formula_units_Z   1
loop_
 _symmetry_equiv_pos_site_id
 _symmetry_equiv_pos_as_xyz
  1  'x, y, z'
loop_
 _atom_site_type_symbol
 _atom_site_label
 _atom_site_symmetry_multiplicity
 _atom_site_fract_x
 _atom_site_fract_y
 _atom_site_fract_z
 _atom_site_occupancy
  Yb  Yb0  1  0.333333  0.666667  0.576637  1
  Yb  Yb1  1  0.666667  0.333333  0.423363  1
  Yb  Yb2  1  0.666667  0.333333  0.051827  1
  Yb  Yb3  1  0.333333  0.666667  0.948173  1
  U  U4  1  0.000000  0.000000  0.500000  1
  Co  Co5  1  0.833194  0.166806  0.747910  1
  Co  Co6  1  0.666390  0.833194  0.252090  1
  Co  Co7  1  0.166806  0.833194  0.252090  1
  Co  Co8  1  0.833194  0.666390  0.747910  1
  Co  Co9  1  0.166806  0.333610  0.252090  1
  Co  Co10  1  0.333610  0.166806  0.747910  1
  Si  Si11  1  0.000000  0.000000  0.000000  1
