# generated using pymatgen
data_LaPrDyTaO7
_symmetry_space_group_name_H-M   'P 1'
_cell_length_a   6.64574862
_cell_length_b   6.63466356
_cell_length_c   7.69022400
_cell_angle_alpha   90.00000000
_cell_angle_beta   90.00000000
_cell_angle_gamma   110.20198230
_symmetry_Int_Tables_number   1
_chemical_formula_structural   LaPrDyTaO7
_chemical_formula_sum   'La2 Pr2 Dy2 Ta2 O14'
_cell_volume   318.21989229
_cell_formula_units_Z   2
loop_
 _symmetry_equiv_pos_site_id
 _symmetry_equiv_pos_as_xyz
  1  'x, y, z'
loop_
 _atom_site_type_symbol
 _atom_site_label
 _atom_site_symmetry_multiplicity
 _atom_site_fract_x
 _atom_site_fract_y
 _atom_site_fract_z
 _atom_site_occupancy
  La  La0  1  0.000000  0.000000  0.000000  1
  La  La1  1  0.000000  0.000000  0.500000  1
  Pr  Pr2  1  0.933592  0.477210  0.750000  1
  Pr  Pr3  1  0.066408  0.522790  0.250000  1
  Dy  Dy4  1  0.484453  0.943519  0.750000  1
  Dy  Dy5  1  0.515547  0.056481  0.250000  1
  Ta  Ta6  1  0.500000  0.500000  0.000000  1
  Ta  Ta7  1  0.500000  0.500000  0.500000  1
  O  O8  1  0.560459  0.578334  0.750000  1
  O  O9  1  0.439541  0.421666  0.250000  1
  O  O10  1  0.837724  0.098799  0.750000  1
  O  O11  1  0.162276  0.901201  0.250000  1
  O  O12  1  0.128760  0.847168  0.750000  1
  O  O13  1  0.871240  0.152832  0.250000  1
  O  O14  1  0.469267  0.193188  0.962023  1
  O  O15  1  0.530733  0.806812  0.462023  1
  O  O16  1  0.180403  0.418275  0.969103  1
  O  O17  1  0.819597  0.581725  0.469103  1
  O  O18  1  0.469267  0.193188  0.537977  1
  O  O19  1  0.530733  0.806812  0.037977  1
  O  O20  1  0.819597  0.581725  0.030897  1
  O  O21  1  0.180403  0.418275  0.530897  1
