# generated using pymatgen
data_CaErSc3Sn4
_symmetry_space_group_name_H-M   'P 1'
_cell_length_a   7.69118462
_cell_length_b   8.01574215
_cell_length_c   14.99408000
_cell_angle_alpha   90.10152178
_cell_angle_beta   89.63905255
_cell_angle_gamma   90.23762439
_symmetry_Int_Tables_number   1
_chemical_formula_structural   CaErSc3Sn4
_chemical_formula_sum   'Ca4 Er4 Sc12 Sn16'
_cell_volume   924.36561845
_cell_formula_units_Z   4
loop_
 _symmetry_equiv_pos_site_id
 _symmetry_equiv_pos_as_xyz
  1  'x, y, z'
loop_
 _atom_site_type_symbol
 _atom_site_label
 _atom_site_symmetry_multiplicity
 _atom_site_fract_x
 _atom_site_fract_y
 _atom_site_fract_z
 _atom_site_occupancy
  Ca  Ca0  1  0.992577  0.176334  0.094090  1
  Ca  Ca1  1  0.005866  0.822417  0.907758  1
  Ca  Ca2  1  0.505781  0.676940  0.907859  1
  Ca  Ca3  1  0.006083  0.822665  0.590485  1
  Er  Er4  1  0.494763  0.321858  0.097866  1
  Er  Er5  1  0.995288  0.180954  0.404981  1
  Er  Er6  1  0.493875  0.323063  0.405261  1
  Er  Er7  1  0.503624  0.678258  0.592176  1
  Sc  Sc8  1  0.166039  0.496928  0.749515  1
  Sc  Sc9  1  0.833353  0.501510  0.251959  1
  Sc  Sc10  1  0.334231  0.997448  0.250313  1
  Sc  Sc11  1  0.666366  0.002313  0.748518  1
  Sc  Sc12  1  0.334136  0.159557  0.626129  1
  Sc  Sc13  1  0.665292  0.839325  0.371603  1
  Sc  Sc14  1  0.164593  0.659641  0.373189  1
  Sc  Sc15  1  0.668369  0.840136  0.129042  1
  Sc  Sc16  1  0.837496  0.340181  0.625681  1
  Sc  Sc17  1  0.333534  0.158914  0.872253  1
  Sc  Sc18  1  0.831966  0.340380  0.873085  1
  Sc  Sc19  1  0.168906  0.660467  0.128378  1
  Sn  Sn20  1  0.026859  0.128614  0.749818  1
  Sn  Sn21  1  0.973877  0.872976  0.251886  1
  Sn  Sn22  1  0.472936  0.623533  0.249612  1
  Sn  Sn23  1  0.527922  0.375027  0.748554  1
  Sn  Sn24  1  0.309954  0.851765  0.747296  1
  Sn  Sn25  1  0.690341  0.150972  0.252759  1
  Sn  Sn26  1  0.192669  0.349064  0.252262  1
  Sn  Sn27  1  0.803735  0.645925  0.747071  1
  Sn  Sn28  1  0.183518  0.451081  0.539925  1
  Sn  Sn29  1  0.815727  0.540965  0.456454  1
  Sn  Sn30  1  0.325365  0.960588  0.454927  1
  Sn  Sn31  1  0.825276  0.540333  0.046005  1
  Sn  Sn32  1  0.676011  0.045125  0.539951  1
  Sn  Sn33  1  0.174768  0.454005  0.958573  1
  Sn  Sn34  1  0.668820  0.047286  0.958788  1
  Sn  Sn35  1  0.330080  0.963453  0.045977  1
