# generated using pymatgen
data_Ca3Tm(ReB4)4
_symmetry_space_group_name_H-M   'P 1'
_cell_length_a   3.58037200
_cell_length_b   6.00046051
_cell_length_c   11.59684701
_cell_angle_alpha   90.08684934
_cell_angle_beta   90.00000000
_cell_angle_gamma   90.00000000
_symmetry_Int_Tables_number   1
_chemical_formula_structural   Ca3Tm(ReB4)4
_chemical_formula_sum   'Ca3 Tm1 Re4 B16'
_cell_volume   249.14499276
_cell_formula_units_Z   1
loop_
 _symmetry_equiv_pos_site_id
 _symmetry_equiv_pos_as_xyz
  1  'x, y, z'
loop_
 _atom_site_type_symbol
 _atom_site_label
 _atom_site_symmetry_multiplicity
 _atom_site_fract_x
 _atom_site_fract_y
 _atom_site_fract_z
 _atom_site_occupancy
  Ca  Ca0  1  0.500000  0.628221  0.848481  1
  Ca  Ca1  1  0.500000  0.127971  0.649967  1
  Ca  Ca2  1  0.500000  0.872856  0.351016  1
  Tm  Tm3  1  0.500000  0.371517  0.150528  1
  Re  Re4  1  0.500000  0.370423  0.414985  1
  Re  Re5  1  0.500000  0.630583  0.583009  1
  Re  Re6  1  0.500000  0.132005  0.917725  1
  Re  Re7  1  0.500000  0.870156  0.085271  1
  B  B8  1  0.000000  0.113633  0.048217  1
  B  B9  1  0.000000  0.885836  0.952832  1
  B  B10  1  0.000000  0.385613  0.546715  1
  B  B11  1  0.000000  0.613606  0.451957  1
  B  B12  1  0.000000  0.134913  0.467535  1
  B  B13  1  0.000000  0.864727  0.531899  1
  B  B14  1  0.000000  0.364387  0.968904  1
  B  B15  1  0.000000  0.635243  0.032254  1
  B  B16  1  0.000000  0.024435  0.192731  1
  B  B17  1  0.000000  0.976988  0.808059  1
  B  B18  1  0.000000  0.476677  0.692064  1
  B  B19  1  0.000000  0.522945  0.306665  1
  B  B20  1  0.000000  0.214731  0.314582  1
  B  B21  1  0.000000  0.784610  0.684538  1
  B  B22  1  0.000000  0.283762  0.815214  1
  B  B23  1  0.000000  0.714160  0.184851  1
