# generated using pymatgen
data_Nd4Ho16Si15Sn
_symmetry_space_group_name_H-M   'P 1'
_cell_length_a   7.46746307
_cell_length_b   7.72597792
_cell_length_c   14.71102900
_cell_angle_alpha   90.15585465
_cell_angle_beta   89.39880806
_cell_angle_gamma   89.77521476
_symmetry_Int_Tables_number   1
_chemical_formula_structural   Nd4Ho16Si15Sn
_chemical_formula_sum   'Nd4 Ho16 Si15 Sn1'
_cell_volume   848.67359793
_cell_formula_units_Z   1
loop_
 _symmetry_equiv_pos_site_id
 _symmetry_equiv_pos_as_xyz
  1  'x, y, z'
loop_
 _atom_site_type_symbol
 _atom_site_label
 _atom_site_symmetry_multiplicity
 _atom_site_fract_x
 _atom_site_fract_y
 _atom_site_fract_z
 _atom_site_occupancy
  Nd  Nd0  1  0.228213  0.680741  0.153858  1
  Nd  Nd1  1  0.730361  0.817251  0.849007  1
  Nd  Nd2  1  0.270847  0.326220  0.652872  1
  Nd  Nd3  1  0.770909  0.180383  0.345170  1
  Ho  Ho4  1  0.916869  0.665696  0.620761  1
  Ho  Ho5  1  0.428211  0.822216  0.373141  1
  Ho  Ho6  1  0.571133  0.322141  0.126719  1
  Ho  Ho7  1  0.078450  0.183433  0.879488  1
  Ho  Ho8  1  0.578048  0.321296  0.873761  1
  Ho  Ho9  1  0.072414  0.179630  0.128684  1
  Ho  Ho10  1  0.928039  0.679912  0.370644  1
  Ho  Ho11  1  0.432423  0.820331  0.626854  1
  Ho  Ho12  1  0.094267  0.010776  0.496696  1
  Ho  Ho13  1  0.593245  0.488916  0.498373  1
  Ho  Ho14  1  0.406164  0.989208  0.000394  1
  Ho  Ho15  1  0.904365  0.509873  0.000048  1
  Ho  Ho16  1  0.277121  0.317335  0.350480  1
  Ho  Ho17  1  0.762272  0.188052  0.646929  1
  Ho  Ho18  1  0.230499  0.676038  0.853989  1
  Ho  Ho19  1  0.722847  0.816483  0.148576  1
  Si  Si20  1  0.598571  0.534277  0.288024  1
  Si  Si21  1  0.402475  0.034369  0.211826  1
  Si  Si22  1  0.907582  0.464534  0.788245  1
  Si  Si23  1  0.408710  0.030310  0.793154  1
  Si  Si24  1  0.890364  0.475078  0.207301  1
  Si  Si25  1  0.110079  0.975340  0.291801  1
  Si  Si26  1  0.602664  0.527468  0.709926  1
  Si  Si27  1  0.977454  0.373796  0.496879  1
  Si  Si28  1  0.475569  0.125208  0.500176  1
  Si  Si29  1  0.522889  0.624831  0.000740  1
  Si  Si30  1  0.023840  0.874125  0.002047  1
  Si  Si31  1  0.221234  0.610452  0.497821  1
  Si  Si32  1  0.721725  0.892424  0.498535  1
  Si  Si33  1  0.279345  0.392863  0.001897  1
  Si  Si34  1  0.779114  0.107321  0.002494  1
  Sn  Sn35  1  0.081692  0.961675  0.712689  1
