# generated using pymatgen
data_Tm10CdIn8Co3
_symmetry_space_group_name_H-M   'P 1'
_cell_length_a   3.53958400
_cell_length_b   8.03733857
_cell_length_c   18.06520680
_cell_angle_alpha   90.25121929
_cell_angle_beta   90.00000000
_cell_angle_gamma   90.00000000
_symmetry_Int_Tables_number   1
_chemical_formula_structural   Tm10CdIn8Co3
_chemical_formula_sum   'Tm10 Cd1 In8 Co3'
_cell_volume   513.92914744
_cell_formula_units_Z   1
loop_
 _symmetry_equiv_pos_site_id
 _symmetry_equiv_pos_as_xyz
  1  'x, y, z'
loop_
 _atom_site_type_symbol
 _atom_site_label
 _atom_site_symmetry_multiplicity
 _atom_site_fract_x
 _atom_site_fract_y
 _atom_site_fract_z
 _atom_site_occupancy
  Tm  Tm0  1  0.000000  0.116038  0.415756  1
  Tm  Tm1  1  0.000000  0.883459  0.592517  1
  Tm  Tm2  1  0.000000  0.386171  0.906212  1
  Tm  Tm3  1  0.000000  0.627332  0.070162  1
  Tm  Tm4  1  0.000000  0.206240  0.226556  1
  Tm  Tm5  1  0.000000  0.754257  0.775427  1
  Tm  Tm6  1  0.000000  0.251014  0.722599  1
  Tm  Tm7  1  0.000000  0.777280  0.288344  1
  Tm  Tm8  1  0.000000  0.002816  0.996631  1
  Tm  Tm9  1  0.000000  0.499125  0.503099  1
  Cd  Cd10  1  0.500000  0.525599  0.197704  1
  In  In11  1  0.500000  0.420166  0.353708  1
  In  In12  1  0.500000  0.568248  0.652997  1
  In  In13  1  0.500000  0.070001  0.846969  1
  In  In14  1  0.500000  0.919182  0.148800  1
  In  In15  1  0.500000  0.295115  0.064603  1
  In  In16  1  0.500000  0.708922  0.923693  1
  In  In17  1  0.500000  0.203782  0.571085  1
  In  In18  1  0.500000  0.795951  0.436438  1
  Co  Co19  1  0.500000  0.026163  0.308114  1
  Co  Co20  1  0.500000  0.981578  0.695493  1
  Co  Co21  1  0.500000  0.481562  0.803093  1
