# generated using pymatgen
data_Tm10ReAg3
_symmetry_space_group_name_H-M   'P 1'
_cell_length_a   9.29394500
_cell_length_b   9.29394521
_cell_length_c   9.67628900
_cell_angle_alpha   90.00000000
_cell_angle_beta   90.00000000
_cell_angle_gamma   119.99999570
_symmetry_Int_Tables_number   1
_chemical_formula_structural   Tm10ReAg3
_chemical_formula_sum   'Tm20 Re2 Ag6'
_cell_volume   723.83518046
_cell_formula_units_Z   2
loop_
 _symmetry_equiv_pos_site_id
 _symmetry_equiv_pos_as_xyz
  1  'x, y, z'
loop_
 _atom_site_type_symbol
 _atom_site_label
 _atom_site_symmetry_multiplicity
 _atom_site_fract_x
 _atom_site_fract_y
 _atom_site_fract_z
 _atom_site_occupancy
  Tm  Tm0  1  0.000000  0.000000  0.500000  1
  Tm  Tm1  1  0.000000  0.000000  0.000000  1
  Tm  Tm2  1  0.209170  0.790830  0.445045  1
  Tm  Tm3  1  0.209170  0.418340  0.445045  1
  Tm  Tm4  1  0.581660  0.790830  0.445045  1
  Tm  Tm5  1  0.790830  0.209170  0.554955  1
  Tm  Tm6  1  0.790830  0.581660  0.554955  1
  Tm  Tm7  1  0.418340  0.209170  0.554955  1
  Tm  Tm8  1  0.790830  0.209170  0.945045  1
  Tm  Tm9  1  0.790830  0.581660  0.945045  1
  Tm  Tm10  1  0.418340  0.209170  0.945045  1
  Tm  Tm11  1  0.209170  0.790830  0.054955  1
  Tm  Tm12  1  0.209170  0.418340  0.054955  1
  Tm  Tm13  1  0.581660  0.790830  0.054955  1
  Tm  Tm14  1  0.537235  0.462765  0.250000  1
  Tm  Tm15  1  0.537235  0.074470  0.250000  1
  Tm  Tm16  1  0.925530  0.462765  0.250000  1
  Tm  Tm17  1  0.462765  0.537235  0.750000  1
  Tm  Tm18  1  0.462765  0.925530  0.750000  1
  Tm  Tm19  1  0.074470  0.537235  0.750000  1
  Re  Re20  1  0.333333  0.666667  0.250000  1
  Re  Re21  1  0.666667  0.333333  0.750000  1
  Ag  Ag22  1  0.885225  0.114775  0.250000  1
  Ag  Ag23  1  0.885225  0.770451  0.250000  1
  Ag  Ag24  1  0.229549  0.114775  0.250000  1
  Ag  Ag25  1  0.114775  0.885225  0.750000  1
  Ag  Ag26  1  0.114775  0.229549  0.750000  1
  Ag  Ag27  1  0.770451  0.885225  0.750000  1
