# generated using pymatgen
data_Na6Li4VGaAs6
_symmetry_space_group_name_H-M   'P 1'
_cell_length_a   9.53551553
_cell_length_b   9.53551397
_cell_length_c   13.87273100
_cell_angle_alpha   90.00000000
_cell_angle_beta   90.00000000
_cell_angle_gamma   143.19244599
_symmetry_Int_Tables_number   1
_chemical_formula_structural   Na6Li4VGaAs6
_chemical_formula_sum   'Na12 Li8 V2 Ga2 As12'
_cell_volume   755.73704263
_cell_formula_units_Z   2
loop_
 _symmetry_equiv_pos_site_id
 _symmetry_equiv_pos_as_xyz
  1  'x, y, z'
loop_
 _atom_site_type_symbol
 _atom_site_label
 _atom_site_symmetry_multiplicity
 _atom_site_fract_x
 _atom_site_fract_y
 _atom_site_fract_z
 _atom_site_occupancy
  Na  Na0  1  0.096426  0.431825  0.672718  1
  Na  Na1  1  0.721893  0.729418  0.677176  1
  Na  Na2  1  0.229418  0.221893  0.822824  1
  Na  Na3  1  0.778107  0.770582  0.177176  1
  Na  Na4  1  0.931825  0.596426  0.827282  1
  Na  Na5  1  0.568175  0.903574  0.327282  1
  Na  Na6  1  0.403574  0.068175  0.172718  1
  Na  Na7  1  0.053254  0.396609  0.172359  1
  Na  Na8  1  0.896609  0.553254  0.327641  1
  Na  Na9  1  0.446746  0.103391  0.672359  1
  Na  Na10  1  0.603391  0.946747  0.827641  1
  Na  Na11  1  0.270582  0.278107  0.322824  1
  Li  Li12  1  0.918376  0.081624  0.000000  1
  Li  Li13  1  0.581624  0.418376  0.500000  1
  Li  Li14  1  0.084701  0.915299  0.000000  1
  Li  Li15  1  0.415299  0.584701  0.500000  1
  Li  Li16  1  0.749996  0.250004  0.000000  1
  Li  Li17  1  0.750004  0.249996  0.500000  1
  Li  Li18  1  0.246378  0.753622  0.000000  1
  Li  Li19  1  0.253622  0.746378  0.500000  1
  V  V20  1  0.082591  0.917409  0.500000  1
  V  V21  1  0.417409  0.582591  0.000000  1
  Ga  Ga22  1  0.911592  0.088408  0.500000  1
  Ga  Ga23  1  0.588408  0.411592  0.000000  1
  As  As24  1  0.900671  0.574370  0.112312  1
  As  As25  1  0.425630  0.099329  0.887688  1
  As  As26  1  0.599329  0.925630  0.612312  1
  As  As27  1  0.937158  0.620304  0.601201  1
  As  As28  1  0.120304  0.437158  0.898799  1
  As  As29  1  0.562842  0.879696  0.101201  1
  As  As30  1  0.379696  0.062842  0.398799  1
  As  As31  1  0.229857  0.220724  0.601826  1
  As  As32  1  0.720724  0.729857  0.898174  1
  As  As33  1  0.270143  0.279276  0.101826  1
  As  As34  1  0.074370  0.400671  0.387688  1
  As  As35  1  0.779276  0.770143  0.398174  1
