# generated using pymatgen
data_Dy3MnCo9SiB4
_symmetry_space_group_name_H-M   'P 1'
_cell_length_a   5.10698900
_cell_length_b   5.10699043
_cell_length_c   9.50179300
_cell_angle_alpha   90.00000000
_cell_angle_beta   90.00000000
_cell_angle_gamma   120.00001015
_symmetry_Int_Tables_number   1
_chemical_formula_structural   Dy3MnCo9SiB4
_chemical_formula_sum   'Dy3 Mn1 Co9 Si1 B4'
_cell_volume   214.61798792
_cell_formula_units_Z   1
loop_
 _symmetry_equiv_pos_site_id
 _symmetry_equiv_pos_as_xyz
  1  'x, y, z'
loop_
 _atom_site_type_symbol
 _atom_site_label
 _atom_site_symmetry_multiplicity
 _atom_site_fract_x
 _atom_site_fract_y
 _atom_site_fract_z
 _atom_site_occupancy
  Dy  Dy0  1  0.000000  0.000000  0.660582  1
  Dy  Dy1  1  0.000000  0.000000  0.339418  1
  Dy  Dy2  1  0.000000  0.000000  0.000000  1
  Mn  Mn3  1  0.333333  0.666667  0.000000  1
  Co  Co4  1  0.499492  0.500508  0.500000  1
  Co  Co5  1  0.001017  0.500508  0.500000  1
  Co  Co6  1  0.501219  0.002438  0.202388  1
  Co  Co7  1  0.501219  0.498781  0.202388  1
  Co  Co8  1  0.997562  0.498781  0.202388  1
  Co  Co9  1  0.501219  0.002438  0.797612  1
  Co  Co10  1  0.501219  0.498781  0.797612  1
  Co  Co11  1  0.997562  0.498781  0.797612  1
  Co  Co12  1  0.499492  0.998983  0.500000  1
  Si  Si13  1  0.666667  0.333333  0.000000  1
  B  B14  1  0.333333  0.666667  0.653286  1
  B  B15  1  0.666667  0.333333  0.651037  1
  B  B16  1  0.666667  0.333333  0.348963  1
  B  B17  1  0.333333  0.666667  0.346714  1
