# generated using pymatgen
data_Pr2Ga12Co
_symmetry_space_group_name_H-M   'P 1'
_cell_length_a   6.05919400
_cell_length_b   6.05919400
_cell_length_c   15.66932600
_cell_angle_alpha   90.00000000
_cell_angle_beta   90.00000000
_cell_angle_gamma   90.00000000
_symmetry_Int_Tables_number   1
_chemical_formula_structural   Pr2Ga12Co
_chemical_formula_sum   'Pr4 Ga24 Co2'
_cell_volume   575.28100121
_cell_formula_units_Z   2
loop_
 _symmetry_equiv_pos_site_id
 _symmetry_equiv_pos_as_xyz
  1  'x, y, z'
loop_
 _atom_site_type_symbol
 _atom_site_label
 _atom_site_symmetry_multiplicity
 _atom_site_fract_x
 _atom_site_fract_y
 _atom_site_fract_z
 _atom_site_occupancy
  Pr  Pr0  1  0.000000  0.500000  0.759174  1
  Pr  Pr1  1  0.000000  0.500000  0.240826  1
  Pr  Pr2  1  0.500000  0.000000  0.240826  1
  Pr  Pr3  1  0.500000  0.000000  0.759174  1
  Ga  Ga4  1  0.670193  0.170193  0.430848  1
  Ga  Ga5  1  0.170193  0.670193  0.569152  1
  Ga  Ga6  1  0.000000  0.000000  0.343463  1
  Ga  Ga7  1  0.749788  0.750212  0.081970  1
  Ga  Ga8  1  0.749788  0.249788  0.918030  1
  Ga  Ga9  1  0.750212  0.250212  0.081970  1
  Ga  Ga10  1  0.249788  0.250212  0.918030  1
  Ga  Ga11  1  0.500000  0.500000  0.814669  1
  Ga  Ga12  1  0.829807  0.329807  0.569152  1
  Ga  Ga13  1  0.250212  0.750212  0.918030  1
  Ga  Ga14  1  0.000000  0.000000  0.814669  1
  Ga  Ga15  1  0.829807  0.670193  0.430848  1
  Ga  Ga16  1  0.329807  0.829807  0.430848  1
  Ga  Ga17  1  0.500000  0.500000  0.343463  1
  Ga  Ga18  1  0.500000  0.500000  0.185331  1
  Ga  Ga19  1  0.249788  0.749788  0.081970  1
  Ga  Ga20  1  0.670193  0.829807  0.569152  1
  Ga  Ga21  1  0.750212  0.749788  0.918030  1
  Ga  Ga22  1  0.329807  0.170193  0.569152  1
  Ga  Ga23  1  0.250212  0.249788  0.081970  1
  Ga  Ga24  1  0.500000  0.500000  0.656537  1
  Ga  Ga25  1  0.170193  0.329807  0.430848  1
  Ga  Ga26  1  0.000000  0.000000  0.185331  1
  Ga  Ga27  1  0.000000  0.000000  0.656537  1
  Co  Co28  1  0.000000  0.500000  0.000000  1
  Co  Co29  1  0.500000  0.000000  0.000000  1
