# generated using pymatgen
data_La2Si4P2Pd21
_symmetry_space_group_name_H-M   'P 1'
_cell_length_a   8.72229694
_cell_length_b   8.70693795
_cell_length_c   8.70693857
_cell_angle_alpha   60.06516653
_cell_angle_beta   59.94163697
_cell_angle_gamma   59.94162681
_symmetry_Int_Tables_number   1
_chemical_formula_structural   La2Si4P2Pd21
_chemical_formula_sum   'La2 Si4 P2 Pd21'
_cell_volume   467.38647316
_cell_formula_units_Z   1
loop_
 _symmetry_equiv_pos_site_id
 _symmetry_equiv_pos_as_xyz
  1  'x, y, z'
loop_
 _atom_site_type_symbol
 _atom_site_label
 _atom_site_symmetry_multiplicity
 _atom_site_fract_x
 _atom_site_fract_y
 _atom_site_fract_z
 _atom_site_occupancy
  La  La0  1  0.749958  0.749510  0.750573  1
  La  La1  1  0.250042  0.249427  0.250490  1
  Si  Si2  1  0.737891  0.260914  0.263304  1
  Si  Si3  1  0.262947  0.261752  0.738248  1
  Si  Si4  1  0.737053  0.261752  0.738248  1
  Si  Si5  1  0.262109  0.736696  0.739086  1
  P  P6  1  0.738056  0.736785  0.263215  1
  P  P7  1  0.261944  0.736785  0.263215  1
  Pd  Pd8  1  0.000000  0.001696  0.998304  1
  Pd  Pd9  1  0.613227  0.614500  0.159048  1
  Pd  Pd10  1  0.614391  0.157037  0.614181  1
  Pd  Pd11  1  0.158025  0.614828  0.612744  1
  Pd  Pd12  1  0.614404  0.614828  0.612744  1
  Pd  Pd13  1  0.385609  0.385819  0.842963  1
  Pd  Pd14  1  0.386773  0.840952  0.385500  1
  Pd  Pd15  1  0.841975  0.387256  0.385172  1
  Pd  Pd16  1  0.385596  0.387256  0.385172  1
  Pd  Pd17  1  0.002207  0.998898  0.343480  1
  Pd  Pd18  1  0.655415  0.998898  0.343480  1
  Pd  Pd19  1  0.000000  0.657470  0.342530  1
  Pd  Pd20  1  0.655308  0.345720  0.999690  1
  Pd  Pd21  1  0.999282  0.345720  0.999690  1
  Pd  Pd22  1  0.000000  0.345089  0.654911  1
  Pd  Pd23  1  0.344585  0.656520  0.001102  1
  Pd  Pd24  1  0.344692  0.000310  0.654280  1
  Pd  Pd25  1  0.343847  0.998376  0.001624  1
  Pd  Pd26  1  0.000718  0.000310  0.654280  1
  Pd  Pd27  1  0.997793  0.656520  0.001102  1
  Pd  Pd28  1  0.656153  0.998376  0.001624  1
