# generated using pymatgen
data_La8NdHo11Sn16
_symmetry_space_group_name_H-M   'P 1'
_cell_length_a   8.16511966
_cell_length_b   8.35092125
_cell_length_c   15.76466000
_cell_angle_alpha   89.86159951
_cell_angle_beta   90.02305130
_cell_angle_gamma   89.92649875
_symmetry_Int_Tables_number   1
_chemical_formula_structural   La8NdHo11Sn16
_chemical_formula_sum   'La8 Nd1 Ho11 Sn16'
_cell_volume   1074.92927396
_cell_formula_units_Z   1
loop_
 _symmetry_equiv_pos_site_id
 _symmetry_equiv_pos_as_xyz
  1  'x, y, z'
loop_
 _atom_site_type_symbol
 _atom_site_label
 _atom_site_symmetry_multiplicity
 _atom_site_fract_x
 _atom_site_fract_y
 _atom_site_fract_z
 _atom_site_occupancy
  La  La0  1  0.513638  0.321640  0.903161  1
  La  La1  1  0.013313  0.179086  0.596212  1
  La  La2  1  0.486242  0.678183  0.402795  1
  La  La3  1  0.986642  0.822162  0.097488  1
  La  La4  1  0.486291  0.678258  0.098223  1
  La  La5  1  0.986234  0.821495  0.402998  1
  La  La6  1  0.513951  0.321433  0.595413  1
  La  La7  1  0.013750  0.179519  0.903181  1
  Nd  Nd8  1  0.361388  0.834308  0.879374  1
  Ho  Ho9  1  0.860026  0.663738  0.621690  1
  Ho  Ho10  1  0.640800  0.164181  0.376870  1
  Ho  Ho11  1  0.139617  0.336203  0.125191  1
  Ho  Ho12  1  0.640019  0.163619  0.123010  1
  Ho  Ho13  1  0.140402  0.336144  0.376931  1
  Ho  Ho14  1  0.359316  0.835882  0.622554  1
  Ho  Ho15  1  0.858743  0.664798  0.876238  1
  Ho  Ho16  1  0.192516  0.502274  0.748921  1
  Ho  Ho17  1  0.693630  0.997414  0.749536  1
  Ho  Ho18  1  0.806145  0.497185  0.250047  1
  Ho  Ho19  1  0.306367  0.002980  0.250822  1
  Sn  Sn20  1  0.303992  0.044013  0.045826  1
  Sn  Sn21  1  0.805349  0.458803  0.456860  1
  Sn  Sn22  1  0.693892  0.958904  0.542022  1
  Sn  Sn23  1  0.189464  0.535979  0.958839  1
  Sn  Sn24  1  0.702406  0.961147  0.958315  1
  Sn  Sn25  1  0.195203  0.541256  0.541961  1
  Sn  Sn26  1  0.305771  0.041045  0.457575  1
  Sn  Sn27  1  0.805940  0.458881  0.042235  1
  Sn  Sn28  1  0.560186  0.622034  0.748427  1
  Sn  Sn29  1  0.056873  0.874973  0.747728  1
  Sn  Sn30  1  0.441861  0.374815  0.250331  1
  Sn  Sn31  1  0.940969  0.124916  0.250692  1
  Sn  Sn32  1  0.321666  0.142511  0.748503  1
  Sn  Sn33  1  0.822202  0.359563  0.749320  1
  Sn  Sn34  1  0.677522  0.859787  0.250259  1
  Sn  Sn35  1  0.177675  0.640873  0.250452  1
