# generated using pymatgen
data_Pr6HoPI12
_symmetry_space_group_name_H-M   'P 1'
_cell_length_a   9.98067906
_cell_length_b   9.98067965
_cell_length_c   9.98067964
_cell_angle_alpha   107.74556963
_cell_angle_beta   107.74556561
_cell_angle_gamma   107.74556179
_symmetry_Int_Tables_number   1
_chemical_formula_structural   Pr6HoPI12
_chemical_formula_sum   'Pr6 Ho1 P1 I12'
_cell_volume   810.56250749
_cell_formula_units_Z   1
loop_
 _symmetry_equiv_pos_site_id
 _symmetry_equiv_pos_as_xyz
  1  'x, y, z'
loop_
 _atom_site_type_symbol
 _atom_site_label
 _atom_site_symmetry_multiplicity
 _atom_site_fract_x
 _atom_site_fract_y
 _atom_site_fract_z
 _atom_site_occupancy
  Pr  Pr0  1  0.970641  0.898898  0.694334  1
  Pr  Pr1  1  0.029359  0.101102  0.305666  1
  Pr  Pr2  1  0.101102  0.305666  0.029359  1
  Pr  Pr3  1  0.305666  0.029359  0.101102  1
  Pr  Pr4  1  0.898898  0.694334  0.970641  1
  Pr  Pr5  1  0.694334  0.970641  0.898898  1
  Ho  Ho6  1  0.500000  0.500000  0.500000  1
  P  P7  1  0.000000  0.000000  0.000000  1
  I  I8  1  0.527813  0.607874  0.833283  1
  I  I9  1  0.472187  0.392126  0.166717  1
  I  I10  1  0.314612  0.925473  0.770345  1
  I  I11  1  0.392126  0.166717  0.472187  1
  I  I12  1  0.925473  0.770345  0.314612  1
  I  I13  1  0.685388  0.074527  0.229655  1
  I  I14  1  0.074527  0.229655  0.685388  1
  I  I15  1  0.770345  0.314612  0.925473  1
  I  I16  1  0.229655  0.685388  0.074527  1
  I  I17  1  0.833283  0.527813  0.607874  1
  I  I18  1  0.166717  0.472187  0.392126  1
  I  I19  1  0.607874  0.833283  0.527813  1
