# generated using pymatgen
data_Ta9CrO25
_symmetry_space_group_name_H-M   'P 1'
_cell_length_a   3.86276432
_cell_length_b   11.41669435
_cell_length_c   11.41669505
_cell_angle_alpha   88.36002140
_cell_angle_beta   80.26033553
_cell_angle_gamma   80.26033912
_symmetry_Int_Tables_number   1
_chemical_formula_structural   Ta9CrO25
_chemical_formula_sum   'Ta9 Cr1 O25'
_cell_volume   489.06722982
_cell_formula_units_Z   1
loop_
 _symmetry_equiv_pos_site_id
 _symmetry_equiv_pos_as_xyz
  1  'x, y, z'
loop_
 _atom_site_type_symbol
 _atom_site_label
 _atom_site_symmetry_multiplicity
 _atom_site_fract_x
 _atom_site_fract_y
 _atom_site_fract_z
 _atom_site_occupancy
  Ta  Ta0  1  0.781994  0.117314  0.322898  1
  Ta  Ta1  1  0.878079  0.796142  0.441819  1
  Ta  Ta2  1  0.116042  0.203858  0.558180  1
  Ta  Ta3  1  0.680102  0.441820  0.203858  1
  Ta  Ta4  1  0.325780  0.558180  0.796142  1
  Ta  Ta5  1  0.895109  0.322897  0.882685  1
  Ta  Ta6  1  0.100690  0.677103  0.117315  1
  Ta  Ta7  1  0.222208  0.882686  0.677102  1
  Ta  Ta8  1  0.000000  0.000000  0.000000  1
  Cr  Cr9  1  0.250000  0.500000  0.500000  1
  O  O10  1  0.946224  0.629894  0.512077  1
  O  O11  1  0.541699  0.512077  0.370106  1
  O  O12  1  0.423883  0.487923  0.629894  1
  O  O13  1  0.088197  0.370106  0.487923  1
  O  O14  1  0.500000  0.000000  0.000000  1
  O  O15  1  0.250758  0.140203  0.364836  1
  O  O16  1  0.384407  0.364837  0.859797  1
  O  O17  1  0.609040  0.635163  0.140203  1
  O  O18  1  0.755796  0.859797  0.635163  1
  O  O19  1  0.832259  0.960481  0.391706  1
  O  O20  1  0.983052  0.734062  0.290014  1
  O  O21  1  0.726933  0.290015  0.265938  1
  O  O22  1  0.282886  0.709985  0.734062  1
  O  O23  1  0.007131  0.265938  0.709985  1
  O  O24  1  0.947953  0.167483  0.936391  1
  O  O25  1  0.115657  0.936391  0.832517  1
  O  O26  1  0.884564  0.063609  0.167483  1
  O  O27  1  0.776035  0.391706  0.039519  1
  O  O28  1  0.355612  0.808037  0.489073  1
  O  O29  1  0.155314  0.489073  0.191963  1
  O  O30  1  0.836350  0.510927  0.808036  1
  O  O31  1  0.652723  0.191963  0.510927  1
  O  O32  1  0.184446  0.039519  0.608294  1
  O  O33  1  0.207259  0.608294  0.960481  1
  O  O34  1  0.051826  0.832517  0.063609  1
