# generated using pymatgen
data_Li3Zr(NiAs)4
_symmetry_space_group_name_H-M   'P 1'
_cell_length_a   3.93555900
_cell_length_b   6.37530185
_cell_length_c   6.97786717
_cell_angle_alpha   88.63242045
_cell_angle_beta   90.00000000
_cell_angle_gamma   90.00000000
_symmetry_Int_Tables_number   1
_chemical_formula_structural   Li3Zr(NiAs)4
_chemical_formula_sum   'Li3 Zr1 Ni4 As4'
_cell_volume   175.02744493
_cell_formula_units_Z   1
loop_
 _symmetry_equiv_pos_site_id
 _symmetry_equiv_pos_as_xyz
  1  'x, y, z'
loop_
 _atom_site_type_symbol
 _atom_site_label
 _atom_site_symmetry_multiplicity
 _atom_site_fract_x
 _atom_site_fract_y
 _atom_site_fract_z
 _atom_site_occupancy
  Li  Li0  1  0.250000  0.487044  0.181553  1
  Li  Li1  1  0.750000  0.508019  0.813634  1
  Li  Li2  1  0.750000  0.008621  0.692660  1
  Zr  Zr3  1  0.250000  0.986730  0.315906  1
  Ni  Ni4  1  0.250000  0.843492  0.937532  1
  Ni  Ni5  1  0.750000  0.158766  0.055872  1
  Ni  Ni6  1  0.750000  0.651018  0.437447  1
  Ni  Ni7  1  0.250000  0.358658  0.560748  1
  As  As8  1  0.250000  0.722083  0.624781  1
  As  As9  1  0.750000  0.281615  0.385110  1
  As  As10  1  0.750000  0.775616  0.111262  1
  As  As11  1  0.250000  0.218338  0.883495  1
