# generated using pymatgen
data_Hf6Al24Fe7Ir
_symmetry_space_group_name_H-M   'P 1'
_cell_length_a   8.50701574
_cell_length_b   8.50701517
_cell_length_c   9.08741214
_cell_angle_alpha   89.98251695
_cell_angle_beta   90.01748272
_cell_angle_gamma   120.07129524
_symmetry_Int_Tables_number   1
_chemical_formula_structural   Hf6Al24Fe7Ir
_chemical_formula_sum   'Hf6 Al24 Fe7 Ir1'
_cell_volume   569.13175802
_cell_formula_units_Z   1
loop_
 _symmetry_equiv_pos_site_id
 _symmetry_equiv_pos_as_xyz
  1  'x, y, z'
loop_
 _atom_site_type_symbol
 _atom_site_label
 _atom_site_symmetry_multiplicity
 _atom_site_fract_x
 _atom_site_fract_y
 _atom_site_fract_z
 _atom_site_occupancy
  Hf  Hf0  1  0.802283  0.197717  0.747726  1
  Hf  Hf1  1  0.197717  0.802283  0.252274  1
  Hf  Hf2  1  0.395462  0.196363  0.748675  1
  Hf  Hf3  1  0.604538  0.803637  0.251325  1
  Hf  Hf4  1  0.803637  0.604538  0.748675  1
  Hf  Hf5  1  0.196363  0.395462  0.251325  1
  Al  Al6  1  0.671039  0.328961  0.974557  1
  Al  Al7  1  0.328961  0.671039  0.025443  1
  Al  Al8  1  0.333369  0.666631  0.475660  1
  Al  Al9  1  0.666631  0.333369  0.524340  1
  Al  Al10  1  0.838367  0.161633  0.424896  1
  Al  Al11  1  0.161633  0.838367  0.575104  1
  Al  Al12  1  0.322373  0.160714  0.425351  1
  Al  Al13  1  0.161026  0.838974  0.923461  1
  Al  Al14  1  0.677627  0.839286  0.574649  1
  Al  Al15  1  0.838974  0.161026  0.076539  1
  Al  Al16  1  0.839286  0.677627  0.425351  1
  Al  Al17  1  0.679007  0.844659  0.923545  1
  Al  Al18  1  0.160714  0.322373  0.574649  1
  Al  Al19  1  0.320993  0.155341  0.076455  1
  Al  Al20  1  0.155341  0.320993  0.923545  1
  Al  Al21  1  0.844659  0.679007  0.076455  1
  Al  Al22  1  0.441579  0.558421  0.743067  1
  Al  Al23  1  0.558421  0.441579  0.256933  1
  Al  Al24  1  0.112233  0.556073  0.749966  1
  Al  Al25  1  0.887767  0.443927  0.250034  1
  Al  Al26  1  0.443927  0.887767  0.749966  1
  Al  Al27  1  0.556073  0.112233  0.250034  1
  Al  Al28  1  0.000080  0.999920  0.749743  1
  Al  Al29  1  0.999920  0.000080  0.250257  1
  Fe  Fe30  1  0.000000  0.500000  0.000000  1
  Fe  Fe31  1  0.500000  0.500000  0.500000  1
  Fe  Fe32  1  0.500000  0.000000  0.000000  1
  Fe  Fe33  1  0.000000  0.500000  0.500000  1
  Fe  Fe34  1  0.500000  0.000000  0.500000  1
  Fe  Fe35  1  0.000000  0.000000  0.000000  1
  Fe  Fe36  1  0.000000  0.000000  0.500000  1
  Ir  Ir37  1  0.500000  0.500000  0.000000  1
