# generated using pymatgen
data_Y5Ho14ErSn16
_symmetry_space_group_name_H-M   'P 1'
_cell_length_a   8.02942878
_cell_length_b   8.14753299
_cell_length_c   15.42050665
_cell_angle_alpha   90.01458619
_cell_angle_beta   89.91261258
_cell_angle_gamma   89.94792709
_symmetry_Int_Tables_number   1
_chemical_formula_structural   Y5Ho14ErSn16
_chemical_formula_sum   'Y5 Ho14 Er1 Sn16'
_cell_volume   1008.80847462
_cell_formula_units_Z   1
loop_
 _symmetry_equiv_pos_site_id
 _symmetry_equiv_pos_as_xyz
  1  'x, y, z'
loop_
 _atom_site_type_symbol
 _atom_site_label
 _atom_site_symmetry_multiplicity
 _atom_site_fract_x
 _atom_site_fract_y
 _atom_site_fract_z
 _atom_site_occupancy
  Y  Y0  1  0.979662  0.821091  0.096626  1
  Y  Y1  1  0.479298  0.678131  0.096363  1
  Y  Y2  1  0.978791  0.821458  0.403446  1
  Y  Y3  1  0.521103  0.321673  0.596691  1
  Y  Y4  1  0.020016  0.178753  0.903612  1
  Ho  Ho5  1  0.366460  0.837486  0.876942  1
  Ho  Ho6  1  0.867326  0.661971  0.622394  1
  Ho  Ho7  1  0.632098  0.162071  0.377409  1
  Ho  Ho8  1  0.133006  0.337798  0.122835  1
  Ho  Ho9  1  0.632368  0.162688  0.122954  1
  Ho  Ho10  1  0.131723  0.337629  0.377748  1
  Ho  Ho11  1  0.368496  0.837722  0.622603  1
  Ho  Ho12  1  0.867418  0.662266  0.877152  1
  Ho  Ho13  1  0.521829  0.321481  0.902732  1
  Ho  Ho14  1  0.022058  0.178677  0.597192  1
  Ho  Ho15  1  0.477757  0.678412  0.402872  1
  Ho  Ho16  1  0.198944  0.503967  0.749753  1
  Ho  Ho17  1  0.698811  0.996352  0.749930  1
  Ho  Ho18  1  0.801155  0.495919  0.250159  1
  Er  Er19  1  0.301162  0.003874  0.250357  1
  Sn  Sn20  1  0.294639  0.038556  0.041505  1
  Sn  Sn21  1  0.792110  0.462916  0.458215  1
  Sn  Sn22  1  0.707933  0.963531  0.541958  1
  Sn  Sn23  1  0.207191  0.536962  0.958171  1
  Sn  Sn24  1  0.704634  0.961923  0.958370  1
  Sn  Sn25  1  0.206448  0.538415  0.541315  1
  Sn  Sn26  1  0.293225  0.038111  0.458778  1
  Sn  Sn27  1  0.794019  0.460934  0.040986  1
  Sn  Sn28  1  0.565391  0.617971  0.749960  1
  Sn  Sn29  1  0.064662  0.881732  0.749421  1
  Sn  Sn30  1  0.434799  0.381316  0.250606  1
  Sn  Sn31  1  0.935188  0.118634  0.250164  1
  Sn  Sn32  1  0.331679  0.149066  0.750439  1
  Sn  Sn33  1  0.832061  0.351028  0.749675  1
  Sn  Sn34  1  0.667533  0.850925  0.250322  1
  Sn  Sn35  1  0.169009  0.648561  0.250348  1
