# generated using pymatgen
data_Tb2Ni11MoAs7
_symmetry_space_group_name_H-M   'P 1'
_cell_length_a   9.42025353
_cell_length_b   9.40669061
_cell_length_c   3.84424900
_cell_angle_alpha   90.00000000
_cell_angle_beta   90.00000000
_cell_angle_gamma   119.73410853
_symmetry_Int_Tables_number   1
_chemical_formula_structural   Tb2Ni11MoAs7
_chemical_formula_sum   'Tb2 Ni11 Mo1 As7'
_cell_volume   295.80054757
_cell_formula_units_Z   1
loop_
 _symmetry_equiv_pos_site_id
 _symmetry_equiv_pos_as_xyz
  1  'x, y, z'
loop_
 _atom_site_type_symbol
 _atom_site_label
 _atom_site_symmetry_multiplicity
 _atom_site_fract_x
 _atom_site_fract_y
 _atom_site_fract_z
 _atom_site_occupancy
  Tb  Tb0  1  0.333413  0.661586  0.000000  1
  Tb  Tb1  1  0.666976  0.333377  0.500001  1
  Ni  Ni2  1  0.436082  0.058791  0.000000  1
  Ni  Ni3  1  0.151763  0.281171  0.000000  1
  Ni  Ni4  1  0.943218  0.382863  0.000000  1
  Ni  Ni5  1  0.624989  0.565496  0.000000  1
  Ni  Ni6  1  0.128210  0.844740  0.000000  1
  Ni  Ni7  1  0.715430  0.872085  0.000000  1
  Ni  Ni8  1  0.903354  0.112882  0.500001  1
  Ni  Ni9  1  0.378097  0.431725  0.500001  1
  Ni  Ni10  1  0.050150  0.622354  0.500001  1
  Ni  Ni11  1  0.883284  0.783566  0.500001  1
  Ni  Ni12  1  0.574517  0.954379  0.500001  1
  Mo  Mo13  1  0.209499  0.095900  0.500001  1
  As  As14  1  0.993097  0.996253  0.000000  1
  As  As15  1  0.713172  0.118896  0.000000  1
  As  As16  1  0.409277  0.295271  0.000000  1
  As  As17  1  0.885181  0.596587  0.000000  1
  As  As18  1  0.107815  0.402265  0.500001  1
  As  As19  1  0.593852  0.704891  0.500001  1
  As  As20  1  0.298622  0.884923  0.500001  1
