# generated using pymatgen
data_Sr2US5
_symmetry_space_group_name_H-M   'P 1'
_cell_length_a   7.60799100
_cell_length_b   8.31551000
_cell_length_c   12.01522800
_cell_angle_alpha   90.00000000
_cell_angle_beta   90.00000000
_cell_angle_gamma   90.00000000
_symmetry_Int_Tables_number   1
_chemical_formula_structural   Sr2US5
_chemical_formula_sum   'Sr8 U4 S20'
_cell_volume   760.13529203
_cell_formula_units_Z   4
loop_
 _symmetry_equiv_pos_site_id
 _symmetry_equiv_pos_as_xyz
  1  'x, y, z'
loop_
 _atom_site_type_symbol
 _atom_site_label
 _atom_site_symmetry_multiplicity
 _atom_site_fract_x
 _atom_site_fract_y
 _atom_site_fract_z
 _atom_site_occupancy
  Sr  Sr0  1  0.432213  0.993738  0.330371  1
  Sr  Sr1  1  0.932213  0.006262  0.169629  1
  Sr  Sr2  1  0.567787  0.493738  0.669629  1
  Sr  Sr3  1  0.067787  0.506262  0.830371  1
  Sr  Sr4  1  0.567787  0.006262  0.669629  1
  Sr  Sr5  1  0.067787  0.993738  0.830371  1
  Sr  Sr6  1  0.432213  0.506262  0.330371  1
  Sr  Sr7  1  0.932213  0.493738  0.169629  1
  U  U8  1  0.938298  0.750000  0.494440  1
  U  U9  1  0.438298  0.250000  0.005560  1
  U  U10  1  0.061702  0.250000  0.505560  1
  U  U11  1  0.561702  0.750000  0.994440  1
  S  S12  1  0.119822  0.750000  0.310111  1
  S  S13  1  0.619822  0.250000  0.189889  1
  S  S14  1  0.880178  0.250000  0.689889  1
  S  S15  1  0.380178  0.750000  0.810111  1
  S  S16  1  0.577206  0.750000  0.491942  1
  S  S17  1  0.077206  0.250000  0.008058  1
  S  S18  1  0.422794  0.250000  0.508058  1
  S  S19  1  0.922794  0.750000  0.991942  1
  S  S20  1  0.851687  0.750000  0.701257  1
  S  S21  1  0.351687  0.250000  0.798743  1
  S  S22  1  0.148313  0.250000  0.298743  1
  S  S23  1  0.648313  0.750000  0.201257  1
  S  S24  1  0.171721  0.540911  0.570407  1
  S  S25  1  0.671721  0.459089  0.929593  1
  S  S26  1  0.828279  0.040911  0.429593  1
  S  S27  1  0.328279  0.959089  0.070407  1
  S  S28  1  0.828279  0.459089  0.429593  1
  S  S29  1  0.328279  0.540911  0.070407  1
  S  S30  1  0.171721  0.959089  0.570407  1
  S  S31  1  0.671721  0.040911  0.929593  1
