# generated using pymatgen
data_LaDy2Th3Si4
_symmetry_space_group_name_H-M   'P 1'
_cell_length_a   7.67666262
_cell_length_b   7.67666257
_cell_length_c   4.30279600
_cell_angle_alpha   90.00000000
_cell_angle_beta   90.00000000
_cell_angle_gamma   90.55889595
_symmetry_Int_Tables_number   1
_chemical_formula_structural   LaDy2Th3Si4
_chemical_formula_sum   'La1 Dy2 Th3 Si4'
_cell_volume   253.55664685
_cell_formula_units_Z   1
loop_
 _symmetry_equiv_pos_site_id
 _symmetry_equiv_pos_as_xyz
  1  'x, y, z'
loop_
 _atom_site_type_symbol
 _atom_site_label
 _atom_site_symmetry_multiplicity
 _atom_site_fract_x
 _atom_site_fract_y
 _atom_site_fract_z
 _atom_site_occupancy
  La  La0  1  0.822145  0.677855  0.500000  1
  Dy  Dy1  1  0.999336  0.000852  0.000000  1
  Dy  Dy2  1  0.499148  0.500664  0.000000  1
  Th  Th3  1  0.677478  0.179023  0.500000  1
  Th  Th4  1  0.320977  0.822522  0.500000  1
  Th  Th5  1  0.179378  0.320622  0.500000  1
  Si  Si6  1  0.120952  0.613724  0.000000  1
  Si  Si7  1  0.886276  0.379048  0.000000  1
  Si  Si8  1  0.611796  0.888204  0.000000  1
  Si  Si9  1  0.382513  0.117487  0.000000  1
