# generated using pymatgen
data_YbTmVIr3
_symmetry_space_group_name_H-M   'P 1'
_cell_length_a   5.55143275
_cell_length_b   5.09547592
_cell_length_c   5.55143300
_cell_angle_alpha   56.99301560
_cell_angle_beta   60.00000444
_cell_angle_gamma   56.99301006
_symmetry_Int_Tables_number   1
_chemical_formula_structural   YbTmVIr3
_chemical_formula_sum   'Yb1 Tm1 V1 Ir3'
_cell_volume   105.72243772
_cell_formula_units_Z   1
loop_
 _symmetry_equiv_pos_site_id
 _symmetry_equiv_pos_as_xyz
  1  'x, y, z'
loop_
 _atom_site_type_symbol
 _atom_site_label
 _atom_site_symmetry_multiplicity
 _atom_site_fract_x
 _atom_site_fract_y
 _atom_site_fract_z
 _atom_site_occupancy
  Yb  Yb0  1  0.750570  0.748292  0.750570  1
  Tm  Tm1  1  0.498775  0.503673  0.498775  1
  V  V2  1  0.125934  0.622197  0.125934  1
  Ir  Ir3  1  0.626026  0.125279  0.124347  1
  Ir  Ir4  1  0.124347  0.125279  0.124347  1
  Ir  Ir5  1  0.124347  0.125279  0.626026  1
