# generated using pymatgen
data_Nd4Y4Tc3B24Os
_symmetry_space_group_name_H-M   'P 1'
_cell_length_a   3.73328400
_cell_length_b   9.24520572
_cell_length_c   11.69748900
_cell_angle_alpha   89.94999773
_cell_angle_beta   90.00000000
_cell_angle_gamma   90.00000000
_symmetry_Int_Tables_number   1
_chemical_formula_structural   Nd4Y4Tc3B24Os
_chemical_formula_sum   'Nd4 Y4 Tc3 B24 Os1'
_cell_volume   403.73842871
_cell_formula_units_Z   1
loop_
 _symmetry_equiv_pos_site_id
 _symmetry_equiv_pos_as_xyz
  1  'x, y, z'
loop_
 _atom_site_type_symbol
 _atom_site_label
 _atom_site_symmetry_multiplicity
 _atom_site_fract_x
 _atom_site_fract_y
 _atom_site_fract_z
 _atom_site_occupancy
  Nd  Nd0  1  0.000000  0.323222  0.414148  1
  Nd  Nd1  1  0.000000  0.675730  0.584358  1
  Nd  Nd2  1  0.000000  0.823033  0.086806  1
  Nd  Nd3  1  0.000000  0.177824  0.914915  1
  Y  Y4  1  0.000000  0.942462  0.369372  1
  Y  Y5  1  0.000000  0.058501  0.630635  1
  Y  Y6  1  0.000000  0.442717  0.130913  1
  Y  Y7  1  0.000000  0.557040  0.868820  1
  Tc  Tc8  1  0.000000  0.639250  0.319382  1
  Tc  Tc9  1  0.000000  0.360903  0.681105  1
  Tc  Tc10  1  0.000000  0.138466  0.179607  1
  B  B11  1  0.500000  0.554671  0.430627  1
  B  B12  1  0.500000  0.445185  0.569101  1
  B  B13  1  0.500000  0.054802  0.069297  1
  B  B14  1  0.500000  0.944708  0.930605  1
  B  B15  1  0.500000  0.748857  0.416155  1
  B  B16  1  0.500000  0.250843  0.583983  1
  B  B17  1  0.500000  0.249470  0.083921  1
  B  B18  1  0.500000  0.751156  0.915790  1
  B  B19  1  0.500000  0.790740  0.265996  1
  B  B20  1  0.500000  0.209619  0.734433  1
  B  B21  1  0.500000  0.290509  0.234138  1
  B  B22  1  0.500000  0.710108  0.765712  1
  B  B23  1  0.500000  0.629940  0.186360  1
  B  B24  1  0.500000  0.369990  0.814127  1
  B  B25  1  0.500000  0.129578  0.313346  1
  B  B26  1  0.500000  0.870094  0.686512  1
  B  B27  1  0.500000  0.983797  0.212673  1
  B  B28  1  0.500000  0.015080  0.787562  1
  B  B29  1  0.500000  0.484166  0.287168  1
  B  B30  1  0.500000  0.515550  0.712552  1
  B  B31  1  0.500000  0.598231  0.026928  1
  B  B32  1  0.500000  0.402637  0.972855  1
  B  B33  1  0.500000  0.097819  0.473096  1
  B  B34  1  0.500000  0.902337  0.527422  1
  Os  Os35  1  0.000000  0.860965  0.819580  1
