# generated using pymatgen
data_Dy4HoIr2
_symmetry_space_group_name_H-M   'P 1'
_cell_length_a   6.47955152
_cell_length_b   7.20708409
_cell_length_c   8.55992487
_cell_angle_alpha   96.65999819
_cell_angle_beta   112.23967646
_cell_angle_gamma   89.99999720
_symmetry_Int_Tables_number   1
_chemical_formula_structural   Dy4HoIr2
_chemical_formula_sum   'Dy8 Ho2 Ir4'
_cell_volume   367.08423643
_cell_formula_units_Z   2
loop_
 _symmetry_equiv_pos_site_id
 _symmetry_equiv_pos_as_xyz
  1  'x, y, z'
loop_
 _atom_site_type_symbol
 _atom_site_label
 _atom_site_symmetry_multiplicity
 _atom_site_fract_x
 _atom_site_fract_y
 _atom_site_fract_z
 _atom_site_occupancy
  Dy  Dy0  1  0.208182  0.418286  0.184596  1
  Dy  Dy1  1  0.976413  0.918286  0.184596  1
  Dy  Dy2  1  0.650013  0.814966  0.438951  1
  Dy  Dy3  1  0.788940  0.314966  0.438952  1
  Dy  Dy4  1  0.349987  0.185035  0.561048  1
  Dy  Dy5  1  0.211061  0.685035  0.561049  1
  Dy  Dy6  1  0.791818  0.581714  0.815404  1
  Dy  Dy7  1  0.023586  0.081713  0.815404  1
  Ho  Ho8  1  0.570797  0.250001  0.000000  1
  Ho  Ho9  1  0.429204  0.750000  0.000001  1
  Ir  Ir10  1  0.397237  0.074414  0.221080  1
  Ir  Ir11  1  0.823845  0.574414  0.221081  1
  Ir  Ir12  1  0.602764  0.925586  0.778919  1
  Ir  Ir13  1  0.176156  0.425587  0.778920  1
