# generated using pymatgen
data_Tb10In5BiSe2
_symmetry_space_group_name_H-M   'P 1'
_cell_length_a   9.21504732
_cell_length_b   9.25388482
_cell_length_c   6.82432400
_cell_angle_alpha   90.00000000
_cell_angle_beta   90.00000000
_cell_angle_gamma   120.13951559
_symmetry_Int_Tables_number   1
_chemical_formula_structural   Tb10In5BiSe2
_chemical_formula_sum   'Tb10 In5 Bi1 Se2'
_cell_volume   503.26839400
_cell_formula_units_Z   1
loop_
 _symmetry_equiv_pos_site_id
 _symmetry_equiv_pos_as_xyz
  1  'x, y, z'
loop_
 _atom_site_type_symbol
 _atom_site_label
 _atom_site_symmetry_multiplicity
 _atom_site_fract_x
 _atom_site_fract_y
 _atom_site_fract_z
 _atom_site_occupancy
  Tb  Tb0  1  0.664337  0.334647  0.494433  1
  Tb  Tb1  1  0.335663  0.670311  0.494433  1
  Tb  Tb2  1  0.335663  0.670311  0.005567  1
  Tb  Tb3  1  0.664337  0.334647  0.005567  1
  Tb  Tb4  1  0.750029  0.746398  0.250000  1
  Tb  Tb5  1  0.249971  0.996369  0.250000  1
  Tb  Tb6  1  0.000000  0.249721  0.250000  1
  Tb  Tb7  1  0.252139  0.247089  0.750000  1
  Tb  Tb8  1  0.747861  0.994950  0.750000  1
  Tb  Tb9  1  0.000000  0.750600  0.750000  1
  In  In10  1  0.400768  0.402767  0.250000  1
  In  In11  1  0.599232  0.001999  0.250000  1
  In  In12  1  0.000000  0.601807  0.250000  1
  In  In13  1  0.598915  0.599328  0.750000  1
  In  In14  1  0.401085  0.000413  0.750000  1
  Bi  Bi15  1  0.000000  0.396696  0.750000  1
  Se  Se16  1  0.000000  0.000973  0.501432  1
  Se  Se17  1  0.000000  0.000973  0.998568  1
