# generated using pymatgen
data_TbEr2Ga6(CuNi2)3
_symmetry_space_group_name_H-M   'P 1'
_cell_length_a   4.11020900
_cell_length_b   8.79430932
_cell_length_c   8.79087020
_cell_angle_alpha   60.01467371
_cell_angle_beta   90.00000000
_cell_angle_gamma   90.00000000
_symmetry_Int_Tables_number   1
_chemical_formula_structural   TbEr2Ga6(CuNi2)3
_chemical_formula_sum   'Tb1 Er2 Ga6 Cu3 Ni6'
_cell_volume   275.22782545
_cell_formula_units_Z   1
loop_
 _symmetry_equiv_pos_site_id
 _symmetry_equiv_pos_as_xyz
  1  'x, y, z'
loop_
 _atom_site_type_symbol
 _atom_site_label
 _atom_site_symmetry_multiplicity
 _atom_site_fract_x
 _atom_site_fract_y
 _atom_site_fract_z
 _atom_site_occupancy
  Tb  Tb0  1  0.500000  0.666629  0.666677  1
  Er  Er1  1  0.500000  0.333345  0.333334  1
  Er  Er2  1  0.000000  0.999995  0.000069  1
  Ga  Ga3  1  0.500000  0.720720  0.278917  1
  Ga  Ga4  1  0.500000  0.278728  0.000356  1
  Ga  Ga5  1  0.500000  0.000353  0.720906  1
  Ga  Ga6  1  0.000000  0.481903  0.517908  1
  Ga  Ga7  1  0.000000  0.517946  0.000008  1
  Ga  Ga8  1  0.000000  0.000406  0.481822  1
  Cu  Cu9  1  0.500000  0.292792  0.706727  1
  Cu  Cu10  1  0.500000  0.706752  0.000473  1
  Cu  Cu11  1  0.500000  0.000465  0.292775  1
  Ni  Ni12  1  0.000000  0.200081  0.173634  1
  Ni  Ni13  1  0.000000  0.173585  0.626631  1
  Ni  Ni14  1  0.000000  0.626385  0.199905  1
  Ni  Ni15  1  0.000000  0.827006  0.800523  1
  Ni  Ni16  1  0.000000  0.372121  0.827028  1
  Ni  Ni17  1  0.000000  0.800689  0.372404  1
