# generated using pymatgen
data_Sc12Co4AgIr
_symmetry_space_group_name_H-M   'P 1'
_cell_length_a   7.69715753
_cell_length_b   7.69715723
_cell_length_c   7.69715771
_cell_angle_alpha   111.21447948
_cell_angle_beta   111.41074716
_cell_angle_gamma   105.84813471
_symmetry_Int_Tables_number   1
_chemical_formula_structural   Sc12Co4AgIr
_chemical_formula_sum   'Sc12 Co4 Ag1 Ir1'
_cell_volume   350.00486765
_cell_formula_units_Z   1
loop_
 _symmetry_equiv_pos_site_id
 _symmetry_equiv_pos_as_xyz
  1  'x, y, z'
loop_
 _atom_site_type_symbol
 _atom_site_label
 _atom_site_symmetry_multiplicity
 _atom_site_fract_x
 _atom_site_fract_y
 _atom_site_fract_z
 _atom_site_occupancy
  Sc  Sc0  1  0.425159  0.227625  0.197534  1
  Sc  Sc1  1  0.574841  0.772375  0.802466  1
  Sc  Sc2  1  0.030092  0.227625  0.802466  1
  Sc  Sc3  1  0.969908  0.772375  0.197534  1
  Sc  Sc4  1  0.315167  0.617653  0.302486  1
  Sc  Sc5  1  0.684833  0.382347  0.697514  1
  Sc  Sc6  1  0.315167  0.012680  0.697514  1
  Sc  Sc7  1  0.684833  0.987320  0.302486  1
  Sc  Sc8  1  0.184096  0.276861  0.460957  1
  Sc  Sc9  1  0.815904  0.723138  0.539043  1
  Sc  Sc10  1  0.184096  0.723138  0.907235  1
  Sc  Sc11  1  0.815904  0.276861  0.092765  1
  Co  Co12  1  0.361800  0.000000  0.361800  1
  Co  Co13  1  0.638200  0.000000  0.638200  1
  Co  Co14  1  0.118961  0.618961  0.500000  1
  Co  Co15  1  0.881039  0.381039  0.500000  1
  Ag  Ag16  1  0.500000  0.500000  0.000000  1
  Ir  Ir17  1  0.000000  0.000000  0.000000  1
