# generated using pymatgen
data_LaTb3Th4(ReC2)4
_symmetry_space_group_name_H-M   'P 1'
_cell_length_a   5.32965000
_cell_length_b   6.67231570
_cell_length_c   9.97389583
_cell_angle_alpha   90.31188512
_cell_angle_beta   90.00000000
_cell_angle_gamma   90.00000000
_symmetry_Int_Tables_number   1
_chemical_formula_structural   LaTb3Th4(ReC2)4
_chemical_formula_sum   'La1 Tb3 Th4 Re4 C8'
_cell_volume   354.67752559
_cell_formula_units_Z   1
loop_
 _symmetry_equiv_pos_site_id
 _symmetry_equiv_pos_as_xyz
  1  'x, y, z'
loop_
 _atom_site_type_symbol
 _atom_site_label
 _atom_site_symmetry_multiplicity
 _atom_site_fract_x
 _atom_site_fract_y
 _atom_site_fract_z
 _atom_site_occupancy
  La  La0  1  0.750000  0.192066  0.954958  1
  Tb  Tb1  1  0.250000  0.817558  0.051567  1
  Tb  Tb2  1  0.750000  0.680233  0.549448  1
  Tb  Tb3  1  0.250000  0.321409  0.449707  1
  Th  Th4  1  0.250000  0.474379  0.780034  1
  Th  Th5  1  0.750000  0.026180  0.286592  1
  Th  Th6  1  0.250000  0.972860  0.715789  1
  Th  Th7  1  0.750000  0.526546  0.219205  1
  Re  Re8  1  0.250000  0.269886  0.140140  1
  Re  Re9  1  0.750000  0.228963  0.634880  1
  Re  Re10  1  0.250000  0.770948  0.363893  1
  Re  Re11  1  0.750000  0.729159  0.860622  1
  C  C12  1  0.250000  0.174295  0.951666  1
  C  C13  1  0.750000  0.815320  0.050369  1
  C  C14  1  0.250000  0.672730  0.551371  1
  C  C15  1  0.750000  0.325839  0.447715  1
  C  C16  1  0.250000  0.036778  0.261888  1
  C  C17  1  0.750000  0.466703  0.754020  1
  C  C18  1  0.250000  0.537998  0.240723  1
  C  C19  1  0.750000  0.960150  0.735414  1
