# generated using pymatgen
data_Hf18MnGaRe7W
_symmetry_space_group_name_H-M   'P 1'
_cell_length_a   8.61054900
_cell_length_b   8.61054910
_cell_length_c   8.58619400
_cell_angle_alpha   90.00000000
_cell_angle_beta   90.00000000
_cell_angle_gamma   120.00000346
_symmetry_Int_Tables_number   1
_chemical_formula_structural   Hf18MnGaRe7W
_chemical_formula_sum   'Hf18 Mn1 Ga1 Re7 W1'
_cell_volume   551.30636104
_cell_formula_units_Z   1
loop_
 _symmetry_equiv_pos_site_id
 _symmetry_equiv_pos_as_xyz
  1  'x, y, z'
loop_
 _atom_site_type_symbol
 _atom_site_label
 _atom_site_symmetry_multiplicity
 _atom_site_fract_x
 _atom_site_fract_y
 _atom_site_fract_z
 _atom_site_occupancy
  Hf  Hf0  1  0.202520  0.797480  0.442976  1
  Hf  Hf1  1  0.202520  0.405038  0.442976  1
  Hf  Hf2  1  0.594962  0.797480  0.442976  1
  Hf  Hf3  1  0.806202  0.193798  0.547226  1
  Hf  Hf4  1  0.806202  0.612405  0.547226  1
  Hf  Hf5  1  0.387595  0.193798  0.547226  1
  Hf  Hf6  1  0.808683  0.191317  0.952840  1
  Hf  Hf7  1  0.808683  0.617366  0.952840  1
  Hf  Hf8  1  0.382634  0.191317  0.952840  1
  Hf  Hf9  1  0.201932  0.798068  0.057415  1
  Hf  Hf10  1  0.201932  0.403861  0.057415  1
  Hf  Hf11  1  0.596139  0.798068  0.057415  1
  Hf  Hf12  1  0.538655  0.461345  0.249267  1
  Hf  Hf13  1  0.538655  0.077309  0.249267  1
  Hf  Hf14  1  0.922691  0.461345  0.249267  1
  Hf  Hf15  1  0.460298  0.539702  0.750902  1
  Hf  Hf16  1  0.460298  0.920594  0.750902  1
  Hf  Hf17  1  0.079406  0.539702  0.750902  1
  Mn  Mn18  1  0.333333  0.666667  0.249565  1
  Ga  Ga19  1  0.666667  0.333333  0.752350  1
  Re  Re20  1  0.889672  0.110328  0.250596  1
  Re  Re21  1  0.889672  0.779341  0.250596  1
  Re  Re22  1  0.220659  0.110328  0.250596  1
  Re  Re23  1  0.111421  0.888579  0.748550  1
  Re  Re24  1  0.111421  0.222842  0.748550  1
  Re  Re25  1  0.777158  0.888579  0.748550  1
  Re  Re26  1  0.000000  0.000000  0.998441  1
  W  W27  1  0.000000  0.000000  0.500328  1
