# generated using pymatgen
data_HoHfZr2F15
_symmetry_space_group_name_H-M   'P 1'
_cell_length_a   8.17272613
_cell_length_b   8.17272650
_cell_length_c   8.16102888
_cell_angle_alpha   79.81367660
_cell_angle_beta   79.81367151
_cell_angle_gamma   100.10559000
_symmetry_Int_Tables_number   1
_chemical_formula_structural   HoHfZr2F15
_chemical_formula_sum   'Ho2 Hf2 Zr4 F30'
_cell_volume   515.88941341
_cell_formula_units_Z   2
loop_
 _symmetry_equiv_pos_site_id
 _symmetry_equiv_pos_as_xyz
  1  'x, y, z'
loop_
 _atom_site_type_symbol
 _atom_site_label
 _atom_site_symmetry_multiplicity
 _atom_site_fract_x
 _atom_site_fract_y
 _atom_site_fract_z
 _atom_site_occupancy
  Ho  Ho0  1  0.178099  0.821901  0.250000  1
  Ho  Ho1  1  0.821901  0.178099  0.750000  1
  Hf  Hf2  1  0.750982  0.249018  0.250000  1
  Hf  Hf3  1  0.249018  0.750982  0.750000  1
  Zr  Zr4  1  0.748812  0.677927  0.674941  1
  Zr  Zr5  1  0.322073  0.251188  0.825059  1
  Zr  Zr6  1  0.251188  0.322073  0.325059  1
  Zr  Zr7  1  0.677927  0.748812  0.174941  1
  F  F8  1  0.316226  0.350092  0.052913  1
  F  F9  1  0.937196  0.813420  0.150835  1
  F  F10  1  0.845527  0.460288  0.682999  1
  F  F11  1  0.460288  0.845527  0.182999  1
  F  F12  1  0.813420  0.937196  0.650835  1
  F  F13  1  0.350092  0.316226  0.552912  1
  F  F14  1  0.683774  0.649908  0.947087  1
  F  F15  1  0.062804  0.186580  0.849165  1
  F  F16  1  0.154473  0.539712  0.317001  1
  F  F17  1  0.539712  0.154473  0.817001  1
  F  F18  1  0.186580  0.062804  0.349165  1
  F  F19  1  0.649908  0.683774  0.447087  1
  F  F20  1  0.774330  0.280985  0.998158  1
  F  F21  1  0.004413  0.275579  0.220094  1
  F  F22  1  0.775819  0.504140  0.224241  1
  F  F23  1  0.504140  0.775819  0.724241  1
  F  F24  1  0.275579  0.004413  0.720094  1
  F  F25  1  0.280985  0.774330  0.498158  1
  F  F26  1  0.225670  0.719015  0.001842  1
  F  F27  1  0.995587  0.724421  0.779906  1
  F  F28  1  0.224181  0.495860  0.775759  1
  F  F29  1  0.495860  0.224181  0.275759  1
  F  F30  1  0.724421  0.995587  0.279906  1
  F  F31  1  0.719015  0.225670  0.501842  1
  F  F32  1  0.466382  0.533618  0.250000  1
  F  F33  1  0.747669  0.955534  0.970556  1
  F  F34  1  0.044466  0.252331  0.529444  1
  F  F35  1  0.252331  0.044466  0.029444  1
  F  F36  1  0.955534  0.747669  0.470556  1
  F  F37  1  0.533618  0.466382  0.750000  1
