# generated using pymatgen
data_Pr5PbSe4
_symmetry_space_group_name_H-M   'P 1'
_cell_length_a   7.51902932
_cell_length_b   7.51903047
_cell_length_c   7.51902900
_cell_angle_alpha   99.49585131
_cell_angle_beta   99.49586049
_cell_angle_gamma   132.07073042
_symmetry_Int_Tables_number   1
_chemical_formula_structural   Pr5PbSe4
_chemical_formula_sum   'Pr5 Pb1 Se4'
_cell_volume   288.35329293
_cell_formula_units_Z   1
loop_
 _symmetry_equiv_pos_site_id
 _symmetry_equiv_pos_as_xyz
  1  'x, y, z'
loop_
 _atom_site_type_symbol
 _atom_site_label
 _atom_site_symmetry_multiplicity
 _atom_site_fract_x
 _atom_site_fract_y
 _atom_site_fract_z
 _atom_site_occupancy
  Pr  Pr0  1  0.399833  0.808478  0.208552  1
  Pr  Pr1  1  0.000000  0.000000  0.000000  1
  Pr  Pr2  1  0.600167  0.191522  0.791448  1
  Pr  Pr3  1  0.191263  0.399946  0.591317  1
  Pr  Pr4  1  0.808737  0.600054  0.408683  1
  Pb  Pb5  1  0.500000  0.500000  0.000000  1
  Se  Se6  1  0.104545  0.701120  0.805385  1
  Se  Se7  1  0.700911  0.895569  0.596543  1
  Se  Se8  1  0.299089  0.104431  0.403457  1
  Se  Se9  1  0.895455  0.298880  0.194615  1
