# generated using pymatgen
data_Ce5Ho3(Si3Au)4
_symmetry_space_group_name_H-M   'P 1'
_cell_length_a   8.22337200
_cell_length_b   8.22337195
_cell_length_c   8.36449500
_cell_angle_alpha   90.00000000
_cell_angle_beta   90.00000000
_cell_angle_gamma   120.00000020
_symmetry_Int_Tables_number   1
_chemical_formula_structural   Ce5Ho3(Si3Au)4
_chemical_formula_sum   'Ce5 Ho3 Si12 Au4'
_cell_volume   489.85802572
_cell_formula_units_Z   1
loop_
 _symmetry_equiv_pos_site_id
 _symmetry_equiv_pos_as_xyz
  1  'x, y, z'
loop_
 _atom_site_type_symbol
 _atom_site_label
 _atom_site_symmetry_multiplicity
 _atom_site_fract_x
 _atom_site_fract_y
 _atom_site_fract_z
 _atom_site_occupancy
  Ce  Ce0  1  0.000000  0.000000  0.250000  1
  Ce  Ce1  1  0.000000  0.000000  0.750000  1
  Ce  Ce2  1  0.500209  0.499791  0.250000  1
  Ce  Ce3  1  0.500209  0.000419  0.250000  1
  Ce  Ce4  1  0.999581  0.499791  0.250000  1
  Ho  Ho5  1  0.499148  0.500852  0.750000  1
  Ho  Ho6  1  0.499148  0.998298  0.750000  1
  Ho  Ho7  1  0.001702  0.500852  0.750000  1
  Si  Si8  1  0.163445  0.836555  0.501638  1
  Si  Si9  1  0.163445  0.326889  0.501638  1
  Si  Si10  1  0.673111  0.836555  0.501638  1
  Si  Si11  1  0.836527  0.163473  0.500812  1
  Si  Si12  1  0.836527  0.673055  0.500812  1
  Si  Si13  1  0.326945  0.163473  0.500812  1
  Si  Si14  1  0.836527  0.163473  0.999188  1
  Si  Si15  1  0.836527  0.673055  0.999188  1
  Si  Si16  1  0.326945  0.163473  0.999188  1
  Si  Si17  1  0.163445  0.836555  0.998362  1
  Si  Si18  1  0.163445  0.326889  0.998362  1
  Si  Si19  1  0.673111  0.836555  0.998362  1
  Au  Au20  1  0.333333  0.666667  0.513054  1
  Au  Au21  1  0.666667  0.333333  0.517931  1
  Au  Au22  1  0.666667  0.333333  0.982069  1
  Au  Au23  1  0.333333  0.666667  0.986946  1
