# generated using pymatgen
data_Ho3Tm13(ZnRh)4
_symmetry_space_group_name_H-M   'P 1'
_cell_length_a   9.38693847
_cell_length_b   9.38229689
_cell_length_c   9.38604223
_cell_angle_alpha   60.01952589
_cell_angle_beta   59.97036526
_cell_angle_gamma   59.99820399
_symmetry_Int_Tables_number   1
_chemical_formula_structural   Ho3Tm13(ZnRh)4
_chemical_formula_sum   'Ho3 Tm13 Zn4 Rh4'
_cell_volume   584.46890578
_cell_formula_units_Z   1
loop_
 _symmetry_equiv_pos_site_id
 _symmetry_equiv_pos_as_xyz
  1  'x, y, z'
loop_
 _atom_site_type_symbol
 _atom_site_label
 _atom_site_symmetry_multiplicity
 _atom_site_fract_x
 _atom_site_fract_y
 _atom_site_fract_z
 _atom_site_occupancy
  Ho  Ho0  1  0.064001  0.064007  0.435992  1
  Ho  Ho1  1  0.435780  0.065096  0.434980  1
  Ho  Ho2  1  0.065089  0.435767  0.064163  1
  Tm  Tm3  1  0.063181  0.645221  0.646102  1
  Tm  Tm4  1  0.436267  0.436261  0.063732  1
  Tm  Tm5  1  0.645221  0.063183  0.645506  1
  Tm  Tm6  1  0.190845  0.809003  0.190574  1
  Tm  Tm7  1  0.190549  0.190547  0.809451  1
  Tm  Tm8  1  0.809510  0.809509  0.190487  1
  Tm  Tm9  1  0.437111  0.063781  0.062750  1
  Tm  Tm10  1  0.809403  0.190455  0.190195  1
  Tm  Tm11  1  0.063779  0.437112  0.436358  1
  Tm  Tm12  1  0.809002  0.190838  0.809580  1
  Tm  Tm13  1  0.190448  0.809405  0.809944  1
  Tm  Tm14  1  0.645687  0.645065  0.063410  1
  Tm  Tm15  1  0.645063  0.645686  0.645838  1
  Zn  Zn16  1  0.419969  0.420579  0.419785  1
  Zn  Zn17  1  0.737900  0.421133  0.420760  1
  Zn  Zn18  1  0.421132  0.737900  0.420208  1
  Zn  Zn19  1  0.420579  0.419969  0.739665  1
  Rh  Rh20  1  0.856565  0.855342  0.431859  1
  Rh  Rh21  1  0.855335  0.856568  0.856240  1
  Rh  Rh22  1  0.431855  0.855728  0.856865  1
  Rh  Rh23  1  0.855729  0.431848  0.855556  1
