# generated using pymatgen
data_Hf7Co16TcAs11P
_symmetry_space_group_name_H-M   'P 1'
_cell_length_a   12.39955039
_cell_length_b   12.40324745
_cell_length_c   3.73307900
_cell_angle_alpha   90.00000000
_cell_angle_beta   90.00000000
_cell_angle_gamma   119.99516581
_symmetry_Int_Tables_number   1
_chemical_formula_structural   Hf7Co16TcAs11P
_chemical_formula_sum   'Hf7 Co16 Tc1 As11 P1'
_cell_volume   497.23342130
_cell_formula_units_Z   1
loop_
 _symmetry_equiv_pos_site_id
 _symmetry_equiv_pos_as_xyz
  1  'x, y, z'
loop_
 _atom_site_type_symbol
 _atom_site_label
 _atom_site_symmetry_multiplicity
 _atom_site_fract_x
 _atom_site_fract_y
 _atom_site_fract_z
 _atom_site_occupancy
  Hf  Hf0  1  0.827853  0.820651  0.500000  1
  Hf  Hf1  1  0.996884  0.171575  0.500000  1
  Hf  Hf2  1  0.556977  0.000451  0.000000  1
  Hf  Hf3  1  0.334117  0.665660  0.000000  1
  Hf  Hf4  1  0.666649  0.334773  0.000000  1
  Hf  Hf5  1  0.000399  0.558547  0.000000  1
  Hf  Hf6  1  0.163770  0.990076  0.500000  1
  Co  Co7  1  0.626580  0.818929  0.000000  1
  Co  Co8  1  0.373520  0.199241  0.000000  1
  Co  Co9  1  0.000693  0.726475  0.500000  1
  Co  Co10  1  0.280696  0.281170  0.500000  1
  Co  Co11  1  0.877981  0.356800  0.500000  1
  Co  Co12  1  0.720205  0.001352  0.500000  1
  Co  Co13  1  0.825366  0.634038  0.000000  1
  Co  Co14  1  0.172550  0.808389  0.000000  1
  Co  Co15  1  0.355288  0.877443  0.500000  1
  Co  Co16  1  0.128549  0.482011  0.500000  1
  Co  Co17  1  0.643044  0.518122  0.500000  1
  Co  Co18  1  0.000536  0.992398  0.000000  1
  Co  Co19  1  0.517604  0.641805  0.500000  1
  Co  Co20  1  0.481619  0.128585  0.500000  1
  Co  Co21  1  0.198457  0.372766  0.000000  1
  Co  Co22  1  0.807509  0.177895  0.000000  1
  Tc  Tc23  1  0.447585  0.447467  0.000000  1
  As  As24  1  0.003986  0.347650  0.000000  1
  As  As25  1  0.825679  0.515329  0.500000  1
  As  As26  1  0.689858  0.176207  0.500000  1
  As  As27  1  0.174121  0.173386  0.000000  1
  As  As28  1  0.644848  0.644261  0.000000  1
  As  As29  1  0.824956  0.996075  0.000000  1
  As  As30  1  0.513996  0.824869  0.500000  1
  As  As31  1  0.175077  0.690445  0.500000  1
  As  As32  1  0.345682  0.003898  0.000000  1
  As  As33  1  0.482842  0.317277  0.500000  1
  As  As34  1  0.317022  0.482829  0.500000  1
  P  P35  1  0.997503  0.821153  0.000000  1
