# generated using pymatgen
data_TbGd5OsO12
_symmetry_space_group_name_H-M   'P 1'
_cell_length_a   6.53449729
_cell_length_b   6.55028346
_cell_length_c   6.58918370
_cell_angle_alpha   98.82708904
_cell_angle_beta   98.56321857
_cell_angle_gamma   98.54297112
_symmetry_Int_Tables_number   1
_chemical_formula_structural   TbGd5OsO12
_chemical_formula_sum   'Tb1 Gd5 Os1 O12'
_cell_volume   271.31540594
_cell_formula_units_Z   1
loop_
 _symmetry_equiv_pos_site_id
 _symmetry_equiv_pos_as_xyz
  1  'x, y, z'
loop_
 _atom_site_type_symbol
 _atom_site_label
 _atom_site_symmetry_multiplicity
 _atom_site_fract_x
 _atom_site_fract_y
 _atom_site_fract_z
 _atom_site_occupancy
  Tb  Tb0  1  0.854154  0.387449  0.685167  1
  Gd  Gd1  1  0.610810  0.311625  0.143048  1
  Gd  Gd2  1  0.308145  0.141970  0.607703  1
  Gd  Gd3  1  0.692836  0.858320  0.393613  1
  Gd  Gd4  1  0.389174  0.687508  0.856950  1
  Gd  Gd5  1  0.145301  0.611010  0.314797  1
  Os  Os6  1  0.999537  0.999793  0.998984  1
  O  O7  1  0.929774  0.040610  0.703328  1
  O  O8  1  0.968132  0.292683  0.070569  1
  O  O9  1  0.591597  0.177771  0.434088  1
  O  O10  1  0.822420  0.562108  0.409230  1
  O  O11  1  0.291414  0.072690  0.966784  1
  O  O12  1  0.566199  0.408655  0.823091  1
  O  O13  1  0.435606  0.591578  0.177281  1
  O  O14  1  0.708267  0.927692  0.032969  1
  O  O15  1  0.176570  0.436737  0.594837  1
  O  O16  1  0.410563  0.822677  0.567694  1
  O  O17  1  0.029021  0.707334  0.924717  1
  O  O18  1  0.070478  0.961790  0.295149  1
