# generated using pymatgen
data_Tm2Mn4Ni8P7
_symmetry_space_group_name_H-M   'P 1'
_cell_length_a   9.12416102
_cell_length_b   9.14475106
_cell_length_c   3.65649900
_cell_angle_alpha   90.00000000
_cell_angle_beta   90.00000000
_cell_angle_gamma   120.03115878
_symmetry_Int_Tables_number   1
_chemical_formula_structural   Tm2Mn4Ni8P7
_chemical_formula_sum   'Tm2 Mn4 Ni8 P7'
_cell_volume   264.13410155
_cell_formula_units_Z   1
loop_
 _symmetry_equiv_pos_site_id
 _symmetry_equiv_pos_as_xyz
  1  'x, y, z'
loop_
 _atom_site_type_symbol
 _atom_site_label
 _atom_site_symmetry_multiplicity
 _atom_site_fract_x
 _atom_site_fract_y
 _atom_site_fract_z
 _atom_site_occupancy
  Tm  Tm0  1  0.666697  0.332036  0.000000  1
  Tm  Tm1  1  0.335044  0.668418  0.500000  1
  Mn  Mn2  1  0.879884  0.156877  0.000000  1
  Mn  Mn3  1  0.097461  0.879035  0.500000  1
  Mn  Mn4  1  0.777558  0.899376  0.500000  1
  Mn  Mn5  1  0.124767  0.224620  0.500000  1
  Ni  Ni6  1  0.061288  0.624704  0.000000  1
  Ni  Ni7  1  0.562767  0.935322  0.000000  1
  Ni  Ni8  1  0.372283  0.435480  0.000000  1
  Ni  Ni9  1  0.277815  0.122571  0.000000  1
  Ni  Ni10  1  0.845073  0.720551  0.000000  1
  Ni  Ni11  1  0.438144  0.053931  0.500000  1
  Ni  Ni12  1  0.613968  0.561496  0.500000  1
  Ni  Ni13  1  0.948323  0.385792  0.500000  1
  P  P14  1  0.293821  0.885131  0.000000  1
  P  P15  1  0.592238  0.706427  0.000000  1
  P  P16  1  0.113401  0.408069  0.000000  1
  P  P17  1  0.406572  0.290540  0.500000  1
  P  P18  1  0.884007  0.594043  0.500000  1
  P  P19  1  0.711913  0.114990  0.500000  1
  P  P20  1  0.996977  0.000590  0.000000  1
