# generated using pymatgen
data_Tb6CeDy3(SiB4)4
_symmetry_space_group_name_H-M   'P 1'
_cell_length_a   7.25333310
_cell_length_b   7.25328321
_cell_length_c   8.15540906
_cell_angle_alpha   89.99972402
_cell_angle_beta   90.00620805
_cell_angle_gamma   90.04316275
_symmetry_Int_Tables_number   1
_chemical_formula_structural   Tb6CeDy3(SiB4)4
_chemical_formula_sum   'Tb6 Ce1 Dy3 Si4 B16'
_cell_volume   429.05985430
_cell_formula_units_Z   1
loop_
 _symmetry_equiv_pos_site_id
 _symmetry_equiv_pos_as_xyz
  1  'x, y, z'
loop_
 _atom_site_type_symbol
 _atom_site_label
 _atom_site_symmetry_multiplicity
 _atom_site_fract_x
 _atom_site_fract_y
 _atom_site_fract_z
 _atom_site_occupancy
  Tb  Tb0  1  0.681134  0.181073  0.224014  1
  Tb  Tb1  1  0.319169  0.819124  0.776220  1
  Tb  Tb2  1  0.318434  0.818375  0.223480  1
  Tb  Tb3  1  0.819378  0.681164  0.223640  1
  Tb  Tb4  1  0.819137  0.680895  0.776802  1
  Tb  Tb5  1  0.180894  0.319164  0.776855  1
  Ce  Ce6  1  0.682293  0.182281  0.769537  1
  Dy  Dy7  1  0.181138  0.319386  0.221812  1
  Dy  Dy8  1  0.000874  0.999489  0.499405  1
  Dy  Dy9  1  0.498996  0.500240  0.499445  1
  Si  Si10  1  0.115293  0.614746  0.498349  1
  Si  Si11  1  0.886300  0.385734  0.499431  1
  Si  Si12  1  0.384833  0.114521  0.499908  1
  Si  Si13  1  0.613762  0.885514  0.500394  1
  B  B14  1  0.172684  0.038725  0.000803  1
  B  B15  1  0.827758  0.960988  0.000525  1
  B  B16  1  0.960989  0.171874  0.000583  1
  B  B17  1  0.327331  0.539533  0.000749  1
  B  B18  1  0.039524  0.827380  0.000954  1
  B  B19  1  0.671827  0.460991  0.000800  1
  B  B20  1  0.538715  0.672602  0.001057  1
  B  B21  1  0.460994  0.327679  0.000313  1
  B  B22  1  0.090183  0.590176  0.000835  1
  B  B23  1  0.909678  0.409667  0.999584  1
  B  B24  1  0.409768  0.089870  0.000430  1
  B  B25  1  0.589876  0.909751  0.000762  1
  B  B26  1  0.000667  0.999958  0.161956  1
  B  B27  1  0.999285  0.999522  0.839694  1
  B  B28  1  0.499751  0.499416  0.839706  1
  B  B29  1  0.499331  0.500166  0.161960  1
