# generated using pymatgen
data_Y7Sn23Ir5Os
_symmetry_space_group_name_H-M   'P 1'
_cell_length_a   9.89308800
_cell_length_b   9.88374052
_cell_length_c   10.10903565
_cell_angle_alpha   89.83153213
_cell_angle_beta   90.00000000
_cell_angle_gamma   120.03130327
_symmetry_Int_Tables_number   1
_chemical_formula_structural   Y7Sn23Ir5Os
_chemical_formula_sum   'Y7 Sn23 Ir5 Os1'
_cell_volume   855.76394547
_cell_formula_units_Z   1
loop_
 _symmetry_equiv_pos_site_id
 _symmetry_equiv_pos_as_xyz
  1  'x, y, z'
loop_
 _atom_site_type_symbol
 _atom_site_label
 _atom_site_symmetry_multiplicity
 _atom_site_fract_x
 _atom_site_fract_y
 _atom_site_fract_z
 _atom_site_occupancy
  Y  Y0  1  0.000400  0.000800  0.999338  1
  Y  Y1  1  0.037665  0.519930  0.308049  1
  Y  Y2  1  0.480504  0.961009  0.308068  1
  Y  Y3  1  0.482265  0.519930  0.308049  1
  Y  Y4  1  0.960276  0.479969  0.692101  1
  Y  Y5  1  0.519200  0.038400  0.692134  1
  Y  Y6  1  0.519693  0.479969  0.692101  1
  Sn  Sn7  1  0.999954  0.999908  0.500271  1
  Sn  Sn8  1  0.116394  0.881618  0.280822  1
  Sn  Sn9  1  0.765223  0.881618  0.280822  1
  Sn  Sn10  1  0.117202  0.234403  0.283569  1
  Sn  Sn11  1  0.882214  0.117536  0.715701  1
  Sn  Sn12  1  0.235324  0.117536  0.715701  1
  Sn  Sn13  1  0.882390  0.764780  0.716767  1
  Sn  Sn14  1  0.352230  0.000220  0.999987  1
  Sn  Sn15  1  0.650579  0.647805  0.000096  1
  Sn  Sn16  1  0.000954  0.354571  0.000839  1
  Sn  Sn17  1  0.353618  0.354571  0.000839  1
  Sn  Sn18  1  0.997226  0.647805  0.000096  1
  Sn  Sn19  1  0.647990  0.000220  0.999987  1
  Sn  Sn20  1  0.779252  0.558504  0.457574  1
  Sn  Sn21  1  0.778578  0.220408  0.457083  1
  Sn  Sn22  1  0.441830  0.220408  0.457083  1
  Sn  Sn23  1  0.221084  0.442169  0.543549  1
  Sn  Sn24  1  0.220616  0.779339  0.542604  1
  Sn  Sn25  1  0.558723  0.779339  0.542604  1
  Sn  Sn26  1  0.667942  0.335883  0.173260  1
  Sn  Sn27  1  0.333008  0.666016  0.827069  1
  Sn  Sn28  1  0.666270  0.332538  0.881133  1
  Sn  Sn29  1  0.332549  0.665099  0.119519  1
  Ir  Ir30  1  0.169479  0.830622  0.801065  1
  Ir  Ir31  1  0.661143  0.830622  0.801065  1
  Ir  Ir32  1  0.168281  0.336562  0.802378  1
  Ir  Ir33  1  0.830667  0.168773  0.199355  1
  Ir  Ir34  1  0.338106  0.168773  0.199355  1
  Os  Os35  1  0.831173  0.662346  0.199963  1
