# generated using pymatgen
data_CeEr7(CdIr)2
_symmetry_space_group_name_H-M   'P 1'
_cell_length_a   9.57983725
_cell_length_b   9.57983689
_cell_length_c   9.60730700
_cell_angle_alpha   59.90509522
_cell_angle_beta   59.90509649
_cell_angle_gamma   59.92028624
_symmetry_Int_Tables_number   1
_chemical_formula_structural   CeEr7(CdIr)2
_chemical_formula_sum   'Ce2 Er14 Cd4 Ir4'
_cell_volume   622.18118559
_cell_formula_units_Z   2
loop_
 _symmetry_equiv_pos_site_id
 _symmetry_equiv_pos_as_xyz
  1  'x, y, z'
loop_
 _atom_site_type_symbol
 _atom_site_label
 _atom_site_symmetry_multiplicity
 _atom_site_fract_x
 _atom_site_fract_y
 _atom_site_fract_z
 _atom_site_occupancy
  Ce  Ce0  1  0.596954  0.596954  0.599798  1
  Ce  Ce1  1  0.596954  0.596954  0.206293  1
  Er  Er2  1  0.601465  0.197731  0.600402  1
  Er  Er3  1  0.197731  0.601465  0.600402  1
  Er  Er4  1  0.061604  0.438297  0.439645  1
  Er  Er5  1  0.438297  0.061604  0.060453  1
  Er  Er6  1  0.438297  0.061604  0.439645  1
  Er  Er7  1  0.061604  0.438297  0.060453  1
  Er  Er8  1  0.437810  0.437810  0.062190  1
  Er  Er9  1  0.061437  0.061437  0.438563  1
  Er  Er10  1  0.188512  0.812813  0.812867  1
  Er  Er11  1  0.812813  0.188512  0.185808  1
  Er  Er12  1  0.812813  0.188512  0.812867  1
  Er  Er13  1  0.188512  0.812813  0.185808  1
  Er  Er14  1  0.813392  0.813392  0.186608  1
  Er  Er15  1  0.188836  0.188836  0.811164  1
  Cd  Cd16  1  0.831438  0.831438  0.830528  1
  Cd  Cd17  1  0.831438  0.831438  0.506594  1
  Cd  Cd18  1  0.831709  0.504138  0.832076  1
  Cd  Cd19  1  0.504138  0.831709  0.832076  1
  Ir  Ir20  1  0.393004  0.393004  0.391043  1
  Ir  Ir21  1  0.393004  0.393004  0.822948  1
  Ir  Ir22  1  0.395117  0.823117  0.390883  1
  Ir  Ir23  1  0.823117  0.395117  0.390883  1
