# generated using pymatgen
data_NaRh2PbF9
_symmetry_space_group_name_H-M   'P 1'
_cell_length_a   7.30360904
_cell_length_b   7.30360993
_cell_length_c   7.72645197
_cell_angle_alpha   87.59071827
_cell_angle_beta   87.59071802
_cell_angle_gamma   116.89506927
_symmetry_Int_Tables_number   1
_chemical_formula_structural   NaRh2PbF9
_chemical_formula_sum   'Na2 Rh4 Pb2 F18'
_cell_volume   366.38229723
_cell_formula_units_Z   2
loop_
 _symmetry_equiv_pos_site_id
 _symmetry_equiv_pos_as_xyz
  1  'x, y, z'
loop_
 _atom_site_type_symbol
 _atom_site_label
 _atom_site_symmetry_multiplicity
 _atom_site_fract_x
 _atom_site_fract_y
 _atom_site_fract_z
 _atom_site_occupancy
  Na  Na0  1  0.500000  0.000000  0.000000  1
  Na  Na1  1  0.000000  0.500000  0.500000  1
  Rh  Rh2  1  0.000000  0.000000  0.500000  1
  Rh  Rh3  1  0.000000  0.000000  0.000000  1
  Rh  Rh4  1  0.500000  0.000000  0.500000  1
  Rh  Rh5  1  0.000000  0.500000  0.000000  1
  Pb  Pb6  1  0.471659  0.528341  0.750000  1
  Pb  Pb7  1  0.528341  0.471659  0.250000  1
  F  F8  1  0.197186  0.890133  0.564904  1
  F  F9  1  0.802814  0.109867  0.435096  1
  F  F10  1  0.109867  0.802814  0.935096  1
  F  F11  1  0.890133  0.197186  0.064904  1
  F  F12  1  0.948965  0.051035  0.750000  1
  F  F13  1  0.051035  0.948965  0.250000  1
  F  F14  1  0.520670  0.892202  0.736549  1
  F  F15  1  0.479330  0.107798  0.263451  1
  F  F16  1  0.107798  0.479330  0.763451  1
  F  F17  1  0.892202  0.520670  0.236549  1
  F  F18  1  0.579194  0.289345  0.564397  1
  F  F19  1  0.420806  0.710655  0.435603  1
  F  F20  1  0.710655  0.420806  0.935603  1
  F  F21  1  0.289345  0.579194  0.064397  1
  F  F22  1  0.703642  0.789348  0.031319  1
  F  F23  1  0.296358  0.210652  0.968681  1
  F  F24  1  0.210652  0.296358  0.468681  1
  F  F25  1  0.789348  0.703642  0.531319  1
