# generated using pymatgen
data_K8EuEr2TmF20
_symmetry_space_group_name_H-M   'P 1'
_cell_length_a   6.69743448
_cell_length_b   7.33941300
_cell_length_c   10.97099177
_cell_angle_alpha   90.00000000
_cell_angle_beta   90.01162922
_cell_angle_gamma   90.00000000
_symmetry_Int_Tables_number   1
_chemical_formula_structural   K8EuEr2TmF20
_chemical_formula_sum   'K8 Eu1 Er2 Tm1 F20'
_cell_volume   539.28169655
_cell_formula_units_Z   1
loop_
 _symmetry_equiv_pos_site_id
 _symmetry_equiv_pos_as_xyz
  1  'x, y, z'
loop_
 _atom_site_type_symbol
 _atom_site_label
 _atom_site_symmetry_multiplicity
 _atom_site_fract_x
 _atom_site_fract_y
 _atom_site_fract_z
 _atom_site_occupancy
  K  K0  1  0.534210  0.995588  0.829968  1
  K  K1  1  0.466257  0.498577  0.169853  1
  K  K2  1  0.966401  0.995206  0.328473  1
  K  K3  1  0.032507  0.499254  0.671958  1
  K  K4  1  0.534210  0.504412  0.829968  1
  K  K5  1  0.466257  0.001423  0.169853  1
  K  K6  1  0.966401  0.504794  0.328473  1
  K  K7  1  0.032507  0.000746  0.671958  1
  Eu  Eu8  1  0.561197  0.250000  0.502300  1
  Er  Er9  1  0.937054  0.250000  0.002434  1
  Er  Er10  1  0.062405  0.750000  0.997622  1
  Tm  Tm11  1  0.435653  0.750000  0.498038  1
  F  F12  1  0.876407  0.750000  0.834594  1
  F  F13  1  0.123066  0.250000  0.165722  1
  F  F14  1  0.622039  0.750000  0.335820  1
  F  F15  1  0.373690  0.250000  0.672622  1
  F  F16  1  0.842605  0.250000  0.810885  1
  F  F17  1  0.156458  0.750000  0.188554  1
  F  F18  1  0.662249  0.250000  0.305592  1
  F  F19  1  0.341535  0.750000  0.688405  1
  F  F20  1  0.646461  0.956753  0.575520  1
  F  F21  1  0.352124  0.474191  0.422974  1
  F  F22  1  0.853500  0.964521  0.072543  1
  F  F23  1  0.145585  0.464992  0.927497  1
  F  F24  1  0.387861  0.750000  0.985662  1
  F  F25  1  0.611992  0.250000  0.014329  1
  F  F26  1  0.111105  0.750000  0.487408  1
  F  F27  1  0.900595  0.250000  0.512439  1
  F  F28  1  0.145585  0.035008  0.927497  1
  F  F29  1  0.853500  0.535479  0.072543  1
  F  F30  1  0.352124  0.025809  0.422974  1
  F  F31  1  0.646461  0.543247  0.575520  1
