# generated using pymatgen
data_Ce8Zn3Si12Ir
_symmetry_space_group_name_H-M   'P 1'
_cell_length_a   8.20007900
_cell_length_b   8.20007899
_cell_length_c   8.38951800
_cell_angle_alpha   90.00000000
_cell_angle_beta   90.00000000
_cell_angle_gamma   119.99999602
_symmetry_Int_Tables_number   1
_chemical_formula_structural   Ce8Zn3Si12Ir
_chemical_formula_sum   'Ce8 Zn3 Si12 Ir1'
_cell_volume   488.54405343
_cell_formula_units_Z   1
loop_
 _symmetry_equiv_pos_site_id
 _symmetry_equiv_pos_as_xyz
  1  'x, y, z'
loop_
 _atom_site_type_symbol
 _atom_site_label
 _atom_site_symmetry_multiplicity
 _atom_site_fract_x
 _atom_site_fract_y
 _atom_site_fract_z
 _atom_site_occupancy
  Ce  Ce0  1  0.000000  0.000000  0.250763  1
  Ce  Ce1  1  0.000000  0.000000  0.749407  1
  Ce  Ce2  1  0.498261  0.501739  0.246868  1
  Ce  Ce3  1  0.498261  0.996521  0.246868  1
  Ce  Ce4  1  0.003479  0.501739  0.246868  1
  Ce  Ce5  1  0.495819  0.504181  0.753134  1
  Ce  Ce6  1  0.495819  0.991638  0.753134  1
  Ce  Ce7  1  0.008362  0.504181  0.753134  1
  Zn  Zn8  1  0.333333  0.666667  0.493593  1
  Zn  Zn9  1  0.666667  0.333333  0.508395  1
  Zn  Zn10  1  0.666667  0.333333  0.994263  1
  Si  Si11  1  0.165659  0.834341  0.500737  1
  Si  Si12  1  0.165659  0.331319  0.500737  1
  Si  Si13  1  0.668681  0.834341  0.500737  1
  Si  Si14  1  0.833785  0.166215  0.498997  1
  Si  Si15  1  0.833785  0.667570  0.498997  1
  Si  Si16  1  0.332430  0.166215  0.498997  1
  Si  Si17  1  0.835119  0.164881  0.999378  1
  Si  Si18  1  0.835119  0.670236  0.999378  1
  Si  Si19  1  0.329764  0.164881  0.999378  1
  Si  Si20  1  0.165889  0.834111  0.001388  1
  Si  Si21  1  0.165889  0.331779  0.001388  1
  Si  Si22  1  0.668221  0.834111  0.001388  1
  Ir  Ir23  1  0.333333  0.666667  0.002073  1
