# generated using pymatgen
data_Y16CdAg3Pd4
_symmetry_space_group_name_H-M   'P 1'
_cell_length_a   9.67990862
_cell_length_b   9.66792775
_cell_length_c   9.66792700
_cell_angle_alpha   59.99999915
_cell_angle_beta   60.04093365
_cell_angle_gamma   60.04093776
_symmetry_Int_Tables_number   1
_chemical_formula_structural   Y16CdAg3Pd4
_chemical_formula_sum   'Y16 Cd1 Ag3 Pd4'
_cell_volume   640.16430616
_cell_formula_units_Z   1
loop_
 _symmetry_equiv_pos_site_id
 _symmetry_equiv_pos_as_xyz
  1  'x, y, z'
loop_
 _atom_site_type_symbol
 _atom_site_label
 _atom_site_symmetry_multiplicity
 _atom_site_fract_x
 _atom_site_fract_y
 _atom_site_fract_z
 _atom_site_occupancy
  Y  Y0  1  0.357900  0.356782  0.356782  1
  Y  Y1  1  0.357900  0.356782  0.928536  1
  Y  Y2  1  0.357900  0.928536  0.356782  1
  Y  Y3  1  0.925349  0.358217  0.358217  1
  Y  Y4  1  0.812390  0.187795  0.187795  1
  Y  Y5  1  0.187596  0.812100  0.812100  1
  Y  Y6  1  0.187596  0.812100  0.188203  1
  Y  Y7  1  0.812390  0.187795  0.812020  1
  Y  Y8  1  0.187596  0.188203  0.812100  1
  Y  Y9  1  0.812390  0.812020  0.187795  1
  Y  Y10  1  0.931388  0.566504  0.566504  1
  Y  Y11  1  0.566094  0.933645  0.933645  1
  Y  Y12  1  0.566094  0.933645  0.566616  1
  Y  Y13  1  0.931388  0.566504  0.935604  1
  Y  Y14  1  0.566094  0.566616  0.933645  1
  Y  Y15  1  0.931388  0.935604  0.566504  1
  Cd  Cd16  1  0.256198  0.581268  0.581268  1
  Ag  Ag17  1  0.584231  0.583728  0.583728  1
  Ag  Ag18  1  0.584231  0.583728  0.248315  1
  Ag  Ag19  1  0.584231  0.248315  0.583728  1
  Pd  Pd20  1  0.145346  0.146098  0.146098  1
  Pd  Pd21  1  0.145346  0.146098  0.562456  1
  Pd  Pd22  1  0.145346  0.562456  0.146098  1
  Pd  Pd23  1  0.563617  0.145461  0.145461  1
