# generated using pymatgen
data_La4Zr3Sn13Ir8
_symmetry_space_group_name_H-M   'P 1'
_cell_length_a   4.58746400
_cell_length_b   7.32316937
_cell_length_c   18.51739146
_cell_angle_alpha   89.45057407
_cell_angle_beta   90.00000000
_cell_angle_gamma   90.00000000
_symmetry_Int_Tables_number   1
_chemical_formula_structural   La4Zr3Sn13Ir8
_chemical_formula_sum   'La4 Zr3 Sn13 Ir8'
_cell_volume   622.05901368
_cell_formula_units_Z   1
loop_
 _symmetry_equiv_pos_site_id
 _symmetry_equiv_pos_as_xyz
  1  'x, y, z'
loop_
 _atom_site_type_symbol
 _atom_site_label
 _atom_site_symmetry_multiplicity
 _atom_site_fract_x
 _atom_site_fract_y
 _atom_site_fract_z
 _atom_site_occupancy
  La  La0  1  0.250000  0.985798  0.861866  1
  La  La1  1  0.250000  0.516963  0.361294  1
  La  La2  1  0.750000  0.008412  0.139146  1
  La  La3  1  0.750000  0.491700  0.637138  1
  Zr  Zr4  1  0.250000  0.328197  0.184102  1
  Zr  Zr5  1  0.250000  0.165318  0.683039  1
  Zr  Zr6  1  0.750000  0.663057  0.816645  1
  Sn  Sn7  1  0.750000  0.817770  0.319028  1
  Sn  Sn8  1  0.250000  0.733254  0.195130  1
  Sn  Sn9  1  0.250000  0.761603  0.701358  1
  Sn  Sn10  1  0.750000  0.261451  0.797352  1
  Sn  Sn11  1  0.750000  0.230539  0.299608  1
  Sn  Sn12  1  0.250000  0.860398  0.033267  1
  Sn  Sn13  1  0.250000  0.649035  0.534565  1
  Sn  Sn14  1  0.750000  0.142018  0.964413  1
  Sn  Sn15  1  0.750000  0.367513  0.466367  1
  Sn  Sn16  1  0.250000  0.523646  0.927931  1
  Sn  Sn17  1  0.250000  0.993954  0.432152  1
  Sn  Sn18  1  0.750000  0.472111  0.070474  1
  Sn  Sn19  1  0.750000  0.028518  0.572322  1
  Ir  Ir20  1  0.250000  0.248374  0.036906  1
  Ir  Ir21  1  0.250000  0.261060  0.537646  1
  Ir  Ir22  1  0.750000  0.750193  0.963419  1
  Ir  Ir23  1  0.750000  0.760134  0.467359  1
  Ir  Ir24  1  0.250000  0.030629  0.281263  1
  Ir  Ir25  1  0.250000  0.456914  0.780699  1
  Ir  Ir26  1  0.750000  0.957581  0.719292  1
  Ir  Ir27  1  0.750000  0.533861  0.216221  1
