# generated using pymatgen
data_Er5SbPbO12
_symmetry_space_group_name_H-M   'P 1'
_cell_length_a   6.48860184
_cell_length_b   6.40569826
_cell_length_c   6.47213621
_cell_angle_alpha   99.12123947
_cell_angle_beta   99.28180139
_cell_angle_gamma   98.42777733
_symmetry_Int_Tables_number   1
_chemical_formula_structural   Er5SbPbO12
_chemical_formula_sum   'Er5 Sb1 Pb1 O12'
_cell_volume   258.00664030
_cell_formula_units_Z   1
loop_
 _symmetry_equiv_pos_site_id
 _symmetry_equiv_pos_as_xyz
  1  'x, y, z'
loop_
 _atom_site_type_symbol
 _atom_site_label
 _atom_site_symmetry_multiplicity
 _atom_site_fract_x
 _atom_site_fract_y
 _atom_site_fract_z
 _atom_site_occupancy
  Er  Er0  1  0.387908  0.687412  0.857099  1
  Er  Er1  1  0.861931  0.393266  0.698766  1
  Er  Er2  1  0.305911  0.143771  0.612557  1
  Er  Er3  1  0.607956  0.305643  0.132148  1
  Er  Er4  1  0.141899  0.609511  0.308763  1
  Sb  Sb5  1  0.002207  0.999142  0.004033  1
  Pb  Pb6  1  0.684359  0.857684  0.395110  1
  O  O7  1  0.430893  0.586353  0.176995  1
  O  O8  1  0.171898  0.433629  0.585593  1
  O  O9  1  0.596931  0.172071  0.429329  1
  O  O10  1  0.565622  0.408285  0.816983  1
  O  O11  1  0.817467  0.576054  0.411961  1
  O  O12  1  0.414894  0.822111  0.571181  1
  O  O13  1  0.928634  0.043139  0.694786  1
  O  O14  1  0.955429  0.306860  0.071996  1
  O  O15  1  0.303456  0.075317  0.955944  1
  O  O16  1  0.082566  0.959647  0.306263  1
  O  O17  1  0.044032  0.693650  0.927864  1
  O  O18  1  0.696007  0.926456  0.042629  1
