# generated using pymatgen
data_Tm8Lu2Sn5Sb
_symmetry_space_group_name_H-M   'P 1'
_cell_length_a   8.82723059
_cell_length_b   8.82723145
_cell_length_c   6.37574103
_cell_angle_alpha   90.00552547
_cell_angle_beta   90.00552112
_cell_angle_gamma   119.97763427
_symmetry_Int_Tables_number   1
_chemical_formula_structural   Tm8Lu2Sn5Sb
_chemical_formula_sum   'Tm8 Lu2 Sn5 Sb1'
_cell_volume   430.33642889
_cell_formula_units_Z   1
loop_
 _symmetry_equiv_pos_site_id
 _symmetry_equiv_pos_as_xyz
  1  'x, y, z'
loop_
 _atom_site_type_symbol
 _atom_site_label
 _atom_site_symmetry_multiplicity
 _atom_site_fract_x
 _atom_site_fract_y
 _atom_site_fract_z
 _atom_site_occupancy
  Tm  Tm0  1  0.667428  0.333167  0.000107  1
  Tm  Tm1  1  0.333167  0.667428  0.000107  1
  Tm  Tm2  1  0.762256  0.762256  0.749877  1
  Tm  Tm3  1  0.237951  0.998250  0.749857  1
  Tm  Tm4  1  0.998250  0.237951  0.749857  1
  Tm  Tm5  1  0.238400  0.238400  0.250070  1
  Tm  Tm6  1  0.761614  0.000520  0.250144  1
  Tm  Tm7  1  0.000520  0.761614  0.250144  1
  Lu  Lu8  1  0.333168  0.667480  0.499841  1
  Lu  Lu9  1  0.667480  0.333168  0.499841  1
  Sn  Sn10  1  0.604879  0.999793  0.749488  1
  Sn  Sn11  1  0.999793  0.604879  0.749488  1
  Sn  Sn12  1  0.605917  0.605917  0.250487  1
  Sn  Sn13  1  0.394855  0.000880  0.250539  1
  Sn  Sn14  1  0.000880  0.394855  0.250539  1
  Sb  Sb15  1  0.393441  0.393441  0.749613  1
