# generated using pymatgen
data_Zr2Pa(AlRh)3
_symmetry_space_group_name_H-M   'P 1'
_cell_length_a   7.16800500
_cell_length_b   7.07678615
_cell_length_c   3.72777200
_cell_angle_alpha   90.00000000
_cell_angle_beta   90.00000000
_cell_angle_gamma   120.42731271
_symmetry_Int_Tables_number   1
_chemical_formula_structural   Zr2Pa(AlRh)3
_chemical_formula_sum   'Zr2 Pa1 Al3 Rh3'
_cell_volume   163.05276654
_cell_formula_units_Z   1
loop_
 _symmetry_equiv_pos_site_id
 _symmetry_equiv_pos_as_xyz
  1  'x, y, z'
loop_
 _atom_site_type_symbol
 _atom_site_label
 _atom_site_symmetry_multiplicity
 _atom_site_fract_x
 _atom_site_fract_y
 _atom_site_fract_z
 _atom_site_occupancy
  Zr  Zr0  1  0.997201  0.406828  0.500000  1
  Zr  Zr1  1  0.590373  0.593172  0.500000  1
  Pa  Pa2  1  0.418114  0.000000  0.500000  1
  Al  Al3  1  0.770719  0.000000  0.000000  1
  Al  Al4  1  0.981365  0.732317  0.000000  1
  Al  Al5  1  0.249048  0.267683  0.000000  1
  Rh  Rh6  1  0.334177  0.684448  0.000000  1
  Rh  Rh7  1  0.649730  0.315552  0.000000  1
  Rh  Rh8  1  0.009271  0.000000  0.500000  1
