# generated using pymatgen
data_Y2TmLu13(In3Ir)2
_symmetry_space_group_name_H-M   'P 1'
_cell_length_a   10.22453603
_cell_length_b   10.22453799
_cell_length_c   7.00016311
_cell_angle_alpha   89.98802450
_cell_angle_beta   90.01197504
_cell_angle_gamma   120.01983997
_symmetry_Int_Tables_number   1
_chemical_formula_structural   Y2TmLu13(In3Ir)2
_chemical_formula_sum   'Y2 Tm1 Lu13 In6 Ir2'
_cell_volume   633.63509276
_cell_formula_units_Z   1
loop_
 _symmetry_equiv_pos_site_id
 _symmetry_equiv_pos_as_xyz
  1  'x, y, z'
loop_
 _atom_site_type_symbol
 _atom_site_label
 _atom_site_symmetry_multiplicity
 _atom_site_fract_x
 _atom_site_fract_y
 _atom_site_fract_z
 _atom_site_occupancy
  Y  Y0  1  0.999977  0.000023  0.495762  1
  Y  Y1  1  0.999972  0.000028  0.995643  1
  Tm  Tm2  1  0.466679  0.533321  0.480888  1
  Lu  Lu3  1  0.067595  0.533813  0.480681  1
  Lu  Lu4  1  0.466187  0.932405  0.480681  1
  Lu  Lu5  1  0.534007  0.465993  0.980733  1
  Lu  Lu6  1  0.932223  0.466138  0.980664  1
  Lu  Lu7  1  0.533862  0.067777  0.980664  1
  Lu  Lu8  1  0.821699  0.178301  0.277059  1
  Lu  Lu9  1  0.356351  0.177788  0.276781  1
  Lu  Lu10  1  0.822212  0.643649  0.276781  1
  Lu  Lu11  1  0.178214  0.821786  0.777119  1
  Lu  Lu12  1  0.643520  0.822081  0.777635  1
  Lu  Lu13  1  0.177919  0.356480  0.777635  1
  Lu  Lu14  1  0.333145  0.666855  0.097955  1
  Lu  Lu15  1  0.666855  0.333145  0.598006  1
  In  In16  1  0.163101  0.836899  0.233685  1
  In  In17  1  0.674254  0.837189  0.233755  1
  In  In18  1  0.162811  0.325746  0.233755  1
  In  In19  1  0.836880  0.163120  0.733423  1
  In  In20  1  0.326104  0.163219  0.733664  1
  In  In21  1  0.836781  0.673896  0.733664  1
  Ir  Ir22  1  0.333014  0.666986  0.704093  1
  Ir  Ir23  1  0.666638  0.333362  0.203823  1
