# generated using pymatgen
data_Zr5ScTi7Al9(CoIr3)2
_symmetry_space_group_name_H-M   'P 1'
_cell_length_a   8.86555432
_cell_length_b   8.86555238
_cell_length_c   8.86555400
_cell_angle_alpha   59.91952266
_cell_angle_beta   59.91952994
_cell_angle_gamma   59.91952515
_symmetry_Int_Tables_number   1
_chemical_formula_structural   Zr5ScTi7Al9(CoIr3)2
_chemical_formula_sum   'Zr5 Sc1 Ti7 Al9 Co2 Ir6'
_cell_volume   491.82325615
_cell_formula_units_Z   1
loop_
 _symmetry_equiv_pos_site_id
 _symmetry_equiv_pos_as_xyz
  1  'x, y, z'
loop_
 _atom_site_type_symbol
 _atom_site_label
 _atom_site_symmetry_multiplicity
 _atom_site_fract_x
 _atom_site_fract_y
 _atom_site_fract_z
 _atom_site_occupancy
  Zr  Zr0  1  0.796959  0.201813  0.202005  1
  Zr  Zr1  1  0.201813  0.796959  0.202005  1
  Zr  Zr2  1  0.800668  0.800668  0.191631  1
  Zr  Zr3  1  0.191695  0.800391  0.800436  1
  Zr  Zr4  1  0.800391  0.191695  0.800436  1
  Sc  Sc5  1  0.202113  0.202113  0.796968  1
  Ti  Ti6  1  0.381117  0.381117  0.380865  1
  Ti  Ti7  1  0.381328  0.856684  0.381646  1
  Ti  Ti8  1  0.856684  0.381328  0.381646  1
  Ti  Ti9  1  0.381832  0.381832  0.856195  1
  Ti  Ti10  1  0.833520  0.501594  0.834386  1
  Ti  Ti11  1  0.501594  0.833520  0.834386  1
  Ti  Ti12  1  0.834271  0.834271  0.502091  1
  Al  Al13  1  0.164473  0.164473  0.164061  1
  Al  Al14  1  0.166774  0.501309  0.166529  1
  Al  Al15  1  0.501309  0.166774  0.166529  1
  Al  Al16  1  0.166697  0.166697  0.501266  1
  Al  Al17  1  0.617182  0.617182  0.617112  1
  Al  Al18  1  0.615654  0.152304  0.616147  1
  Al  Al19  1  0.152304  0.615654  0.616147  1
  Al  Al20  1  0.616049  0.616049  0.152254  1
  Al  Al21  1  0.828961  0.828961  0.828973  1
  Co  Co22  1  0.501246  0.501246  0.501286  1
  Co  Co23  1  0.001096  0.001096  0.001533  1
  Ir  Ir24  1  0.002452  0.002452  0.497669  1
  Ir  Ir25  1  0.497459  0.002551  0.002284  1
  Ir  Ir26  1  0.002551  0.497459  0.002284  1
  Ir  Ir27  1  0.500690  0.500690  0.000540  1
  Ir  Ir28  1  0.001636  0.499486  0.500345  1
  Ir  Ir29  1  0.499486  0.001636  0.500345  1
