# generated using pymatgen
data_Y3Tm3Co16(P6Ru)2
_symmetry_space_group_name_H-M   'P 1'
_cell_length_a   3.70107100
_cell_length_b   10.51270598
_cell_length_c   12.24032615
_cell_angle_alpha   90.04956098
_cell_angle_beta   90.00000000
_cell_angle_gamma   90.00000000
_symmetry_Int_Tables_number   1
_chemical_formula_structural   Y3Tm3Co16(P6Ru)2
_chemical_formula_sum   'Y3 Tm3 Co16 P12 Ru2'
_cell_volume   476.24975161
_cell_formula_units_Z   1
loop_
 _symmetry_equiv_pos_site_id
 _symmetry_equiv_pos_as_xyz
  1  'x, y, z'
loop_
 _atom_site_type_symbol
 _atom_site_label
 _atom_site_symmetry_multiplicity
 _atom_site_fract_x
 _atom_site_fract_y
 _atom_site_fract_z
 _atom_site_occupancy
  Y  Y0  1  0.000000  0.499928  0.524876  1
  Y  Y1  1  0.500000  0.000182  0.475585  1
  Y  Y2  1  0.500000  0.817222  0.206746  1
  Tm  Tm3  1  0.500000  0.182966  0.206585  1
  Tm  Tm4  1  0.000000  0.682453  0.793261  1
  Tm  Tm5  1  0.000000  0.317406  0.793230  1
  Co  Co6  1  0.500000  0.499821  0.705199  1
  Co  Co7  1  0.000000  0.001298  0.295186  1
  Co  Co8  1  0.000000  0.499262  0.985754  1
  Co  Co9  1  0.500000  0.000723  0.013132  1
  Co  Co10  1  0.500000  0.332185  0.990045  1
  Co  Co11  1  0.500000  0.667083  0.989601  1
  Co  Co12  1  0.000000  0.168344  0.009397  1
  Co  Co13  1  0.000000  0.832420  0.008829  1
  Co  Co14  1  0.500000  0.297118  0.430955  1
  Co  Co15  1  0.500000  0.702790  0.431852  1
  Co  Co16  1  0.000000  0.203144  0.569234  1
  Co  Co17  1  0.000000  0.797016  0.569803  1
  Co  Co18  1  0.500000  0.878489  0.708544  1
  Co  Co19  1  0.500000  0.121554  0.708237  1
  Co  Co20  1  0.000000  0.620375  0.292543  1
  Co  Co21  1  0.000000  0.378240  0.291617  1
  P  P22  1  0.500000  0.499599  0.881406  1
  P  P23  1  0.000000  0.001173  0.117738  1
  P  P24  1  0.500000  0.500036  0.349827  1
  P  P25  1  0.000000  0.000018  0.650330  1
  P  P26  1  0.500000  0.311443  0.617346  1
  P  P27  1  0.500000  0.688383  0.617752  1
  P  P28  1  0.000000  0.188920  0.382813  1
  P  P29  1  0.000000  0.811426  0.384177  1
  P  P30  1  0.500000  0.846001  0.892834  1
  P  P31  1  0.500000  0.154256  0.892523  1
  P  P32  1  0.000000  0.652803  0.106222  1
  P  P33  1  0.000000  0.346047  0.107042  1
  Ru  Ru34  1  0.500000  0.499455  0.159067  1
  Ru  Ru35  1  0.000000  0.000422  0.840713  1
