# generated using pymatgen
data_Ho3Tm13(HgRh)4
_symmetry_space_group_name_H-M   'P 1'
_cell_length_a   9.48222386
_cell_length_b   9.47390594
_cell_length_c   9.49379553
_cell_angle_alpha   59.96178032
_cell_angle_beta   59.91183759
_cell_angle_gamma   59.87410248
_symmetry_Int_Tables_number   1
_chemical_formula_structural   Ho3Tm13(HgRh)4
_chemical_formula_sum   'Ho3 Tm13 Hg4 Rh4'
_cell_volume   601.91391091
_cell_formula_units_Z   1
loop_
 _symmetry_equiv_pos_site_id
 _symmetry_equiv_pos_as_xyz
  1  'x, y, z'
loop_
 _atom_site_type_symbol
 _atom_site_label
 _atom_site_symmetry_multiplicity
 _atom_site_fract_x
 _atom_site_fract_y
 _atom_site_fract_z
 _atom_site_occupancy
  Ho  Ho0  1  0.062978  0.062902  0.437050  1
  Ho  Ho1  1  0.436703  0.063235  0.436023  1
  Ho  Ho2  1  0.063233  0.436648  0.064092  1
  Tm  Tm3  1  0.055498  0.646932  0.649037  1
  Tm  Tm4  1  0.437045  0.436987  0.063019  1
  Tm  Tm5  1  0.646921  0.055386  0.648597  1
  Tm  Tm6  1  0.188921  0.811962  0.187324  1
  Tm  Tm7  1  0.187902  0.187927  0.812095  1
  Tm  Tm8  1  0.811835  0.811938  0.188094  1
  Tm  Tm9  1  0.438075  0.061972  0.062634  1
  Tm  Tm10  1  0.812066  0.188816  0.187000  1
  Tm  Tm11  1  0.061991  0.438007  0.437395  1
  Tm  Tm12  1  0.811918  0.188919  0.811850  1
  Tm  Tm13  1  0.188774  0.812115  0.812103  1
  Tm  Tm14  1  0.648343  0.647847  0.054073  1
  Tm  Tm15  1  0.647826  0.648349  0.649701  1
  Hg  Hg16  1  0.414954  0.416293  0.414919  1
  Hg  Hg17  1  0.754213  0.415782  0.415459  1
  Hg  Hg18  1  0.415755  0.754157  0.414588  1
  Hg  Hg19  1  0.416292  0.415061  0.753694  1
  Rh  Rh20  1  0.856750  0.855621  0.430817  1
  Rh  Rh21  1  0.855614  0.856748  0.856849  1
  Rh  Rh22  1  0.430399  0.855963  0.857290  1
  Rh  Rh23  1  0.855996  0.430432  0.856300  1
