# generated using pymatgen
data_Dy2Fe3Re14C3
_symmetry_space_group_name_H-M   'P 1'
_cell_length_a   6.92440133
_cell_length_b   6.92440196
_cell_length_c   6.92440092
_cell_angle_alpha   82.51452970
_cell_angle_beta   82.51452640
_cell_angle_gamma   82.51451997
_symmetry_Int_Tables_number   1
_chemical_formula_structural   Dy2Fe3Re14C3
_chemical_formula_sum   'Dy2 Fe3 Re14 C3'
_cell_volume   324.19680052
_cell_formula_units_Z   1
loop_
 _symmetry_equiv_pos_site_id
 _symmetry_equiv_pos_as_xyz
  1  'x, y, z'
loop_
 _atom_site_type_symbol
 _atom_site_label
 _atom_site_symmetry_multiplicity
 _atom_site_fract_x
 _atom_site_fract_y
 _atom_site_fract_z
 _atom_site_occupancy
  Dy  Dy0  1  0.648972  0.648972  0.648972  1
  Dy  Dy1  1  0.351028  0.351028  0.351028  1
  Fe  Fe2  1  0.000000  0.000000  0.500000  1
  Fe  Fe3  1  0.500000  0.000000  0.000000  1
  Fe  Fe4  1  0.000000  0.500000  0.000000  1
  Re  Re5  1  0.722215  0.277785  0.000000  1
  Re  Re6  1  0.000000  0.722215  0.277785  1
  Re  Re7  1  0.277785  0.000000  0.722215  1
  Re  Re8  1  0.000000  0.277785  0.722215  1
  Re  Re9  1  0.722215  0.000000  0.277785  1
  Re  Re10  1  0.277785  0.722215  0.000000  1
  Re  Re11  1  0.346229  0.346229  0.860647  1
  Re  Re12  1  0.860647  0.346229  0.346229  1
  Re  Re13  1  0.346229  0.860647  0.346229  1
  Re  Re14  1  0.653771  0.653771  0.139353  1
  Re  Re15  1  0.139353  0.653771  0.653771  1
  Re  Re16  1  0.653771  0.139353  0.653771  1
  Re  Re17  1  0.897733  0.897733  0.897733  1
  Re  Re18  1  0.102267  0.102267  0.102267  1
  C  C19  1  0.500000  0.500000  0.000000  1
  C  C20  1  0.000000  0.500000  0.500000  1
  C  C21  1  0.500000  0.000000  0.500000  1
