# generated using pymatgen
data_Dy16MgAg3Pt4
_symmetry_space_group_name_H-M   'P 1'
_cell_length_a   9.67069767
_cell_length_b   9.65646914
_cell_length_c   9.65646900
_cell_angle_alpha   59.99999706
_cell_angle_beta   60.04865545
_cell_angle_gamma   60.04866212
_symmetry_Int_Tables_number   1
_chemical_formula_structural   Dy16MgAg3Pt4
_chemical_formula_sum   'Dy16 Mg1 Ag3 Pt4'
_cell_volume   638.11437593
_cell_formula_units_Z   1
loop_
 _symmetry_equiv_pos_site_id
 _symmetry_equiv_pos_as_xyz
  1  'x, y, z'
loop_
 _atom_site_type_symbol
 _atom_site_label
 _atom_site_symmetry_multiplicity
 _atom_site_fract_x
 _atom_site_fract_y
 _atom_site_fract_z
 _atom_site_occupancy
  Dy  Dy0  1  0.353853  0.351233  0.351233  1
  Dy  Dy1  1  0.353853  0.351233  0.943682  1
  Dy  Dy2  1  0.353853  0.943682  0.351233  1
  Dy  Dy3  1  0.928582  0.357140  0.357140  1
  Dy  Dy4  1  0.809320  0.190125  0.190125  1
  Dy  Dy5  1  0.186995  0.812684  0.812684  1
  Dy  Dy6  1  0.186995  0.812684  0.187638  1
  Dy  Dy7  1  0.809320  0.190125  0.810429  1
  Dy  Dy8  1  0.186995  0.187638  0.812684  1
  Dy  Dy9  1  0.809320  0.810429  0.190125  1
  Dy  Dy10  1  0.931795  0.566327  0.566327  1
  Dy  Dy11  1  0.565958  0.933911  0.933911  1
  Dy  Dy12  1  0.565958  0.933911  0.566220  1
  Dy  Dy13  1  0.931795  0.566327  0.935551  1
  Dy  Dy14  1  0.565958  0.566220  0.933911  1
  Dy  Dy15  1  0.931795  0.935551  0.566327  1
  Mg  Mg16  1  0.285166  0.571611  0.571611  1
  Ag  Ag17  1  0.583316  0.585622  0.585622  1
  Ag  Ag18  1  0.583316  0.585622  0.245439  1
  Ag  Ag19  1  0.583316  0.245439  0.585622  1
  Pt  Pt20  1  0.140737  0.145485  0.145485  1
  Pt  Pt21  1  0.140737  0.145485  0.568293  1
  Pt  Pt22  1  0.140737  0.568293  0.145485  1
  Pt  Pt23  1  0.570332  0.143223  0.143223  1
