# generated using pymatgen
data_Dy3Y2Nb3(Co4P3)4
_symmetry_space_group_name_H-M   'P 1'
_cell_length_a   12.18535500
_cell_length_b   12.18535426
_cell_length_c   3.69964000
_cell_angle_alpha   90.00000000
_cell_angle_beta   90.00000000
_cell_angle_gamma   119.99999385
_symmetry_Int_Tables_number   1
_chemical_formula_structural   Dy3Y2Nb3(Co4P3)4
_chemical_formula_sum   'Dy3 Y2 Nb3 Co16 P12'
_cell_volume   475.73649764
_cell_formula_units_Z   1
loop_
 _symmetry_equiv_pos_site_id
 _symmetry_equiv_pos_as_xyz
  1  'x, y, z'
loop_
 _atom_site_type_symbol
 _atom_site_label
 _atom_site_symmetry_multiplicity
 _atom_site_fract_x
 _atom_site_fract_y
 _atom_site_fract_z
 _atom_site_occupancy
  Dy  Dy0  1  0.816190  0.000000  0.500000  1
  Dy  Dy1  1  0.000000  0.816190  0.500000  1
  Dy  Dy2  1  0.183810  0.183810  0.500000  1
  Y  Y3  1  0.333333  0.666667  0.000000  1
  Y  Y4  1  0.666667  0.333333  0.000000  1
  Nb  Nb5  1  0.444189  0.000000  0.000000  1
  Nb  Nb6  1  0.000000  0.444189  0.000000  1
  Nb  Nb7  1  0.555811  0.555811  0.000000  1
  Co  Co8  1  0.279135  0.000000  0.500000  1
  Co  Co9  1  0.000000  0.279135  0.500000  1
  Co  Co10  1  0.720865  0.720865  0.500000  1
  Co  Co11  1  0.626210  0.803158  0.000000  1
  Co  Co12  1  0.196842  0.823052  0.000000  1
  Co  Co13  1  0.176948  0.373790  0.000000  1
  Co  Co14  1  0.373790  0.176948  0.000000  1
  Co  Co15  1  0.803158  0.626210  0.000000  1
  Co  Co16  1  0.823052  0.196842  0.000000  1
  Co  Co17  1  0.519551  0.873314  0.500000  1
  Co  Co18  1  0.126686  0.646237  0.500000  1
  Co  Co19  1  0.353763  0.480449  0.500000  1
  Co  Co20  1  0.480449  0.353763  0.500000  1
  Co  Co21  1  0.873314  0.519551  0.500000  1
  Co  Co22  1  0.646237  0.126686  0.500000  1
  Co  Co23  1  0.000000  0.000000  0.000000  1
  P  P24  1  0.178580  0.000000  0.000000  1
  P  P25  1  0.000000  0.178580  0.000000  1
  P  P26  1  0.821420  0.821420  0.000000  1
  P  P27  1  0.521057  0.688748  0.500000  1
  P  P28  1  0.311252  0.832308  0.500000  1
  P  P29  1  0.167692  0.478943  0.500000  1
  P  P30  1  0.478943  0.167692  0.500000  1
  P  P31  1  0.688748  0.521057  0.500000  1
  P  P32  1  0.832308  0.311252  0.500000  1
  P  P33  1  0.643432  0.000000  0.000000  1
  P  P34  1  0.000000  0.643432  0.000000  1
  P  P35  1  0.356568  0.356568  0.000000  1
