# generated using pymatgen
data_Sm5Y7(SiI3)4
_symmetry_space_group_name_H-M   'P 1'
_cell_length_a   10.59672265
_cell_length_b   10.59708026
_cell_length_c   10.60225731
_cell_angle_alpha   109.53232951
_cell_angle_beta   109.47803030
_cell_angle_gamma   109.39602486
_symmetry_Int_Tables_number   1
_chemical_formula_structural   Sm5Y7(SiI3)4
_chemical_formula_sum   'Sm5 Y7 Si4 I12'
_cell_volume   916.58505485
_cell_formula_units_Z   1
loop_
 _symmetry_equiv_pos_site_id
 _symmetry_equiv_pos_as_xyz
  1  'x, y, z'
loop_
 _atom_site_type_symbol
 _atom_site_label
 _atom_site_symmetry_multiplicity
 _atom_site_fract_x
 _atom_site_fract_y
 _atom_site_fract_z
 _atom_site_occupancy
  Sm  Sm0  1  0.462228  0.480922  0.230891  1
  Sm  Sm1  1  0.750855  0.231993  0.268697  1
  Sm  Sm2  1  0.748547  0.017458  0.480726  1
  Sm  Sm3  1  0.232039  0.462892  0.480674  1
  Sm  Sm4  1  0.267956  0.748880  0.230826  1
  Y  Y5  1  0.040995  0.270255  0.020450  1
  Y  Y6  1  0.019437  0.040071  0.270673  1
  Y  Y7  1  0.479367  0.750316  0.020535  1
  Y  Y8  1  0.479199  0.228968  0.458410  1
  Y  Y9  1  0.019516  0.479015  0.748741  1
  Y  Y10  1  0.269717  0.019607  0.039487  1
  Y  Y11  1  0.230241  0.269718  0.749998  1
  Si  Si12  1  0.248249  0.246687  0.248182  1
  Si  Si13  1  0.498356  0.999850  0.248241  1
  Si  Si14  1  0.001414  0.249767  0.501343  1
  Si  Si15  1  0.248460  0.498389  0.996928  1
  I  I16  1  0.249647  0.757733  0.746505  1
  I  I17  1  0.513696  0.505022  0.758263  1
  I  I18  1  0.986351  0.744594  0.991339  1
  I  I19  1  0.744570  0.253251  0.758441  1
  I  I20  1  0.996977  0.988820  0.746711  1
  I  I21  1  0.250200  0.996761  0.508026  1
  I  I22  1  0.757662  0.514075  0.511220  1
  I  I23  1  0.502557  0.246375  0.988564  1
  I  I24  1  0.757672  0.743412  0.246349  1
  I  I25  1  0.744576  0.991237  0.985975  1
  I  I26  1  0.991026  0.505509  0.246613  1
  I  I27  1  0.508488  0.758423  0.517191  1
