# generated using pymatgen
data_Dy3Ho(Re3Tc)2
_symmetry_space_group_name_H-M   'P 1'
_cell_length_a   5.38891200
_cell_length_b   5.38891227
_cell_length_c   8.95725200
_cell_angle_alpha   90.00000000
_cell_angle_beta   90.00000000
_cell_angle_gamma   119.99999836
_symmetry_Int_Tables_number   1
_chemical_formula_structural   Dy3Ho(Re3Tc)2
_chemical_formula_sum   'Dy3 Ho1 Re6 Tc2'
_cell_volume   225.27221876
_cell_formula_units_Z   1
loop_
 _symmetry_equiv_pos_site_id
 _symmetry_equiv_pos_as_xyz
  1  'x, y, z'
loop_
 _atom_site_type_symbol
 _atom_site_label
 _atom_site_symmetry_multiplicity
 _atom_site_fract_x
 _atom_site_fract_y
 _atom_site_fract_z
 _atom_site_occupancy
  Dy  Dy0  1  0.333333  0.666667  0.436734  1
  Dy  Dy1  1  0.666667  0.333333  0.563250  1
  Dy  Dy2  1  0.666667  0.333333  0.936774  1
  Ho  Ho3  1  0.333333  0.666667  0.063271  1
  Re  Re4  1  0.828449  0.171551  0.249946  1
  Re  Re5  1  0.828449  0.656898  0.249946  1
  Re  Re6  1  0.343102  0.171551  0.249946  1
  Re  Re7  1  0.171559  0.828441  0.750050  1
  Re  Re8  1  0.171559  0.343118  0.750050  1
  Re  Re9  1  0.656882  0.828441  0.750050  1
  Tc  Tc10  1  0.000000  0.000000  0.499973  1
  Tc  Tc11  1  0.000000  0.000000  0.000011  1
