# generated using pymatgen
data_Y2Ho3In4PdRh
_symmetry_space_group_name_H-M   'P 1'
_cell_length_a   3.61637500
_cell_length_b   8.12504248
_cell_length_c   18.24732725
_cell_angle_alpha   89.85660992
_cell_angle_beta   90.00000000
_cell_angle_gamma   90.00000000
_symmetry_Int_Tables_number   1
_chemical_formula_structural   Y2Ho3In4PdRh
_chemical_formula_sum   'Y4 Ho6 In8 Pd2 Rh2'
_cell_volume   536.16319608
_cell_formula_units_Z   2
loop_
 _symmetry_equiv_pos_site_id
 _symmetry_equiv_pos_as_xyz
  1  'x, y, z'
loop_
 _atom_site_type_symbol
 _atom_site_label
 _atom_site_symmetry_multiplicity
 _atom_site_fract_x
 _atom_site_fract_y
 _atom_site_fract_z
 _atom_site_occupancy
  Y  Y0  1  0.000000  0.500000  0.500000  1
  Y  Y1  1  0.000000  0.000000  0.000000  1
  Y  Y2  1  0.000000  0.731492  0.278606  1
  Y  Y3  1  0.000000  0.268508  0.721394  1
  Ho  Ho4  1  0.000000  0.748007  0.780103  1
  Ho  Ho5  1  0.000000  0.251993  0.219897  1
  Ho  Ho6  1  0.000000  0.613540  0.086914  1
  Ho  Ho7  1  0.000000  0.386460  0.913086  1
  Ho  Ho8  1  0.000000  0.884204  0.584494  1
  Ho  Ho9  1  0.000000  0.115796  0.415506  1
  In  In10  1  0.500000  0.708324  0.931470  1
  In  In11  1  0.500000  0.291676  0.068530  1
  In  In12  1  0.500000  0.791941  0.432067  1
  In  In13  1  0.500000  0.208059  0.567933  1
  In  In14  1  0.500000  0.579169  0.649770  1
  In  In15  1  0.500000  0.420831  0.350230  1
  In  In16  1  0.500000  0.921013  0.150197  1
  In  In17  1  0.500000  0.078987  0.849803  1
  Pd  Pd18  1  0.500000  0.977023  0.695988  1
  Pd  Pd19  1  0.500000  0.022977  0.304012  1
  Rh  Rh20  1  0.500000  0.518827  0.194305  1
  Rh  Rh21  1  0.500000  0.481173  0.805695  1
