# generated using pymatgen
data_Ho10Er2InCo4Ir
_symmetry_space_group_name_H-M   'P 1'
_cell_length_a   8.25869757
_cell_length_b   8.25773244
_cell_length_c   8.25869781
_cell_angle_alpha   111.16533731
_cell_angle_beta   110.67305739
_cell_angle_gamma   106.61744892
_symmetry_Int_Tables_number   1
_chemical_formula_structural   Ho10Er2InCo4Ir
_chemical_formula_sum   'Ho10 Er2 In1 Co4 Ir1'
_cell_volume   432.73733481
_cell_formula_units_Z   1
loop_
 _symmetry_equiv_pos_site_id
 _symmetry_equiv_pos_as_xyz
  1  'x, y, z'
loop_
 _atom_site_type_symbol
 _atom_site_label
 _atom_site_symmetry_multiplicity
 _atom_site_fract_x
 _atom_site_fract_y
 _atom_site_fract_z
 _atom_site_occupancy
  Ho  Ho0  1  0.315481  0.009669  0.694189  1
  Ho  Ho1  1  0.684519  0.990331  0.305811  1
  Ho  Ho2  1  0.183530  0.285997  0.469018  1
  Ho  Ho3  1  0.816470  0.714003  0.530982  1
  Ho  Ho4  1  0.183021  0.714003  0.897533  1
  Ho  Ho5  1  0.816979  0.285997  0.102467  1
  Ho  Ho6  1  0.411642  0.217201  0.194959  1
  Ho  Ho7  1  0.588358  0.782799  0.805041  1
  Ho  Ho8  1  0.022242  0.217201  0.805560  1
  Ho  Ho9  1  0.977758  0.782799  0.194440  1
  Er  Er10  1  0.315555  0.621648  0.306093  1
  Er  Er11  1  0.684445  0.378352  0.693907  1
  In  In12  1  0.500000  0.500000  0.000000  1
  Co  Co13  1  0.111733  0.611565  0.499832  1
  Co  Co14  1  0.888267  0.388435  0.500168  1
  Co  Co15  1  0.378390  0.000000  0.378390  1
  Co  Co16  1  0.621610  0.000000  0.621610  1
  Ir  Ir17  1  0.000000  0.000000  0.000000  1
