# generated using pymatgen
data_Tb2ThCoSn3Ir2
_symmetry_space_group_name_H-M   'P 1'
_cell_length_a   7.53916600
_cell_length_b   7.46846968
_cell_length_c   3.97781100
_cell_angle_alpha   90.00000000
_cell_angle_beta   90.00000000
_cell_angle_gamma   120.31362897
_symmetry_Int_Tables_number   1
_chemical_formula_structural   Tb2ThCoSn3Ir2
_chemical_formula_sum   'Tb2 Th1 Co1 Sn3 Ir2'
_cell_volume   193.35192271
_cell_formula_units_Z   1
loop_
 _symmetry_equiv_pos_site_id
 _symmetry_equiv_pos_as_xyz
  1  'x, y, z'
loop_
 _atom_site_type_symbol
 _atom_site_label
 _atom_site_symmetry_multiplicity
 _atom_site_fract_x
 _atom_site_fract_y
 _atom_site_fract_z
 _atom_site_occupancy
  Tb  Tb0  1  0.000585  0.593198  0.000000  1
  Tb  Tb1  1  0.407387  0.406802  0.000000  1
  Th  Th2  1  0.587057  0.000000  0.000000  1
  Co  Co3  1  0.992517  0.000000  0.000000  1
  Sn  Sn4  1  0.237024  0.000000  0.500000  1
  Sn  Sn5  1  0.010014  0.256332  0.500000  1
  Sn  Sn6  1  0.753682  0.743668  0.500000  1
  Ir  Ir7  1  0.345411  0.679087  0.500000  1
  Ir  Ir8  1  0.666325  0.320913  0.500000  1
