# generated using pymatgen
data_Ca12Al8Si11Hg
_symmetry_space_group_name_H-M   'P 1'
_cell_length_a   4.30615700
_cell_length_b   11.37264691
_cell_length_c   14.83368142
_cell_angle_alpha   89.67647623
_cell_angle_beta   90.00000000
_cell_angle_gamma   90.00000000
_symmetry_Int_Tables_number   1
_chemical_formula_structural   Ca12Al8Si11Hg
_chemical_formula_sum   'Ca12 Al8 Si11 Hg1'
_cell_volume   726.42944556
_cell_formula_units_Z   1
loop_
 _symmetry_equiv_pos_site_id
 _symmetry_equiv_pos_as_xyz
  1  'x, y, z'
loop_
 _atom_site_type_symbol
 _atom_site_label
 _atom_site_symmetry_multiplicity
 _atom_site_fract_x
 _atom_site_fract_y
 _atom_site_fract_z
 _atom_site_occupancy
  Ca  Ca0  1  0.250000  0.895247  0.566350  1
  Ca  Ca1  1  0.750000  0.104220  0.433587  1
  Ca  Ca2  1  0.250000  0.397805  0.934105  1
  Ca  Ca3  1  0.750000  0.603130  0.068211  1
  Ca  Ca4  1  0.250000  0.608473  0.437163  1
  Ca  Ca5  1  0.750000  0.395493  0.558456  1
  Ca  Ca6  1  0.250000  0.097897  0.072146  1
  Ca  Ca7  1  0.750000  0.891032  0.935826  1
  Ca  Ca8  1  0.750000  0.380671  0.298797  1
  Ca  Ca9  1  0.250000  0.619639  0.702424  1
  Ca  Ca10  1  0.750000  0.877572  0.204931  1
  Ca  Ca11  1  0.250000  0.115799  0.786738  1
  Al  Al12  1  0.750000  0.860327  0.708006  1
  Al  Al13  1  0.250000  0.139019  0.293756  1
  Al  Al14  1  0.750000  0.371702  0.783877  1
  Al  Al15  1  0.250000  0.640030  0.211015  1
  Al  Al16  1  0.250000  0.684517  0.911878  1
  Al  Al17  1  0.750000  0.320165  0.095016  1
  Al  Al18  1  0.250000  0.183951  0.585959  1
  Al  Al19  1  0.750000  0.817608  0.412229  1
  Si  Si20  1  0.250000  0.928874  0.363864  1
  Si  Si21  1  0.750000  0.070871  0.633542  1
  Si  Si22  1  0.250000  0.431804  0.140206  1
  Si  Si23  1  0.750000  0.573765  0.865969  1
  Si  Si24  1  0.250000  0.855043  0.794634  1
  Si  Si25  1  0.750000  0.143556  0.206860  1
  Si  Si26  1  0.250000  0.359060  0.696851  1
  Si  Si27  1  0.750000  0.643137  0.299682  1
  Si  Si28  1  0.250000  0.297051  0.433733  1
  Si  Si29  1  0.750000  0.704029  0.565296  1
  Si  Si30  1  0.250000  0.797247  0.067623  1
  Hg  Hg31  1  0.750000  0.191266  0.931268  1
