# generated using pymatgen
data_Mg2CuSb2Pt
_symmetry_space_group_name_H-M   'P 1'
_cell_length_a   7.74691039
_cell_length_b   7.74691100
_cell_length_c   7.74690974
_cell_angle_alpha   33.32324923
_cell_angle_beta   33.32324672
_cell_angle_gamma   33.32324423
_symmetry_Int_Tables_number   1
_chemical_formula_structural   Mg2CuSb2Pt
_chemical_formula_sum   'Mg2 Cu1 Sb2 Pt1'
_cell_volume   124.93351083
_cell_formula_units_Z   1
loop_
 _symmetry_equiv_pos_site_id
 _symmetry_equiv_pos_as_xyz
  1  'x, y, z'
loop_
 _atom_site_type_symbol
 _atom_site_label
 _atom_site_symmetry_multiplicity
 _atom_site_fract_x
 _atom_site_fract_y
 _atom_site_fract_z
 _atom_site_occupancy
  Mg  Mg0  1  0.749884  0.749884  0.749884  1
  Mg  Mg1  1  0.250051  0.250051  0.250051  1
  Cu  Cu2  1  0.124421  0.124421  0.124421  1
  Sb  Sb3  1  0.001490  0.001490  0.001490  1
  Sb  Sb4  1  0.498640  0.498640  0.498640  1
  Pt  Pt5  1  0.625514  0.625514  0.625514  1
