# generated using pymatgen
data_Sm3TmGa18(PtRh2)2
_symmetry_space_group_name_H-M   'P 1'
_cell_length_a   7.64301398
_cell_length_b   7.64442671
_cell_length_c   9.53177600
_cell_angle_alpha   90.00000000
_cell_angle_beta   90.00000000
_cell_angle_gamma   119.89658738
_symmetry_Int_Tables_number   1
_chemical_formula_structural   Sm3TmGa18(PtRh2)2
_chemical_formula_sum   'Sm3 Tm1 Ga18 Pt2 Rh4'
_cell_volume   482.79820923
_cell_formula_units_Z   1
loop_
 _symmetry_equiv_pos_site_id
 _symmetry_equiv_pos_as_xyz
  1  'x, y, z'
loop_
 _atom_site_type_symbol
 _atom_site_label
 _atom_site_symmetry_multiplicity
 _atom_site_fract_x
 _atom_site_fract_y
 _atom_site_fract_z
 _atom_site_occupancy
  Sm  Sm0  1  0.996423  0.671443  0.250000  1
  Sm  Sm1  1  0.003386  0.328499  0.750000  1
  Sm  Sm2  1  0.671134  0.996292  0.250000  1
  Tm  Tm3  1  0.328646  0.003580  0.750000  1
  Ga  Ga4  1  0.135786  0.135502  0.250000  1
  Ga  Ga5  1  0.865810  0.864806  0.750000  1
  Ga  Ga6  1  0.999964  0.338671  0.079511  1
  Ga  Ga7  1  0.002557  0.663864  0.918550  1
  Ga  Ga8  1  0.002557  0.663864  0.581450  1
  Ga  Ga9  1  0.338527  0.999813  0.422147  1
  Ga  Ga10  1  0.999964  0.338671  0.420489  1
  Ga  Ga11  1  0.659042  0.000137  0.581486  1
  Ga  Ga12  1  0.659042  0.000137  0.918514  1
  Ga  Ga13  1  0.338527  0.999813  0.077853  1
  Ga  Ga14  1  0.338269  0.336247  0.567779  1
  Ga  Ga15  1  0.661624  0.661658  0.434562  1
  Ga  Ga16  1  0.661624  0.661658  0.065438  1
  Ga  Ga17  1  0.338269  0.336247  0.932221  1
  Ga  Ga18  1  0.335952  0.546731  0.250000  1
  Ga  Ga19  1  0.662285  0.451095  0.750000  1
  Ga  Ga20  1  0.546406  0.335686  0.250000  1
  Ga  Ga21  1  0.452916  0.664834  0.750000  1
  Pt  Pt22  1  0.000489  0.000350  0.999286  1
  Pt  Pt23  1  0.000489  0.000350  0.500714  1
  Rh  Rh24  1  0.670954  0.329236  0.999395  1
  Rh  Rh25  1  0.329201  0.670791  0.999382  1
  Rh  Rh26  1  0.329201  0.670791  0.500618  1
  Rh  Rh27  1  0.670954  0.329236  0.500605  1
