# generated using pymatgen
data_K3Rb3HgSe4
_symmetry_space_group_name_H-M   'P 1'
_cell_length_a   10.61377900
_cell_length_b   10.61377990
_cell_length_c   8.35420100
_cell_angle_alpha   90.00000000
_cell_angle_beta   90.00000000
_cell_angle_gamma   120.00000030
_symmetry_Int_Tables_number   1
_chemical_formula_structural   K3Rb3HgSe4
_chemical_formula_sum   'K6 Rb6 Hg2 Se8'
_cell_volume   815.03389178
_cell_formula_units_Z   2
loop_
 _symmetry_equiv_pos_site_id
 _symmetry_equiv_pos_as_xyz
  1  'x, y, z'
loop_
 _atom_site_type_symbol
 _atom_site_label
 _atom_site_symmetry_multiplicity
 _atom_site_fract_x
 _atom_site_fract_y
 _atom_site_fract_z
 _atom_site_occupancy
  K  K0  1  0.149115  0.298230  0.207763  1
  K  K1  1  0.149115  0.850885  0.207763  1
  K  K2  1  0.701770  0.850885  0.207763  1
  K  K3  1  0.850885  0.701770  0.707763  1
  K  K4  1  0.850885  0.149115  0.707763  1
  K  K5  1  0.298230  0.149115  0.707763  1
  Rb  Rb6  1  0.526972  0.053945  0.378925  1
  Rb  Rb7  1  0.526972  0.473028  0.378925  1
  Rb  Rb8  1  0.946055  0.473028  0.378925  1
  Rb  Rb9  1  0.473028  0.946055  0.878925  1
  Rb  Rb10  1  0.473028  0.526972  0.878925  1
  Rb  Rb11  1  0.053945  0.526972  0.878925  1
  Hg  Hg12  1  0.333333  0.666667  0.501829  1
  Hg  Hg13  1  0.666667  0.333333  0.001829  1
  Se  Se14  1  0.333333  0.666667  0.166415  1
  Se  Se15  1  0.666667  0.333333  0.666415  1
  Se  Se16  1  0.812081  0.624161  0.097203  1
  Se  Se17  1  0.812081  0.187919  0.097203  1
  Se  Se18  1  0.375839  0.187919  0.097203  1
  Se  Se19  1  0.187919  0.375839  0.597203  1
  Se  Se20  1  0.187919  0.812081  0.597203  1
  Se  Se21  1  0.624161  0.812081  0.597203  1
