# generated using pymatgen
data_Tm4Sn5PRh7
_symmetry_space_group_name_H-M   'P 1'
_cell_length_a   7.48279595
_cell_length_b   7.48279653
_cell_length_c   7.48279552
_cell_angle_alpha   109.88744955
_cell_angle_beta   108.64192534
_cell_angle_gamma   109.88745574
_symmetry_Int_Tables_number   1
_chemical_formula_structural   Tm4Sn5PRh7
_chemical_formula_sum   'Tm4 Sn5 P1 Rh7'
_cell_volume   322.47919804
_cell_formula_units_Z   1
loop_
 _symmetry_equiv_pos_site_id
 _symmetry_equiv_pos_as_xyz
  1  'x, y, z'
loop_
 _atom_site_type_symbol
 _atom_site_label
 _atom_site_symmetry_multiplicity
 _atom_site_fract_x
 _atom_site_fract_y
 _atom_site_fract_z
 _atom_site_occupancy
  Tm  Tm0  1  0.469958  0.456282  0.469958  1
  Tm  Tm1  1  0.013676  0.543718  0.013676  1
  Tm  Tm2  1  0.469958  0.000000  0.013676  1
  Tm  Tm3  1  0.013676  0.000000  0.469958  1
  Sn  Sn4  1  0.710385  0.000000  0.710385  1
  Sn  Sn5  1  0.671260  0.686093  0.985168  1
  Sn  Sn6  1  0.299075  0.313907  0.985168  1
  Sn  Sn7  1  0.985168  0.686093  0.671260  1
  Sn  Sn8  1  0.985168  0.313907  0.299075  1
  P  P9  1  0.351211  0.000000  0.351211  1
  Rh  Rh10  1  0.500488  0.758000  0.258487  1
  Rh  Rh11  1  0.742488  0.242000  0.500488  1
  Rh  Rh12  1  0.258487  0.758000  0.500488  1
  Rh  Rh13  1  0.238869  0.500000  0.738869  1
  Rh  Rh14  1  0.050775  0.000000  0.050775  1
  Rh  Rh15  1  0.500488  0.242000  0.742488  1
  Rh  Rh16  1  0.738869  0.500000  0.238869  1
