# generated using pymatgen
data_Sm4NpTc7
_symmetry_space_group_name_H-M   'P 1'
_cell_length_a   5.35370990
_cell_length_b   5.35370978
_cell_length_c   9.06722400
_cell_angle_alpha   90.00000000
_cell_angle_beta   90.00000000
_cell_angle_gamma   115.45778265
_symmetry_Int_Tables_number   1
_chemical_formula_structural   Sm4NpTc7
_chemical_formula_sum   'Sm4 Np1 Tc7'
_cell_volume   234.65225957
_cell_formula_units_Z   1
loop_
 _symmetry_equiv_pos_site_id
 _symmetry_equiv_pos_as_xyz
  1  'x, y, z'
loop_
 _atom_site_type_symbol
 _atom_site_label
 _atom_site_symmetry_multiplicity
 _atom_site_fract_x
 _atom_site_fract_y
 _atom_site_fract_z
 _atom_site_occupancy
  Sm  Sm0  1  0.331164  0.668836  0.443856  1
  Sm  Sm1  1  0.659645  0.340355  0.572099  1
  Sm  Sm2  1  0.659645  0.340355  0.927901  1
  Sm  Sm3  1  0.331164  0.668836  0.056144  1
  Np  Np4  1  0.852220  0.147780  0.250000  1
  Tc  Tc5  1  0.985881  0.014119  0.485739  1
  Tc  Tc6  1  0.985881  0.014119  0.014261  1
  Tc  Tc7  1  0.838290  0.619994  0.250000  1
  Tc  Tc8  1  0.380006  0.161710  0.250000  1
  Tc  Tc9  1  0.163589  0.836411  0.750000  1
  Tc  Tc10  1  0.156981  0.344465  0.750000  1
  Tc  Tc11  1  0.655535  0.843019  0.750000  1
