# generated using pymatgen
data_Ho4Zn5Ga13Pd6
_symmetry_space_group_name_H-M   'P 1'
_cell_length_a   7.59177658
_cell_length_b   7.63009650
_cell_length_c   9.51485203
_cell_angle_alpha   89.99035160
_cell_angle_beta   90.05504393
_cell_angle_gamma   119.20549624
_symmetry_Int_Tables_number   1
_chemical_formula_structural   Ho4Zn5Ga13Pd6
_chemical_formula_sum   'Ho4 Zn5 Ga13 Pd6'
_cell_volume   481.09124480
_cell_formula_units_Z   1
loop_
 _symmetry_equiv_pos_site_id
 _symmetry_equiv_pos_as_xyz
  1  'x, y, z'
loop_
 _atom_site_type_symbol
 _atom_site_label
 _atom_site_symmetry_multiplicity
 _atom_site_fract_x
 _atom_site_fract_y
 _atom_site_fract_z
 _atom_site_occupancy
  Ho  Ho0  1  0.995360  0.673837  0.250041  1
  Ho  Ho1  1  0.004977  0.326823  0.751215  1
  Ho  Ho2  1  0.674478  0.997457  0.249919  1
  Ho  Ho3  1  0.325585  0.002450  0.750684  1
  Zn  Zn4  1  0.137096  0.141156  0.248049  1
  Zn  Zn5  1  0.861621  0.859761  0.749867  1
  Zn  Zn6  1  0.008028  0.338678  0.085504  1
  Zn  Zn7  1  0.339389  0.547026  0.247700  1
  Zn  Zn8  1  0.655092  0.451667  0.749799  1
  Ga  Ga9  1  0.991726  0.656961  0.915850  1
  Ga  Ga10  1  0.992022  0.661100  0.586766  1
  Ga  Ga11  1  0.334296  0.001794  0.413024  1
  Ga  Ga12  1  0.008967  0.338105  0.412922  1
  Ga  Ga13  1  0.667127  0.999671  0.585545  1
  Ga  Ga14  1  0.670952  0.002966  0.916816  1
  Ga  Ga15  1  0.334385  0.001275  0.086053  1
  Ga  Ga16  1  0.335547  0.332650  0.560462  1
  Ga  Ga17  1  0.664271  0.667241  0.438290  1
  Ga  Ga18  1  0.664844  0.667018  0.059683  1
  Ga  Ga19  1  0.329233  0.331740  0.945771  1
  Ga  Ga20  1  0.543549  0.345486  0.249561  1
  Ga  Ga21  1  0.458022  0.656027  0.750236  1
  Pd  Pd22  1  0.670208  0.323896  0.002035  1
  Pd  Pd23  1  0.330428  0.681282  0.995123  1
  Pd  Pd24  1  0.325840  0.675739  0.503602  1
  Pd  Pd25  1  0.675817  0.324992  0.495987  1
  Pd  Pd26  1  0.000069  0.993774  0.999731  1
  Pd  Pd27  1  0.001072  0.999431  0.499767  1
