# generated using pymatgen
data_Pr4Cd2PtAu3
_symmetry_space_group_name_H-M   'P 1'
_cell_length_a   8.13474971
_cell_length_b   8.13474971
_cell_length_c   3.92565100
_cell_angle_alpha   90.00000000
_cell_angle_beta   90.00000000
_cell_angle_gamma   90.12332885
_symmetry_Int_Tables_number   1
_chemical_formula_structural   Pr4Cd2PtAu3
_chemical_formula_sum   'Pr4 Cd2 Pt1 Au3'
_cell_volume   259.77602757
_cell_formula_units_Z   1
loop_
 _symmetry_equiv_pos_site_id
 _symmetry_equiv_pos_as_xyz
  1  'x, y, z'
loop_
 _atom_site_type_symbol
 _atom_site_label
 _atom_site_symmetry_multiplicity
 _atom_site_fract_x
 _atom_site_fract_y
 _atom_site_fract_z
 _atom_site_occupancy
  Pr  Pr0  1  0.671669  0.171669  0.500000  1
  Pr  Pr1  1  0.317451  0.817451  0.500000  1
  Pr  Pr2  1  0.176783  0.340352  0.500000  1
  Pr  Pr3  1  0.840352  0.676783  0.500000  1
  Cd  Cd4  1  0.001351  0.999392  0.000000  1
  Cd  Cd5  1  0.499392  0.501351  0.000000  1
  Pt  Pt6  1  0.124572  0.624572  0.000000  1
  Au  Au7  1  0.872673  0.372673  0.000000  1
  Au  Au8  1  0.624797  0.870962  0.000000  1
  Au  Au9  1  0.370962  0.124797  0.000000  1
