# generated using pymatgen
data_YbPr6MnBr12
_symmetry_space_group_name_H-M   'P 1'
_cell_length_a   9.50099691
_cell_length_b   9.50099684
_cell_length_c   9.50099715
_cell_angle_alpha   106.87846073
_cell_angle_beta   106.87845165
_cell_angle_gamma   106.87844483
_symmetry_Int_Tables_number   1
_chemical_formula_structural   YbPr6MnBr12
_chemical_formula_sum   'Yb1 Pr6 Mn1 Br12'
_cell_volume   716.60998101
_cell_formula_units_Z   1
loop_
 _symmetry_equiv_pos_site_id
 _symmetry_equiv_pos_as_xyz
  1  'x, y, z'
loop_
 _atom_site_type_symbol
 _atom_site_label
 _atom_site_symmetry_multiplicity
 _atom_site_fract_x
 _atom_site_fract_y
 _atom_site_fract_z
 _atom_site_occupancy
  Yb  Yb0  1  0.500000  0.500000  0.500000  1
  Pr  Pr1  1  0.973345  0.896404  0.687910  1
  Pr  Pr2  1  0.026655  0.103596  0.312090  1
  Pr  Pr3  1  0.103596  0.312090  0.026655  1
  Pr  Pr4  1  0.312090  0.026655  0.103596  1
  Pr  Pr5  1  0.896404  0.687910  0.973345  1
  Pr  Pr6  1  0.687910  0.973345  0.896404  1
  Mn  Mn7  1  0.000000  0.000000  0.000000  1
  Br  Br8  1  0.540955  0.618144  0.834370  1
  Br  Br9  1  0.459045  0.381856  0.165630  1
  Br  Br10  1  0.315656  0.927517  0.775887  1
  Br  Br11  1  0.381856  0.165630  0.459045  1
  Br  Br12  1  0.927517  0.775887  0.315656  1
  Br  Br13  1  0.684344  0.072483  0.224113  1
  Br  Br14  1  0.072483  0.224113  0.684344  1
  Br  Br15  1  0.775887  0.315656  0.927517  1
  Br  Br16  1  0.224113  0.684344  0.072483  1
  Br  Br17  1  0.834370  0.540955  0.618144  1
  Br  Br18  1  0.165630  0.459045  0.381856  1
  Br  Br19  1  0.618144  0.834370  0.540955  1
