# generated using pymatgen
data_YLu11Tc4
_symmetry_space_group_name_H-M   'P 1'
_cell_length_a   6.14726600
_cell_length_b   7.36720406
_cell_length_c   8.92798000
_cell_angle_alpha   90.00000000
_cell_angle_beta   90.00000000
_cell_angle_gamma   90.24078875
_symmetry_Int_Tables_number   1
_chemical_formula_structural   YLu11Tc4
_chemical_formula_sum   'Y1 Lu11 Tc4'
_cell_volume   404.32824313
_cell_formula_units_Z   1
loop_
 _symmetry_equiv_pos_site_id
 _symmetry_equiv_pos_as_xyz
  1  'x, y, z'
loop_
 _atom_site_type_symbol
 _atom_site_label
 _atom_site_symmetry_multiplicity
 _atom_site_fract_x
 _atom_site_fract_y
 _atom_site_fract_z
 _atom_site_occupancy
  Y  Y0  1  0.876291  0.961720  0.750000  1
  Lu  Lu1  1  0.125080  0.037833  0.250000  1
  Lu  Lu2  1  0.625366  0.459645  0.750000  1
  Lu  Lu3  1  0.373446  0.542246  0.250000  1
  Lu  Lu4  1  0.649822  0.178636  0.063167  1
  Lu  Lu5  1  0.153650  0.325848  0.938921  1
  Lu  Lu6  1  0.847123  0.672286  0.437082  1
  Lu  Lu7  1  0.350061  0.823098  0.561453  1
  Lu  Lu8  1  0.350061  0.823098  0.938547  1
  Lu  Lu9  1  0.847123  0.672286  0.062918  1
  Lu  Lu10  1  0.153650  0.325848  0.561079  1
  Lu  Lu11  1  0.649822  0.178636  0.436833  1
  Tc  Tc12  1  0.956904  0.380978  0.250000  1
  Tc  Tc13  1  0.447788  0.118344  0.750000  1
  Tc  Tc14  1  0.547249  0.883725  0.250000  1
  Tc  Tc15  1  0.046559  0.615778  0.750000  1
