# generated using pymatgen
data_Pr2Re12Tc5C3
_symmetry_space_group_name_H-M   'P 1'
_cell_length_a   7.05960632
_cell_length_b   7.05960584
_cell_length_c   7.05960601
_cell_angle_alpha   82.96704498
_cell_angle_beta   82.96704864
_cell_angle_gamma   82.96705733
_symmetry_Int_Tables_number   1
_chemical_formula_structural   Pr2Re12Tc5C3
_chemical_formula_sum   'Pr2 Re12 Tc5 C3'
_cell_volume   344.49422675
_cell_formula_units_Z   1
loop_
 _symmetry_equiv_pos_site_id
 _symmetry_equiv_pos_as_xyz
  1  'x, y, z'
loop_
 _atom_site_type_symbol
 _atom_site_label
 _atom_site_symmetry_multiplicity
 _atom_site_fract_x
 _atom_site_fract_y
 _atom_site_fract_z
 _atom_site_occupancy
  Pr  Pr0  1  0.649572  0.649572  0.649572  1
  Pr  Pr1  1  0.351433  0.351433  0.351433  1
  Re  Re2  1  0.998882  0.998882  0.502371  1
  Re  Re3  1  0.502371  0.998882  0.998882  1
  Re  Re4  1  0.998882  0.502371  0.998882  1
  Re  Re5  1  0.721358  0.279335  0.000259  1
  Re  Re6  1  0.000259  0.721358  0.279335  1
  Re  Re7  1  0.279335  0.000259  0.721358  1
  Re  Re8  1  0.000259  0.279335  0.721358  1
  Re  Re9  1  0.721358  0.000259  0.279335  1
  Re  Re10  1  0.279335  0.721358  0.000259  1
  Re  Re11  1  0.346248  0.346248  0.866342  1
  Re  Re12  1  0.866342  0.346248  0.346248  1
  Re  Re13  1  0.346248  0.866342  0.346248  1
  Tc  Tc14  1  0.651169  0.651169  0.137223  1
  Tc  Tc15  1  0.137223  0.651169  0.651169  1
  Tc  Tc16  1  0.651169  0.137223  0.651169  1
  Tc  Tc17  1  0.902589  0.902589  0.902589  1
  Tc  Tc18  1  0.097434  0.097434  0.097434  1
  C  C19  1  0.499949  0.499949  0.998636  1
  C  C20  1  0.998636  0.499949  0.499949  1
  C  C21  1  0.499949  0.998636  0.499949  1
