# generated using pymatgen
data_Nd2Ho5Tm3(In2Pt)4
_symmetry_space_group_name_H-M   'P 1'
_cell_length_a   3.62185800
_cell_length_b   8.18851600
_cell_length_c   18.32848001
_cell_angle_alpha   89.99607066
_cell_angle_beta   90.00009747
_cell_angle_gamma   89.99994037
_symmetry_Int_Tables_number   1
_chemical_formula_structural   Nd2Ho5Tm3(In2Pt)4
_chemical_formula_sum   'Nd2 Ho5 Tm3 In8 Pt4'
_cell_volume   543.57950095
_cell_formula_units_Z   1
loop_
 _symmetry_equiv_pos_site_id
 _symmetry_equiv_pos_as_xyz
  1  'x, y, z'
loop_
 _atom_site_type_symbol
 _atom_site_label
 _atom_site_symmetry_multiplicity
 _atom_site_fract_x
 _atom_site_fract_y
 _atom_site_fract_z
 _atom_site_occupancy
  Nd  Nd0  1  0.000002  0.000041  0.999974  1
  Nd  Nd1  1  0.999998  0.500030  0.500010  1
  Ho  Ho2  1  0.000000  0.618979  0.085935  1
  Ho  Ho3  1  0.999999  0.242125  0.219983  1
  Ho  Ho4  1  0.000000  0.757779  0.780092  1
  Ho  Ho5  1  0.999999  0.257802  0.719928  1
  Ho  Ho6  1  0.000001  0.742249  0.280149  1
  Tm  Tm7  1  0.000003  0.118616  0.413594  1
  Tm  Tm8  1  0.000000  0.881395  0.586408  1
  Tm  Tm9  1  0.000000  0.381443  0.913545  1
  In  In10  1  0.500001  0.421281  0.348478  1
  In  In11  1  0.500000  0.578683  0.651566  1
  In  In12  1  0.500002  0.078642  0.848439  1
  In  In13  1  0.499998  0.921867  0.151714  1
  In  In14  1  0.499999  0.298975  0.067453  1
  In  In15  1  0.500001  0.700484  0.932278  1
  In  In16  1  0.500000  0.200403  0.567462  1
  In  In17  1  0.500000  0.799620  0.432530  1
  Pt  Pt18  1  0.499999  0.024889  0.304068  1
  Pt  Pt19  1  0.500000  0.975154  0.695933  1
  Pt  Pt20  1  0.499999  0.475091  0.803994  1
  Pt  Pt21  1  0.499999  0.524453  0.196466  1
