# generated using pymatgen
data_Ta3Re2Si2BMo
_symmetry_space_group_name_H-M   'P 1'
_cell_length_a   6.77093239
_cell_length_b   6.77093237
_cell_length_c   3.23996800
_cell_angle_alpha   90.00000000
_cell_angle_beta   90.00000000
_cell_angle_gamma   119.73295550
_symmetry_Int_Tables_number   1
_chemical_formula_structural   Ta3Re2Si2BMo
_chemical_formula_sum   'Ta3 Re2 Si2 B1 Mo1'
_cell_volume   128.98246650
_cell_formula_units_Z   1
loop_
 _symmetry_equiv_pos_site_id
 _symmetry_equiv_pos_as_xyz
  1  'x, y, z'
loop_
 _atom_site_type_symbol
 _atom_site_label
 _atom_site_symmetry_multiplicity
 _atom_site_fract_x
 _atom_site_fract_y
 _atom_site_fract_z
 _atom_site_occupancy
  Ta  Ta0  1  0.393278  0.393278  0.500000  1
  Ta  Ta1  1  0.607113  0.996643  0.500000  1
  Ta  Ta2  1  0.996643  0.607113  0.500000  1
  Re  Re3  1  0.244438  0.001078  0.000000  1
  Re  Re4  1  0.001078  0.244438  0.000000  1
  Si  Si5  1  0.666352  0.331046  0.000000  1
  Si  Si6  1  0.331046  0.666352  0.000000  1
  B  B7  1  0.002544  0.002544  0.500000  1
  Mo  Mo8  1  0.757508  0.757508  0.000000  1
