# generated using pymatgen
data_La4Al18RePd3Pt2
_symmetry_space_group_name_H-M   'P 1'
_cell_length_a   7.72757673
_cell_length_b   7.72757709
_cell_length_c   9.57378000
_cell_angle_alpha   89.72387718
_cell_angle_beta   89.72388458
_cell_angle_gamma   119.43415692
_symmetry_Int_Tables_number   1
_chemical_formula_structural   La4Al18RePd3Pt2
_chemical_formula_sum   'La4 Al18 Re1 Pd3 Pt2'
_cell_volume   497.88500535
_cell_formula_units_Z   1
loop_
 _symmetry_equiv_pos_site_id
 _symmetry_equiv_pos_as_xyz
  1  'x, y, z'
loop_
 _atom_site_type_symbol
 _atom_site_label
 _atom_site_symmetry_multiplicity
 _atom_site_fract_x
 _atom_site_fract_y
 _atom_site_fract_z
 _atom_site_occupancy
  La  La0  1  0.996457  0.673085  0.247699  1
  La  La1  1  0.003543  0.326915  0.752301  1
  La  La2  1  0.673085  0.996457  0.247699  1
  La  La3  1  0.326915  0.003543  0.752301  1
  Al  Al4  1  0.134928  0.134928  0.246757  1
  Al  Al5  1  0.865072  0.865072  0.753243  1
  Al  Al6  1  0.003424  0.331497  0.073382  1
  Al  Al7  1  0.996576  0.668503  0.926618  1
  Al  Al8  1  0.994355  0.662888  0.577634  1
  Al  Al9  1  0.337112  0.005645  0.422366  1
  Al  Al10  1  0.005645  0.337112  0.422366  1
  Al  Al11  1  0.662888  0.994355  0.577634  1
  Al  Al12  1  0.668503  0.996576  0.926618  1
  Al  Al13  1  0.331497  0.003424  0.073382  1
  Al  Al14  1  0.336145  0.336145  0.551790  1
  Al  Al15  1  0.663855  0.663855  0.448210  1
  Al  Al16  1  0.668912  0.668912  0.045158  1
  Al  Al17  1  0.331088  0.331088  0.954842  1
  Al  Al18  1  0.343871  0.545720  0.249462  1
  Al  Al19  1  0.656129  0.454280  0.750538  1
  Al  Al20  1  0.545720  0.343871  0.249462  1
  Al  Al21  1  0.454280  0.656129  0.750538  1
  Re  Re22  1  0.000000  0.000000  0.000000  1
  Pd  Pd23  1  0.328159  0.671841  0.500000  1
  Pd  Pd24  1  0.671841  0.328159  0.500000  1
  Pd  Pd25  1  0.000000  0.000000  0.500000  1
  Pt  Pt26  1  0.671225  0.328775  0.000000  1
  Pt  Pt27  1  0.328775  0.671225  0.000000  1
