# generated using pymatgen
data_Ho3ErSc2(Si3Ru)8
_symmetry_space_group_name_H-M   'P 1'
_cell_length_a   10.06129993
_cell_length_b   10.06129938
_cell_length_c   8.09292915
_cell_angle_alpha   89.94930429
_cell_angle_beta   90.05069790
_cell_angle_gamma   132.62410044
_symmetry_Int_Tables_number   1
_chemical_formula_structural   Ho3ErSc2(Si3Ru)8
_chemical_formula_sum   'Ho3 Er1 Sc2 Si24 Ru8'
_cell_volume   602.81041837
_cell_formula_units_Z   1
loop_
 _symmetry_equiv_pos_site_id
 _symmetry_equiv_pos_as_xyz
  1  'x, y, z'
loop_
 _atom_site_type_symbol
 _atom_site_label
 _atom_site_symmetry_multiplicity
 _atom_site_fract_x
 _atom_site_fract_y
 _atom_site_fract_z
 _atom_site_occupancy
  Ho  Ho0  1  0.997476  0.497476  0.250000  1
  Ho  Ho1  1  0.497784  0.997784  0.250000  1
  Ho  Ho2  1  0.002230  0.502230  0.750000  1
  Er  Er3  1  0.502424  0.002424  0.750000  1
  Sc  Sc4  1  0.500025  0.499978  0.500015  1
  Sc  Sc5  1  0.999978  0.000025  0.999985  1
  Si  Si6  1  0.795685  0.205538  0.499972  1
  Si  Si7  1  0.294374  0.704313  0.999864  1
  Si  Si8  1  0.204313  0.794374  0.500136  1
  Si  Si9  1  0.705538  0.295685  0.000028  1
  Si  Si10  1  0.331285  0.331491  0.832412  1
  Si  Si11  1  0.668700  0.668514  0.167645  1
  Si  Si12  1  0.168514  0.168700  0.332355  1
  Si  Si13  1  0.831491  0.831285  0.667588  1
  Si  Si14  1  0.120229  0.887758  0.729739  1
  Si  Si15  1  0.110800  0.878026  0.270286  1
  Si  Si16  1  0.612855  0.380105  0.229967  1
  Si  Si17  1  0.621406  0.388735  0.770662  1
  Si  Si18  1  0.880105  0.112855  0.270033  1
  Si  Si19  1  0.888735  0.121406  0.729338  1
  Si  Si20  1  0.387758  0.620229  0.770261  1
  Si  Si21  1  0.378026  0.610800  0.229714  1
  Si  Si22  1  0.344587  0.113438  0.504646  1
  Si  Si23  1  0.885409  0.653265  0.495085  1
  Si  Si24  1  0.386541  0.155524  0.004008  1
  Si  Si25  1  0.846716  0.614603  0.995462  1
  Si  Si26  1  0.655524  0.886541  0.495992  1
  Si  Si27  1  0.114603  0.346716  0.504538  1
  Si  Si28  1  0.613438  0.844587  0.995354  1
  Si  Si29  1  0.153265  0.385409  0.004915  1
  Ru  Ru30  1  0.666677  0.329451  0.500732  1
  Ru  Ru31  1  0.170546  0.833357  0.999809  1
  Ru  Ru32  1  0.333357  0.670546  0.500191  1
  Ru  Ru33  1  0.829451  0.166677  0.999268  1
  Ru  Ru34  1  0.126677  0.126966  0.627984  1
  Ru  Ru35  1  0.873215  0.873293  0.371899  1
  Ru  Ru36  1  0.373293  0.373215  0.128101  1
  Ru  Ru37  1  0.626966  0.626677  0.872016  1
