# generated using pymatgen
data_CaSn3Rh6W
_symmetry_space_group_name_H-M   'P 1'
_cell_length_a   7.65312800
_cell_length_b   7.65312827
_cell_length_c   4.00051700
_cell_angle_alpha   90.00000000
_cell_angle_beta   90.00000000
_cell_angle_gamma   120.00000748
_symmetry_Int_Tables_number   1
_chemical_formula_structural   CaSn3Rh6W
_chemical_formula_sum   'Ca1 Sn3 Rh6 W1'
_cell_volume   202.91992288
_cell_formula_units_Z   1
loop_
 _symmetry_equiv_pos_site_id
 _symmetry_equiv_pos_as_xyz
  1  'x, y, z'
loop_
 _atom_site_type_symbol
 _atom_site_label
 _atom_site_symmetry_multiplicity
 _atom_site_fract_x
 _atom_site_fract_y
 _atom_site_fract_z
 _atom_site_occupancy
  Ca  Ca0  1  0.000000  0.000000  0.000000  1
  Sn  Sn1  1  0.806641  0.193359  0.500000  1
  Sn  Sn2  1  0.386717  0.193359  0.500000  1
  Sn  Sn3  1  0.806641  0.613283  0.500000  1
  Rh  Rh4  1  0.210261  0.789739  0.500000  1
  Rh  Rh5  1  0.210261  0.420521  0.500000  1
  Rh  Rh6  1  0.524946  0.049893  0.000000  1
  Rh  Rh7  1  0.950107  0.475054  0.000000  1
  Rh  Rh8  1  0.524946  0.475054  0.000000  1
  Rh  Rh9  1  0.579479  0.789739  0.500000  1
  W  W10  1  0.333333  0.666667  0.000000  1
