# generated using pymatgen
data_HoLu(ZnPd)2
_symmetry_space_group_name_H-M   'P 1'
_cell_length_a   3.91747600
_cell_length_b   7.10219200
_cell_length_c   8.25559700
_cell_angle_alpha   90.00000000
_cell_angle_beta   90.00000000
_cell_angle_gamma   90.00000000
_symmetry_Int_Tables_number   1
_chemical_formula_structural   HoLu(ZnPd)2
_chemical_formula_sum   'Ho2 Lu2 Zn4 Pd4'
_cell_volume   229.69272380
_cell_formula_units_Z   2
loop_
 _symmetry_equiv_pos_site_id
 _symmetry_equiv_pos_as_xyz
  1  'x, y, z'
loop_
 _atom_site_type_symbol
 _atom_site_label
 _atom_site_symmetry_multiplicity
 _atom_site_fract_x
 _atom_site_fract_y
 _atom_site_fract_z
 _atom_site_occupancy
  Ho  Ho0  1  0.250000  0.555651  0.812725  1
  Ho  Ho1  1  0.250000  0.055651  0.687275  1
  Lu  Lu2  1  0.750000  0.443872  0.188119  1
  Lu  Lu3  1  0.750000  0.943872  0.311881  1
  Zn  Zn4  1  0.750000  0.872105  0.935718  1
  Zn  Zn5  1  0.750000  0.372105  0.564282  1
  Zn  Zn6  1  0.250000  0.127918  0.066028  1
  Zn  Zn7  1  0.250000  0.627918  0.433972  1
  Pd  Pd8  1  0.750000  0.259292  0.879028  1
  Pd  Pd9  1  0.750000  0.759292  0.620972  1
  Pd  Pd10  1  0.250000  0.741162  0.125306  1
  Pd  Pd11  1  0.250000  0.241162  0.374694  1
