# generated using pymatgen
data_Dy3CoSn3IrPt
_symmetry_space_group_name_H-M   'P 1'
_cell_length_a   7.56389000
_cell_length_b   7.56389009
_cell_length_c   3.81133500
_cell_angle_alpha   90.00000000
_cell_angle_beta   90.00000000
_cell_angle_gamma   119.99999201
_symmetry_Int_Tables_number   1
_chemical_formula_structural   Dy3CoSn3IrPt
_chemical_formula_sum   'Dy3 Co1 Sn3 Ir1 Pt1'
_cell_volume   188.84183151
_cell_formula_units_Z   1
loop_
 _symmetry_equiv_pos_site_id
 _symmetry_equiv_pos_as_xyz
  1  'x, y, z'
loop_
 _atom_site_type_symbol
 _atom_site_label
 _atom_site_symmetry_multiplicity
 _atom_site_fract_x
 _atom_site_fract_y
 _atom_site_fract_z
 _atom_site_occupancy
  Dy  Dy0  1  0.409850  0.402879  0.500000  1
  Dy  Dy1  1  0.597121  0.006972  0.500000  1
  Dy  Dy2  1  0.993028  0.590150  0.500000  1
  Co  Co3  1  0.000000  0.000000  0.500000  1
  Sn  Sn4  1  0.750611  0.748195  0.000000  1
  Sn  Sn5  1  0.251805  0.002417  0.000000  1
  Sn  Sn6  1  0.997583  0.249389  0.000000  1
  Ir  Ir7  1  0.666667  0.333333  0.000000  1
  Pt  Pt8  1  0.333333  0.666667  0.000000  1
