# generated using pymatgen
data_CaLa16Hg3Ir4
_symmetry_space_group_name_H-M   'P 1'
_cell_length_a   10.18340525
_cell_length_b   10.18265243
_cell_length_c   10.18371118
_cell_angle_alpha   60.37295976
_cell_angle_beta   60.40459464
_cell_angle_gamma   60.25738612
_symmetry_Int_Tables_number   1
_chemical_formula_structural   CaLa16Hg3Ir4
_chemical_formula_sum   'Ca1 La16 Hg3 Ir4'
_cell_volume   752.52284347
_cell_formula_units_Z   1
loop_
 _symmetry_equiv_pos_site_id
 _symmetry_equiv_pos_as_xyz
  1  'x, y, z'
loop_
 _atom_site_type_symbol
 _atom_site_label
 _atom_site_symmetry_multiplicity
 _atom_site_fract_x
 _atom_site_fract_y
 _atom_site_fract_z
 _atom_site_occupancy
  Ca  Ca0  1  0.562764  0.562758  0.562685  1
  La  La1  1  0.348969  0.349161  0.348329  1
  La  La2  1  0.344716  0.344684  0.966171  1
  La  La3  1  0.344126  0.966647  0.344288  1
  La  La4  1  0.966544  0.344251  0.344402  1
  La  La5  1  0.808542  0.192589  0.192861  1
  La  La6  1  0.184353  0.815681  0.815722  1
  La  La7  1  0.192554  0.808693  0.192749  1
  La  La8  1  0.815691  0.184192  0.815720  1
  La  La9  1  0.192990  0.192938  0.808008  1
  La  La10  1  0.815721  0.815713  0.184958  1
  La  La11  1  0.941208  0.562087  0.561887  1
  La  La12  1  0.559428  0.941693  0.942028  1
  La  La13  1  0.562015  0.941026  0.561891  1
  La  La14  1  0.941735  0.559434  0.942008  1
  La  La15  1  0.562112  0.562148  0.941712  1
  La  La16  1  0.941830  0.941747  0.559530  1
  Hg  Hg17  1  0.589750  0.589649  0.232588  1
  Hg  Hg18  1  0.589562  0.232661  0.589798  1
  Hg  Hg19  1  0.232670  0.589546  0.589798  1
  Ir  Ir20  1  0.141448  0.141352  0.141760  1
  Ir  Ir21  1  0.142040  0.142016  0.577379  1
  Ir  Ir22  1  0.141740  0.577540  0.141834  1
  Ir  Ir23  1  0.577494  0.141794  0.141892  1
