# generated using pymatgen
data_Pr8Zn(Si4Ir)3
_symmetry_space_group_name_H-M   'P 1'
_cell_length_a   8.25778200
_cell_length_b   8.25778301
_cell_length_c   8.62182800
_cell_angle_alpha   90.00000000
_cell_angle_beta   90.00000000
_cell_angle_gamma   120.00001199
_symmetry_Int_Tables_number   1
_chemical_formula_structural   Pr8Zn(Si4Ir)3
_chemical_formula_sum   'Pr8 Zn1 Si12 Ir3'
_cell_volume   509.16297358
_cell_formula_units_Z   1
loop_
 _symmetry_equiv_pos_site_id
 _symmetry_equiv_pos_as_xyz
  1  'x, y, z'
loop_
 _atom_site_type_symbol
 _atom_site_label
 _atom_site_symmetry_multiplicity
 _atom_site_fract_x
 _atom_site_fract_y
 _atom_site_fract_z
 _atom_site_occupancy
  Pr  Pr0  1  0.497805  0.502195  0.745940  1
  Pr  Pr1  1  0.498644  0.501356  0.254001  1
  Pr  Pr2  1  0.004390  0.502195  0.745940  1
  Pr  Pr3  1  0.002714  0.501356  0.254001  1
  Pr  Pr4  1  0.497805  0.995610  0.745940  1
  Pr  Pr5  1  0.498644  0.997286  0.254001  1
  Pr  Pr6  1  0.000000  0.000000  0.749524  1
  Pr  Pr7  1  0.000000  0.000000  0.251105  1
  Zn  Zn8  1  0.666667  0.333333  0.996107  1
  Si  Si9  1  0.836723  0.163277  0.000968  1
  Si  Si10  1  0.168248  0.831752  0.999402  1
  Si  Si11  1  0.326554  0.163277  0.000968  1
  Si  Si12  1  0.166794  0.833206  0.500076  1
  Si  Si13  1  0.663503  0.831752  0.999402  1
  Si  Si14  1  0.832852  0.167148  0.500103  1
  Si  Si15  1  0.836723  0.673446  0.000968  1
  Si  Si16  1  0.666412  0.833206  0.500076  1
  Si  Si17  1  0.168248  0.336497  0.999402  1
  Si  Si18  1  0.334296  0.167148  0.500103  1
  Si  Si19  1  0.166794  0.333588  0.500076  1
  Si  Si20  1  0.832852  0.665704  0.500103  1
  Ir  Ir21  1  0.333333  0.666667  0.001650  1
  Ir  Ir22  1  0.333333  0.666667  0.498637  1
  Ir  Ir23  1  0.666667  0.333333  0.501505  1
