# generated using pymatgen
data_Pr4S4Br3Cl
_symmetry_space_group_name_H-M   'P 1'
_cell_length_a   7.11540031
_cell_length_b   7.03709915
_cell_length_c   7.12098727
_cell_angle_alpha   79.82369592
_cell_angle_beta   91.09094163
_cell_angle_gamma   90.57481713
_symmetry_Int_Tables_number   1
_chemical_formula_structural   Pr4S4Br3Cl
_chemical_formula_sum   'Pr4 S4 Br3 Cl1'
_cell_volume   350.87968030
_cell_formula_units_Z   1
loop_
 _symmetry_equiv_pos_site_id
 _symmetry_equiv_pos_as_xyz
  1  'x, y, z'
loop_
 _atom_site_type_symbol
 _atom_site_label
 _atom_site_symmetry_multiplicity
 _atom_site_fract_x
 _atom_site_fract_y
 _atom_site_fract_z
 _atom_site_occupancy
  Pr  Pr0  1  0.959333  0.791789  0.314500  1
  Pr  Pr1  1  0.034676  0.211734  0.679718  1
  Pr  Pr2  1  0.468762  0.712170  0.690477  1
  Pr  Pr3  1  0.529616  0.297237  0.318438  1
  S  S4  1  0.739704  0.994612  0.544972  1
  S  S5  1  0.256694  0.009499  0.452913  1
  S  S6  1  0.241246  0.514642  0.450538  1
  S  S7  1  0.757117  0.495564  0.553346  1
  Br  Br8  1  0.384025  0.289943  0.916573  1
  Br  Br9  1  0.120664  0.793021  0.920553  1
  Br  Br10  1  0.878800  0.205205  0.079352  1
  Cl  Cl11  1  0.629365  0.684584  0.078620  1
