# generated using pymatgen
data_SmMn2P6BrN12
_symmetry_space_group_name_H-M   'P 1'
_cell_length_a   7.39811487
_cell_length_b   7.38339884
_cell_length_c   7.39811557
_cell_angle_alpha   109.57742921
_cell_angle_beta   109.65818943
_cell_angle_gamma   109.57741800
_symmetry_Int_Tables_number   1
_chemical_formula_structural   SmMn2P6BrN12
_chemical_formula_sum   'Sm1 Mn2 P6 Br1 N12'
_cell_volume   309.54032550
_cell_formula_units_Z   1
loop_
 _symmetry_equiv_pos_site_id
 _symmetry_equiv_pos_as_xyz
  1  'x, y, z'
loop_
 _atom_site_type_symbol
 _atom_site_label
 _atom_site_symmetry_multiplicity
 _atom_site_fract_x
 _atom_site_fract_y
 _atom_site_fract_z
 _atom_site_occupancy
  Sm  Sm0  1  0.016694  0.345845  0.016694  1
  Mn  Mn1  1  0.003142  0.007525  0.388450  1
  Mn  Mn2  1  0.388450  0.007525  0.003142  1
  P  P3  1  0.499359  0.260160  0.746072  1
  P  P4  1  0.250209  0.754216  0.498883  1
  P  P5  1  0.742834  0.505707  0.258719  1
  P  P6  1  0.746072  0.260160  0.499359  1
  P  P7  1  0.498883  0.754216  0.250209  1
  P  P8  1  0.258719  0.505707  0.742834  1
  Br  Br9  1  0.007748  0.948641  0.007748  1
  N  N10  1  0.386577  0.682596  0.386577  1
  N  N11  1  0.698781  0.423816  0.421165  1
  N  N12  1  0.421165  0.423816  0.698781  1
  N  N13  1  0.715866  0.286734  0.715866  1
  N  N14  1  0.992386  0.578097  0.293191  1
  N  N15  1  0.293191  0.578097  0.992386  1
  N  N16  1  0.284501  0.004000  0.570063  1
  N  N17  1  0.998630  0.288135  0.575599  1
  N  N18  1  0.718108  0.726434  0.293022  1
  N  N19  1  0.570063  0.004000  0.284501  1
  N  N20  1  0.293022  0.726434  0.718108  1
  N  N21  1  0.575599  0.288135  0.998630  1
