# generated using pymatgen
data_Tb13Ce3(HgRu)4
_symmetry_space_group_name_H-M   'P 1'
_cell_length_a   9.58520313
_cell_length_b   9.65873125
_cell_length_c   9.65873000
_cell_angle_alpha   59.99999742
_cell_angle_beta   59.74591657
_cell_angle_gamma   59.74592315
_symmetry_Int_Tables_number   1
_chemical_formula_structural   Tb13Ce3(HgRu)4
_chemical_formula_sum   'Tb13 Ce3 Hg4 Ru4'
_cell_volume   629.86551258
_cell_formula_units_Z   1
loop_
 _symmetry_equiv_pos_site_id
 _symmetry_equiv_pos_as_xyz
  1  'x, y, z'
loop_
 _atom_site_type_symbol
 _atom_site_label
 _atom_site_symmetry_multiplicity
 _atom_site_fract_x
 _atom_site_fract_y
 _atom_site_fract_z
 _atom_site_occupancy
  Tb  Tb0  1  0.191245  0.602918  0.602918  1
  Tb  Tb1  1  0.061793  0.438998  0.438998  1
  Tb  Tb2  1  0.440260  0.060047  0.060047  1
  Tb  Tb3  1  0.440260  0.060047  0.439646  1
  Tb  Tb4  1  0.061793  0.438998  0.060212  1
  Tb  Tb5  1  0.440260  0.439646  0.060047  1
  Tb  Tb6  1  0.061793  0.060212  0.438998  1
  Tb  Tb7  1  0.188137  0.812480  0.812480  1
  Tb  Tb8  1  0.811429  0.188118  0.188118  1
  Tb  Tb9  1  0.811429  0.188118  0.812335  1
  Tb  Tb10  1  0.188137  0.812480  0.186902  1
  Tb  Tb11  1  0.811429  0.812335  0.188118  1
  Tb  Tb12  1  0.188137  0.186902  0.812480  1
  Ce  Ce13  1  0.593099  0.597024  0.597024  1
  Ce  Ce14  1  0.593099  0.597024  0.212853  1
  Ce  Ce15  1  0.593099  0.212853  0.597024  1
  Hg  Hg16  1  0.833521  0.834223  0.834223  1
  Hg  Hg17  1  0.833521  0.834223  0.498033  1
  Hg  Hg18  1  0.833521  0.498033  0.834223  1
  Hg  Hg19  1  0.498953  0.833682  0.833682  1
  Ru  Ru20  1  0.402636  0.389392  0.389392  1
  Ru  Ru21  1  0.402636  0.389392  0.818580  1
  Ru  Ru22  1  0.402636  0.818580  0.389392  1
  Ru  Ru23  1  0.817181  0.394273  0.394273  1
