# generated using pymatgen
data_Tb5Lu3(Ga3Pt)4
_symmetry_space_group_name_H-M   'P 1'
_cell_length_a   8.86241300
_cell_length_b   8.86241348
_cell_length_c   7.02869500
_cell_angle_alpha   90.00000000
_cell_angle_beta   90.00000000
_cell_angle_gamma   120.00258226
_symmetry_Int_Tables_number   1
_chemical_formula_structural   Tb5Lu3(Ga3Pt)4
_chemical_formula_sum   'Tb5 Lu3 Ga12 Pt4'
_cell_volume   478.07718872
_cell_formula_units_Z   1
loop_
 _symmetry_equiv_pos_site_id
 _symmetry_equiv_pos_as_xyz
  1  'x, y, z'
loop_
 _atom_site_type_symbol
 _atom_site_label
 _atom_site_symmetry_multiplicity
 _atom_site_fract_x
 _atom_site_fract_y
 _atom_site_fract_z
 _atom_site_occupancy
  Tb  Tb0  1  0.000110  0.999890  0.250000  1
  Tb  Tb1  1  0.999888  0.000112  0.750000  1
  Tb  Tb2  1  0.519652  0.039393  0.250000  1
  Tb  Tb3  1  0.519559  0.480441  0.250000  1
  Tb  Tb4  1  0.960607  0.480348  0.250000  1
  Lu  Lu5  1  0.479255  0.958441  0.750000  1
  Lu  Lu6  1  0.479403  0.520597  0.750000  1
  Lu  Lu7  1  0.041559  0.520745  0.750000  1
  Ga  Ga8  1  0.167196  0.334526  0.045493  1
  Ga  Ga9  1  0.167386  0.832614  0.454526  1
  Ga  Ga10  1  0.665474  0.832804  0.454507  1
  Ga  Ga11  1  0.665474  0.832804  0.045493  1
  Ga  Ga12  1  0.167386  0.832614  0.045474  1
  Ga  Ga13  1  0.832527  0.664922  0.951505  1
  Ga  Ga14  1  0.832329  0.167671  0.951506  1
  Ga  Ga15  1  0.335078  0.167473  0.951505  1
  Ga  Ga16  1  0.167196  0.334526  0.454507  1
  Ga  Ga17  1  0.335078  0.167473  0.548495  1
  Ga  Ga18  1  0.832527  0.664922  0.548495  1
  Ga  Ga19  1  0.832329  0.167671  0.548494  1
  Pt  Pt20  1  0.333403  0.666597  0.024131  1
  Pt  Pt21  1  0.333403  0.666597  0.475869  1
  Pt  Pt22  1  0.666590  0.333410  0.966628  1
  Pt  Pt23  1  0.666590  0.333410  0.533372  1
