# generated using pymatgen
data_Sm7YSc11Si16Ag
_symmetry_space_group_name_H-M   'P 1'
_cell_length_a   7.10733332
_cell_length_b   7.45657010
_cell_length_c   14.12958234
_cell_angle_alpha   89.93943718
_cell_angle_beta   89.97369544
_cell_angle_gamma   89.86987093
_symmetry_Int_Tables_number   1
_chemical_formula_structural   Sm7YSc11Si16Ag
_chemical_formula_sum   'Sm7 Y1 Sc11 Si16 Ag1'
_cell_volume   748.81356896
_cell_formula_units_Z   1
loop_
 _symmetry_equiv_pos_site_id
 _symmetry_equiv_pos_as_xyz
  1  'x, y, z'
loop_
 _atom_site_type_symbol
 _atom_site_label
 _atom_site_symmetry_multiplicity
 _atom_site_fract_x
 _atom_site_fract_y
 _atom_site_fract_z
 _atom_site_occupancy
  Sm  Sm0  1  0.990389  0.816844  0.900101  1
  Sm  Sm1  1  0.481446  0.672878  0.900017  1
  Sm  Sm2  1  0.990485  0.817011  0.600250  1
  Sm  Sm3  1  0.511750  0.324888  0.097334  1
  Sm  Sm4  1  0.011468  0.172616  0.403086  1
  Sm  Sm5  1  0.511809  0.325045  0.402497  1
  Sm  Sm6  1  0.481697  0.673197  0.600276  1
  Y  Y7  1  0.011686  0.173880  0.097572  1
  Sc  Sc8  1  0.839470  0.498761  0.249685  1
  Sc  Sc9  1  0.340051  0.001194  0.249772  1
  Sc  Sc10  1  0.658343  0.001100  0.750031  1
  Sc  Sc11  1  0.326543  0.183228  0.625881  1
  Sc  Sc12  1  0.671417  0.823286  0.375039  1
  Sc  Sc13  1  0.171345  0.678273  0.373809  1
  Sc  Sc14  1  0.671539  0.823587  0.124707  1
  Sc  Sc15  1  0.835346  0.327575  0.625998  1
  Sc  Sc16  1  0.326502  0.183435  0.874221  1
  Sc  Sc17  1  0.835446  0.327042  0.874105  1
  Sc  Sc18  1  0.170947  0.678379  0.125964  1
  Si  Si19  1  0.029960  0.107992  0.750092  1
  Si  Si20  1  0.968225  0.882495  0.249550  1
  Si  Si21  1  0.467486  0.621794  0.249919  1
  Si  Si22  1  0.539954  0.380167  0.750033  1
  Si  Si23  1  0.289675  0.893977  0.750039  1
  Si  Si24  1  0.713636  0.122062  0.249185  1
  Si  Si25  1  0.211205  0.376473  0.249466  1
  Si  Si26  1  0.776925  0.622962  0.750061  1
  Si  Si27  1  0.156755  0.459671  0.531783  1
  Si  Si28  1  0.846330  0.536154  0.461249  1
  Si  Si29  1  0.347700  0.964160  0.462338  1
  Si  Si30  1  0.846629  0.535037  0.039106  1
  Si  Si31  1  0.655325  0.034451  0.540422  1
  Si  Si32  1  0.156512  0.458069  0.968740  1
  Si  Si33  1  0.655641  0.034605  0.959596  1
  Si  Si34  1  0.345996  0.964964  0.038066  1
  Ag  Ag35  1  0.154369  0.502748  0.750010  1
