# generated using pymatgen
data_Sr2Pa2(Al8Pt3)3
_symmetry_space_group_name_H-M   'P 1'
_cell_length_a   7.59553484
_cell_length_b   7.58954575
_cell_length_c   13.25151454
_cell_angle_alpha   84.55471475
_cell_angle_beta   101.00534364
_cell_angle_gamma   119.87266142
_symmetry_Int_Tables_number   1
_chemical_formula_structural   Sr2Pa2(Al8Pt3)3
_chemical_formula_sum   'Sr2 Pa2 Al24 Pt9'
_cell_volume   650.22672966
_cell_formula_units_Z   1
loop_
 _symmetry_equiv_pos_site_id
 _symmetry_equiv_pos_as_xyz
  1  'x, y, z'
loop_
 _atom_site_type_symbol
 _atom_site_label
 _atom_site_symmetry_multiplicity
 _atom_site_fract_x
 _atom_site_fract_y
 _atom_site_fract_z
 _atom_site_occupancy
  Sr  Sr0  1  0.768731  0.501736  0.809289  1
  Sr  Sr1  1  0.231269  0.498264  0.190711  1
  Pa  Pa2  1  0.434477  0.830783  0.803658  1
  Pa  Pa3  1  0.565523  0.169217  0.196342  1
  Al  Al4  1  0.480742  0.164436  0.946478  1
  Al  Al5  1  0.519258  0.835564  0.053522  1
  Al  Al6  1  0.021335  0.167338  0.560160  1
  Al  Al7  1  0.978665  0.832662  0.439840  1
  Al  Al8  1  0.351987  0.832626  0.557576  1
  Al  Al9  1  0.648013  0.167374  0.442424  1
  Al  Al10  1  0.618485  0.831745  0.333236  1
  Al  Al11  1  0.381515  0.168255  0.666764  1
  Al  Al12  1  0.052031  0.489819  0.667541  1
  Al  Al13  1  0.947969  0.510181  0.332459  1
  Al  Al14  1  0.732029  0.840632  0.666176  1
  Al  Al15  1  0.267971  0.159368  0.333824  1
  Al  Al16  1  0.149721  0.499775  0.945294  1
  Al  Al17  1  0.850279  0.500225  0.054706  1
  Al  Al18  1  0.817477  0.834199  0.955131  1
  Al  Al19  1  0.182523  0.165801  0.044869  1
  Al  Al20  1  0.314458  0.499457  0.442151  1
  Al  Al21  1  0.685542  0.500543  0.557849  1
  Al  Al22  1  0.104088  0.845416  0.182833  1
  Al  Al23  1  0.895912  0.154584  0.817167  1
  Al  Al24  1  0.301281  0.370647  0.815873  1
  Al  Al25  1  0.698719  0.629353  0.184127  1
  Al  Al26  1  0.111449  0.965711  0.816828  1
  Al  Al27  1  0.888551  0.034289  0.183172  1
  Pt  Pt28  1  0.385080  0.508716  0.638518  1
  Pt  Pt29  1  0.614920  0.491284  0.361482  1
  Pt  Pt30  1  0.172331  0.830081  0.000036  1
  Pt  Pt31  1  0.827669  0.169919  0.999964  1
  Pt  Pt32  1  0.296577  0.836392  0.362003  1
  Pt  Pt33  1  0.703423  0.163608  0.637997  1
  Pt  Pt34  1  0.049152  0.827571  0.637645  1
  Pt  Pt35  1  0.950848  0.172429  0.362355  1
  Pt  Pt36  1  0.500000  0.500000  0.000000  1
