# generated using pymatgen
data_La4TbEuIn6O18
_symmetry_space_group_name_H-M   'P 1'
_cell_length_a   6.59041500
_cell_length_b   6.59041578
_cell_length_c   12.49612300
_cell_angle_alpha   90.00000000
_cell_angle_beta   90.00000000
_cell_angle_gamma   119.99999107
_symmetry_Int_Tables_number   1
_chemical_formula_structural   La4TbEuIn6O18
_chemical_formula_sum   'La4 Tb1 Eu1 In6 O18'
_cell_volume   470.03645225
_cell_formula_units_Z   1
loop_
 _symmetry_equiv_pos_site_id
 _symmetry_equiv_pos_as_xyz
  1  'x, y, z'
loop_
 _atom_site_type_symbol
 _atom_site_label
 _atom_site_symmetry_multiplicity
 _atom_site_fract_x
 _atom_site_fract_y
 _atom_site_fract_z
 _atom_site_occupancy
  La  La0  1  0.666667  0.333333  0.964891  1
  La  La1  1  0.333333  0.666667  0.466020  1
  La  La2  1  0.666667  0.333333  0.466020  1
  La  La3  1  0.333333  0.666667  0.964891  1
  Tb  Tb4  1  0.000000  0.000000  0.997378  1
  Eu  Eu5  1  0.000000  0.000000  0.493297  1
  In  In6  1  0.670764  0.670764  0.728485  1
  In  In7  1  0.000000  0.329236  0.728485  1
  In  In8  1  0.331000  0.331000  0.226847  1
  In  In9  1  0.000000  0.669000  0.226847  1
  In  In10  1  0.329236  0.000000  0.728485  1
  In  In11  1  0.669000  0.000000  0.226847  1
  O  O12  1  0.699812  0.699812  0.897324  1
  O  O13  1  0.000000  0.300188  0.897324  1
  O  O14  1  0.307693  0.307693  0.395749  1
  O  O15  1  0.000000  0.692307  0.395749  1
  O  O16  1  0.300188  0.000000  0.897324  1
  O  O17  1  0.692307  0.000000  0.395749  1
  O  O18  1  0.652882  0.652882  0.559646  1
  O  O19  1  0.000000  0.347118  0.559646  1
  O  O20  1  0.342576  0.342576  0.058177  1
  O  O21  1  0.000000  0.657424  0.058177  1
  O  O22  1  0.347118  0.000000  0.559646  1
  O  O23  1  0.657424  0.000000  0.058177  1
  O  O24  1  0.000000  0.000000  0.700658  1
  O  O25  1  0.000000  0.000000  0.198743  1
  O  O26  1  0.666667  0.333333  0.746590  1
  O  O27  1  0.333333  0.666667  0.244005  1
  O  O28  1  0.666667  0.333333  0.244005  1
  O  O29  1  0.333333  0.666667  0.746590  1
