# generated using pymatgen
data_Li2Co4Ni5P7W3
_symmetry_space_group_name_H-M   'P 1'
_cell_length_a   9.08704018
_cell_length_b   9.05607290
_cell_length_c   3.65103500
_cell_angle_alpha   90.00000000
_cell_angle_beta   90.00000000
_cell_angle_gamma   120.05452683
_symmetry_Int_Tables_number   1
_chemical_formula_structural   Li2Co4Ni5P7W3
_chemical_formula_sum   'Li2 Co4 Ni5 P7 W3'
_cell_volume   260.05793002
_cell_formula_units_Z   1
loop_
 _symmetry_equiv_pos_site_id
 _symmetry_equiv_pos_as_xyz
  1  'x, y, z'
loop_
 _atom_site_type_symbol
 _atom_site_label
 _atom_site_symmetry_multiplicity
 _atom_site_fract_x
 _atom_site_fract_y
 _atom_site_fract_z
 _atom_site_occupancy
  Li  Li0  1  0.334589  0.668520  0.000000  1
  Li  Li1  1  0.666179  0.333212  0.500000  1
  Co  Co2  1  0.718242  0.879617  0.000000  1
  Co  Co3  1  0.161442  0.282351  0.000000  1
  Co  Co4  1  0.121011  0.837778  0.000000  1
  Co  Co5  1  0.561184  0.952214  0.500000  1
  Ni  Ni6  1  0.625760  0.564281  0.000000  1
  Ni  Ni7  1  0.934948  0.370860  0.000000  1
  Ni  Ni8  1  0.434892  0.062120  0.000000  1
  Ni  Ni9  1  0.390737  0.443687  0.500000  1
  Ni  Ni10  1  0.051866  0.609155  0.500000  1
  P  P11  1  0.583142  0.717540  0.500000  1
  P  P12  1  0.129859  0.416054  0.500000  1
  P  P13  1  0.289614  0.869617  0.500000  1
  P  P14  1  0.999996  0.999689  0.000000  1
  P  P15  1  0.879438  0.582650  0.000000  1
  P  P16  1  0.698482  0.114516  0.000000  1
  P  P17  1  0.416315  0.298047  0.000000  1
  W  W18  1  0.874464  0.776777  0.500000  1
  W  W19  1  0.904600  0.125290  0.500000  1
  W  W20  1  0.223238  0.096025  0.500000  1
