# generated using pymatgen
data_Nd2TmLu17Bi12
_symmetry_space_group_name_H-M   'P 1'
_cell_length_a   8.19694092
_cell_length_b   9.41974500
_cell_length_c   11.89019103
_cell_angle_alpha   90.00000000
_cell_angle_beta   90.02290949
_cell_angle_gamma   90.00000000
_symmetry_Int_Tables_number   1
_chemical_formula_structural   Nd2TmLu17Bi12
_chemical_formula_sum   'Nd2 Tm1 Lu17 Bi12'
_cell_volume   918.07835585
_cell_formula_units_Z   1
loop_
 _symmetry_equiv_pos_site_id
 _symmetry_equiv_pos_as_xyz
  1  'x, y, z'
loop_
 _atom_site_type_symbol
 _atom_site_label
 _atom_site_symmetry_multiplicity
 _atom_site_fract_x
 _atom_site_fract_y
 _atom_site_fract_z
 _atom_site_occupancy
  Nd  Nd0  1  0.814252  0.750000  0.218616  1
  Nd  Nd1  1  0.685825  0.250000  0.718571  1
  Tm  Tm2  1  0.313247  0.750000  0.282974  1
  Lu  Lu3  1  0.024387  0.250000  0.510950  1
  Lu  Lu4  1  0.976708  0.750000  0.488914  1
  Lu  Lu5  1  0.475567  0.750000  0.010470  1
  Lu  Lu6  1  0.523288  0.250000  0.988594  1
  Lu  Lu7  1  0.354155  0.250000  0.281373  1
  Lu  Lu8  1  0.644305  0.750000  0.718526  1
  Lu  Lu9  1  0.145780  0.750000  0.781379  1
  Lu  Lu10  1  0.855661  0.250000  0.218296  1
  Lu  Lu11  1  0.187080  0.250000  0.783471  1
  Lu  Lu12  1  0.193234  0.067341  0.060504  1
  Lu  Lu13  1  0.806847  0.932604  0.939354  1
  Lu  Lu14  1  0.306965  0.932627  0.560671  1
  Lu  Lu15  1  0.806847  0.567396  0.939354  1
  Lu  Lu16  1  0.692894  0.067452  0.439393  1
  Lu  Lu17  1  0.193234  0.432659  0.060504  1
  Lu  Lu18  1  0.692894  0.432548  0.439393  1
  Lu  Lu19  1  0.306965  0.567373  0.560671  1
  Bi  Bi20  1  0.400081  0.250000  0.538870  1
  Bi  Bi21  1  0.593766  0.750000  0.459974  1
  Bi  Bi22  1  0.099439  0.750000  0.038666  1
  Bi  Bi23  1  0.906770  0.250000  0.959479  1
  Bi  Bi24  1  0.069658  0.006308  0.326768  1
  Bi  Bi25  1  0.937774  0.993086  0.673758  1
  Bi  Bi26  1  0.429616  0.994134  0.826661  1
  Bi  Bi27  1  0.937774  0.506914  0.673758  1
  Bi  Bi28  1  0.562855  0.007308  0.173330  1
  Bi  Bi29  1  0.069658  0.493692  0.326768  1
  Bi  Bi30  1  0.562855  0.492692  0.173330  1
  Bi  Bi31  1  0.429616  0.505866  0.826661  1
