# generated using pymatgen
data_Ba5Si3H
_symmetry_space_group_name_H-M   'P 1'
_cell_length_a   10.23148965
_cell_length_b   10.23148936
_cell_length_c   10.23148970
_cell_angle_alpha   130.73039651
_cell_angle_beta   130.73039931
_cell_angle_gamma   72.24177322
_symmetry_Int_Tables_number   1
_chemical_formula_structural   Ba5Si3H
_chemical_formula_sum   'Ba10 Si6 H2'
_cell_volume   601.29994604
_cell_formula_units_Z   2
loop_
 _symmetry_equiv_pos_site_id
 _symmetry_equiv_pos_as_xyz
  1  'x, y, z'
loop_
 _atom_site_type_symbol
 _atom_site_label
 _atom_site_symmetry_multiplicity
 _atom_site_fract_x
 _atom_site_fract_y
 _atom_site_fract_z
 _atom_site_occupancy
  Ba  Ba0  1  0.500000  0.500000  0.000000  1
  Ba  Ba1  1  0.000000  0.000000  0.000000  1
  Ba  Ba2  1  0.524930  0.024930  0.847786  1
  Ba  Ba3  1  0.177144  0.677144  0.152214  1
  Ba  Ba4  1  0.024930  0.177144  0.500000  1
  Ba  Ba5  1  0.677144  0.524930  0.500000  1
  Ba  Ba6  1  0.475070  0.975070  0.152214  1
  Ba  Ba7  1  0.822856  0.322856  0.847786  1
  Ba  Ba8  1  0.975070  0.822856  0.500000  1
  Ba  Ba9  1  0.322856  0.475070  0.500000  1
  Si  Si10  1  0.250000  0.250000  0.000000  1
  Si  Si11  1  0.750000  0.750000  0.000000  1
  Si  Si12  1  0.900665  0.400665  0.301329  1
  Si  Si13  1  0.099335  0.599335  0.698671  1
  Si  Si14  1  0.400665  0.099335  0.500000  1
  Si  Si15  1  0.599335  0.900665  0.500000  1
  H  H16  1  0.250000  0.750000  0.500000  1
  H  H17  1  0.750000  0.250000  0.500000  1
