# generated using pymatgen
data_Ca5Ce(SbO6)2
_symmetry_space_group_name_H-M   'P 1'
_cell_length_a   5.89539357
_cell_length_b   5.66014449
_cell_length_c   9.97316664
_cell_angle_alpha   55.26446225
_cell_angle_beta   90.19273597
_cell_angle_gamma   90.00613203
_symmetry_Int_Tables_number   1
_chemical_formula_structural   Ca5Ce(SbO6)2
_chemical_formula_sum   'Ca5 Ce1 Sb2 O12'
_cell_volume   273.48351605
_cell_formula_units_Z   1
loop_
 _symmetry_equiv_pos_site_id
 _symmetry_equiv_pos_as_xyz
  1  'x, y, z'
loop_
 _atom_site_type_symbol
 _atom_site_label
 _atom_site_symmetry_multiplicity
 _atom_site_fract_x
 _atom_site_fract_y
 _atom_site_fract_z
 _atom_site_occupancy
  Ca  Ca0  1  0.548327  0.722858  0.762344  1
  Ca  Ca1  1  0.058627  0.245454  0.770433  1
  Ca  Ca2  1  0.941373  0.754546  0.229567  1
  Ca  Ca3  1  0.451673  0.277142  0.237656  1
  Ca  Ca4  1  0.500000  0.000000  0.000000  1
  Ce  Ce5  1  0.000000  0.000000  0.500000  1
  Sb  Sb6  1  0.000000  0.500000  0.000000  1
  Sb  Sb7  1  0.500000  0.500000  0.500000  1
  O  O8  1  0.555766  0.844059  0.275581  1
  O  O9  1  0.052646  0.148317  0.238593  1
  O  O10  1  0.444234  0.155941  0.724419  1
  O  O11  1  0.947354  0.851683  0.761407  1
  O  O12  1  0.784750  0.608855  0.574106  1
  O  O13  1  0.279972  0.387302  0.936454  1
  O  O14  1  0.215250  0.391145  0.425894  1
  O  O15  1  0.720028  0.612698  0.063546  1
  O  O16  1  0.181395  0.738058  0.048176  1
  O  O17  1  0.689628  0.269672  0.440895  1
  O  O18  1  0.818605  0.261942  0.951824  1
  O  O19  1  0.310372  0.730328  0.559105  1
