# generated using pymatgen
data_In14AgPt5
_symmetry_space_group_name_H-M   'P 1'
_cell_length_a   8.34219176
_cell_length_b   8.34219036
_cell_length_c   8.34219103
_cell_angle_alpha   109.50713898
_cell_angle_beta   109.50712873
_cell_angle_gamma   109.39941815
_symmetry_Int_Tables_number   1
_chemical_formula_structural   In14AgPt5
_chemical_formula_sum   'In14 Ag1 Pt5'
_cell_volume   446.90785922
_cell_formula_units_Z   1
loop_
 _symmetry_equiv_pos_site_id
 _symmetry_equiv_pos_as_xyz
  1  'x, y, z'
loop_
 _atom_site_type_symbol
 _atom_site_label
 _atom_site_symmetry_multiplicity
 _atom_site_fract_x
 _atom_site_fract_y
 _atom_site_fract_z
 _atom_site_occupancy
  In  In0  1  0.749642  0.249642  0.500000  1
  In  In1  1  0.748118  0.494701  0.253416  1
  In  In2  1  0.494701  0.241286  0.746584  1
  In  In3  1  0.241286  0.494701  0.746584  1
  In  In4  1  0.249642  0.749642  0.500000  1
  In  In5  1  0.494701  0.748118  0.253416  1
  In  In6  1  0.005835  0.005835  0.331410  1
  In  In7  1  0.000214  0.326833  0.000000  1
  In  In8  1  0.326833  0.000214  0.000000  1
  In  In9  1  0.674426  0.674426  0.668590  1
  In  In10  1  0.000214  0.000214  0.673381  1
  In  In11  1  0.005835  0.674426  0.000000  1
  In  In12  1  0.674426  0.005835  0.000000  1
  In  In13  1  0.326833  0.326833  0.326619  1
  Ag  Ag14  1  0.654848  0.654848  0.000000  1
  Pt  Pt15  1  0.345668  0.001195  0.344473  1
  Pt  Pt16  1  0.001195  0.345668  0.344473  1
  Pt  Pt17  1  0.347667  0.347667  0.000000  1
  Pt  Pt18  1  0.656721  0.001195  0.655527  1
  Pt  Pt19  1  0.001195  0.656721  0.655527  1
