# generated using pymatgen
data_ScTcOsO6
_symmetry_space_group_name_H-M   'P 1'
_cell_length_a   4.82097948
_cell_length_b   5.63370466
_cell_length_c   7.60152680
_cell_angle_alpha   83.13761460
_cell_angle_beta   90.14666087
_cell_angle_gamma   90.06846709
_symmetry_Int_Tables_number   1
_chemical_formula_structural   ScTcOsO6
_chemical_formula_sum   'Sc2 Tc2 Os2 O12'
_cell_volume   204.97746042
_cell_formula_units_Z   2
loop_
 _symmetry_equiv_pos_site_id
 _symmetry_equiv_pos_as_xyz
  1  'x, y, z'
loop_
 _atom_site_type_symbol
 _atom_site_label
 _atom_site_symmetry_multiplicity
 _atom_site_fract_x
 _atom_site_fract_y
 _atom_site_fract_z
 _atom_site_occupancy
  Sc  Sc0  1  0.500000  0.000000  0.500000  1
  Sc  Sc1  1  0.000000  0.500000  0.500000  1
  Tc  Tc2  1  0.511024  0.632728  0.847857  1
  Tc  Tc3  1  0.488976  0.367272  0.152143  1
  Os  Os4  1  0.991763  0.134224  0.848087  1
  Os  Os5  1  0.008237  0.865776  0.151913  1
  O  O6  1  0.323962  0.676674  0.616297  1
  O  O7  1  0.226679  0.845867  0.931015  1
  O  O8  1  0.213660  0.575449  0.248326  1
  O  O9  1  0.824791  0.824730  0.381842  1
  O  O10  1  0.715518  0.928574  0.749391  1
  O  O11  1  0.786340  0.424551  0.751674  1
  O  O12  1  0.676038  0.323326  0.383703  1
  O  O13  1  0.284482  0.071426  0.250609  1
  O  O14  1  0.272737  0.345154  0.931416  1
  O  O15  1  0.175209  0.175270  0.618158  1
  O  O16  1  0.773321  0.154133  0.068985  1
  O  O17  1  0.727263  0.654846  0.068584  1
