# generated using pymatgen
data_La3LuSb5
_symmetry_space_group_name_H-M   'P 1'
_cell_length_a   9.68687900
_cell_length_b   9.68687936
_cell_length_c   6.53979300
_cell_angle_alpha   90.00000000
_cell_angle_beta   90.00000000
_cell_angle_gamma   119.99999536
_symmetry_Int_Tables_number   1
_chemical_formula_structural   La3LuSb5
_chemical_formula_sum   'La6 Lu2 Sb10'
_cell_volume   531.45001060
_cell_formula_units_Z   2
loop_
 _symmetry_equiv_pos_site_id
 _symmetry_equiv_pos_as_xyz
  1  'x, y, z'
loop_
 _atom_site_type_symbol
 _atom_site_label
 _atom_site_symmetry_multiplicity
 _atom_site_fract_x
 _atom_site_fract_y
 _atom_site_fract_z
 _atom_site_occupancy
  La  La0  1  0.383043  0.000000  0.750000  1
  La  La1  1  0.383043  0.383043  0.250000  1
  La  La2  1  0.000000  0.616957  0.250000  1
  La  La3  1  0.000000  0.383043  0.750000  1
  La  La4  1  0.616957  0.616957  0.750000  1
  La  La5  1  0.616957  0.000000  0.250000  1
  Lu  Lu6  1  0.000000  0.000000  0.000000  1
  Lu  Lu7  1  0.000000  0.000000  0.500000  1
  Sb  Sb8  1  0.666667  0.333333  0.500000  1
  Sb  Sb9  1  0.333333  0.666667  0.000000  1
  Sb  Sb10  1  0.735739  0.000000  0.750000  1
  Sb  Sb11  1  0.735739  0.735739  0.250000  1
  Sb  Sb12  1  0.333333  0.666667  0.500000  1
  Sb  Sb13  1  0.666667  0.333333  0.000000  1
  Sb  Sb14  1  0.264261  0.000000  0.250000  1
  Sb  Sb15  1  0.264261  0.264261  0.750000  1
  Sb  Sb16  1  0.000000  0.735739  0.750000  1
  Sb  Sb17  1  0.000000  0.264261  0.250000  1
