# generated using pymatgen
data_PrBPd3Au
_symmetry_space_group_name_H-M   'P 1'
_cell_length_a   5.59468800
_cell_length_b   5.59468892
_cell_length_c   7.65127900
_cell_angle_alpha   90.00000000
_cell_angle_beta   90.00000000
_cell_angle_gamma   119.99999454
_symmetry_Int_Tables_number   1
_chemical_formula_structural   PrBPd3Au
_chemical_formula_sum   'Pr2 B2 Pd6 Au2'
_cell_volume   207.40370495
_cell_formula_units_Z   2
loop_
 _symmetry_equiv_pos_site_id
 _symmetry_equiv_pos_as_xyz
  1  'x, y, z'
loop_
 _atom_site_type_symbol
 _atom_site_label
 _atom_site_symmetry_multiplicity
 _atom_site_fract_x
 _atom_site_fract_y
 _atom_site_fract_z
 _atom_site_occupancy
  Pr  Pr0  1  0.000000  0.000000  0.500000  1
  Pr  Pr1  1  0.000000  0.000000  0.000000  1
  B  B2  1  0.666667  0.333333  0.500000  1
  B  B3  1  0.333333  0.666667  0.500000  1
  Pd  Pd4  1  0.500000  0.500000  0.307737  1
  Pd  Pd5  1  0.500000  0.000000  0.307737  1
  Pd  Pd6  1  0.500000  0.000000  0.692263  1
  Pd  Pd7  1  0.500000  0.500000  0.692263  1
  Pd  Pd8  1  0.000000  0.500000  0.692263  1
  Pd  Pd9  1  0.000000  0.500000  0.307737  1
  Au  Au10  1  0.666667  0.333333  0.000000  1
  Au  Au11  1  0.333333  0.666667  0.000000  1
