# generated using pymatgen
data_Zr4Ti2Al2CuMo3
_symmetry_space_group_name_H-M   'P 1'
_cell_length_a   5.32492369
_cell_length_b   5.32492465
_cell_length_c   8.72893100
_cell_angle_alpha   90.00000000
_cell_angle_beta   90.00000000
_cell_angle_gamma   118.78062681
_symmetry_Int_Tables_number   1
_chemical_formula_structural   Zr4Ti2Al2CuMo3
_chemical_formula_sum   'Zr4 Ti2 Al2 Cu1 Mo3'
_cell_volume   216.93255678
_cell_formula_units_Z   1
loop_
 _symmetry_equiv_pos_site_id
 _symmetry_equiv_pos_as_xyz
  1  'x, y, z'
loop_
 _atom_site_type_symbol
 _atom_site_label
 _atom_site_symmetry_multiplicity
 _atom_site_fract_x
 _atom_site_fract_y
 _atom_site_fract_z
 _atom_site_occupancy
  Zr  Zr0  1  0.332862  0.667138  0.190311  1
  Zr  Zr1  1  0.663949  0.336051  0.314740  1
  Zr  Zr2  1  0.663949  0.336051  0.685260  1
  Zr  Zr3  1  0.332862  0.667138  0.809689  1
  Ti  Ti4  1  0.995385  0.004615  0.243197  1
  Ti  Ti5  1  0.995385  0.004615  0.756803  1
  Al  Al6  1  0.834746  0.644501  0.000000  1
  Al  Al7  1  0.355499  0.165254  0.000000  1
  Cu  Cu8  1  0.834342  0.165658  0.000000  1
  Mo  Mo9  1  0.166256  0.341157  0.500000  1
  Mo  Mo10  1  0.658843  0.833744  0.500000  1
  Mo  Mo11  1  0.166075  0.833925  0.500000  1
