# generated using pymatgen
data_Cu3Ni4Mo12RhN4
_symmetry_space_group_name_H-M   'P 1'
_cell_length_a   6.71021852
_cell_length_b   6.71408088
_cell_length_c   6.71397815
_cell_angle_alpha   90.06212158
_cell_angle_beta   89.99479424
_cell_angle_gamma   90.11313081
_symmetry_Int_Tables_number   1
_chemical_formula_structural   Cu3Ni4Mo12RhN4
_chemical_formula_sum   'Cu3 Ni4 Mo12 Rh1 N4'
_cell_volume   302.48375266
_cell_formula_units_Z   1
loop_
 _symmetry_equiv_pos_site_id
 _symmetry_equiv_pos_as_xyz
  1  'x, y, z'
loop_
 _atom_site_type_symbol
 _atom_site_label
 _atom_site_symmetry_multiplicity
 _atom_site_fract_x
 _atom_site_fract_y
 _atom_site_fract_z
 _atom_site_occupancy
  Cu  Cu0  1  0.189088  0.822737  0.315276  1
  Cu  Cu1  1  0.432662  0.932768  0.568967  1
  Cu  Cu2  1  0.317053  0.180660  0.818442  1
  Ni  Ni3  1  0.676466  0.684476  0.690443  1
  Ni  Ni4  1  0.815130  0.311660  0.179167  1
  Ni  Ni5  1  0.567195  0.430751  0.934469  1
  Ni  Ni6  1  0.067659  0.067046  0.068825  1
  Mo  Mo7  1  0.197507  0.452828  0.125118  1
  Mo  Mo8  1  0.039632  0.873159  0.699907  1
  Mo  Mo9  1  0.456423  0.127814  0.197863  1
  Mo  Mo10  1  0.302748  0.544138  0.630438  1
  Mo  Mo11  1  0.950562  0.373724  0.801103  1
  Mo  Mo12  1  0.550169  0.620660  0.294398  1
  Mo  Mo13  1  0.707271  0.049672  0.878694  1
  Mo  Mo14  1  0.626636  0.304597  0.544631  1
  Mo  Mo15  1  0.873481  0.700706  0.043257  1
  Mo  Mo16  1  0.376872  0.793350  0.952266  1
  Mo  Mo17  1  0.122993  0.204408  0.448017  1
  Mo  Mo18  1  0.798546  0.955459  0.375770  1
  Rh  Rh19  1  0.932055  0.566991  0.435354  1
  N  N20  1  0.875319  0.127664  0.623802  1
  N  N21  1  0.626030  0.874854  0.125515  1
  N  N22  1  0.124218  0.624212  0.873805  1
  N  N23  1  0.374282  0.375666  0.374468  1
