# generated using pymatgen
data_TbTm7Ga3Ir
_symmetry_space_group_name_H-M   'P 1'
_cell_length_a   9.93650400
_cell_length_b   9.93650410
_cell_length_c   6.99178000
_cell_angle_alpha   90.00000000
_cell_angle_beta   90.00000000
_cell_angle_gamma   119.99999968
_symmetry_Int_Tables_number   1
_chemical_formula_structural   TbTm7Ga3Ir
_chemical_formula_sum   'Tb2 Tm14 Ga6 Ir2'
_cell_volume   597.84088928
_cell_formula_units_Z   2
loop_
 _symmetry_equiv_pos_site_id
 _symmetry_equiv_pos_as_xyz
  1  'x, y, z'
loop_
 _atom_site_type_symbol
 _atom_site_label
 _atom_site_symmetry_multiplicity
 _atom_site_fract_x
 _atom_site_fract_y
 _atom_site_fract_z
 _atom_site_occupancy
  Tb  Tb0  1  0.000000  0.000000  0.766776  1
  Tb  Tb1  1  0.000000  0.000000  0.266776  1
  Tm  Tm2  1  0.828211  0.656423  0.488808  1
  Tm  Tm3  1  0.343577  0.171789  0.488808  1
  Tm  Tm4  1  0.828211  0.171789  0.488808  1
  Tm  Tm5  1  0.171789  0.343577  0.988808  1
  Tm  Tm6  1  0.656423  0.828211  0.988808  1
  Tm  Tm7  1  0.171789  0.828211  0.988808  1
  Tm  Tm8  1  0.666667  0.333333  0.163364  1
  Tm  Tm9  1  0.333333  0.666667  0.663364  1
  Tm  Tm10  1  0.534984  0.069968  0.794912  1
  Tm  Tm11  1  0.930032  0.465016  0.794912  1
  Tm  Tm12  1  0.534984  0.465016  0.794912  1
  Tm  Tm13  1  0.465016  0.930032  0.294912  1
  Tm  Tm14  1  0.069968  0.534984  0.294912  1
  Tm  Tm15  1  0.465016  0.534984  0.294912  1
  Ga  Ga16  1  0.836122  0.672246  0.041939  1
  Ga  Ga17  1  0.327754  0.163878  0.041939  1
  Ga  Ga18  1  0.836122  0.163878  0.041939  1
  Ga  Ga19  1  0.163878  0.327754  0.541939  1
  Ga  Ga20  1  0.672246  0.836122  0.541939  1
  Ga  Ga21  1  0.163878  0.836122  0.541939  1
  Ir  Ir22  1  0.666667  0.333333  0.555918  1
  Ir  Ir23  1  0.333333  0.666667  0.055918  1
