# generated using pymatgen
data_Nd12Ga3PBr12
_symmetry_space_group_name_H-M   'P 1'
_cell_length_a   10.51167282
_cell_length_b   10.39635304
_cell_length_c   10.39635317
_cell_angle_alpha   109.24543046
_cell_angle_beta   109.69606903
_cell_angle_gamma   109.69607557
_symmetry_Int_Tables_number   1
_chemical_formula_structural   Nd12Ga3PBr12
_chemical_formula_sum   'Nd12 Ga3 P1 Br12'
_cell_volume   872.16635885
_cell_formula_units_Z   1
loop_
 _symmetry_equiv_pos_site_id
 _symmetry_equiv_pos_as_xyz
  1  'x, y, z'
loop_
 _atom_site_type_symbol
 _atom_site_label
 _atom_site_symmetry_multiplicity
 _atom_site_fract_x
 _atom_site_fract_y
 _atom_site_fract_z
 _atom_site_occupancy
  Nd  Nd0  1  0.476799  0.493148  0.234308  1
  Nd  Nd1  1  0.750000  0.241873  0.258127  1
  Nd  Nd2  1  0.750000  0.007230  0.492770  1
  Nd  Nd3  1  0.242770  0.485540  0.492770  1
  Nd  Nd4  1  0.257509  0.741159  0.234308  1
  Nd  Nd5  1  0.023201  0.265692  0.006852  1
  Nd  Nd6  1  0.008127  0.016254  0.258127  1
  Nd  Nd7  1  0.483651  0.741159  0.006852  1
  Nd  Nd8  1  0.491873  0.241873  0.483746  1
  Nd  Nd9  1  0.016349  0.493148  0.758841  1
  Nd  Nd10  1  0.257230  0.007230  0.014460  1
  Nd  Nd11  1  0.242491  0.265692  0.758841  1
  Ga  Ga12  1  0.250000  0.249625  0.250375  1
  Ga  Ga13  1  0.500375  0.000750  0.250375  1
  Ga  Ga14  1  0.999625  0.249625  0.499250  1
  P  P15  1  0.250000  0.500000  0.000000  1
  Br  Br16  1  0.250000  0.754840  0.745160  1
  Br  Br17  1  0.511525  0.506120  0.756793  1
  Br  Br18  1  0.988475  0.743207  0.993880  1
  Br  Br19  1  0.745267  0.250672  0.756793  1
  Br  Br20  1  0.995160  0.990320  0.745160  1
  Br  Br21  1  0.250000  0.994476  0.505524  1
  Br  Br22  1  0.755524  0.511045  0.505524  1
  Br  Br23  1  0.505405  0.250672  0.993880  1
  Br  Br24  1  0.754733  0.743207  0.249328  1
  Br  Br25  1  0.744476  0.994476  0.988955  1
  Br  Br26  1  0.994595  0.506120  0.249328  1
  Br  Br27  1  0.504840  0.754840  0.509680  1
