# generated using pymatgen
data_Ba3(CoH6)2
_symmetry_space_group_name_H-M   'P 1'
_cell_length_a   5.37305800
_cell_length_b   5.37305824
_cell_length_c   8.63177300
_cell_angle_alpha   90.00000000
_cell_angle_beta   90.00000000
_cell_angle_gamma   119.99999853
_symmetry_Int_Tables_number   1
_chemical_formula_structural   Ba3(CoH6)2
_chemical_formula_sum   'Ba3 Co2 H12'
_cell_volume   215.81107367
_cell_formula_units_Z   1
loop_
 _symmetry_equiv_pos_site_id
 _symmetry_equiv_pos_as_xyz
  1  'x, y, z'
loop_
 _atom_site_type_symbol
 _atom_site_label
 _atom_site_symmetry_multiplicity
 _atom_site_fract_x
 _atom_site_fract_y
 _atom_site_fract_z
 _atom_site_occupancy
  Ba  Ba0  1  0.000000  0.000000  0.000000  1
  Ba  Ba1  1  0.666667  0.333333  0.356858  1
  Ba  Ba2  1  0.333333  0.666667  0.643142  1
  Co  Co3  1  0.666667  0.333333  0.760050  1
  Co  Co4  1  0.333333  0.666667  0.239950  1
  H  H5  1  0.193789  0.806211  0.340923  1
  H  H6  1  0.612423  0.806211  0.340923  1
  H  H7  1  0.193789  0.387577  0.340923  1
  H  H8  1  0.806211  0.193789  0.659077  1
  H  H9  1  0.387577  0.193789  0.659077  1
  H  H10  1  0.806211  0.612423  0.659077  1
  H  H11  1  0.535831  0.071662  0.868589  1
  H  H12  1  0.535831  0.464169  0.868589  1
  H  H13  1  0.928338  0.464169  0.868589  1
  H  H14  1  0.464169  0.928338  0.131411  1
  H  H15  1  0.464169  0.535831  0.131411  1
  H  H16  1  0.071662  0.535831  0.131411  1
