# generated using pymatgen
data_TmTa5(SiTc)6
_symmetry_space_group_name_H-M   'P 1'
_cell_length_a   7.61227739
_cell_length_b   7.56997063
_cell_length_c   7.61227775
_cell_angle_alpha   126.97592791
_cell_angle_beta   125.05392347
_cell_angle_gamma   80.01166358
_symmetry_Int_Tables_number   1
_chemical_formula_structural   TmTa5(SiTc)6
_chemical_formula_sum   'Tm1 Ta5 Si6 Tc6'
_cell_volume   276.77086012
_cell_formula_units_Z   1
loop_
 _symmetry_equiv_pos_site_id
 _symmetry_equiv_pos_as_xyz
  1  'x, y, z'
loop_
 _atom_site_type_symbol
 _atom_site_label
 _atom_site_symmetry_multiplicity
 _atom_site_fract_x
 _atom_site_fract_y
 _atom_site_fract_z
 _atom_site_occupancy
  Tm  Tm0  1  0.535695  0.063541  0.027846  1
  Ta  Ta1  1  0.462295  0.494951  0.532656  1
  Ta  Ta2  1  0.944410  0.484788  0.040378  1
  Ta  Ta3  1  0.053827  0.102660  0.548833  1
  Ta  Ta4  1  0.744729  0.903932  0.659203  1
  Ta  Ta5  1  0.252968  0.911334  0.158366  1
  Si  Si6  1  0.733518  0.481640  0.248122  1
  Si  Si7  1  0.277580  0.545099  0.767519  1
  Si  Si8  1  0.320510  0.821552  0.477762  1
  Si  Si9  1  0.673685  0.161503  0.505973  1
  Si  Si10  1  0.843789  0.821552  0.001041  1
  Si  Si11  1  0.155530  0.161503  0.987818  1
  Tc  Tc12  1  0.487011  0.247276  0.732340  1
  Tc  Tc13  1  0.014935  0.247276  0.260264  1
  Tc  Tc14  1  0.087621  0.749306  0.586002  1
  Tc  Tc15  1  0.900414  0.497491  0.649311  1
  Tc  Tc16  1  0.663304  0.749306  0.161684  1
  Tc  Tc17  1  0.348180  0.497491  0.097077  1
