# generated using pymatgen
data_Tb3Er17(FeBi5)2
_symmetry_space_group_name_H-M   'P 1'
_cell_length_a   8.02041320
_cell_length_b   9.36275000
_cell_length_c   12.05264300
_cell_angle_alpha   90.00000000
_cell_angle_beta   90.04239813
_cell_angle_gamma   90.00000000
_symmetry_Int_Tables_number   1
_chemical_formula_structural   Tb3Er17(FeBi5)2
_chemical_formula_sum   'Tb3 Er17 Fe2 Bi10'
_cell_volume   905.07036331
_cell_formula_units_Z   1
loop_
 _symmetry_equiv_pos_site_id
 _symmetry_equiv_pos_as_xyz
  1  'x, y, z'
loop_
 _atom_site_type_symbol
 _atom_site_label
 _atom_site_symmetry_multiplicity
 _atom_site_fract_x
 _atom_site_fract_y
 _atom_site_fract_z
 _atom_site_occupancy
  Tb  Tb0  1  0.576840  0.500000  0.773417  1
  Tb  Tb1  1  0.422809  0.500000  0.273561  1
  Tb  Tb2  1  0.905398  0.000000  0.201952  1
  Er  Er3  1  0.433214  0.177407  0.562650  1
  Er  Er4  1  0.566109  0.822315  0.062165  1
  Er  Er5  1  0.076299  0.730417  0.436630  1
  Er  Er6  1  0.923840  0.270037  0.935993  1
  Er  Er7  1  0.076299  0.269583  0.436630  1
  Er  Er8  1  0.923840  0.729963  0.935993  1
  Er  Er9  1  0.433214  0.822593  0.562650  1
  Er  Er10  1  0.566109  0.177685  0.062165  1
  Er  Er11  1  0.095503  0.000000  0.700659  1
  Er  Er12  1  0.255546  0.500000  0.992995  1
  Er  Er13  1  0.744739  0.500000  0.493786  1
  Er  Er14  1  0.191578  0.000000  0.993508  1
  Er  Er15  1  0.808831  0.000000  0.494218  1
  Er  Er16  1  0.089831  0.500000  0.720022  1
  Er  Er17  1  0.909565  0.500000  0.220477  1
  Er  Er18  1  0.367449  0.000000  0.308718  1
  Er  Er19  1  0.633868  0.000000  0.809208  1
  Fe  Fe20  1  0.176924  0.000000  0.488203  1
  Fe  Fe21  1  0.823653  0.000000  0.988603  1
  Bi  Bi22  1  0.818099  0.742255  0.670183  1
  Bi  Bi23  1  0.182318  0.258393  0.169808  1
  Bi  Bi24  1  0.678391  0.242159  0.326414  1
  Bi  Bi25  1  0.320405  0.758567  0.825756  1
  Bi  Bi26  1  0.678391  0.757841  0.326414  1
  Bi  Bi27  1  0.320405  0.241433  0.825756  1
  Bi  Bi28  1  0.818099  0.257745  0.670183  1
  Bi  Bi29  1  0.182318  0.741607  0.169808  1
  Bi  Bi30  1  0.348594  0.500000  0.530817  1
  Bi  Bi31  1  0.651524  0.500000  0.030663  1
