# generated using pymatgen
data_Lu3Hf5(V3Si4)4
_symmetry_space_group_name_H-M   'P 1'
_cell_length_a   6.64967950
_cell_length_b   6.64998765
_cell_length_c   12.31803545
_cell_angle_alpha   90.06502890
_cell_angle_beta   89.96075426
_cell_angle_gamma   89.83362448
_symmetry_Int_Tables_number   1
_chemical_formula_structural   Lu3Hf5(V3Si4)4
_chemical_formula_sum   'Lu3 Hf5 V12 Si16'
_cell_volume   544.70428184
_cell_formula_units_Z   1
loop_
 _symmetry_equiv_pos_site_id
 _symmetry_equiv_pos_as_xyz
  1  'x, y, z'
loop_
 _atom_site_type_symbol
 _atom_site_label
 _atom_site_symmetry_multiplicity
 _atom_site_fract_x
 _atom_site_fract_y
 _atom_site_fract_z
 _atom_site_occupancy
  Lu  Lu0  1  0.999570  0.337304  0.529770  1
  Lu  Lu1  1  0.663470  0.999639  0.970776  1
  Lu  Lu2  1  0.337460  0.999684  0.470056  1
  Hf  Hf3  1  0.004789  0.659374  0.030436  1
  Hf  Hf4  1  0.837322  0.503571  0.279723  1
  Hf  Hf5  1  0.161994  0.496532  0.780317  1
  Hf  Hf6  1  0.503663  0.837315  0.720228  1
  Hf  Hf7  1  0.496680  0.162334  0.218752  1
  V  V8  1  0.330595  0.334728  0.000150  1
  V  V9  1  0.166928  0.832089  0.248893  1
  V  V10  1  0.833164  0.167237  0.750757  1
  V  V11  1  0.667373  0.667352  0.499966  1
  V  V12  1  0.003424  0.161068  0.126262  1
  V  V13  1  0.342047  0.506032  0.374382  1
  V  V14  1  0.658608  0.496233  0.876474  1
  V  V15  1  0.505977  0.342445  0.625212  1
  V  V16  1  0.493665  0.658623  0.123963  1
  V  V17  1  0.995567  0.839212  0.628136  1
  V  V18  1  0.158474  0.004087  0.874146  1
  V  V19  1  0.839505  0.994765  0.371902  1
  Si  Si20  1  0.288412  0.960649  0.064481  1
  Si  Si21  1  0.539889  0.791501  0.313657  1
  Si  Si22  1  0.460778  0.208989  0.814799  1
  Si  Si23  1  0.791480  0.539675  0.686040  1
  Si  Si24  1  0.208243  0.460878  0.185235  1
  Si  Si25  1  0.710063  0.037795  0.564811  1
  Si  Si26  1  0.960990  0.292468  0.935490  1
  Si  Si27  1  0.037978  0.709754  0.435144  1
  Si  Si28  1  0.704079  0.374995  0.071679  1
  Si  Si29  1  0.125699  0.204740  0.316977  1
  Si  Si30  1  0.874451  0.793241  0.819993  1
  Si  Si31  1  0.204918  0.125874  0.682805  1
  Si  Si32  1  0.796769  0.871682  0.180204  1
  Si  Si33  1  0.297939  0.627633  0.571523  1
  Si  Si34  1  0.370477  0.702717  0.928604  1
  Si  Si35  1  0.627562  0.297783  0.428259  1
