# generated using pymatgen
data_PrNd(Ga5Pt3)2
_symmetry_space_group_name_H-M   'P 1'
_cell_length_a   4.15539100
_cell_length_b   7.40586803
_cell_length_c   21.18055207
_cell_angle_alpha   90.00942115
_cell_angle_beta   90.00000000
_cell_angle_gamma   90.00000000
_symmetry_Int_Tables_number   1
_chemical_formula_structural   PrNd(Ga5Pt3)2
_chemical_formula_sum   'Pr2 Nd2 Ga20 Pt12'
_cell_volume   651.81617482
_cell_formula_units_Z   2
loop_
 _symmetry_equiv_pos_site_id
 _symmetry_equiv_pos_as_xyz
  1  'x, y, z'
loop_
 _atom_site_type_symbol
 _atom_site_label
 _atom_site_symmetry_multiplicity
 _atom_site_fract_x
 _atom_site_fract_y
 _atom_site_fract_z
 _atom_site_occupancy
  Pr  Pr0  1  0.250000  0.117492  0.641477  1
  Pr  Pr1  1  0.750000  0.882508  0.358523  1
  Nd  Nd2  1  0.250000  0.382606  0.141429  1
  Nd  Nd3  1  0.750000  0.617394  0.858571  1
  Ga  Ga4  1  0.750000  0.353036  0.382770  1
  Ga  Ga5  1  0.750000  0.882841  0.982934  1
  Ga  Ga6  1  0.750000  0.681695  0.199863  1
  Ga  Ga7  1  0.250000  0.870632  0.489848  1
  Ga  Ga8  1  0.250000  0.629315  0.989786  1
  Ga  Ga9  1  0.250000  0.318305  0.800137  1
  Ga  Ga10  1  0.750000  0.078415  0.206474  1
  Ga  Ga11  1  0.250000  0.646964  0.617230  1
  Ga  Ga12  1  0.250000  0.578099  0.293390  1
  Ga  Ga13  1  0.250000  0.182156  0.300018  1
  Ga  Ga14  1  0.750000  0.147130  0.882850  1
  Ga  Ga15  1  0.250000  0.921585  0.793526  1
  Ga  Ga16  1  0.750000  0.370685  0.010214  1
  Ga  Ga17  1  0.750000  0.616836  0.482938  1
  Ga  Ga18  1  0.750000  0.129368  0.510152  1
  Ga  Ga19  1  0.250000  0.117159  0.017066  1
  Ga  Ga20  1  0.250000  0.852870  0.117150  1
  Ga  Ga21  1  0.250000  0.383164  0.517062  1
  Ga  Ga22  1  0.750000  0.421901  0.706610  1
  Ga  Ga23  1  0.750000  0.817844  0.699982  1
  Pt  Pt24  1  0.750000  0.383102  0.262453  1
  Pt  Pt25  1  0.250000  0.883160  0.237283  1
  Pt  Pt26  1  0.250000  0.616898  0.737547  1
  Pt  Pt27  1  0.750000  0.116840  0.762717  1
  Pt  Pt28  1  0.250000  0.165137  0.425289  1
  Pt  Pt29  1  0.750000  0.424793  0.585562  1
  Pt  Pt30  1  0.750000  0.075834  0.085628  1
  Pt  Pt31  1  0.250000  0.924166  0.914372  1
  Pt  Pt32  1  0.750000  0.834863  0.574711  1
  Pt  Pt33  1  0.250000  0.335390  0.925154  1
  Pt  Pt34  1  0.750000  0.664610  0.074846  1
  Pt  Pt35  1  0.250000  0.575207  0.414438  1
