# generated using pymatgen
data_CsK3Zn2(BSe)18
_symmetry_space_group_name_H-M   'P 1'
_cell_length_a   9.88349402
_cell_length_b   10.90649667
_cell_length_c   10.98105578
_cell_angle_alpha   101.08679657
_cell_angle_beta   91.78683859
_cell_angle_gamma   115.75882656
_symmetry_Int_Tables_number   1
_chemical_formula_structural   CsK3Zn2(BSe)18
_chemical_formula_sum   'Cs1 K3 Zn2 B18 Se18'
_cell_volume   1037.32175279
_cell_formula_units_Z   1
loop_
 _symmetry_equiv_pos_site_id
 _symmetry_equiv_pos_as_xyz
  1  'x, y, z'
loop_
 _atom_site_type_symbol
 _atom_site_label
 _atom_site_symmetry_multiplicity
 _atom_site_fract_x
 _atom_site_fract_y
 _atom_site_fract_z
 _atom_site_occupancy
  Cs  Cs0  1  0.174374  0.346695  0.512773  1
  K  K1  1  0.208635  0.836575  0.988901  1
  K  K2  1  0.790682  0.161422  0.012945  1
  K  K3  1  0.808893  0.646934  0.492883  1
  Zn  Zn4  1  0.688691  0.684386  0.914364  1
  Zn  Zn5  1  0.314369  0.316967  0.083037  1
  B  B6  1  0.488795  0.840521  0.448225  1
  B  B7  1  0.511333  0.160125  0.552295  1
  B  B8  1  0.336006  0.876720  0.410680  1
  B  B9  1  0.664619  0.124220  0.590286  1
  B  B10  1  0.510384  0.954297  0.347283  1
  B  B11  1  0.490596  0.046678  0.653411  1
  B  B12  1  0.663622  0.994573  0.461337  1
  B  B13  1  0.336791  0.005514  0.539396  1
  B  B14  1  0.585034  0.944327  0.598613  1
  B  B15  1  0.415878  0.056412  0.401767  1
  B  B16  1  0.384536  0.872595  0.567220  1
  B  B17  1  0.616760  0.128505  0.433737  1
  B  B18  1  0.254672  0.585272  0.281144  1
  B  B19  1  0.747009  0.418224  0.715635  1
  B  B20  1  0.450520  0.727862  0.745613  1
  B  B21  1  0.551707  0.273245  0.254325  1
  B  B22  1  0.741263  0.906015  0.210866  1
  B  B23  1  0.257182  0.089104  0.790017  1
  Se  Se24  1  0.454244  0.644653  0.372758  1
  Se  Se25  1  0.546068  0.356482  0.626199  1
  Se  Se26  1  0.158580  0.712923  0.298527  1
  Se  Se27  1  0.840106  0.288790  0.704403  1
  Se  Se28  1  0.542326  0.897132  0.169392  1
  Se  Se29  1  0.459175  0.104355  0.831185  1
  Se  Se30  1  0.836789  0.969653  0.387108  1
  Se  Se31  1  0.159436  0.021047  0.614351  1
  Se  Se32  1  0.655661  0.859075  0.718612  1
  Se  Se33  1  0.346719  0.139402  0.278336  1
  Se  Se34  1  0.269590  0.723623  0.659916  1
  Se  Se35  1  0.732536  0.280143  0.343407  1
  Se  Se36  1  0.139432  0.397542  0.177193  1
  Se  Se37  1  0.864450  0.611062  0.809291  1
  Se  Se38  1  0.860826  0.868397  0.085549  1
  Se  Se39  1  0.138944  0.126821  0.916521  1
  Se  Se40  1  0.421751  0.602977  0.857267  1
  Se  Se41  1  0.581017  0.398732  0.143233  1
