# generated using pymatgen
data_V3Re3Si2B
_symmetry_space_group_name_H-M   'P 1'
_cell_length_a   6.59953400
_cell_length_b   6.59953392
_cell_length_c   3.05614700
_cell_angle_alpha   90.00000000
_cell_angle_beta   90.00000000
_cell_angle_gamma   120.00000042
_symmetry_Int_Tables_number   1
_chemical_formula_structural   V3Re3Si2B
_chemical_formula_sum   'V3 Re3 Si2 B1'
_cell_volume   115.27401116
_cell_formula_units_Z   1
loop_
 _symmetry_equiv_pos_site_id
 _symmetry_equiv_pos_as_xyz
  1  'x, y, z'
loop_
 _atom_site_type_symbol
 _atom_site_label
 _atom_site_symmetry_multiplicity
 _atom_site_fract_x
 _atom_site_fract_y
 _atom_site_fract_z
 _atom_site_occupancy
  V  V0  1  0.605164  0.000000  0.000000  1
  V  V1  1  0.394836  0.394836  0.000000  1
  V  V2  1  0.000000  0.605164  0.000000  1
  Re  Re3  1  0.247879  0.000000  0.500000  1
  Re  Re4  1  0.752121  0.752121  0.500000  1
  Re  Re5  1  0.000000  0.247879  0.500000  1
  Si  Si6  1  0.333333  0.666667  0.500000  1
  Si  Si7  1  0.666667  0.333333  0.500000  1
  B  B8  1  0.000000  0.000000  0.000000  1
