# generated using pymatgen
data_Tb2Nb3Ge3P4Rh9
_symmetry_space_group_name_H-M   'P 1'
_cell_length_a   3.91597400
_cell_length_b   9.84993422
_cell_length_c   9.85005241
_cell_angle_alpha   120.00420038
_cell_angle_beta   90.00014111
_cell_angle_gamma   90.00025317
_symmetry_Int_Tables_number   1
_chemical_formula_structural   Tb2Nb3Ge3P4Rh9
_chemical_formula_sum   'Tb2 Nb3 Ge3 P4 Rh9'
_cell_volume   329.02122836
_cell_formula_units_Z   1
loop_
 _symmetry_equiv_pos_site_id
 _symmetry_equiv_pos_as_xyz
  1  'x, y, z'
loop_
 _atom_site_type_symbol
 _atom_site_label
 _atom_site_symmetry_multiplicity
 _atom_site_fract_x
 _atom_site_fract_y
 _atom_site_fract_z
 _atom_site_occupancy
  Tb  Tb0  1  0.261718  0.666670  0.333360  1
  Tb  Tb1  1  0.761972  0.333346  0.666656  1
  Nb  Nb2  1  0.761988  0.100735  0.882605  1
  Nb  Nb3  1  0.761993  0.117397  0.218150  1
  Nb  Nb4  1  0.761991  0.781808  0.899241  1
  Ge  Ge5  1  0.761858  0.875586  0.584544  1
  Ge  Ge6  1  0.761845  0.415486  0.291036  1
  Ge  Ge7  1  0.761849  0.708952  0.124447  1
  P  P8  1  0.262177  0.999987  0.999988  1
  P  P9  1  0.261901  0.116472  0.418020  1
  P  P10  1  0.261912  0.581985  0.698441  1
  P  P11  1  0.261899  0.301539  0.883524  1
  Rh  Rh12  1  0.261865  0.887829  0.159551  1
  Rh  Rh13  1  0.261885  0.840467  0.728304  1
  Rh  Rh14  1  0.261881  0.271695  0.112156  1
  Rh  Rh15  1  0.761884  0.609213  0.571613  1
  Rh  Rh16  1  0.761874  0.428393  0.037566  1
  Rh  Rh17  1  0.761873  0.962460  0.390815  1
  Rh  Rh18  1  0.261871  0.364649  0.438696  1
  Rh  Rh19  1  0.261880  0.561281  0.925929  1
  Rh  Rh20  1  0.261883  0.074052  0.635355  1
