# generated using pymatgen
data_K4Zr6SiBr18
_symmetry_space_group_name_H-M   'P 1'
_cell_length_a   10.58779829
_cell_length_b   10.70392312
_cell_length_c   10.80871913
_cell_angle_alpha   118.48772795
_cell_angle_beta   100.40062240
_cell_angle_gamma   103.71008022
_symmetry_Int_Tables_number   1
_chemical_formula_structural   K4Zr6SiBr18
_chemical_formula_sum   'K4 Zr6 Si1 Br18'
_cell_volume   982.20191589
_cell_formula_units_Z   1
loop_
 _symmetry_equiv_pos_site_id
 _symmetry_equiv_pos_as_xyz
  1  'x, y, z'
loop_
 _atom_site_type_symbol
 _atom_site_label
 _atom_site_symmetry_multiplicity
 _atom_site_fract_x
 _atom_site_fract_y
 _atom_site_fract_z
 _atom_site_occupancy
  K  K0  1  0.652436  0.537233  0.227361  1
  K  K1  1  0.347564  0.462767  0.772639  1
  K  K2  1  0.686794  0.226634  0.564039  1
  K  K3  1  0.313206  0.773366  0.435961  1
  Zr  Zr4  1  0.157508  0.057716  0.239518  1
  Zr  Zr5  1  0.842492  0.942284  0.760482  1
  Zr  Zr6  1  0.858523  0.133079  0.139195  1
  Zr  Zr7  1  0.141477  0.866921  0.860805  1
  Zr  Zr8  1  0.151588  0.247828  0.046174  1
  Zr  Zr9  1  0.848412  0.752172  0.953826  1
  Si  Si10  1  0.000000  0.000000  0.000000  1
  Br  Br11  1  0.010376  0.414483  0.199549  1
  Br  Br12  1  0.989624  0.585517  0.800451  1
  Br  Br13  1  0.332630  0.334761  0.313196  1
  Br  Br14  1  0.667370  0.665239  0.686804  1
  Br  Br15  1  0.327483  0.524146  0.101312  1
  Br  Br16  1  0.672517  0.475854  0.898688  1
  Br  Br17  1  0.005434  0.793912  0.211356  1
  Br  Br18  1  0.994566  0.206088  0.788644  1
  Br  Br19  1  0.704605  0.281575  0.293415  1
  Br  Br20  1  0.295395  0.718425  0.706585  1
  Br  Br21  1  0.317682  0.125850  0.900198  1
  Br  Br22  1  0.682318  0.874150  0.099802  1
  Br  Br23  1  0.018018  0.207486  0.413100  1
  Br  Br24  1  0.981982  0.792514  0.586900  1
  Br  Br25  1  0.322203  0.918801  0.109735  1
  Br  Br26  1  0.677797  0.081199  0.890265  1
  Br  Br27  1  0.338758  0.121611  0.505779  1
  Br  Br28  1  0.661242  0.878389  0.494221  1
