# generated using pymatgen
data_Tb3Al3SiAu2
_symmetry_space_group_name_H-M   'P 1'
_cell_length_a   7.04124600
_cell_length_b   7.04124608
_cell_length_c   4.32722000
_cell_angle_alpha   90.00000000
_cell_angle_beta   90.00000000
_cell_angle_gamma   119.99999964
_symmetry_Int_Tables_number   1
_chemical_formula_structural   Tb3Al3SiAu2
_chemical_formula_sum   'Tb3 Al3 Si1 Au2'
_cell_volume   185.79697927
_cell_formula_units_Z   1
loop_
 _symmetry_equiv_pos_site_id
 _symmetry_equiv_pos_as_xyz
  1  'x, y, z'
loop_
 _atom_site_type_symbol
 _atom_site_label
 _atom_site_symmetry_multiplicity
 _atom_site_fract_x
 _atom_site_fract_y
 _atom_site_fract_z
 _atom_site_occupancy
  Tb  Tb0  1  0.003897  0.580057  0.500000  1
  Tb  Tb1  1  0.419943  0.423841  0.500000  1
  Tb  Tb2  1  0.576159  0.996103  0.500000  1
  Al  Al3  1  0.759006  0.752038  0.000000  1
  Al  Al4  1  0.247962  0.006969  0.000000  1
  Al  Al5  1  0.993031  0.240994  0.000000  1
  Si  Si6  1  0.333333  0.666667  0.000000  1
  Au  Au7  1  0.666667  0.333333  0.000000  1
  Au  Au8  1  0.000000  0.000000  0.500000  1
