# generated using pymatgen
data_RbNb(CuSe2)2
_symmetry_space_group_name_H-M   'P 1'
_cell_length_a   10.11339851
_cell_length_b   10.11339821
_cell_length_c   7.87276200
_cell_angle_alpha   90.00000000
_cell_angle_beta   90.00000000
_cell_angle_gamma   146.88321235
_symmetry_Int_Tables_number   1
_chemical_formula_structural   RbNb(CuSe2)2
_chemical_formula_sum   'Rb2 Nb2 Cu4 Se8'
_cell_volume   439.93673001
_cell_formula_units_Z   2
loop_
 _symmetry_equiv_pos_site_id
 _symmetry_equiv_pos_as_xyz
  1  'x, y, z'
loop_
 _atom_site_type_symbol
 _atom_site_label
 _atom_site_symmetry_multiplicity
 _atom_site_fract_x
 _atom_site_fract_y
 _atom_site_fract_z
 _atom_site_occupancy
  Rb  Rb0  1  0.171834  0.803039  0.750000  1
  Rb  Rb1  1  0.803039  0.171834  0.250000  1
  Nb  Nb2  1  0.641513  0.857828  0.750000  1
  Nb  Nb3  1  0.857828  0.641513  0.250000  1
  Cu  Cu4  1  0.736151  0.736151  0.500000  1
  Cu  Cu5  1  0.736151  0.736151  0.000000  1
  Cu  Cu6  1  0.357430  0.143394  0.250000  1
  Cu  Cu7  1  0.143394  0.357430  0.750000  1
  Se  Se8  1  0.607577  0.395449  0.997803  1
  Se  Se9  1  0.395449  0.607578  0.497803  1
  Se  Se10  1  0.991649  0.998772  0.750000  1
  Se  Se11  1  0.395449  0.607578  0.002197  1
  Se  Se12  1  0.208799  0.790745  0.250000  1
  Se  Se13  1  0.790745  0.208799  0.750000  1
  Se  Se14  1  0.998772  0.991649  0.250000  1
  Se  Se15  1  0.607577  0.395449  0.502197  1
