# generated using pymatgen
data_Dy3Mn5(Ni2P3)2
_symmetry_space_group_name_H-M   'P 1'
_cell_length_a   3.67256700
_cell_length_b   10.76875400
_cell_length_c   12.38299300
_cell_angle_alpha   90.00000000
_cell_angle_beta   90.00000000
_cell_angle_gamma   90.00000000
_symmetry_Int_Tables_number   1
_chemical_formula_structural   Dy3Mn5(Ni2P3)2
_chemical_formula_sum   'Dy6 Mn10 Ni8 P12'
_cell_volume   489.73462574
_cell_formula_units_Z   2
loop_
 _symmetry_equiv_pos_site_id
 _symmetry_equiv_pos_as_xyz
  1  'x, y, z'
loop_
 _atom_site_type_symbol
 _atom_site_label
 _atom_site_symmetry_multiplicity
 _atom_site_fract_x
 _atom_site_fract_y
 _atom_site_fract_z
 _atom_site_occupancy
  Dy  Dy0  1  0.000000  0.500000  0.530980  1
  Dy  Dy1  1  0.500000  0.000000  0.469020  1
  Dy  Dy2  1  0.500000  0.820643  0.200231  1
  Dy  Dy3  1  0.500000  0.179357  0.200231  1
  Dy  Dy4  1  0.000000  0.679357  0.799769  1
  Dy  Dy5  1  0.000000  0.320643  0.799769  1
  Mn  Mn6  1  0.500000  0.298183  0.430812  1
  Mn  Mn7  1  0.500000  0.701817  0.430812  1
  Mn  Mn8  1  0.000000  0.201817  0.569188  1
  Mn  Mn9  1  0.000000  0.798183  0.569188  1
  Mn  Mn10  1  0.500000  0.882434  0.705016  1
  Mn  Mn11  1  0.500000  0.117566  0.705016  1
  Mn  Mn12  1  0.000000  0.617566  0.294984  1
  Mn  Mn13  1  0.000000  0.382434  0.294984  1
  Mn  Mn14  1  0.500000  0.500000  0.162731  1
  Mn  Mn15  1  0.000000  0.000000  0.837269  1
  Ni  Ni16  1  0.000000  0.500000  0.990548  1
  Ni  Ni17  1  0.500000  0.000000  0.009452  1
  Ni  Ni18  1  0.500000  0.331133  0.995446  1
  Ni  Ni19  1  0.500000  0.668867  0.995446  1
  Ni  Ni20  1  0.000000  0.168867  0.004554  1
  Ni  Ni21  1  0.000000  0.831133  0.004554  1
  Ni  Ni22  1  0.500000  0.500000  0.706270  1
  Ni  Ni23  1  0.000000  0.000000  0.293730  1
  P  P24  1  0.500000  0.316875  0.619366  1
  P  P25  1  0.500000  0.683125  0.619366  1
  P  P26  1  0.000000  0.183125  0.380634  1
  P  P27  1  0.000000  0.816875  0.380634  1
  P  P28  1  0.500000  0.500000  0.883661  1
  P  P29  1  0.000000  0.000000  0.116339  1
  P  P30  1  0.500000  0.847738  0.889074  1
  P  P31  1  0.500000  0.152262  0.889074  1
  P  P32  1  0.000000  0.652262  0.110926  1
  P  P33  1  0.000000  0.347738  0.110926  1
  P  P34  1  0.500000  0.500000  0.356728  1
  P  P35  1  0.000000  0.000000  0.643272  1
