# generated using pymatgen
data_Y4Ho(Pd4Au)3
_symmetry_space_group_name_H-M   'P 1'
_cell_length_a   4.18886100
_cell_length_b   4.10030500
_cell_length_c   21.02327600
_cell_angle_alpha   90.00000000
_cell_angle_beta   90.00000000
_cell_angle_gamma   90.00000000
_symmetry_Int_Tables_number   1
_chemical_formula_structural   Y4Ho(Pd4Au)3
_chemical_formula_sum   'Y4 Ho1 Pd12 Au3'
_cell_volume   361.08754120
_cell_formula_units_Z   1
loop_
 _symmetry_equiv_pos_site_id
 _symmetry_equiv_pos_as_xyz
  1  'x, y, z'
loop_
 _atom_site_type_symbol
 _atom_site_label
 _atom_site_symmetry_multiplicity
 _atom_site_fract_x
 _atom_site_fract_y
 _atom_site_fract_z
 _atom_site_occupancy
  Y  Y0  1  0.000000  0.000000  0.199872  1
  Y  Y1  1  0.000000  0.000000  0.404908  1
  Y  Y2  1  0.000000  0.000000  0.597258  1
  Y  Y3  1  0.000000  0.000000  0.802940  1
  Ho  Ho4  1  0.000000  0.000000  0.994956  1
  Pd  Pd5  1  0.500000  0.500000  0.999338  1
  Pd  Pd6  1  0.500000  0.500000  0.199878  1
  Pd  Pd7  1  0.500000  0.500000  0.400645  1
  Pd  Pd8  1  0.500000  0.500000  0.599274  1
  Pd  Pd9  1  0.500000  0.500000  0.800804  1
  Pd  Pd10  1  0.500000  0.000000  0.500159  1
  Pd  Pd11  1  0.500000  0.000000  0.900250  1
  Pd  Pd12  1  0.000000  0.500000  0.099178  1
  Pd  Pd13  1  0.000000  0.500000  0.300394  1
  Pd  Pd14  1  0.000000  0.500000  0.500208  1
  Pd  Pd15  1  0.000000  0.500000  0.700000  1
  Pd  Pd16  1  0.000000  0.500000  0.900265  1
  Au  Au17  1  0.500000  0.000000  0.098200  1
  Au  Au18  1  0.500000  0.000000  0.301421  1
  Au  Au19  1  0.500000  0.000000  0.700055  1
