# generated using pymatgen
data_CsNb(AsO4)2
_symmetry_space_group_name_H-M   'P 1'
_cell_length_a   5.29663023
_cell_length_b   5.29663034
_cell_length_c   9.16190900
_cell_angle_alpha   86.78173188
_cell_angle_beta   86.78173182
_cell_angle_gamma   63.31580188
_symmetry_Int_Tables_number   1
_chemical_formula_structural   CsNb(AsO4)2
_chemical_formula_sum   'Cs1 Nb1 As2 O8'
_cell_volume   229.15583361
_cell_formula_units_Z   1
loop_
 _symmetry_equiv_pos_site_id
 _symmetry_equiv_pos_as_xyz
  1  'x, y, z'
loop_
 _atom_site_type_symbol
 _atom_site_label
 _atom_site_symmetry_multiplicity
 _atom_site_fract_x
 _atom_site_fract_y
 _atom_site_fract_z
 _atom_site_occupancy
  Cs  Cs0  1  0.000000  0.000000  0.000000  1
  Nb  Nb1  1  0.000000  0.000000  0.500000  1
  As  As2  1  0.361454  0.361454  0.306899  1
  As  As3  1  0.638546  0.638546  0.693101  1
  O  O4  1  0.778514  0.283341  0.652589  1
  O  O5  1  0.786134  0.786134  0.560748  1
  O  O6  1  0.683400  0.683400  0.865838  1
  O  O7  1  0.283341  0.778514  0.652589  1
  O  O8  1  0.316600  0.316600  0.134162  1
  O  O9  1  0.213866  0.213866  0.439252  1
  O  O10  1  0.716659  0.221486  0.347411  1
  O  O11  1  0.221486  0.716659  0.347411  1
