# generated using pymatgen
data_Sc2Ga5Fe6
_symmetry_space_group_name_H-M   'P 1'
_cell_length_a   5.03342939
_cell_length_b   6.55545426
_cell_length_c   6.55545396
_cell_angle_alpha   79.95825242
_cell_angle_beta   67.42381304
_cell_angle_gamma   67.42380860
_symmetry_Int_Tables_number   1
_chemical_formula_structural   Sc2Ga5Fe6
_chemical_formula_sum   'Sc2 Ga5 Fe6'
_cell_volume   184.33313443
_cell_formula_units_Z   1
loop_
 _symmetry_equiv_pos_site_id
 _symmetry_equiv_pos_as_xyz
  1  'x, y, z'
loop_
 _atom_site_type_symbol
 _atom_site_label
 _atom_site_symmetry_multiplicity
 _atom_site_fract_x
 _atom_site_fract_y
 _atom_site_fract_z
 _atom_site_occupancy
  Sc  Sc0  1  0.000000  0.946945  0.053055  1
  Sc  Sc1  1  0.000000  0.599412  0.400588  1
  Ga  Ga2  1  0.000000  0.272754  0.727246  1
  Ga  Ga3  1  0.334218  0.684001  0.647563  1
  Ga  Ga4  1  0.665782  0.352437  0.315999  1
  Ga  Ga5  1  0.332083  0.185785  0.150050  1
  Ga  Ga6  1  0.667917  0.849950  0.814215  1
  Fe  Fe7  1  0.500000  0.266608  0.733392  1
  Fe  Fe8  1  0.500000  0.769351  0.230649  1
  Fe  Fe9  1  0.999703  0.520242  0.983864  1
  Fe  Fe10  1  0.496191  0.520242  0.983864  1
  Fe  Fe11  1  0.000297  0.016136  0.479758  1
  Fe  Fe12  1  0.503809  0.016136  0.479758  1
