# generated using pymatgen
data_Ca2PrPd9
_symmetry_space_group_name_H-M   'P 1'
_cell_length_a   9.52102731
_cell_length_b   9.52102752
_cell_length_c   9.52102696
_cell_angle_alpha   33.07618299
_cell_angle_beta   33.07617952
_cell_angle_gamma   33.07618317
_symmetry_Int_Tables_number   1
_chemical_formula_structural   Ca2PrPd9
_chemical_formula_sum   'Ca2 Pr1 Pd9'
_cell_volume   228.79489227
_cell_formula_units_Z   1
loop_
 _symmetry_equiv_pos_site_id
 _symmetry_equiv_pos_as_xyz
  1  'x, y, z'
loop_
 _atom_site_type_symbol
 _atom_site_label
 _atom_site_symmetry_multiplicity
 _atom_site_fract_x
 _atom_site_fract_y
 _atom_site_fract_z
 _atom_site_occupancy
  Ca  Ca0  1  0.141178  0.141178  0.141178  1
  Ca  Ca1  1  0.858822  0.858822  0.858822  1
  Pr  Pr2  1  0.000000  0.000000  0.000000  1
  Pd  Pd3  1  0.585176  0.585176  0.082852  1
  Pd  Pd4  1  0.332893  0.332893  0.332893  1
  Pd  Pd5  1  0.917148  0.414823  0.414824  1
  Pd  Pd6  1  0.414823  0.917148  0.414824  1
  Pd  Pd7  1  0.500000  0.500000  0.500000  1
  Pd  Pd8  1  0.585177  0.082851  0.585176  1
  Pd  Pd9  1  0.082851  0.585177  0.585176  1
  Pd  Pd10  1  0.667106  0.667106  0.667106  1
  Pd  Pd11  1  0.414824  0.414824  0.917148  1
