# generated using pymatgen
data_Sr6Sn8BiSe
_symmetry_space_group_name_H-M   'P 1'
_cell_length_a   8.97327141
_cell_length_b   8.97327203
_cell_length_c   8.97327223
_cell_angle_alpha   119.88933267
_cell_angle_beta   119.88933309
_cell_angle_gamma   90.19178840
_symmetry_Int_Tables_number   1
_chemical_formula_structural   Sr6Sn8BiSe
_chemical_formula_sum   'Sr6 Sn8 Bi1 Se1'
_cell_volume   511.75335587
_cell_formula_units_Z   1
loop_
 _symmetry_equiv_pos_site_id
 _symmetry_equiv_pos_as_xyz
  1  'x, y, z'
loop_
 _atom_site_type_symbol
 _atom_site_label
 _atom_site_symmetry_multiplicity
 _atom_site_fract_x
 _atom_site_fract_y
 _atom_site_fract_z
 _atom_site_occupancy
  Sr  Sr0  1  0.261904  0.261904  0.000000  1
  Sr  Sr1  1  0.738096  0.738096  0.000000  1
  Sr  Sr2  1  0.173594  0.657885  0.831480  1
  Sr  Sr3  1  0.826406  0.342115  0.168520  1
  Sr  Sr4  1  0.657885  0.826406  0.484291  1
  Sr  Sr5  1  0.342115  0.173594  0.515709  1
  Sn  Sn6  1  0.835139  0.329963  0.785627  1
  Sn  Sn7  1  0.164861  0.670037  0.214373  1
  Sn  Sn8  1  0.544335  0.049512  0.214373  1
  Sn  Sn9  1  0.329963  0.544335  0.494823  1
  Sn  Sn10  1  0.950488  0.164861  0.494823  1
  Sn  Sn11  1  0.455665  0.950488  0.785627  1
  Sn  Sn12  1  0.670037  0.455665  0.505177  1
  Sn  Sn13  1  0.049512  0.835139  0.505177  1
  Bi  Bi14  1  0.000000  0.000000  0.000000  1
  Se  Se15  1  0.500000  0.500000  0.000000  1
