# generated using pymatgen
data_ScFeBi2(SeO3)6
_symmetry_space_group_name_H-M   'P 1'
_cell_length_a   7.82634414
_cell_length_b   9.02198685
_cell_length_c   13.02384500
_cell_angle_alpha   90.00000000
_cell_angle_beta   90.00000000
_cell_angle_gamma   90.13093532
_symmetry_Int_Tables_number   1
_chemical_formula_structural   ScFeBi2(SeO3)6
_chemical_formula_sum   'Sc2 Fe2 Bi4 Se12 O36'
_cell_volume   919.60053579
_cell_formula_units_Z   2
loop_
 _symmetry_equiv_pos_site_id
 _symmetry_equiv_pos_as_xyz
  1  'x, y, z'
loop_
 _atom_site_type_symbol
 _atom_site_label
 _atom_site_symmetry_multiplicity
 _atom_site_fract_x
 _atom_site_fract_y
 _atom_site_fract_z
 _atom_site_occupancy
  Sc  Sc0  1  0.749586  0.277503  0.329193  1
  Sc  Sc1  1  0.750414  0.722497  0.829193  1
  Fe  Fe2  1  0.252388  0.222493  0.671326  1
  Fe  Fe3  1  0.247612  0.777507  0.171326  1
  Bi  Bi4  1  0.780106  0.713987  0.526990  1
  Bi  Bi5  1  0.719894  0.286013  0.026990  1
  Bi  Bi6  1  0.281694  0.786456  0.471441  1
  Bi  Bi7  1  0.218306  0.213544  0.971441  1
  Se  Se8  1  0.436551  0.547452  0.671823  1
  Se  Se9  1  0.063449  0.452548  0.171823  1
  Se  Se10  1  0.941828  0.946774  0.325104  1
  Se  Se11  1  0.558172  0.053226  0.825104  1
  Se  Se12  1  0.570532  0.604858  0.277158  1
  Se  Se13  1  0.929468  0.395142  0.777158  1
  Se  Se14  1  0.075909  0.903191  0.719494  1
  Se  Se15  1  0.424091  0.096809  0.219494  1
  Se  Se16  1  0.584700  0.086486  0.544978  1
  Se  Se17  1  0.915300  0.913514  0.044978  1
  Se  Se18  1  0.091394  0.411734  0.460688  1
  Se  Se19  1  0.408606  0.588266  0.960688  1
  O  O20  1  0.461317  0.358592  0.667240  1
  O  O21  1  0.038683  0.641408  0.167240  1
  O  O22  1  0.965448  0.134356  0.331928  1
  O  O23  1  0.534552  0.865644  0.831928  1
  O  O24  1  0.643131  0.597763  0.706496  1
  O  O25  1  0.856869  0.402237  0.206496  1
  O  O26  1  0.149790  0.897366  0.291886  1
  O  O27  1  0.350210  0.102634  0.791886  1
  O  O28  1  0.455744  0.602006  0.542139  1
  O  O29  1  0.044256  0.397994  0.042139  1
  O  O30  1  0.958190  0.893062  0.455300  1
  O  O31  1  0.541810  0.106938  0.955300  1
  O  O32  1  0.680184  0.712077  0.365973  1
  O  O33  1  0.819816  0.287923  0.865973  1
  O  O34  1  0.185742  0.792753  0.633671  1
  O  O35  1  0.314258  0.207247  0.133671  1
  O  O36  1  0.361404  0.669954  0.298183  1
  O  O37  1  0.138596  0.330046  0.798183  1
  O  O38  1  0.867023  0.836940  0.698004  1
  O  O39  1  0.632977  0.163060  0.198004  1
  O  O40  1  0.553432  0.433619  0.332985  1
  O  O41  1  0.946568  0.566381  0.832985  1
  O  O42  1  0.059641  0.075097  0.662808  1
  O  O43  1  0.440359  0.924903  0.162808  1
  O  O44  1  0.577267  0.891264  0.541287  1
  O  O45  1  0.922733  0.108736  0.041287  1
  O  O46  1  0.081682  0.606525  0.462867  1
  O  O47  1  0.418318  0.393475  0.962867  1
  O  O48  1  0.366302  0.106478  0.555903  1
  O  O49  1  0.133698  0.893522  0.055903  1
  O  O50  1  0.873420  0.392324  0.448823  1
  O  O51  1  0.626580  0.607676  0.948823  1
  O  O52  1  0.615593  0.124651  0.417900  1
  O  O53  1  0.884407  0.875349  0.917900  1
  O  O54  1  0.122271  0.374564  0.588413  1
  O  O55  1  0.377729  0.625436  0.088413  1
