# generated using pymatgen
data_Nd5Dy11(AgIr)4
_symmetry_space_group_name_H-M   'P 1'
_cell_length_a   9.64327200
_cell_length_b   9.64732653
_cell_length_c   9.64732609
_cell_angle_alpha   60.02882316
_cell_angle_beta   60.01389675
_cell_angle_gamma   60.01390211
_symmetry_Int_Tables_number   1
_chemical_formula_structural   Nd5Dy11(AgIr)4
_chemical_formula_sum   'Nd5 Dy11 Ag4 Ir4'
_cell_volume   634.90554132
_cell_formula_units_Z   1
loop_
 _symmetry_equiv_pos_site_id
 _symmetry_equiv_pos_as_xyz
  1  'x, y, z'
loop_
 _atom_site_type_symbol
 _atom_site_label
 _atom_site_symmetry_multiplicity
 _atom_site_fract_x
 _atom_site_fract_y
 _atom_site_fract_z
 _atom_site_occupancy
  Nd  Nd0  1  0.558999  0.941001  0.941001  1
  Nd  Nd1  1  0.563487  0.936666  0.559937  1
  Nd  Nd2  1  0.939910  0.559937  0.936666  1
  Nd  Nd3  1  0.563487  0.559937  0.936666  1
  Nd  Nd4  1  0.939910  0.936666  0.559937  1
  Dy  Dy5  1  0.350809  0.350892  0.350892  1
  Dy  Dy6  1  0.348663  0.352856  0.949819  1
  Dy  Dy7  1  0.348663  0.949819  0.352856  1
  Dy  Dy8  1  0.947406  0.350892  0.350892  1
  Dy  Dy9  1  0.813064  0.186936  0.186936  1
  Dy  Dy10  1  0.186065  0.813935  0.813935  1
  Dy  Dy11  1  0.187258  0.811986  0.187846  1
  Dy  Dy12  1  0.812911  0.187846  0.811986  1
  Dy  Dy13  1  0.187258  0.187846  0.811986  1
  Dy  Dy14  1  0.812911  0.811986  0.187846  1
  Dy  Dy15  1  0.943295  0.556705  0.556705  1
  Ag  Ag16  1  0.583664  0.578844  0.578844  1
  Ag  Ag17  1  0.579643  0.579752  0.260961  1
  Ag  Ag18  1  0.579643  0.260961  0.579752  1
  Ag  Ag19  1  0.258647  0.578844  0.578844  1
  Ir  Ir20  1  0.141546  0.142560  0.142560  1
  Ir  Ir21  1  0.139712  0.147572  0.573002  1
  Ir  Ir22  1  0.139712  0.573002  0.147572  1
  Ir  Ir23  1  0.573333  0.142560  0.142560  1
