# generated using pymatgen
data_TaNb11Al4(AuN)4
_symmetry_space_group_name_H-M   'P 1'
_cell_length_a   7.11761520
_cell_length_b   7.11749039
_cell_length_c   7.11380652
_cell_angle_alpha   90.05601921
_cell_angle_beta   90.07841571
_cell_angle_gamma   90.04444862
_symmetry_Int_Tables_number   1
_chemical_formula_structural   TaNb11Al4(AuN)4
_chemical_formula_sum   'Ta1 Nb11 Al4 Au4 N4'
_cell_volume   360.38167370
_cell_formula_units_Z   1
loop_
 _symmetry_equiv_pos_site_id
 _symmetry_equiv_pos_as_xyz
  1  'x, y, z'
loop_
 _atom_site_type_symbol
 _atom_site_label
 _atom_site_symmetry_multiplicity
 _atom_site_fract_x
 _atom_site_fract_y
 _atom_site_fract_z
 _atom_site_occupancy
  Ta  Ta0  1  0.786040  0.956888  0.376225  1
  Nb  Nb1  1  0.714445  0.043415  0.876453  1
  Nb  Nb2  1  0.214103  0.456549  0.123588  1
  Nb  Nb3  1  0.285816  0.543528  0.623709  1
  Nb  Nb4  1  0.956228  0.375611  0.785333  1
  Nb  Nb5  1  0.043717  0.876197  0.714404  1
  Nb  Nb6  1  0.455996  0.123790  0.214369  1
  Nb  Nb7  1  0.543584  0.623417  0.285828  1
  Nb  Nb8  1  0.377063  0.786059  0.957090  1
  Nb  Nb9  1  0.876310  0.713920  0.043450  1
  Nb  Nb10  1  0.123827  0.214355  0.456297  1
  Nb  Nb11  1  0.623146  0.285981  0.543699  1
  Al  Al12  1  0.572287  0.427911  0.927699  1
  Al  Al13  1  0.427887  0.927819  0.572162  1
  Al  Al14  1  0.927656  0.572206  0.427694  1
  Al  Al15  1  0.072195  0.072241  0.072033  1
  Au  Au16  1  0.178250  0.821107  0.321074  1
  Au  Au17  1  0.320816  0.179116  0.820869  1
  Au  Au18  1  0.820959  0.320168  0.179302  1
  Au  Au19  1  0.679307  0.679922  0.678586  1
  N  N20  1  0.876142  0.121381  0.620562  1
  N  N21  1  0.624139  0.878401  0.125134  1
  N  N22  1  0.122842  0.622758  0.877251  1
  N  N23  1  0.377244  0.377259  0.377187  1
