# generated using pymatgen
data_Sm3Ho2Tm15Pt16
_symmetry_space_group_name_H-M   'P 1'
_cell_length_a   7.44579026
_cell_length_b   7.51783668
_cell_length_c   14.65940729
_cell_angle_alpha   90.01605761
_cell_angle_beta   90.02438732
_cell_angle_gamma   89.97361285
_symmetry_Int_Tables_number   1
_chemical_formula_structural   Sm3Ho2Tm15Pt16
_chemical_formula_sum   'Sm3 Ho2 Tm15 Pt16'
_cell_volume   820.57823513
_cell_formula_units_Z   1
loop_
 _symmetry_equiv_pos_site_id
 _symmetry_equiv_pos_as_xyz
  1  'x, y, z'
loop_
 _atom_site_type_symbol
 _atom_site_label
 _atom_site_symmetry_multiplicity
 _atom_site_fract_x
 _atom_site_fract_y
 _atom_site_fract_z
 _atom_site_occupancy
  Sm  Sm0  1  0.000127  0.177522  0.407192  1
  Sm  Sm1  1  0.500397  0.322977  0.407844  1
  Sm  Sm2  1  0.999943  0.177648  0.091970  1
  Ho  Ho3  1  0.500876  0.678990  0.907526  1
  Ho  Ho4  1  0.001458  0.819502  0.593323  1
  Tm  Tm5  1  0.656591  0.166803  0.623435  1
  Tm  Tm6  1  0.156959  0.333539  0.876999  1
  Tm  Tm7  1  0.345048  0.832253  0.122344  1
  Tm  Tm8  1  0.844759  0.667744  0.377241  1
  Tm  Tm9  1  0.345741  0.831352  0.377505  1
  Tm  Tm10  1  0.843912  0.667338  0.121674  1
  Tm  Tm11  1  0.655551  0.167619  0.877591  1
  Tm  Tm12  1  0.156833  0.333127  0.623083  1
  Tm  Tm13  1  0.501766  0.681144  0.593657  1
  Tm  Tm14  1  0.002113  0.818918  0.906330  1
  Tm  Tm15  1  0.498243  0.320645  0.093034  1
  Tm  Tm16  1  0.818957  0.510113  0.750110  1
  Tm  Tm17  1  0.318859  0.989660  0.750254  1
  Tm  Tm18  1  0.181070  0.490762  0.249088  1
  Tm  Tm19  1  0.680322  0.009546  0.249326  1
  Pt  Pt20  1  0.680808  0.960503  0.460322  1
  Pt  Pt21  1  0.186627  0.536108  0.040591  1
  Pt  Pt22  1  0.316017  0.031980  0.957129  1
  Pt  Pt23  1  0.815243  0.470264  0.543754  1
  Pt  Pt24  1  0.317101  0.029582  0.543975  1
  Pt  Pt25  1  0.816385  0.468853  0.957317  1
  Pt  Pt26  1  0.679767  0.964604  0.040954  1
  Pt  Pt27  1  0.181295  0.539868  0.460482  1
  Pt  Pt28  1  0.453341  0.386277  0.749825  1
  Pt  Pt29  1  0.953226  0.113878  0.750427  1
  Pt  Pt30  1  0.546043  0.616747  0.248726  1
  Pt  Pt31  1  0.047346  0.882007  0.249873  1
  Pt  Pt32  1  0.681213  0.856008  0.749943  1
  Pt  Pt33  1  0.181283  0.644090  0.750609  1
  Pt  Pt34  1  0.319550  0.142520  0.247765  1
  Pt  Pt35  1  0.815233  0.359514  0.248779  1
