# generated using pymatgen
data_La2NdTc4(P2O)2
_symmetry_space_group_name_H-M   'P 1'
_cell_length_a   4.15744222
_cell_length_b   4.15851930
_cell_length_c   13.66066657
_cell_angle_alpha   98.82640992
_cell_angle_beta   98.75359912
_cell_angle_gamma   90.00328540
_symmetry_Int_Tables_number   1
_chemical_formula_structural   La2NdTc4(P2O)2
_chemical_formula_sum   'La2 Nd1 Tc4 P4 O2'
_cell_volume   230.59503846
_cell_formula_units_Z   1
loop_
 _symmetry_equiv_pos_site_id
 _symmetry_equiv_pos_as_xyz
  1  'x, y, z'
loop_
 _atom_site_type_symbol
 _atom_site_label
 _atom_site_symmetry_multiplicity
 _atom_site_fract_x
 _atom_site_fract_y
 _atom_site_fract_z
 _atom_site_occupancy
  La  La0  1  0.705343  0.705491  0.410683  1
  La  La1  1  0.294688  0.294410  0.589327  1
  Nd  Nd2  1  0.999962  0.999993  0.000003  1
  Tc  Tc3  1  0.592315  0.092696  0.184742  1
  Tc  Tc4  1  0.092340  0.592446  0.184767  1
  Tc  Tc5  1  0.907488  0.407556  0.815215  1
  Tc  Tc6  1  0.407829  0.907393  0.815202  1
  P  P7  1  0.550166  0.550107  0.100671  1
  P  P8  1  0.134004  0.134328  0.268000  1
  P  P9  1  0.865894  0.865728  0.732007  1
  P  P10  1  0.449910  0.449955  0.899334  1
  O  O11  1  0.750151  0.249324  0.500013  1
  O  O12  1  0.249918  0.750578  0.500035  1
