# generated using pymatgen
data_DyLuWO6
_symmetry_space_group_name_H-M   'P 1'
_cell_length_a   5.36667400
_cell_length_b   7.64742012
_cell_length_c   11.33912853
_cell_angle_alpha   75.57307862
_cell_angle_beta   90.00000000
_cell_angle_gamma   90.00000000
_symmetry_Int_Tables_number   1
_chemical_formula_structural   DyLuWO6
_chemical_formula_sum   'Dy4 Lu4 W4 O24'
_cell_volume   450.69663118
_cell_formula_units_Z   4
loop_
 _symmetry_equiv_pos_site_id
 _symmetry_equiv_pos_as_xyz
  1  'x, y, z'
loop_
 _atom_site_type_symbol
 _atom_site_label
 _atom_site_symmetry_multiplicity
 _atom_site_fract_x
 _atom_site_fract_y
 _atom_site_fract_z
 _atom_site_occupancy
  Dy  Dy0  1  0.257506  0.000000  0.750000  1
  Dy  Dy1  1  0.742494  0.000000  0.250000  1
  Dy  Dy2  1  0.315517  0.500000  0.750000  1
  Dy  Dy3  1  0.684483  0.500000  0.250000  1
  Lu  Lu4  1  0.182859  0.793640  0.079044  1
  Lu  Lu5  1  0.182859  0.206360  0.420956  1
  Lu  Lu6  1  0.817141  0.206360  0.920956  1
  Lu  Lu7  1  0.817141  0.793640  0.579044  1
  W  W8  1  0.743672  0.723753  0.886087  1
  W  W9  1  0.256328  0.723753  0.386087  1
  W  W10  1  0.743672  0.276247  0.613913  1
  W  W11  1  0.256328  0.276247  0.113913  1
  O  O12  1  0.539783  0.156754  0.066933  1
  O  O13  1  0.047561  0.058157  0.102522  1
  O  O14  1  0.018631  0.712355  0.770165  1
  O  O15  1  0.460217  0.156754  0.566933  1
  O  O16  1  0.357982  0.487569  0.386582  1
  O  O17  1  0.952439  0.058157  0.602522  1
  O  O18  1  0.544846  0.791972  0.725222  1
  O  O19  1  0.455154  0.791972  0.225222  1
  O  O20  1  0.145678  0.635112  0.549863  1
  O  O21  1  0.047561  0.941843  0.397478  1
  O  O22  1  0.460217  0.843246  0.933067  1
  O  O23  1  0.455154  0.208028  0.274778  1
  O  O24  1  0.854322  0.364888  0.450137  1
  O  O25  1  0.642018  0.487569  0.886582  1
  O  O26  1  0.357982  0.512431  0.113418  1
  O  O27  1  0.952439  0.941843  0.897478  1
  O  O28  1  0.539783  0.843246  0.433067  1
  O  O29  1  0.981369  0.287645  0.229835  1
  O  O30  1  0.544846  0.208028  0.774778  1
  O  O31  1  0.854322  0.635112  0.049863  1
  O  O32  1  0.018631  0.287645  0.729835  1
  O  O33  1  0.145678  0.364888  0.950137  1
  O  O34  1  0.981369  0.712355  0.270165  1
  O  O35  1  0.642018  0.512431  0.613418  1
