# generated using pymatgen
data_Pr3Mg2CdAu3
_symmetry_space_group_name_H-M   'P 1'
_cell_length_a   7.89203877
_cell_length_b   7.89203872
_cell_length_c   4.15011200
_cell_angle_alpha   90.00000000
_cell_angle_beta   90.00000000
_cell_angle_gamma   119.36082652
_symmetry_Int_Tables_number   1
_chemical_formula_structural   Pr3Mg2CdAu3
_chemical_formula_sum   'Pr3 Mg2 Cd1 Au3'
_cell_volume   225.28390399
_cell_formula_units_Z   1
loop_
 _symmetry_equiv_pos_site_id
 _symmetry_equiv_pos_as_xyz
  1  'x, y, z'
loop_
 _atom_site_type_symbol
 _atom_site_label
 _atom_site_symmetry_multiplicity
 _atom_site_fract_x
 _atom_site_fract_y
 _atom_site_fract_z
 _atom_site_occupancy
  Pr  Pr0  1  0.588294  0.990778  0.000000  1
  Pr  Pr1  1  0.990778  0.588294  0.000000  1
  Pr  Pr2  1  0.420041  0.420041  0.000000  1
  Mg  Mg3  1  0.245884  0.002035  0.500000  1
  Mg  Mg4  1  0.002035  0.245884  0.500000  1
  Cd  Cd5  1  0.751890  0.751890  0.500000  1
  Au  Au6  1  0.319351  0.663626  0.500000  1
  Au  Au7  1  0.663626  0.319351  0.500000  1
  Au  Au8  1  0.018101  0.018101  0.000000  1
