# generated using pymatgen
data_MgScBeB2Rh5
_symmetry_space_group_name_H-M   'P 1'
_cell_length_a   9.26609500
_cell_length_b   2.93306600
_cell_length_c   9.22450100
_cell_angle_alpha   90.00000000
_cell_angle_beta   90.00000000
_cell_angle_gamma   90.00000000
_symmetry_Int_Tables_number   1
_chemical_formula_structural   MgScBeB2Rh5
_chemical_formula_sum   'Mg2 Sc2 Be2 B4 Rh10'
_cell_volume   250.70411726
_cell_formula_units_Z   2
loop_
 _symmetry_equiv_pos_site_id
 _symmetry_equiv_pos_as_xyz
  1  'x, y, z'
loop_
 _atom_site_type_symbol
 _atom_site_label
 _atom_site_symmetry_multiplicity
 _atom_site_fract_x
 _atom_site_fract_y
 _atom_site_fract_z
 _atom_site_occupancy
  Mg  Mg0  1  0.175791  0.000000  0.677856  1
  Mg  Mg1  1  0.675791  0.000000  0.822144  1
  Sc  Sc2  1  0.325016  0.000000  0.173197  1
  Sc  Sc3  1  0.825016  0.000000  0.326803  1
  Be  Be4  1  0.001597  0.000000  0.003885  1
  Be  Be5  1  0.501597  0.000000  0.496115  1
  B  B6  1  0.627621  0.000000  0.125707  1
  B  B7  1  0.127622  0.000000  0.374294  1
  B  B8  1  0.869719  0.000000  0.632767  1
  B  B9  1  0.369719  0.000000  0.867233  1
  Rh  Rh10  1  0.501149  0.500001  0.995927  1
  Rh  Rh11  1  0.791544  0.500001  0.069582  1
  Rh  Rh12  1  0.068701  0.500001  0.210244  1
  Rh  Rh13  1  0.568701  0.500001  0.289756  1
  Rh  Rh14  1  0.291544  0.500001  0.430418  1
  Rh  Rh15  1  0.001149  0.500001  0.504073  1
  Rh  Rh16  1  0.708248  0.500001  0.568394  1
  Rh  Rh17  1  0.430613  0.500001  0.704399  1
  Rh  Rh18  1  0.930612  0.500001  0.795600  1
  Rh  Rh19  1  0.208249  0.500001  0.931605  1
