# generated using pymatgen
data_In6PtBr10
_symmetry_space_group_name_H-M   'P 1'
_cell_length_a   7.63613643
_cell_length_b   9.26589445
_cell_length_c   8.76745508
_cell_angle_alpha   99.50525757
_cell_angle_beta   99.52643013
_cell_angle_gamma   105.06105043
_symmetry_Int_Tables_number   1
_chemical_formula_structural   In6PtBr10
_chemical_formula_sum   'In6 Pt1 Br10'
_cell_volume   576.49335165
_cell_formula_units_Z   1
loop_
 _symmetry_equiv_pos_site_id
 _symmetry_equiv_pos_as_xyz
  1  'x, y, z'
loop_
 _atom_site_type_symbol
 _atom_site_label
 _atom_site_symmetry_multiplicity
 _atom_site_fract_x
 _atom_site_fract_y
 _atom_site_fract_z
 _atom_site_occupancy
  In  In0  1  0.898827  0.018238  0.277088  1
  In  In1  1  0.101173  0.981762  0.722912  1
  In  In2  1  0.365111  0.114149  0.137369  1
  In  In3  1  0.634889  0.885851  0.862631  1
  In  In4  1  0.029002  0.299053  0.034596  1
  In  In5  1  0.970998  0.700947  0.965404  1
  Pt  Pt6  1  0.000000  0.000000  0.000000  1
  Br  Br7  1  0.367265  0.421635  0.239107  1
  Br  Br8  1  0.632735  0.578365  0.760893  1
  Br  Br9  1  0.917379  0.529386  0.187095  1
  Br  Br10  1  0.082621  0.470614  0.812905  1
  Br  Br11  1  0.452099  0.813539  0.096004  1
  Br  Br12  1  0.547901  0.186461  0.903996  1
  Br  Br13  1  0.194710  0.179719  0.536408  1
  Br  Br14  1  0.805290  0.820281  0.463592  1
  Br  Br15  1  0.682624  0.195245  0.372634  1
  Br  Br16  1  0.317376  0.804755  0.627366  1
