# generated using pymatgen
data_Rb5Dy(MoH9)3
_symmetry_space_group_name_H-M   'P 1'
_cell_length_a   9.88893110
_cell_length_b   9.60035598
_cell_length_c   5.48910900
_cell_angle_alpha   90.00000000
_cell_angle_beta   90.00000000
_cell_angle_gamma   119.03930620
_symmetry_Int_Tables_number   1
_chemical_formula_structural   Rb5Dy(MoH9)3
_chemical_formula_sum   'Rb5 Dy1 Mo3 H27'
_cell_volume   455.60923589
_cell_formula_units_Z   1
loop_
 _symmetry_equiv_pos_site_id
 _symmetry_equiv_pos_as_xyz
  1  'x, y, z'
loop_
 _atom_site_type_symbol
 _atom_site_label
 _atom_site_symmetry_multiplicity
 _atom_site_fract_x
 _atom_site_fract_y
 _atom_site_fract_z
 _atom_site_occupancy
  Rb  Rb0  1  0.736440  0.743430  0.500000  1
  Rb  Rb1  1  0.263560  0.006990  0.500000  1
  Rb  Rb2  1  0.000000  0.596634  0.000000  1
  Rb  Rb3  1  0.418701  0.397598  0.000000  1
  Rb  Rb4  1  0.581299  0.978897  0.000000  1
  Dy  Dy5  1  0.000000  0.263000  0.500000  1
  Mo  Mo6  1  0.698110  0.318966  0.500000  1
  Mo  Mo7  1  0.301890  0.620858  0.500000  1
  Mo  Mo8  1  0.000000  0.051914  0.000000  1
  H  H9  1  0.822414  0.294240  0.715733  1
  H  H10  1  0.715454  0.461312  0.715859  1
  H  H11  1  0.550510  0.212339  0.713399  1
  H  H12  1  0.177586  0.471827  0.284267  1
  H  H13  1  0.550510  0.212339  0.286601  1
  H  H14  1  0.822414  0.294240  0.284267  1
  H  H15  1  0.715454  0.461312  0.284141  1
  H  H16  1  0.284546  0.745859  0.715859  1
  H  H17  1  0.449490  0.661830  0.713399  1
  H  H18  1  0.172387  0.048556  0.000000  1
  H  H19  1  0.827613  0.876169  0.000000  1
  H  H20  1  0.000000  0.237793  0.000000  1
  H  H21  1  0.876619  0.048353  0.241486  1
  H  H22  1  0.123381  0.171734  0.758514  1
  H  H23  1  0.000000  0.912852  0.793934  1
  H  H24  1  0.000000  0.912852  0.206066  1
  H  H25  1  0.123381  0.171734  0.241486  1
  H  H26  1  0.876619  0.048353  0.758514  1
  H  H27  1  0.123351  0.618873  0.500000  1
  H  H28  1  0.441700  0.821723  0.500000  1
  H  H29  1  0.345464  0.463914  0.500000  1
  H  H30  1  0.558300  0.380022  0.500000  1
  H  H31  1  0.876649  0.495521  0.500000  1
  H  H32  1  0.654536  0.118450  0.500000  1
  H  H33  1  0.177586  0.471827  0.715733  1
  H  H34  1  0.284546  0.745859  0.284141  1
  H  H35  1  0.449490  0.661830  0.286601  1
