# generated using pymatgen
data_PrY3Sc6(Si5Ir2)4
_symmetry_space_group_name_H-M   'P 1'
_cell_length_a   12.51043732
_cell_length_b   12.51043810
_cell_length_c   4.17170400
_cell_angle_alpha   90.00000000
_cell_angle_beta   90.00000000
_cell_angle_gamma   89.88439108
_symmetry_Int_Tables_number   1
_chemical_formula_structural   PrY3Sc6(Si5Ir2)4
_chemical_formula_sum   'Pr1 Y3 Sc6 Si20 Ir8'
_cell_volume   652.91645130
_cell_formula_units_Z   1
loop_
 _symmetry_equiv_pos_site_id
 _symmetry_equiv_pos_as_xyz
  1  'x, y, z'
loop_
 _atom_site_type_symbol
 _atom_site_label
 _atom_site_symmetry_multiplicity
 _atom_site_fract_x
 _atom_site_fract_y
 _atom_site_fract_z
 _atom_site_occupancy
  Pr  Pr0  1  0.384553  0.115447  0.500000  1
  Y  Y1  1  0.115369  0.615415  0.500000  1
  Y  Y2  1  0.884585  0.384631  0.500000  1
  Y  Y3  1  0.615931  0.884069  0.500000  1
  Sc  Sc4  1  0.674756  0.174235  0.500000  1
  Sc  Sc5  1  0.325765  0.825244  0.500000  1
  Sc  Sc6  1  0.173646  0.326354  0.500000  1
  Sc  Sc7  1  0.825776  0.674224  0.500000  1
  Sc  Sc8  1  0.999504  0.999914  0.000000  1
  Sc  Sc9  1  0.500086  0.500496  0.000000  1
  Si  Si10  1  0.569414  0.067908  0.000000  1
  Si  Si11  1  0.432092  0.930586  0.000000  1
  Si  Si12  1  0.067803  0.432197  0.000000  1
  Si  Si13  1  0.932055  0.567945  0.000000  1
  Si  Si14  1  0.198285  0.165579  0.000000  1
  Si  Si15  1  0.800367  0.834303  0.000000  1
  Si  Si16  1  0.165083  0.799319  0.000000  1
  Si  Si17  1  0.700681  0.334917  0.000000  1
  Si  Si18  1  0.834703  0.199573  0.000000  1
  Si  Si19  1  0.300427  0.665297  0.000000  1
  Si  Si20  1  0.665697  0.699633  0.000000  1
  Si  Si21  1  0.334421  0.301715  0.000000  1
  Si  Si22  1  0.008049  0.151113  0.500000  1
  Si  Si23  1  0.991432  0.848889  0.500000  1
  Si  Si24  1  0.149503  0.991487  0.500000  1
  Si  Si25  1  0.508513  0.350497  0.500000  1
  Si  Si26  1  0.849313  0.007846  0.500000  1
  Si  Si27  1  0.492154  0.650687  0.500000  1
  Si  Si28  1  0.651111  0.508568  0.500000  1
  Si  Si29  1  0.348887  0.491951  0.500000  1
  Ir  Ir30  1  0.020127  0.244270  0.000000  1
  Ir  Ir31  1  0.979255  0.755775  0.000000  1
  Ir  Ir32  1  0.241585  0.977381  0.000000  1
  Ir  Ir33  1  0.522619  0.258415  0.000000  1
  Ir  Ir34  1  0.757055  0.020556  0.000000  1
  Ir  Ir35  1  0.479444  0.742945  0.000000  1
  Ir  Ir36  1  0.744225  0.520745  0.000000  1
  Ir  Ir37  1  0.255730  0.479873  0.000000  1
