# generated using pymatgen
data_Yb2Ho2CoOs7
_symmetry_space_group_name_H-M   'P 1'
_cell_length_a   5.30101393
_cell_length_b   5.30101522
_cell_length_c   8.74309276
_cell_angle_alpha   89.71076054
_cell_angle_beta   90.28923838
_cell_angle_gamma   121.08857062
_symmetry_Int_Tables_number   1
_chemical_formula_structural   Yb2Ho2CoOs7
_chemical_formula_sum   'Yb2 Ho2 Co1 Os7'
_cell_volume   210.39590507
_cell_formula_units_Z   1
loop_
 _symmetry_equiv_pos_site_id
 _symmetry_equiv_pos_as_xyz
  1  'x, y, z'
loop_
 _atom_site_type_symbol
 _atom_site_label
 _atom_site_symmetry_multiplicity
 _atom_site_fract_x
 _atom_site_fract_y
 _atom_site_fract_z
 _atom_site_occupancy
  Yb  Yb0  1  0.671907  0.328093  0.942473  1
  Yb  Yb1  1  0.335281  0.664719  0.061204  1
  Ho  Ho2  1  0.333365  0.666635  0.427731  1
  Ho  Ho3  1  0.668135  0.331865  0.568350  1
  Co  Co4  1  0.820682  0.179318  0.255227  1
  Os  Os5  1  0.008573  0.991427  0.494889  1
  Os  Os6  1  0.012182  0.987818  0.004258  1
  Os  Os7  1  0.821429  0.660896  0.249299  1
  Os  Os8  1  0.339104  0.178571  0.249299  1
  Os  Os9  1  0.164447  0.835553  0.751453  1
  Os  Os10  1  0.172818  0.347923  0.747909  1
  Os  Os11  1  0.652077  0.827182  0.747909  1
