# generated using pymatgen
data_Ho3SiGeRu2
_symmetry_space_group_name_H-M   'P 1'
_cell_length_a   5.61600300
_cell_length_b   7.60409200
_cell_length_c   13.61702300
_cell_angle_alpha   90.00000000
_cell_angle_beta   90.00000000
_cell_angle_gamma   90.00000000
_symmetry_Int_Tables_number   1
_chemical_formula_structural   Ho3SiGeRu2
_chemical_formula_sum   'Ho12 Si4 Ge4 Ru8'
_cell_volume   581.50956785
_cell_formula_units_Z   4
loop_
 _symmetry_equiv_pos_site_id
 _symmetry_equiv_pos_as_xyz
  1  'x, y, z'
loop_
 _atom_site_type_symbol
 _atom_site_label
 _atom_site_symmetry_multiplicity
 _atom_site_fract_x
 _atom_site_fract_y
 _atom_site_fract_z
 _atom_site_occupancy
  Ho  Ho0  1  0.147205  0.401771  0.599363  1
  Ho  Ho1  1  0.852795  0.598229  0.099363  1
  Ho  Ho2  1  0.147205  0.098229  0.400637  1
  Ho  Ho3  1  0.852795  0.901771  0.900637  1
  Ho  Ho4  1  0.852795  0.598229  0.400637  1
  Ho  Ho5  1  0.147205  0.401771  0.900637  1
  Ho  Ho6  1  0.852795  0.901771  0.599363  1
  Ho  Ho7  1  0.147205  0.098229  0.099363  1
  Ho  Ho8  1  0.626505  0.262421  0.750000  1
  Ho  Ho9  1  0.373495  0.737579  0.250000  1
  Ho  Ho10  1  0.626505  0.237579  0.250000  1
  Ho  Ho11  1  0.373495  0.762421  0.750000  1
  Si  Si12  1  0.604835  0.250000  0.500000  1
  Si  Si13  1  0.395165  0.750000  0.000000  1
  Si  Si14  1  0.395165  0.750000  0.500000  1
  Si  Si15  1  0.604835  0.250000  0.000000  1
  Ge  Ge16  1  0.129311  0.112533  0.750000  1
  Ge  Ge17  1  0.870689  0.887467  0.250000  1
  Ge  Ge18  1  0.129311  0.387467  0.250000  1
  Ge  Ge19  1  0.870689  0.612533  0.750000  1
  Ru  Ru20  1  0.355256  0.029604  0.588892  1
  Ru  Ru21  1  0.644744  0.970396  0.088892  1
  Ru  Ru22  1  0.355256  0.470396  0.411108  1
  Ru  Ru23  1  0.644744  0.529604  0.911108  1
  Ru  Ru24  1  0.644744  0.970396  0.411108  1
  Ru  Ru25  1  0.355256  0.029604  0.911108  1
  Ru  Ru26  1  0.644744  0.529604  0.588892  1
  Ru  Ru27  1  0.355256  0.470396  0.088892  1
