# generated using pymatgen
data_Th3Ga2PtRh3
_symmetry_space_group_name_H-M   'P 1'
_cell_length_a   7.31026375
_cell_length_b   7.77352068
_cell_length_c   3.87088200
_cell_angle_alpha   90.00000000
_cell_angle_beta   90.00000000
_cell_angle_gamma   122.11940792
_symmetry_Int_Tables_number   1
_chemical_formula_structural   Th3Ga2PtRh3
_chemical_formula_sum   'Th3 Ga2 Pt1 Rh3'
_cell_volume   186.30063740
_cell_formula_units_Z   1
loop_
 _symmetry_equiv_pos_site_id
 _symmetry_equiv_pos_as_xyz
  1  'x, y, z'
loop_
 _atom_site_type_symbol
 _atom_site_label
 _atom_site_symmetry_multiplicity
 _atom_site_fract_x
 _atom_site_fract_y
 _atom_site_fract_z
 _atom_site_occupancy
  Th  Th0  1  0.000000  0.409837  0.500000  1
  Th  Th1  1  0.620316  0.608645  0.500000  1
  Th  Th2  1  0.379684  0.988329  0.500000  1
  Ga  Ga3  1  0.256732  0.256149  0.000000  1
  Ga  Ga4  1  0.743268  0.999417  0.000000  1
  Pt  Pt5  1  0.000000  0.748201  0.000000  1
  Rh  Rh6  1  0.344875  0.648478  0.000000  1
  Rh  Rh7  1  0.655125  0.303602  0.000000  1
  Rh  Rh8  1  0.000000  0.037341  0.500000  1
