# generated using pymatgen
data_TbY3AlPd
_symmetry_space_group_name_H-M   'P 1'
_cell_length_a   9.65440886
_cell_length_b   9.65440825
_cell_length_c   9.65440800
_cell_angle_alpha   59.99999399
_cell_angle_beta   59.99999609
_cell_angle_gamma   59.99999925
_symmetry_Int_Tables_number   1
_chemical_formula_structural   TbY3AlPd
_chemical_formula_sum   'Tb4 Y12 Al4 Pd4'
_cell_volume   636.30005676
_cell_formula_units_Z   4
loop_
 _symmetry_equiv_pos_site_id
 _symmetry_equiv_pos_as_xyz
  1  'x, y, z'
loop_
 _atom_site_type_symbol
 _atom_site_label
 _atom_site_symmetry_multiplicity
 _atom_site_fract_x
 _atom_site_fract_y
 _atom_site_fract_z
 _atom_site_occupancy
  Tb  Tb0  1  0.355982  0.355982  0.355982  1
  Tb  Tb1  1  0.355982  0.355982  0.932053  1
  Tb  Tb2  1  0.355982  0.932053  0.355982  1
  Tb  Tb3  1  0.932053  0.355982  0.355982  1
  Y  Y4  1  0.806952  0.193048  0.193048  1
  Y  Y5  1  0.193048  0.806952  0.806952  1
  Y  Y6  1  0.193048  0.806952  0.193048  1
  Y  Y7  1  0.806952  0.193048  0.806952  1
  Y  Y8  1  0.193048  0.193048  0.806952  1
  Y  Y9  1  0.806952  0.806952  0.193048  1
  Y  Y10  1  0.934673  0.565327  0.565327  1
  Y  Y11  1  0.565327  0.934673  0.934673  1
  Y  Y12  1  0.565327  0.934673  0.565327  1
  Y  Y13  1  0.934673  0.565327  0.934673  1
  Y  Y14  1  0.565327  0.565327  0.934673  1
  Y  Y15  1  0.934673  0.934673  0.565327  1
  Al  Al16  1  0.578240  0.578240  0.578240  1
  Al  Al17  1  0.578240  0.578240  0.265281  1
  Al  Al18  1  0.578240  0.265281  0.578240  1
  Al  Al19  1  0.265281  0.578240  0.578240  1
  Pd  Pd20  1  0.145214  0.145214  0.145214  1
  Pd  Pd21  1  0.145214  0.145214  0.564355  1
  Pd  Pd22  1  0.145214  0.564355  0.145214  1
  Pd  Pd23  1  0.564355  0.145214  0.145214  1
