# generated using pymatgen
data_Ho12Fe4AgBi
_symmetry_space_group_name_H-M   'P 1'
_cell_length_a   8.38509647
_cell_length_b   8.38509668
_cell_length_c   8.38509532
_cell_angle_alpha   110.46338068
_cell_angle_beta   111.19429376
_cell_angle_gamma   106.78968936
_symmetry_Int_Tables_number   1
_chemical_formula_structural   Ho12Fe4AgBi
_chemical_formula_sum   'Ho12 Fe4 Ag1 Bi1'
_cell_volume   453.07894530
_cell_formula_units_Z   1
loop_
 _symmetry_equiv_pos_site_id
 _symmetry_equiv_pos_as_xyz
  1  'x, y, z'
loop_
 _atom_site_type_symbol
 _atom_site_label
 _atom_site_symmetry_multiplicity
 _atom_site_fract_x
 _atom_site_fract_y
 _atom_site_fract_z
 _atom_site_occupancy
  Ho  Ho0  1  0.290386  0.186169  0.476555  1
  Ho  Ho1  1  0.709614  0.813831  0.523445  1
  Ho  Ho2  1  0.290386  0.813831  0.104218  1
  Ho  Ho3  1  0.709614  0.186169  0.895782  1
  Ho  Ho4  1  0.612166  0.309079  0.303087  1
  Ho  Ho5  1  0.387834  0.690921  0.696913  1
  Ho  Ho6  1  0.005993  0.309079  0.696913  1
  Ho  Ho7  1  0.994007  0.690921  0.303087  1
  Ho  Ho8  1  0.217044  0.427512  0.210469  1
  Ho  Ho9  1  0.782956  0.572488  0.789531  1
  Ho  Ho10  1  0.217044  0.006575  0.789531  1
  Ho  Ho11  1  0.782956  0.993425  0.210469  1
  Fe  Fe12  1  0.000000  0.387262  0.387262  1
  Fe  Fe13  1  0.000000  0.612738  0.612738  1
  Fe  Fe14  1  0.392571  0.892571  0.500000  1
  Fe  Fe15  1  0.607429  0.107429  0.500000  1
  Ag  Ag16  1  0.000000  0.000000  0.000000  1
  Bi  Bi17  1  0.500000  0.500000  0.000000  1
