# generated using pymatgen
data_Ho3Er3Th2(MgCo)2
_symmetry_space_group_name_H-M   'P 1'
_cell_length_a   9.58735390
_cell_length_b   9.58735317
_cell_length_c   9.58735300
_cell_angle_alpha   59.99999715
_cell_angle_beta   59.99999964
_cell_angle_gamma   60.00000125
_symmetry_Int_Tables_number   1
_chemical_formula_structural   Ho3Er3Th2(MgCo)2
_chemical_formula_sum   'Ho6 Er6 Th4 Mg4 Co4'
_cell_volume   623.13364179
_cell_formula_units_Z   2
loop_
 _symmetry_equiv_pos_site_id
 _symmetry_equiv_pos_as_xyz
  1  'x, y, z'
loop_
 _atom_site_type_symbol
 _atom_site_label
 _atom_site_symmetry_multiplicity
 _atom_site_fract_x
 _atom_site_fract_y
 _atom_site_fract_z
 _atom_site_occupancy
  Ho  Ho0  1  0.935017  0.564983  0.564983  1
  Ho  Ho1  1  0.564983  0.935017  0.935017  1
  Ho  Ho2  1  0.564983  0.935017  0.564983  1
  Ho  Ho3  1  0.935017  0.564983  0.935017  1
  Ho  Ho4  1  0.564983  0.564983  0.935017  1
  Ho  Ho5  1  0.935017  0.935017  0.564983  1
  Er  Er6  1  0.813746  0.186254  0.186254  1
  Er  Er7  1  0.186254  0.813746  0.813746  1
  Er  Er8  1  0.186254  0.813746  0.186254  1
  Er  Er9  1  0.813746  0.186254  0.813746  1
  Er  Er10  1  0.186254  0.186254  0.813746  1
  Er  Er11  1  0.813746  0.813746  0.186254  1
  Th  Th12  1  0.344601  0.344601  0.344601  1
  Th  Th13  1  0.344601  0.344601  0.966198  1
  Th  Th14  1  0.344601  0.966198  0.344601  1
  Th  Th15  1  0.966198  0.344601  0.344601  1
  Mg  Mg16  1  0.580282  0.580282  0.580282  1
  Mg  Mg17  1  0.580282  0.580282  0.259152  1
  Mg  Mg18  1  0.580282  0.259152  0.580282  1
  Mg  Mg19  1  0.259152  0.580282  0.580282  1
  Co  Co20  1  0.144507  0.144507  0.144507  1
  Co  Co21  1  0.144507  0.144507  0.566478  1
  Co  Co22  1  0.144507  0.566478  0.144507  1
  Co  Co23  1  0.566478  0.144507  0.144507  1
