# generated using pymatgen
data_Sc8SnPb3Au8
_symmetry_space_group_name_H-M   'P 1'
_cell_length_a   7.80472600
_cell_length_b   7.80472600
_cell_length_c   6.99403300
_cell_angle_alpha   90.00000000
_cell_angle_beta   90.00000000
_cell_angle_gamma   90.00000000
_symmetry_Int_Tables_number   1
_chemical_formula_structural   Sc8SnPb3Au8
_chemical_formula_sum   'Sc8 Sn1 Pb3 Au8'
_cell_volume   426.03276321
_cell_formula_units_Z   1
loop_
 _symmetry_equiv_pos_site_id
 _symmetry_equiv_pos_as_xyz
  1  'x, y, z'
loop_
 _atom_site_type_symbol
 _atom_site_label
 _atom_site_symmetry_multiplicity
 _atom_site_fract_x
 _atom_site_fract_y
 _atom_site_fract_z
 _atom_site_occupancy
  Sc  Sc0  1  0.147847  0.149650  0.999318  1
  Sc  Sc1  1  0.852153  0.850350  0.999318  1
  Sc  Sc2  1  0.649650  0.352153  0.500682  1
  Sc  Sc3  1  0.350350  0.647847  0.500682  1
  Sc  Sc4  1  0.683952  0.317871  0.999355  1
  Sc  Sc5  1  0.316048  0.682129  0.999355  1
  Sc  Sc6  1  0.817871  0.816048  0.500645  1
  Sc  Sc7  1  0.182129  0.183952  0.500645  1
  Sn  Sn8  1  0.000000  0.500000  0.750000  1
  Pb  Pb9  1  0.500000  0.000000  0.250000  1
  Pb  Pb10  1  0.500000  0.000000  0.750000  1
  Pb  Pb11  1  0.000000  0.500000  0.250000  1
  Au  Au12  1  0.371543  0.371273  0.214771  1
  Au  Au13  1  0.631209  0.627314  0.785023  1
  Au  Au14  1  0.628457  0.628727  0.214771  1
  Au  Au15  1  0.872686  0.131209  0.714977  1
  Au  Au16  1  0.871273  0.128457  0.285229  1
  Au  Au17  1  0.368791  0.372686  0.785023  1
  Au  Au18  1  0.128727  0.871543  0.285229  1
  Au  Au19  1  0.127314  0.868791  0.714977  1
