# generated using pymatgen
data_Dy8Ho2Ga3NiBi2
_symmetry_space_group_name_H-M   'P 1'
_cell_length_a   8.58262812
_cell_length_b   8.58262767
_cell_length_c   8.76307119
_cell_angle_alpha   124.33412228
_cell_angle_beta   124.33412319
_cell_angle_gamma   81.27153099
_symmetry_Int_Tables_number   1
_chemical_formula_structural   Dy8Ho2Ga3NiBi2
_chemical_formula_sum   'Dy8 Ho2 Ga3 Ni1 Bi2'
_cell_volume   426.85550640
_cell_formula_units_Z   1
loop_
 _symmetry_equiv_pos_site_id
 _symmetry_equiv_pos_as_xyz
  1  'x, y, z'
loop_
 _atom_site_type_symbol
 _atom_site_label
 _atom_site_symmetry_multiplicity
 _atom_site_fract_x
 _atom_site_fract_y
 _atom_site_fract_z
 _atom_site_occupancy
  Dy  Dy0  1  0.780238  0.296363  0.795881  1
  Dy  Dy1  1  0.203637  0.719762  0.204119  1
  Dy  Dy2  1  0.484356  0.000481  0.204119  1
  Dy  Dy3  1  0.303265  0.460047  0.500000  1
  Dy  Dy4  1  0.039953  0.196735  0.500000  1
  Dy  Dy5  1  0.499519  0.015644  0.795881  1
  Dy  Dy6  1  0.704406  0.515841  0.500000  1
  Dy  Dy7  1  0.984159  0.795594  0.500000  1
  Ho  Ho8  1  0.995290  0.997346  0.992636  1
  Ho  Ho9  1  0.502654  0.504710  0.007364  1
  Ga  Ga10  1  0.146164  0.644555  0.790719  1
  Ga  Ga11  1  0.855445  0.353836  0.209281  1
  Ga  Ga12  1  0.634467  0.865533  0.500000  1
  Ni  Ni13  1  0.377338  0.122662  0.500000  1
  Bi  Bi14  1  0.244554  0.255446  0.000000  1
  Bi  Bi15  1  0.744554  0.755446  0.000000  1
