# generated using pymatgen
data_Pr2ZnNiI
_symmetry_space_group_name_H-M   'P 1'
_cell_length_a   4.23573200
_cell_length_b   4.23573242
_cell_length_c   17.48055200
_cell_angle_alpha   90.00000000
_cell_angle_beta   90.00000000
_cell_angle_gamma   119.99999672
_symmetry_Int_Tables_number   1
_chemical_formula_structural   Pr2ZnNiI
_chemical_formula_sum   'Pr4 Zn2 Ni2 I2'
_cell_volume   271.60813884
_cell_formula_units_Z   2
loop_
 _symmetry_equiv_pos_site_id
 _symmetry_equiv_pos_as_xyz
  1  'x, y, z'
loop_
 _atom_site_type_symbol
 _atom_site_label
 _atom_site_symmetry_multiplicity
 _atom_site_fract_x
 _atom_site_fract_y
 _atom_site_fract_z
 _atom_site_occupancy
  Pr  Pr0  1  0.000000  0.000000  0.606215  1
  Pr  Pr1  1  0.000000  0.000000  0.394780  1
  Pr  Pr2  1  0.000000  0.000000  0.106215  1
  Pr  Pr3  1  0.000000  0.000000  0.894780  1
  Zn  Zn4  1  0.666667  0.333333  0.501051  1
  Zn  Zn5  1  0.333333  0.666667  0.001051  1
  Ni  Ni6  1  0.666667  0.333333  0.998416  1
  Ni  Ni7  1  0.333333  0.666667  0.498416  1
  I  I8  1  0.666667  0.333333  0.249539  1
  I  I9  1  0.333333  0.666667  0.749539  1
