# generated using pymatgen
data_HoEr2(Ni3P2)3
_symmetry_space_group_name_H-M   'P 1'
_cell_length_a   3.75259400
_cell_length_b   10.43022700
_cell_length_c   12.24968600
_cell_angle_alpha   90.00000000
_cell_angle_beta   90.00000000
_cell_angle_gamma   90.00000000
_symmetry_Int_Tables_number   1
_chemical_formula_structural   HoEr2(Ni3P2)3
_chemical_formula_sum   'Ho2 Er4 Ni18 P12'
_cell_volume   479.45769883
_cell_formula_units_Z   2
loop_
 _symmetry_equiv_pos_site_id
 _symmetry_equiv_pos_as_xyz
  1  'x, y, z'
loop_
 _atom_site_type_symbol
 _atom_site_label
 _atom_site_symmetry_multiplicity
 _atom_site_fract_x
 _atom_site_fract_y
 _atom_site_fract_z
 _atom_site_occupancy
  Ho  Ho0  1  0.000000  0.500000  0.521491  1
  Ho  Ho1  1  0.500000  0.000000  0.478509  1
  Er  Er2  1  0.500000  0.817028  0.205897  1
  Er  Er3  1  0.500000  0.182972  0.205897  1
  Er  Er4  1  0.000000  0.682972  0.794103  1
  Er  Er5  1  0.000000  0.317028  0.794103  1
  Ni  Ni6  1  0.000000  0.500000  0.983870  1
  Ni  Ni7  1  0.500000  0.000000  0.016130  1
  Ni  Ni8  1  0.500000  0.301019  0.428806  1
  Ni  Ni9  1  0.500000  0.698981  0.428806  1
  Ni  Ni10  1  0.000000  0.198981  0.571194  1
  Ni  Ni11  1  0.000000  0.801019  0.571194  1
  Ni  Ni12  1  0.500000  0.878703  0.711003  1
  Ni  Ni13  1  0.500000  0.121297  0.711003  1
  Ni  Ni14  1  0.000000  0.621297  0.288997  1
  Ni  Ni15  1  0.000000  0.378703  0.288997  1
  Ni  Ni16  1  0.500000  0.332676  0.996006  1
  Ni  Ni17  1  0.500000  0.667324  0.996006  1
  Ni  Ni18  1  0.000000  0.167324  0.003994  1
  Ni  Ni19  1  0.000000  0.832676  0.003994  1
  Ni  Ni20  1  0.500000  0.500000  0.158749  1
  Ni  Ni21  1  0.000000  0.000000  0.841251  1
  Ni  Ni22  1  0.500000  0.500000  0.699894  1
  Ni  Ni23  1  0.000000  0.000000  0.300106  1
  P  P24  1  0.500000  0.313698  0.614552  1
  P  P25  1  0.500000  0.686302  0.614552  1
  P  P26  1  0.000000  0.186302  0.385448  1
  P  P27  1  0.000000  0.813698  0.385448  1
  P  P28  1  0.500000  0.500000  0.876327  1
  P  P29  1  0.000000  0.000000  0.123673  1
  P  P30  1  0.500000  0.847324  0.892183  1
  P  P31  1  0.500000  0.152676  0.892183  1
  P  P32  1  0.000000  0.652676  0.107817  1
  P  P33  1  0.000000  0.347324  0.107817  1
  P  P34  1  0.500000  0.500000  0.344610  1
  P  P35  1  0.000000  0.000000  0.655390  1
