# generated using pymatgen
data_ZrPaNiAs2
_symmetry_space_group_name_H-M   'P 1'
_cell_length_a   3.98776000
_cell_length_b   3.98775996
_cell_length_c   13.89073100
_cell_angle_alpha   90.00000000
_cell_angle_beta   90.00000000
_cell_angle_gamma   119.99998371
_symmetry_Int_Tables_number   1
_chemical_formula_structural   ZrPaNiAs2
_chemical_formula_sum   'Zr2 Pa2 Ni2 As4'
_cell_volume   191.29949595
_cell_formula_units_Z   2
loop_
 _symmetry_equiv_pos_site_id
 _symmetry_equiv_pos_as_xyz
  1  'x, y, z'
loop_
 _atom_site_type_symbol
 _atom_site_label
 _atom_site_symmetry_multiplicity
 _atom_site_fract_x
 _atom_site_fract_y
 _atom_site_fract_z
 _atom_site_occupancy
  Zr  Zr0  1  0.333333  0.666667  0.613298  1
  Zr  Zr1  1  0.666667  0.333333  0.113298  1
  Pa  Pa2  1  0.666667  0.333333  0.384315  1
  Pa  Pa3  1  0.333333  0.666667  0.884315  1
  Ni  Ni4  1  0.000000  0.000000  0.749561  1
  Ni  Ni5  1  0.000000  0.000000  0.249561  1
  As  As6  1  0.333333  0.666667  0.243799  1
  As  As7  1  0.000000  0.000000  0.009027  1
  As  As8  1  0.000000  0.000000  0.509027  1
  As  As9  1  0.666667  0.333333  0.743799  1
