# generated using pymatgen
data_Na2Ca10Bi9
_symmetry_space_group_name_H-M   'P 1'
_cell_length_a   12.22533700
_cell_length_b   12.22533700
_cell_length_c   17.85618800
_cell_angle_alpha   90.00000000
_cell_angle_beta   90.00000000
_cell_angle_gamma   90.00000000
_symmetry_Int_Tables_number   1
_chemical_formula_structural   Na2Ca10Bi9
_chemical_formula_sum   'Na8 Ca40 Bi36'
_cell_volume   2668.76558748
_cell_formula_units_Z   4
loop_
 _symmetry_equiv_pos_site_id
 _symmetry_equiv_pos_as_xyz
  1  'x, y, z'
loop_
 _atom_site_type_symbol
 _atom_site_label
 _atom_site_symmetry_multiplicity
 _atom_site_fract_x
 _atom_site_fract_y
 _atom_site_fract_z
 _atom_site_occupancy
  Na  Na0  1  0.799685  0.200315  0.500000  1
  Na  Na1  1  0.299685  0.299685  0.000000  1
  Na  Na2  1  0.700315  0.700315  0.000000  1
  Na  Na3  1  0.200315  0.799685  0.500000  1
  Na  Na4  1  0.105591  0.105591  0.000000  1
  Na  Na5  1  0.394409  0.605591  0.500000  1
  Na  Na6  1  0.605591  0.394409  0.500000  1
  Na  Na7  1  0.894409  0.894409  0.000000  1
  Ca  Ca8  1  0.989353  0.661023  0.395268  1
  Ca  Ca9  1  0.989353  0.661023  0.604732  1
  Ca  Ca10  1  0.247813  0.511798  0.689633  1
  Ca  Ca11  1  0.011798  0.252187  0.189633  1
  Ca  Ca12  1  0.010647  0.338977  0.604732  1
  Ca  Ca13  1  0.500000  0.500000  0.838930  1
  Ca  Ca14  1  0.489353  0.838977  0.104732  1
  Ca  Ca15  1  0.747813  0.988202  0.810367  1
  Ca  Ca16  1  0.511798  0.247813  0.689633  1
  Ca  Ca17  1  0.010647  0.338977  0.395268  1
  Ca  Ca18  1  0.500000  0.500000  0.161070  1
  Ca  Ca19  1  0.488202  0.752187  0.310367  1
  Ca  Ca20  1  0.661023  0.989353  0.604732  1
  Ca  Ca21  1  0.661023  0.989353  0.395268  1
  Ca  Ca22  1  0.752187  0.488202  0.689633  1
  Ca  Ca23  1  0.988202  0.747813  0.189633  1
  Ca  Ca24  1  0.185138  0.814862  0.000000  1
  Ca  Ca25  1  0.000000  0.000000  0.661070  1
  Ca  Ca26  1  0.510647  0.161023  0.895268  1
  Ca  Ca27  1  0.252187  0.011798  0.810367  1
  Ca  Ca28  1  0.314862  0.314862  0.500000  1
  Ca  Ca29  1  0.000000  0.000000  0.338930  1
  Ca  Ca30  1  0.011798  0.252187  0.810367  1
  Ca  Ca31  1  0.489353  0.838977  0.895268  1
  Ca  Ca32  1  0.752187  0.488202  0.310367  1
  Ca  Ca33  1  0.838977  0.489353  0.104732  1
  Ca  Ca34  1  0.338977  0.010647  0.604732  1
  Ca  Ca35  1  0.488202  0.752187  0.689633  1
  Ca  Ca36  1  0.747813  0.988202  0.189633  1
  Ca  Ca37  1  0.338977  0.010647  0.395268  1
  Ca  Ca38  1  0.988202  0.747813  0.810367  1
  Ca  Ca39  1  0.511798  0.247813  0.310367  1
  Ca  Ca40  1  0.838977  0.489353  0.895268  1
  Ca  Ca41  1  0.161023  0.510647  0.895268  1
  Ca  Ca42  1  0.685138  0.685138  0.500000  1
  Ca  Ca43  1  0.247813  0.511798  0.310367  1
  Ca  Ca44  1  0.161023  0.510647  0.104732  1
  Ca  Ca45  1  0.510647  0.161023  0.104732  1
  Ca  Ca46  1  0.814862  0.185138  0.000000  1
  Ca  Ca47  1  0.252187  0.011798  0.189633  1
  Bi  Bi48  1  0.810356  0.189644  0.323786  1
  Bi  Bi49  1  0.500000  0.500000  0.641731  1
  Bi  Bi50  1  0.283757  0.716243  0.172970  1
  Bi  Bi51  1  0.716243  0.283757  0.172970  1
  Bi  Bi52  1  0.615401  0.384599  0.000000  1
  Bi  Bi53  1  0.000000  0.500000  0.250000  1
  Bi  Bi54  1  0.810356  0.189644  0.676214  1
  Bi  Bi55  1  0.310356  0.310356  0.176214  1
  Bi  Bi56  1  0.655659  0.977853  0.000000  1
  Bi  Bi57  1  0.189644  0.810356  0.323786  1
  Bi  Bi58  1  0.500000  0.000000  0.250000  1
  Bi  Bi59  1  0.783757  0.783757  0.672970  1
  Bi  Bi60  1  0.500000  0.000000  0.750000  1
  Bi  Bi61  1  0.500000  0.500000  0.358269  1
  Bi  Bi62  1  0.000000  0.000000  0.858269  1
  Bi  Bi63  1  0.716243  0.283757  0.827030  1
  Bi  Bi64  1  0.216243  0.216243  0.672970  1
  Bi  Bi65  1  0.189644  0.810356  0.676214  1
  Bi  Bi66  1  0.977853  0.655659  0.000000  1
  Bi  Bi67  1  0.783757  0.783757  0.327030  1
  Bi  Bi68  1  0.477853  0.844341  0.500000  1
  Bi  Bi69  1  0.155659  0.522147  0.500000  1
  Bi  Bi70  1  0.689644  0.689644  0.176214  1
  Bi  Bi71  1  0.884599  0.884599  0.500000  1
  Bi  Bi72  1  0.344341  0.022147  0.000000  1
  Bi  Bi73  1  0.844341  0.477853  0.500000  1
  Bi  Bi74  1  0.384599  0.615401  0.000000  1
  Bi  Bi75  1  0.522147  0.155659  0.500000  1
  Bi  Bi76  1  0.022147  0.344341  0.000000  1
  Bi  Bi77  1  0.216243  0.216243  0.327030  1
  Bi  Bi78  1  0.689644  0.689644  0.823786  1
  Bi  Bi79  1  0.115401  0.115401  0.500000  1
  Bi  Bi80  1  0.000000  0.500000  0.750000  1
  Bi  Bi81  1  0.283757  0.716243  0.827030  1
  Bi  Bi82  1  0.310356  0.310356  0.823786  1
  Bi  Bi83  1  0.000000  0.000000  0.141731  1
