# generated using pymatgen
data_Lu4Ta2NiOs5
_symmetry_space_group_name_H-M   'P 1'
_cell_length_a   5.49636400
_cell_length_b   5.50386994
_cell_length_c   8.38181000
_cell_angle_alpha   90.00000000
_cell_angle_beta   90.00000000
_cell_angle_gamma   119.95489751
_symmetry_Int_Tables_number   1
_chemical_formula_structural   Lu4Ta2NiOs5
_chemical_formula_sum   'Lu4 Ta2 Ni1 Os5'
_cell_volume   219.68949620
_cell_formula_units_Z   1
loop_
 _symmetry_equiv_pos_site_id
 _symmetry_equiv_pos_as_xyz
  1  'x, y, z'
loop_
 _atom_site_type_symbol
 _atom_site_label
 _atom_site_symmetry_multiplicity
 _atom_site_fract_x
 _atom_site_fract_y
 _atom_site_fract_z
 _atom_site_occupancy
  Lu  Lu0  1  0.334032  0.668066  0.438899  1
  Lu  Lu1  1  0.666249  0.332498  0.564961  1
  Lu  Lu2  1  0.666249  0.332498  0.935039  1
  Lu  Lu3  1  0.334032  0.668066  0.061101  1
  Ta  Ta4  1  0.998443  0.996887  0.998784  1
  Ta  Ta5  1  0.998443  0.996887  0.501216  1
  Ni  Ni6  1  0.169946  0.339893  0.750000  1
  Os  Os7  1  0.176466  0.825927  0.750000  1
  Os  Os8  1  0.349863  0.179394  0.250000  1
  Os  Os9  1  0.827282  0.654564  0.250000  1
  Os  Os10  1  0.649460  0.825927  0.750000  1
  Os  Os11  1  0.829532  0.179394  0.250000  1
