# generated using pymatgen
data_Pm4C3
_symmetry_space_group_name_H-M   'P 1'
_cell_length_a   3.88168547
_cell_length_b   6.67150205
_cell_length_c   6.59307302
_cell_angle_alpha   99.18438743
_cell_angle_beta   84.01974096
_cell_angle_gamma   78.85210842
_symmetry_Int_Tables_number   1
_chemical_formula_structural   Pm4C3
_chemical_formula_sum   'Pm4 C3'
_cell_volume   163.75410536
_cell_formula_units_Z   1
loop_
 _symmetry_equiv_pos_site_id
 _symmetry_equiv_pos_as_xyz
  1  'x, y, z'
loop_
 _atom_site_type_symbol
 _atom_site_label
 _atom_site_symmetry_multiplicity
 _atom_site_fract_x
 _atom_site_fract_y
 _atom_site_fract_z
 _atom_site_occupancy
  Pm  Pm0  1  0.567100  0.077770  0.848099  1
  Pm  Pm1  1  0.981651  0.111050  0.332152  1
  Pm  Pm2  1  0.281304  0.557098  0.547036  1
  Pm  Pm3  1  0.869040  0.521919  0.065914  1
  C  C4  1  0.789188  0.383818  0.670005  1
  C  C5  1  0.424589  0.315955  0.198239  1
  C  C6  1  0.058588  0.253407  0.727256  1
