# generated using pymatgen
data_Y14Er6Ir11Ru
_symmetry_space_group_name_H-M   'P 1'
_cell_length_a   10.86875403
_cell_length_b   10.86810601
_cell_length_c   6.39450902
_cell_angle_alpha   89.99622741
_cell_angle_beta   89.99191200
_cell_angle_gamma   90.00211912
_symmetry_Int_Tables_number   1
_chemical_formula_structural   Y14Er6Ir11Ru
_chemical_formula_sum   'Y14 Er6 Ir11 Ru1'
_cell_volume   755.33711461
_cell_formula_units_Z   1
loop_
 _symmetry_equiv_pos_site_id
 _symmetry_equiv_pos_as_xyz
  1  'x, y, z'
loop_
 _atom_site_type_symbol
 _atom_site_label
 _atom_site_symmetry_multiplicity
 _atom_site_fract_x
 _atom_site_fract_y
 _atom_site_fract_z
 _atom_site_occupancy
  Y  Y0  1  0.291748  0.087100  0.376116  1
  Y  Y1  1  0.292091  0.912809  0.879001  1
  Y  Y2  1  0.707720  0.087031  0.879124  1
  Y  Y3  1  0.708066  0.913060  0.376288  1
  Y  Y4  1  0.587036  0.792247  0.879085  1
  Y  Y5  1  0.586944  0.208097  0.376249  1
  Y  Y6  1  0.412988  0.791900  0.376304  1
  Y  Y7  1  0.412889  0.207767  0.879147  1
  Y  Y8  1  0.209407  0.411988  0.622498  1
  Y  Y9  1  0.209374  0.587864  0.122150  1
  Y  Y10  1  0.790732  0.412030  0.122098  1
  Y  Y11  1  0.790691  0.588122  0.622466  1
  Y  Y12  1  0.912184  0.709513  0.122169  1
  Y  Y13  1  0.912032  0.290453  0.622516  1
  Er  Er14  1  0.087889  0.708901  0.621928  1
  Er  Er15  1  0.087768  0.291130  0.121610  1
  Er  Er16  1  0.000118  0.999822  0.499462  1
  Er  Er17  1  0.000127  0.000165  0.999417  1
  Er  Er18  1  0.499995  0.500020  0.999312  1
  Er  Er19  1  0.499991  0.500008  0.499394  1
  Ir  Ir20  1  0.848225  0.153086  0.249784  1
  Ir  Ir21  1  0.848224  0.847292  0.749533  1
  Ir  Ir22  1  0.151964  0.152875  0.750742  1
  Ir  Ir23  1  0.151972  0.846750  0.250996  1
  Ir  Ir24  1  0.652553  0.347897  0.749736  1
  Ir  Ir25  1  0.652934  0.652112  0.249949  1
  Ir  Ir26  1  0.346532  0.347785  0.249708  1
  Ir  Ir27  1  0.346941  0.652195  0.749451  1
  Ir  Ir28  1  0.499992  0.000004  0.623120  1
  Ir  Ir29  1  0.000439  0.499926  0.878367  1
  Ir  Ir30  1  0.000440  0.500068  0.378408  1
  Ru  Ru31  1  0.499992  0.999987  0.123870  1
