# generated using pymatgen
data_Ca3Er5(CdIn)4
_symmetry_space_group_name_H-M   'P 1'
_cell_length_a   7.37264060
_cell_length_b   5.39662500
_cell_length_c   10.76284784
_cell_angle_alpha   90.00000000
_cell_angle_beta   89.95422175
_cell_angle_gamma   90.00000000
_symmetry_Int_Tables_number   1
_chemical_formula_structural   Ca3Er5(CdIn)4
_chemical_formula_sum   'Ca3 Er5 Cd4 In4'
_cell_volume   428.22534346
_cell_formula_units_Z   1
loop_
 _symmetry_equiv_pos_site_id
 _symmetry_equiv_pos_as_xyz
  1  'x, y, z'
loop_
 _atom_site_type_symbol
 _atom_site_label
 _atom_site_symmetry_multiplicity
 _atom_site_fract_x
 _atom_site_fract_y
 _atom_site_fract_z
 _atom_site_occupancy
  Ca  Ca0  1  0.499083  0.750000  0.628802  1
  Ca  Ca1  1  0.001335  0.250000  0.873327  1
  Ca  Ca2  1  0.499004  0.250000  0.870625  1
  Er  Er3  1  0.500542  0.750000  0.126913  1
  Er  Er4  1  0.002297  0.750000  0.126779  1
  Er  Er5  1  0.501391  0.250000  0.373612  1
  Er  Er6  1  0.997881  0.250000  0.370836  1
  Er  Er7  1  0.998522  0.750000  0.629169  1
  Cd  Cd8  1  0.749769  0.250000  0.127650  1
  Cd  Cd9  1  0.247961  0.750000  0.375769  1
  Cd  Cd10  1  0.756787  0.250000  0.613201  1
  Cd  Cd11  1  0.246689  0.750000  0.883055  1
  In  In12  1  0.251827  0.250000  0.128371  1
  In  In13  1  0.751973  0.750000  0.375382  1
  In  In14  1  0.241550  0.250000  0.613992  1
  In  In15  1  0.753388  0.750000  0.882518  1
