# generated using pymatgen
data_Rb3Pa2InBr12
_symmetry_space_group_name_H-M   'P 1'
_cell_length_a   7.95008439
_cell_length_b   7.95008439
_cell_length_c   11.59571200
_cell_angle_alpha   90.00000000
_cell_angle_beta   90.00000000
_cell_angle_gamma   90.53422355
_symmetry_Int_Tables_number   1
_chemical_formula_structural   Rb3Pa2InBr12
_chemical_formula_sum   'Rb3 Pa2 In1 Br12'
_cell_volume   732.86169030
_cell_formula_units_Z   1
loop_
 _symmetry_equiv_pos_site_id
 _symmetry_equiv_pos_as_xyz
  1  'x, y, z'
loop_
 _atom_site_type_symbol
 _atom_site_label
 _atom_site_symmetry_multiplicity
 _atom_site_fract_x
 _atom_site_fract_y
 _atom_site_fract_z
 _atom_site_occupancy
  Rb  Rb0  1  0.000000  0.500000  0.250000  1
  Rb  Rb1  1  0.000000  0.500000  0.750000  1
  Rb  Rb2  1  0.500000  0.000000  0.750000  1
  Pa  Pa3  1  0.000000  0.000000  0.498079  1
  Pa  Pa4  1  0.500000  0.500000  0.001921  1
  In  In5  1  0.500000  0.000000  0.250000  1
  Br  Br6  1  0.821880  0.693794  0.500434  1
  Br  Br7  1  0.193794  0.321880  0.999566  1
  Br  Br8  1  0.500000  0.500000  0.758658  1
  Br  Br9  1  0.307376  0.825647  0.494806  1
  Br  Br10  1  0.000000  0.000000  0.256391  1
  Br  Br11  1  0.806206  0.678120  0.999566  1
  Br  Br12  1  0.674353  0.192624  0.005194  1
  Br  Br13  1  0.325647  0.807376  0.005194  1
  Br  Br14  1  0.000000  0.000000  0.741342  1
  Br  Br15  1  0.178120  0.306206  0.500434  1
  Br  Br16  1  0.500000  0.500000  0.243609  1
  Br  Br17  1  0.692624  0.174353  0.494806  1
