# generated using pymatgen
data_DyHoPa2O8
_symmetry_space_group_name_H-M   'P 1'
_cell_length_a   6.59616172
_cell_length_b   6.59616090
_cell_length_c   6.59616093
_cell_angle_alpha   131.77692200
_cell_angle_beta   131.77689680
_cell_angle_gamma   70.58160144
_symmetry_Int_Tables_number   1
_chemical_formula_structural   DyHoPa2O8
_chemical_formula_sum   'Dy1 Ho1 Pa2 O8'
_cell_volume   156.37280817
_cell_formula_units_Z   1
loop_
 _symmetry_equiv_pos_site_id
 _symmetry_equiv_pos_as_xyz
  1  'x, y, z'
loop_
 _atom_site_type_symbol
 _atom_site_label
 _atom_site_symmetry_multiplicity
 _atom_site_fract_x
 _atom_site_fract_y
 _atom_site_fract_z
 _atom_site_occupancy
  Dy  Dy0  1  0.250000  0.750000  0.500000  1
  Ho  Ho1  1  0.500000  0.500000  0.000000  1
  Pa  Pa2  1  0.000000  0.000000  0.000000  1
  Pa  Pa3  1  0.750000  0.250000  0.500000  1
  O  O4  1  0.375137  0.365354  0.490672  1
  O  O5  1  0.874681  0.884464  0.509328  1
  O  O6  1  0.115536  0.125319  0.490672  1
  O  O7  1  0.634646  0.125319  0.009782  1
  O  O8  1  0.874681  0.365354  0.990218  1
  O  O9  1  0.634646  0.624863  0.509328  1
  O  O10  1  0.115536  0.624863  0.990218  1
  O  O11  1  0.375137  0.884464  0.009782  1
