# generated using pymatgen
data_Ba(BrF6)2
_symmetry_space_group_name_H-M   'P 1'
_cell_length_a   5.70612090
_cell_length_b   5.61994387
_cell_length_c   10.12481755
_cell_angle_alpha   97.39893667
_cell_angle_beta   96.31600094
_cell_angle_gamma   119.20447368
_symmetry_Int_Tables_number   1
_chemical_formula_structural   Ba(BrF6)2
_chemical_formula_sum   'Ba1 Br2 F12'
_cell_volume   275.39115505
_cell_formula_units_Z   1
loop_
 _symmetry_equiv_pos_site_id
 _symmetry_equiv_pos_as_xyz
  1  'x, y, z'
loop_
 _atom_site_type_symbol
 _atom_site_label
 _atom_site_symmetry_multiplicity
 _atom_site_fract_x
 _atom_site_fract_y
 _atom_site_fract_z
 _atom_site_occupancy
  Ba  Ba0  1  0.983856  0.967560  0.899728  1
  Br  Br1  1  0.214466  0.500803  0.602512  1
  Br  Br2  1  0.383458  0.694932  0.126517  1
  F  F3  1  0.260819  0.905191  0.216916  1
  F  F4  1  0.545240  0.570635  0.731635  1
  F  F5  1  0.054488  0.541907  0.977244  1
  F  F6  1  0.182207  0.388960  0.200022  1
  F  F7  1  0.494983  0.467877  0.016202  1
  F  F8  1  0.228584  0.230164  0.491633  1
  F  F9  1  0.683341  0.828909  0.259960  1
  F  F10  1  0.209902  0.807662  0.725092  1
  F  F11  1  0.914029  0.437336  0.487207  1
  F  F12  1  0.974115  0.219737  0.701396  1
  F  F13  1  0.433547  0.755493  0.512275  1
  F  F14  1  0.584962  0.992835  0.029659  1
