# generated using pymatgen
data_Te2IrF12
_symmetry_space_group_name_H-M   'P 1'
_cell_length_a   5.81446380
_cell_length_b   6.39628293
_cell_length_c   9.06317946
_cell_angle_alpha   69.63595952
_cell_angle_beta   73.54305266
_cell_angle_gamma   62.82624558
_symmetry_Int_Tables_number   1
_chemical_formula_structural   Te2IrF12
_chemical_formula_sum   'Te2 Ir1 F12'
_cell_volume   277.97982517
_cell_formula_units_Z   1
loop_
 _symmetry_equiv_pos_site_id
 _symmetry_equiv_pos_as_xyz
  1  'x, y, z'
loop_
 _atom_site_type_symbol
 _atom_site_label
 _atom_site_symmetry_multiplicity
 _atom_site_fract_x
 _atom_site_fract_y
 _atom_site_fract_z
 _atom_site_occupancy
  Te  Te0  1  0.746831  0.743381  0.762432  1
  Te  Te1  1  0.253169  0.256619  0.237568  1
  Ir  Ir2  1  0.000000  0.000000  0.000000  1
  F  F3  1  0.004917  0.705130  0.580919  1
  F  F4  1  0.995083  0.294870  0.419081  1
  F  F5  1  0.587628  0.590839  0.703615  1
  F  F6  1  0.389472  0.813981  0.961987  1
  F  F7  1  0.610528  0.186019  0.038013  1
  F  F8  1  0.033043  0.027014  0.200324  1
  F  F9  1  0.966957  0.972986  0.799676  1
  F  F10  1  0.037373  0.308500  0.894621  1
  F  F11  1  0.962627  0.691500  0.105379  1
  F  F12  1  0.460387  0.949484  0.353099  1
  F  F13  1  0.539613  0.050516  0.646901  1
  F  F14  1  0.412372  0.409161  0.296385  1
