# generated using pymatgen
data_Ho4NbPt15
_symmetry_space_group_name_H-M   'P 1'
_cell_length_a   4.09848600
_cell_length_b   4.09848600
_cell_length_c   20.38423300
_cell_angle_alpha   90.00000000
_cell_angle_beta   90.00000000
_cell_angle_gamma   90.00000000
_symmetry_Int_Tables_number   1
_chemical_formula_structural   Ho4NbPt15
_chemical_formula_sum   'Ho4 Nb1 Pt15'
_cell_volume   342.40593728
_cell_formula_units_Z   1
loop_
 _symmetry_equiv_pos_site_id
 _symmetry_equiv_pos_as_xyz
  1  'x, y, z'
loop_
 _atom_site_type_symbol
 _atom_site_label
 _atom_site_symmetry_multiplicity
 _atom_site_fract_x
 _atom_site_fract_y
 _atom_site_fract_z
 _atom_site_occupancy
  Ho  Ho0  1  0.000000  0.000000  0.199540  1
  Ho  Ho1  1  0.000000  0.000000  0.399747  1
  Ho  Ho2  1  0.000000  0.000000  0.600253  1
  Ho  Ho3  1  0.000000  0.000000  0.800460  1
  Nb  Nb4  1  0.000000  0.000000  0.000000  1
  Pt  Pt5  1  0.500000  0.500000  0.000000  1
  Pt  Pt6  1  0.500000  0.500000  0.195777  1
  Pt  Pt7  1  0.500000  0.500000  0.399226  1
  Pt  Pt8  1  0.500000  0.500000  0.600774  1
  Pt  Pt9  1  0.500000  0.500000  0.804223  1
  Pt  Pt10  1  0.500000  0.000000  0.093094  1
  Pt  Pt11  1  0.500000  0.000000  0.298284  1
  Pt  Pt12  1  0.500000  0.000000  0.500000  1
  Pt  Pt13  1  0.500000  0.000000  0.701716  1
  Pt  Pt14  1  0.500000  0.000000  0.906906  1
  Pt  Pt15  1  0.000000  0.500000  0.093094  1
  Pt  Pt16  1  0.000000  0.500000  0.298284  1
  Pt  Pt17  1  0.000000  0.500000  0.500000  1
  Pt  Pt18  1  0.000000  0.500000  0.701716  1
  Pt  Pt19  1  0.000000  0.500000  0.906906  1
