# generated using pymatgen
data_Nd11In9Ni3Ir
_symmetry_space_group_name_H-M   'P 1'
_cell_length_a   13.33832639
_cell_length_b   13.32736133
_cell_length_c   3.78486100
_cell_angle_alpha   90.00000000
_cell_angle_beta   90.00000000
_cell_angle_gamma   111.07714827
_symmetry_Int_Tables_number   1
_chemical_formula_structural   Nd11In9Ni3Ir
_chemical_formula_sum   'Nd11 In9 Ni3 Ir1'
_cell_volume   627.80137063
_cell_formula_units_Z   1
loop_
 _symmetry_equiv_pos_site_id
 _symmetry_equiv_pos_as_xyz
  1  'x, y, z'
loop_
 _atom_site_type_symbol
 _atom_site_label
 _atom_site_symmetry_multiplicity
 _atom_site_fract_x
 _atom_site_fract_y
 _atom_site_fract_z
 _atom_site_occupancy
  Nd  Nd0  1  0.075922  0.419318  0.000000  1
  Nd  Nd1  1  0.921345  0.581369  0.000000  1
  Nd  Nd2  1  0.419849  0.076612  0.000000  1
  Nd  Nd3  1  0.580649  0.923243  0.000000  1
  Nd  Nd4  1  0.626062  0.371356  0.000000  1
  Nd  Nd5  1  0.371051  0.625013  0.000000  1
  Nd  Nd6  1  0.840103  0.158843  0.000000  1
  Nd  Nd7  1  0.158944  0.840900  0.000000  1
  Nd  Nd8  1  0.000083  0.999669  0.000000  1
  Nd  Nd9  1  0.312517  0.312998  0.000000  1
  Nd  Nd10  1  0.687896  0.688883  0.000000  1
  In  In11  1  0.836980  0.367697  0.500000  1
  In  In12  1  0.162277  0.633798  0.500000  1
  In  In13  1  0.368196  0.839419  0.500000  1
  In  In14  1  0.631911  0.161127  0.500000  1
  In  In15  1  0.079211  0.220067  0.500000  1
  In  In16  1  0.920822  0.779492  0.500000  1
  In  In17  1  0.221108  0.078351  0.500000  1
  In  In18  1  0.778962  0.921323  0.500000  1
  In  In19  1  0.501689  0.500860  0.500000  1
  Ni  Ni20  1  0.751998  0.549725  0.500000  1
  Ni  Ni21  1  0.451657  0.244926  0.500000  1
  Ni  Ni22  1  0.554044  0.755886  0.500000  1
  Ir  Ir23  1  0.246725  0.449127  0.500000  1
