# generated using pymatgen
data_DyY3Ga18(CuRu2)2
_symmetry_space_group_name_H-M   'P 1'
_cell_length_a   7.56184402
_cell_length_b   7.56219695
_cell_length_c   9.58521100
_cell_angle_alpha   90.00000000
_cell_angle_beta   90.00000000
_cell_angle_gamma   119.88767585
_symmetry_Int_Tables_number   1
_chemical_formula_structural   DyY3Ga18(CuRu2)2
_chemical_formula_sum   'Dy1 Y3 Ga18 Cu2 Ru4'
_cell_volume   475.22409609
_cell_formula_units_Z   1
loop_
 _symmetry_equiv_pos_site_id
 _symmetry_equiv_pos_as_xyz
  1  'x, y, z'
loop_
 _atom_site_type_symbol
 _atom_site_label
 _atom_site_symmetry_multiplicity
 _atom_site_fract_x
 _atom_site_fract_y
 _atom_site_fract_z
 _atom_site_occupancy
  Dy  Dy0  1  0.996546  0.669426  0.250000  1
  Y  Y1  1  0.003587  0.330523  0.750000  1
  Y  Y2  1  0.669370  0.996405  0.250000  1
  Y  Y3  1  0.330637  0.003666  0.750000  1
  Ga  Ga4  1  0.125983  0.125871  0.250000  1
  Ga  Ga5  1  0.874060  0.874075  0.750000  1
  Ga  Ga6  1  0.002368  0.337081  0.077144  1
  Ga  Ga7  1  0.997626  0.663015  0.922992  1
  Ga  Ga8  1  0.997626  0.663015  0.577008  1
  Ga  Ga9  1  0.336879  0.002242  0.422877  1
  Ga  Ga10  1  0.002368  0.337081  0.422856  1
  Ga  Ga11  1  0.662983  0.997621  0.577114  1
  Ga  Ga12  1  0.662983  0.997621  0.922886  1
  Ga  Ga13  1  0.336879  0.002242  0.077123  1
  Ga  Ga14  1  0.339117  0.339115  0.562868  1
  Ga  Ga15  1  0.660942  0.660898  0.437116  1
  Ga  Ga16  1  0.660942  0.660898  0.062884  1
  Ga  Ga17  1  0.339117  0.339115  0.937132  1
  Ga  Ga18  1  0.334928  0.549361  0.250000  1
  Ga  Ga19  1  0.664934  0.450576  0.750000  1
  Ga  Ga20  1  0.549445  0.335113  0.250000  1
  Ga  Ga21  1  0.450592  0.664962  0.750000  1
  Cu  Cu22  1  0.999981  0.999991  0.000001  1
  Cu  Cu23  1  0.999981  0.999991  0.499999  1
  Ru  Ru24  1  0.673229  0.326858  0.999988  1
  Ru  Ru25  1  0.326832  0.673190  0.000012  1
  Ru  Ru26  1  0.326832  0.673190  0.499988  1
  Ru  Ru27  1  0.673229  0.326858  0.500012  1
