# generated using pymatgen
data_La2Ho4FeI10
_symmetry_space_group_name_H-M   'P 1'
_cell_length_a   7.80939840
_cell_length_b   9.83729261
_cell_length_c   9.64364253
_cell_angle_alpha   106.58870054
_cell_angle_beta   95.43492627
_cell_angle_gamma   105.85883360
_symmetry_Int_Tables_number   1
_chemical_formula_structural   La2Ho4FeI10
_chemical_formula_sum   'La2 Ho4 Fe1 I10'
_cell_volume   670.90083934
_cell_formula_units_Z   1
loop_
 _symmetry_equiv_pos_site_id
 _symmetry_equiv_pos_as_xyz
  1  'x, y, z'
loop_
 _atom_site_type_symbol
 _atom_site_label
 _atom_site_symmetry_multiplicity
 _atom_site_fract_x
 _atom_site_fract_y
 _atom_site_fract_z
 _atom_site_occupancy
  La  La0  1  0.890137  0.959144  0.221672  1
  La  La1  1  0.109863  0.040856  0.778328  1
  Ho  Ho2  1  0.028464  0.715258  0.913654  1
  Ho  Ho3  1  0.971536  0.284742  0.086346  1
  Ho  Ho4  1  0.652534  0.874563  0.835880  1
  Ho  Ho5  1  0.347466  0.125437  0.164120  1
  Fe  Fe6  1  0.000000  0.000000  0.000000  1
  I  I7  1  0.651164  0.552947  0.730494  1
  I  I8  1  0.348836  0.447053  0.269506  1
  I  I9  1  0.728953  0.909156  0.541707  1
  I  I10  1  0.271047  0.090844  0.458293  1
  I  I11  1  0.083013  0.378551  0.822462  1
  I  I12  1  0.916987  0.621449  0.177538  1
  I  I13  1  0.445958  0.816655  0.090106  1
  I  I14  1  0.554042  0.183345  0.909894  1
  I  I15  1  0.225064  0.736230  0.655931  1
  I  I16  1  0.774936  0.263770  0.344069  1
