# generated using pymatgen
data_Dy6Y5ErOs4
_symmetry_space_group_name_H-M   'P 1'
_cell_length_a   6.31665027
_cell_length_b   7.42414292
_cell_length_c   9.07662500
_cell_angle_alpha   90.02622430
_cell_angle_beta   90.15250273
_cell_angle_gamma   90.08310030
_symmetry_Int_Tables_number   1
_chemical_formula_structural   Dy6Y5ErOs4
_chemical_formula_sum   'Dy6 Y5 Er1 Os4'
_cell_volume   425.65281287
_cell_formula_units_Z   1
loop_
 _symmetry_equiv_pos_site_id
 _symmetry_equiv_pos_as_xyz
  1  'x, y, z'
loop_
 _atom_site_type_symbol
 _atom_site_label
 _atom_site_symmetry_multiplicity
 _atom_site_fract_x
 _atom_site_fract_y
 _atom_site_fract_z
 _atom_site_occupancy
  Dy  Dy0  1  0.167216  0.175362  0.436524  1
  Dy  Dy1  1  0.667443  0.324754  0.562923  1
  Dy  Dy2  1  0.832711  0.825586  0.937082  1
  Dy  Dy3  1  0.667686  0.324686  0.937089  1
  Dy  Dy4  1  0.832867  0.825087  0.562988  1
  Dy  Dy5  1  0.332675  0.674826  0.437006  1
  Y  Y6  1  0.332578  0.675410  0.062670  1
  Y  Y7  1  0.870516  0.538566  0.249987  1
  Y  Y8  1  0.629026  0.038916  0.249748  1
  Y  Y9  1  0.129534  0.461203  0.749968  1
  Y  Y10  1  0.370608  0.961585  0.749998  1
  Er  Er11  1  0.167274  0.174708  0.063221  1
  Os  Os12  1  0.042720  0.883581  0.250291  1
  Os  Os13  1  0.456379  0.381550  0.250542  1
  Os  Os14  1  0.956872  0.117188  0.750731  1
  Os  Os15  1  0.543895  0.616994  0.749233  1
