# generated using pymatgen
data_BaI10
_symmetry_space_group_name_H-M   'P 1'
_cell_length_a   10.54688680
_cell_length_b   10.54688616
_cell_length_c   11.32529860
_cell_angle_alpha   79.38883170
_cell_angle_beta   79.38884190
_cell_angle_gamma   94.85387485
_symmetry_Int_Tables_number   1
_chemical_formula_structural   BaI10
_chemical_formula_sum   'Ba2 I20'
_cell_volume   1207.87849032
_cell_formula_units_Z   2
loop_
 _symmetry_equiv_pos_site_id
 _symmetry_equiv_pos_as_xyz
  1  'x, y, z'
loop_
 _atom_site_type_symbol
 _atom_site_label
 _atom_site_symmetry_multiplicity
 _atom_site_fract_x
 _atom_site_fract_y
 _atom_site_fract_z
 _atom_site_occupancy
  Ba  Ba0  1  0.963518  0.036482  0.250000  1
  Ba  Ba1  1  0.036482  0.963518  0.750000  1
  I  I2  1  0.429633  0.895783  0.281658  1
  I  I3  1  0.895783  0.429633  0.781658  1
  I  I4  1  0.104217  0.570367  0.218342  1
  I  I5  1  0.570367  0.104217  0.718342  1
  I  I6  1  0.473040  0.605592  0.419443  1
  I  I7  1  0.177727  0.137409  0.439095  1
  I  I8  1  0.857336  0.346196  0.240684  1
  I  I9  1  0.291422  0.023633  0.101253  1
  I  I10  1  0.605592  0.473040  0.919443  1
  I  I11  1  0.137409  0.177727  0.939095  1
  I  I12  1  0.346196  0.857336  0.740684  1
  I  I13  1  0.023633  0.291422  0.601253  1
  I  I14  1  0.976367  0.708578  0.398747  1
  I  I15  1  0.653804  0.142664  0.259316  1
  I  I16  1  0.862591  0.822273  0.060905  1
  I  I17  1  0.394408  0.526960  0.080557  1
  I  I18  1  0.708578  0.976367  0.898747  1
  I  I19  1  0.142664  0.653804  0.759316  1
  I  I20  1  0.822273  0.862591  0.560905  1
  I  I21  1  0.526960  0.394408  0.580557  1
