# generated using pymatgen
data_SrSm3Al13Au9
_symmetry_space_group_name_H-M   'P 1'
_cell_length_a   11.78994400
_cell_length_b   11.78994212
_cell_length_c   4.24563500
_cell_angle_alpha   90.00000000
_cell_angle_beta   90.00000000
_cell_angle_gamma   119.99999404
_symmetry_Int_Tables_number   1
_chemical_formula_structural   SrSm3Al13Au9
_chemical_formula_sum   'Sr1 Sm3 Al13 Au9'
_cell_volume   511.08922847
_cell_formula_units_Z   1
loop_
 _symmetry_equiv_pos_site_id
 _symmetry_equiv_pos_as_xyz
  1  'x, y, z'
loop_
 _atom_site_type_symbol
 _atom_site_label
 _atom_site_symmetry_multiplicity
 _atom_site_fract_x
 _atom_site_fract_y
 _atom_site_fract_z
 _atom_site_occupancy
  Sr  Sr0  1  0.666667  0.333333  0.000000  1
  Sm  Sm1  1  0.205002  0.794998  0.500000  1
  Sm  Sm2  1  0.589996  0.794998  0.500000  1
  Sm  Sm3  1  0.205002  0.410004  0.500000  1
  Al  Al4  1  0.949047  0.292388  0.000000  1
  Al  Al5  1  0.707612  0.656659  0.000000  1
  Al  Al6  1  0.949047  0.656659  0.000000  1
  Al  Al7  1  0.343341  0.050953  0.000000  1
  Al  Al8  1  0.164400  0.082201  0.500000  1
  Al  Al9  1  0.917799  0.835600  0.500000  1
  Al  Al10  1  0.707612  0.050953  0.000000  1
  Al  Al11  1  0.531462  0.062924  0.500000  1
  Al  Al12  1  0.917799  0.082201  0.500000  1
  Al  Al13  1  0.343341  0.292388  0.000000  1
  Al  Al14  1  0.531462  0.468538  0.500000  1
  Al  Al15  1  0.937076  0.468538  0.500000  1
  Al  Al16  1  0.333333  0.666667  0.000000  1
  Au  Au17  1  0.456465  0.543535  0.000000  1
  Au  Au18  1  0.826559  0.913280  0.000000  1
  Au  Au19  1  0.456465  0.912928  0.000000  1
  Au  Au20  1  0.086720  0.173441  0.000000  1
  Au  Au21  1  0.086720  0.913280  0.000000  1
  Au  Au22  1  0.791574  0.583148  0.500000  1
  Au  Au23  1  0.087072  0.543535  0.000000  1
  Au  Au24  1  0.791574  0.208426  0.500000  1
  Au  Au25  1  0.416852  0.208426  0.500000  1
