# generated using pymatgen
data_TbY3Lu4(B6Os)4
_symmetry_space_group_name_H-M   'P 1'
_cell_length_a   3.62320900
_cell_length_b   9.09100000
_cell_length_c   11.48335900
_cell_angle_alpha   90.00152599
_cell_angle_beta   90.00000000
_cell_angle_gamma   90.00000000
_symmetry_Int_Tables_number   1
_chemical_formula_structural   TbY3Lu4(B6Os)4
_chemical_formula_sum   'Tb1 Y3 Lu4 B24 Os4'
_cell_volume   378.24568852
_cell_formula_units_Z   1
loop_
 _symmetry_equiv_pos_site_id
 _symmetry_equiv_pos_as_xyz
  1  'x, y, z'
loop_
 _atom_site_type_symbol
 _atom_site_label
 _atom_site_symmetry_multiplicity
 _atom_site_fract_x
 _atom_site_fract_y
 _atom_site_fract_z
 _atom_site_occupancy
  Tb  Tb0  1  0.000000  0.321431  0.413993  1
  Y  Y1  1  0.000000  0.678915  0.585946  1
  Y  Y2  1  0.000000  0.821090  0.085908  1
  Y  Y3  1  0.000000  0.178889  0.914080  1
  Lu  Lu4  1  0.000000  0.944327  0.373002  1
  Lu  Lu5  1  0.000000  0.055663  0.627006  1
  Lu  Lu6  1  0.000000  0.444341  0.126986  1
  Lu  Lu7  1  0.000000  0.555682  0.872994  1
  B  B8  1  0.500000  0.554660  0.432656  1
  B  B9  1  0.500000  0.445348  0.567358  1
  B  B10  1  0.500000  0.054591  0.067276  1
  B  B11  1  0.500000  0.945377  0.932731  1
  B  B12  1  0.500000  0.749901  0.419354  1
  B  B13  1  0.500000  0.250078  0.580739  1
  B  B14  1  0.500000  0.249870  0.080654  1
  B  B15  1  0.500000  0.750098  0.919344  1
  B  B16  1  0.500000  0.792212  0.266231  1
  B  B17  1  0.500000  0.207800  0.733809  1
  B  B18  1  0.500000  0.292115  0.233722  1
  B  B19  1  0.500000  0.707792  0.766222  1
  B  B20  1  0.500000  0.630763  0.184517  1
  B  B21  1  0.500000  0.369233  0.815488  1
  B  B22  1  0.500000  0.130713  0.315438  1
  B  B23  1  0.500000  0.869217  0.684532  1
  B  B24  1  0.500000  0.982782  0.213820  1
  B  B25  1  0.500000  0.017190  0.786161  1
  B  B26  1  0.500000  0.482924  0.286140  1
  B  B27  1  0.500000  0.517198  0.713856  1
  B  B28  1  0.500000  0.603945  0.028579  1
  B  B29  1  0.500000  0.396050  0.971414  1
  B  B30  1  0.500000  0.103693  0.471486  1
  B  B31  1  0.500000  0.896066  0.528578  1
  Os  Os32  1  0.000000  0.638491  0.320177  1
  Os  Os33  1  0.000000  0.361617  0.679833  1
  Os  Os34  1  0.000000  0.138312  0.179738  1
  Os  Os35  1  0.000000  0.861624  0.820235  1
