# generated using pymatgen
data_LiTm3As6Rh7
_symmetry_space_group_name_H-M   'P 1'
_cell_length_a   7.22084621
_cell_length_b   7.17921798
_cell_length_c   7.17921810
_cell_angle_alpha   109.35346317
_cell_angle_beta   109.58872400
_cell_angle_gamma   109.58871418
_symmetry_Int_Tables_number   1
_chemical_formula_structural   LiTm3As6Rh7
_chemical_formula_sum   'Li1 Tm3 As6 Rh7'
_cell_volume   286.08078640
_cell_formula_units_Z   1
loop_
 _symmetry_equiv_pos_site_id
 _symmetry_equiv_pos_as_xyz
  1  'x, y, z'
loop_
 _atom_site_type_symbol
 _atom_site_label
 _atom_site_symmetry_multiplicity
 _atom_site_fract_x
 _atom_site_fract_y
 _atom_site_fract_z
 _atom_site_occupancy
  Li  Li0  1  0.500000  0.000000  0.000000  1
  Tm  Tm1  1  0.500000  0.500000  0.500000  1
  Tm  Tm2  1  0.000000  0.500000  0.000000  1
  Tm  Tm3  1  0.000000  0.000000  0.500000  1
  As  As4  1  0.678444  0.000000  0.687747  1
  As  As5  1  0.678444  0.687747  0.000000  1
  As  As6  1  0.321556  0.312253  0.000000  1
  As  As7  1  0.009303  0.687747  0.687747  1
  As  As8  1  0.990697  0.312253  0.312253  1
  As  As9  1  0.321556  0.000000  0.312253  1
  Rh  Rh10  1  0.500000  0.750319  0.249681  1
  Rh  Rh11  1  0.749681  0.249681  0.499362  1
  Rh  Rh12  1  0.250319  0.750319  0.500638  1
  Rh  Rh13  1  0.250319  0.500638  0.750319  1
  Rh  Rh14  1  0.000000  0.000000  0.000000  1
  Rh  Rh15  1  0.500000  0.249681  0.750319  1
  Rh  Rh16  1  0.749681  0.499362  0.249681  1
