# generated using pymatgen
data_HfSn2Pt(SeO3)8
_symmetry_space_group_name_H-M   'P 1'
_cell_length_a   8.34769826
_cell_length_b   8.36985627
_cell_length_c   8.36868682
_cell_angle_alpha   89.53262410
_cell_angle_beta   90.16256661
_cell_angle_gamma   90.48264818
_symmetry_Int_Tables_number   1
_chemical_formula_structural   HfSn2Pt(SeO3)8
_chemical_formula_sum   'Hf1 Sn2 Pt1 Se8 O24'
_cell_volume   584.66962965
_cell_formula_units_Z   1
loop_
 _symmetry_equiv_pos_site_id
 _symmetry_equiv_pos_as_xyz
  1  'x, y, z'
loop_
 _atom_site_type_symbol
 _atom_site_label
 _atom_site_symmetry_multiplicity
 _atom_site_fract_x
 _atom_site_fract_y
 _atom_site_fract_z
 _atom_site_occupancy
  Hf  Hf0  1  0.500000  0.500000  0.000000  1
  Sn  Sn1  1  0.000000  0.000000  0.000000  1
  Sn  Sn2  1  0.000000  0.500000  0.500000  1
  Pt  Pt3  1  0.500000  0.000000  0.500000  1
  Se  Se4  1  0.817542  0.164519  0.665175  1
  Se  Se5  1  0.182458  0.835481  0.334825  1
  Se  Se6  1  0.675501  0.687694  0.654025  1
  Se  Se7  1  0.158087  0.680055  0.823412  1
  Se  Se8  1  0.328171  0.155223  0.808728  1
  Se  Se9  1  0.841913  0.319945  0.176588  1
  Se  Se10  1  0.671829  0.844777  0.191272  1
  Se  Se11  1  0.324499  0.312306  0.345975  1
  O  O12  1  0.243561  0.450990  0.475937  1
  O  O13  1  0.976986  0.242880  0.039591  1
  O  O14  1  0.047512  0.743107  0.463477  1
  O  O15  1  0.450238  0.267320  0.929811  1
  O  O16  1  0.259148  0.973772  0.473462  1
  O  O17  1  0.559332  0.560131  0.766416  1
  O  O18  1  0.951939  0.036357  0.756879  1
  O  O19  1  0.549762  0.732680  0.070189  1
  O  O20  1  0.528475  0.981787  0.259603  1
  O  O21  1  0.471525  0.018213  0.740397  1
  O  O22  1  0.755893  0.970524  0.046676  1
  O  O23  1  0.265432  0.561369  0.951457  1
  O  O24  1  0.029920  0.535578  0.743557  1
  O  O25  1  0.048061  0.963643  0.243121  1
  O  O26  1  0.244107  0.029476  0.953324  1
  O  O27  1  0.440668  0.439869  0.233584  1
  O  O28  1  0.756439  0.549010  0.524063  1
  O  O29  1  0.970080  0.464422  0.256443  1
  O  O30  1  0.023014  0.757120  0.960409  1
  O  O31  1  0.472648  0.240905  0.479387  1
  O  O32  1  0.527352  0.759095  0.520613  1
  O  O33  1  0.952488  0.256893  0.536523  1
  O  O34  1  0.740852  0.026228  0.526538  1
  O  O35  1  0.734568  0.438631  0.048543  1
