# generated using pymatgen
data_TbYHf2(Al3Ir)6
_symmetry_space_group_name_H-M   'P 1'
_cell_length_a   7.51750176
_cell_length_b   7.51387589
_cell_length_c   9.35110600
_cell_angle_alpha   90.00000000
_cell_angle_beta   90.00000000
_cell_angle_gamma   119.71591862
_symmetry_Int_Tables_number   1
_chemical_formula_structural   TbYHf2(Al3Ir)6
_chemical_formula_sum   'Tb1 Y1 Hf2 Al18 Ir6'
_cell_volume   458.74069830
_cell_formula_units_Z   1
loop_
 _symmetry_equiv_pos_site_id
 _symmetry_equiv_pos_as_xyz
  1  'x, y, z'
loop_
 _atom_site_type_symbol
 _atom_site_label
 _atom_site_symmetry_multiplicity
 _atom_site_fract_x
 _atom_site_fract_y
 _atom_site_fract_z
 _atom_site_occupancy
  Tb  Tb0  1  0.329112  0.005970  0.750000  1
  Y  Y1  1  0.005792  0.328833  0.750000  1
  Hf  Hf2  1  0.994034  0.672587  0.250000  1
  Hf  Hf3  1  0.672798  0.994293  0.250000  1
  Al  Al4  1  0.122920  0.123151  0.250000  1
  Al  Al5  1  0.869562  0.869640  0.750000  1
  Al  Al6  1  0.997596  0.335197  0.082688  1
  Al  Al7  1  0.998860  0.665040  0.930510  1
  Al  Al8  1  0.998860  0.665040  0.569490  1
  Al  Al9  1  0.335167  0.997529  0.416932  1
  Al  Al10  1  0.997596  0.335197  0.417312  1
  Al  Al11  1  0.665313  0.998886  0.569529  1
  Al  Al12  1  0.665313  0.998886  0.930471  1
  Al  Al13  1  0.335167  0.997529  0.083068  1
  Al  Al14  1  0.333988  0.334097  0.550814  1
  Al  Al15  1  0.668418  0.668425  0.437109  1
  Al  Al16  1  0.668418  0.668425  0.062891  1
  Al  Al17  1  0.333988  0.334097  0.949186  1
  Al  Al18  1  0.339241  0.554572  0.250000  1
  Al  Al19  1  0.661944  0.453176  0.750000  1
  Al  Al20  1  0.554577  0.339625  0.250000  1
  Al  Al21  1  0.452893  0.661214  0.750000  1
  Ir  Ir22  1  0.673212  0.328201  0.002904  1
  Ir  Ir23  1  0.328172  0.673169  0.002849  1
  Ir  Ir24  1  0.328172  0.673169  0.497151  1
  Ir  Ir25  1  0.673212  0.328201  0.497096  1
  Ir  Ir26  1  0.997837  0.997926  0.002939  1
  Ir  Ir27  1  0.997837  0.997926  0.497061  1
