# generated using pymatgen
data_Cs6Rb2NaGaBi4
_symmetry_space_group_name_H-M   'P 1'
_cell_length_a   11.45091266
_cell_length_b   11.29074562
_cell_length_c   11.95061200
_cell_angle_alpha   90.00000000
_cell_angle_beta   90.00000000
_cell_angle_gamma   119.53836819
_symmetry_Int_Tables_number   1
_chemical_formula_structural   Cs6Rb2NaGaBi4
_chemical_formula_sum   'Cs12 Rb4 Na2 Ga2 Bi8'
_cell_volume   1344.26526624
_cell_formula_units_Z   2
loop_
 _symmetry_equiv_pos_site_id
 _symmetry_equiv_pos_as_xyz
  1  'x, y, z'
loop_
 _atom_site_type_symbol
 _atom_site_label
 _atom_site_symmetry_multiplicity
 _atom_site_fract_x
 _atom_site_fract_y
 _atom_site_fract_z
 _atom_site_occupancy
  Cs  Cs0  1  0.204847  0.414358  0.537937  1
  Cs  Cs1  1  0.795153  0.209513  0.037937  1
  Cs  Cs2  1  0.417832  0.211117  0.043544  1
  Cs  Cs3  1  0.582168  0.793283  0.543544  1
  Cs  Cs4  1  0.210697  0.789333  0.540739  1
  Cs  Cs5  1  0.789303  0.578637  0.459261  1
  Cs  Cs6  1  0.795153  0.209513  0.462063  1
  Cs  Cs7  1  0.789303  0.578637  0.040739  1
  Cs  Cs8  1  0.417832  0.211117  0.456456  1
  Cs  Cs9  1  0.582168  0.793283  0.956456  1
  Cs  Cs10  1  0.204847  0.414358  0.962063  1
  Cs  Cs11  1  0.210697  0.789333  0.959261  1
  Rb  Rb12  1  0.237725  0.121677  0.750000  1
  Rb  Rb13  1  0.762275  0.883951  0.250000  1
  Rb  Rb14  1  0.118289  0.885464  0.250000  1
  Rb  Rb15  1  0.881711  0.767176  0.750000  1
  Na  Na16  1  0.119640  0.242153  0.250000  1
  Na  Na17  1  0.880360  0.122513  0.750000  1
  Ga  Ga18  1  0.332698  0.666454  0.250000  1
  Ga  Ga19  1  0.667302  0.333755  0.750000  1
  Bi  Bi20  1  0.459412  0.510757  0.250000  1
  Bi  Bi21  1  0.946129  0.460380  0.750000  1
  Bi  Bi22  1  0.540588  0.051345  0.750000  1
  Bi  Bi23  1  0.472329  0.949143  0.250000  1
  Bi  Bi24  1  0.053871  0.514252  0.250000  1
  Bi  Bi25  1  0.527671  0.476814  0.750000  1
  Bi  Bi26  1  0.000000  0.010842  0.000000  1
  Bi  Bi27  1  0.000000  0.010842  0.500000  1
