# generated using pymatgen
data_Li2Cr3AsO8
_symmetry_space_group_name_H-M   'P 1'
_cell_length_a   5.90390331
_cell_length_b   5.90393734
_cell_length_c   5.90383197
_cell_angle_alpha   60.85635158
_cell_angle_beta   60.85545496
_cell_angle_gamma   60.85529647
_symmetry_Int_Tables_number   1
_chemical_formula_structural   Li2Cr3AsO8
_chemical_formula_sum   'Li2 Cr3 As1 O8'
_cell_volume   148.31980103
_cell_formula_units_Z   1
loop_
 _symmetry_equiv_pos_site_id
 _symmetry_equiv_pos_as_xyz
  1  'x, y, z'
loop_
 _atom_site_type_symbol
 _atom_site_label
 _atom_site_symmetry_multiplicity
 _atom_site_fract_x
 _atom_site_fract_y
 _atom_site_fract_z
 _atom_site_occupancy
  Li  Li0  1  0.867507  0.867509  0.867517  1
  Li  Li1  1  0.132493  0.132491  0.132483  1
  Cr  Cr2  1  0.000000  0.500000  0.500000  1
  Cr  Cr3  1  0.500000  0.000000  0.500000  1
  Cr  Cr4  1  0.500000  0.500000  0.000000  1
  As  As5  1  0.500000  0.500000  0.500000  1
  O  O6  1  0.736037  0.736038  0.736043  1
  O  O7  1  0.725291  0.725282  0.289956  1
  O  O8  1  0.725286  0.289965  0.725285  1
  O  O9  1  0.289950  0.725298  0.725291  1
  O  O10  1  0.710050  0.274702  0.274709  1
  O  O11  1  0.274714  0.710035  0.274715  1
  O  O12  1  0.274709  0.274718  0.710044  1
  O  O13  1  0.263963  0.263962  0.263957  1
