# generated using pymatgen
data_GdLu3FeGe8
_symmetry_space_group_name_H-M   'P 1'
_cell_length_a   7.46872900
_cell_length_b   7.67967100
_cell_length_c   27.77978300
_cell_angle_alpha   90.00000000
_cell_angle_beta   90.00000000
_cell_angle_gamma   90.00000000
_symmetry_Int_Tables_number   1
_chemical_formula_structural   GdLu3FeGe8
_chemical_formula_sum   'Gd1 Lu3 Fe1 Ge8'
_cell_volume   1593.37561174
_cell_formula_units_Z   1
loop_
 _symmetry_equiv_pos_site_id
 _symmetry_equiv_pos_as_xyz
  1  'x, y, z'
loop_
 _atom_site_type_symbol
 _atom_site_label
 _atom_site_symmetry_multiplicity
 _atom_site_fract_x
 _atom_site_fract_y
 _atom_site_fract_z
 _atom_site_occupancy
  Gd  Gd0  1  0.750000  0.500000  0.397117  1
  Lu  Lu1  1  0.250000  0.000000  0.100215  1
  Lu  Lu2  1  0.250000  0.500000  0.605849  1
  Lu  Lu3  1  0.750000  0.000000  0.895609  1
  Fe  Fe4  1  0.250000  0.000000  0.309684  1
  Ge  Ge5  1  0.250000  0.000000  0.455849  1
  Ge  Ge6  1  0.250000  0.500000  0.945504  1
  Ge  Ge7  1  0.750000  0.500000  0.055806  1
  Ge  Ge8  1  0.750000  0.000000  0.561103  1
  Ge  Ge9  1  0.250000  0.500000  0.237842  1
  Ge  Ge10  1  0.250000  0.000000  0.748988  1
  Ge  Ge11  1  0.750000  0.000000  0.236540  1
  Ge  Ge12  1  0.750000  0.500000  0.752896  1
