# generated using pymatgen
data_Mn3Nb2Ge
_symmetry_space_group_name_H-M   'P 1'
_cell_length_a   4.90500400
_cell_length_b   4.90500307
_cell_length_c   8.00082000
_cell_angle_alpha   90.00000000
_cell_angle_beta   90.00000000
_cell_angle_gamma   120.00000625
_symmetry_Int_Tables_number   1
_chemical_formula_structural   Mn3Nb2Ge
_chemical_formula_sum   'Mn6 Nb4 Ge2'
_cell_volume   166.70312993
_cell_formula_units_Z   2
loop_
 _symmetry_equiv_pos_site_id
 _symmetry_equiv_pos_as_xyz
  1  'x, y, z'
loop_
 _atom_site_type_symbol
 _atom_site_label
 _atom_site_symmetry_multiplicity
 _atom_site_fract_x
 _atom_site_fract_y
 _atom_site_fract_z
 _atom_site_occupancy
  Mn  Mn0  1  0.174194  0.348388  0.750000  1
  Mn  Mn1  1  0.825806  0.174194  0.250000  1
  Mn  Mn2  1  0.348388  0.174194  0.250000  1
  Mn  Mn3  1  0.651612  0.825806  0.750000  1
  Mn  Mn4  1  0.825806  0.651612  0.250000  1
  Mn  Mn5  1  0.174194  0.825806  0.750000  1
  Nb  Nb6  1  0.333333  0.666667  0.435371  1
  Nb  Nb7  1  0.666667  0.333333  0.935371  1
  Nb  Nb8  1  0.666667  0.333333  0.564629  1
  Nb  Nb9  1  0.333333  0.666667  0.064629  1
  Ge  Ge10  1  0.000000  0.000000  0.000000  1
  Ge  Ge11  1  0.000000  0.000000  0.500000  1
