# generated using pymatgen
data_Zn22Pt3
_symmetry_space_group_name_H-M   'P 1'
_cell_length_a   7.83980585
_cell_length_b   7.83980601
_cell_length_c   7.84602941
_cell_angle_alpha   72.05532140
_cell_angle_beta   72.05531726
_cell_angle_gamma   58.42907513
_symmetry_Int_Tables_number   1
_chemical_formula_structural   Zn22Pt3
_chemical_formula_sum   'Zn22 Pt3'
_cell_volume   384.41233747
_cell_formula_units_Z   1
loop_
 _symmetry_equiv_pos_site_id
 _symmetry_equiv_pos_as_xyz
  1  'x, y, z'
loop_
 _atom_site_type_symbol
 _atom_site_label
 _atom_site_symmetry_multiplicity
 _atom_site_fract_x
 _atom_site_fract_y
 _atom_site_fract_z
 _atom_site_occupancy
  Zn  Zn0  1  0.342454  0.733515  0.315078  1
  Zn  Zn1  1  0.657546  0.266485  0.684922  1
  Zn  Zn2  1  0.266485  0.657546  0.684922  1
  Zn  Zn3  1  0.733515  0.342454  0.315078  1
  Zn  Zn4  1  0.683442  0.316558  0.000000  1
  Zn  Zn5  1  0.316558  0.683442  0.000000  1
  Zn  Zn6  1  0.830909  0.830909  0.783111  1
  Zn  Zn7  1  0.169091  0.169091  0.216889  1
  Zn  Zn8  1  0.973478  0.973478  0.171972  1
  Zn  Zn9  1  0.026522  0.026522  0.828028  1
  Zn  Zn10  1  0.353563  0.353563  0.277701  1
  Zn  Zn11  1  0.646437  0.646437  0.722299  1
  Zn  Zn12  1  0.685335  0.685335  0.381239  1
  Zn  Zn13  1  0.314665  0.314665  0.618761  1
  Zn  Zn14  1  0.657113  0.024233  0.455731  1
  Zn  Zn15  1  0.342887  0.975767  0.544269  1
  Zn  Zn16  1  0.975767  0.342887  0.544269  1
  Zn  Zn17  1  0.024233  0.657113  0.455731  1
  Zn  Zn18  1  0.623230  0.997966  0.106307  1
  Zn  Zn19  1  0.376770  0.002034  0.893693  1
  Zn  Zn20  1  0.002034  0.376770  0.893693  1
  Zn  Zn21  1  0.997966  0.623230  0.106307  1
  Pt  Pt22  1  0.657840  0.657840  0.054249  1
  Pt  Pt23  1  0.342160  0.342160  0.945751  1
  Pt  Pt24  1  0.000000  0.000000  0.500000  1
