# generated using pymatgen
data_Gd2B8OsRu
_symmetry_space_group_name_H-M   'P 1'
_cell_length_a   5.99231553
_cell_length_b   11.59375016
_cell_length_c   3.57617700
_cell_angle_alpha   90.00000000
_cell_angle_beta   90.00000000
_cell_angle_gamma   90.01365238
_symmetry_Int_Tables_number   1
_chemical_formula_structural   Gd2B8OsRu
_chemical_formula_sum   'Gd4 B16 Os2 Ru2'
_cell_volume   248.44920103
_cell_formula_units_Z   2
loop_
 _symmetry_equiv_pos_site_id
 _symmetry_equiv_pos_as_xyz
  1  'x, y, z'
loop_
 _atom_site_type_symbol
 _atom_site_label
 _atom_site_symmetry_multiplicity
 _atom_site_fract_x
 _atom_site_fract_y
 _atom_site_fract_z
 _atom_site_occupancy
  Gd  Gd0  1  0.628527  0.349663  0.000000  1
  Gd  Gd1  1  0.371473  0.650337  0.000000  1
  Gd  Gd2  1  0.128299  0.149324  0.000000  1
  Gd  Gd3  1  0.871701  0.850676  0.000000  1
  B  B4  1  0.787753  0.185101  0.500000  1
  B  B5  1  0.212247  0.814899  0.500000  1
  B  B6  1  0.287939  0.314398  0.500000  1
  B  B7  1  0.712061  0.685602  0.500000  1
  B  B8  1  0.863122  0.030836  0.500000  1
  B  B9  1  0.136878  0.969164  0.500000  1
  B  B10  1  0.363065  0.469703  0.500000  1
  B  B11  1  0.636935  0.530297  0.500000  1
  B  B12  1  0.887845  0.453441  0.500000  1
  B  B13  1  0.112155  0.546559  0.500000  1
  B  B14  1  0.388233  0.046382  0.500000  1
  B  B15  1  0.611767  0.953618  0.500000  1
  B  B16  1  0.974608  0.308907  0.500000  1
  B  B17  1  0.025392  0.691093  0.500000  1
  B  B18  1  0.475783  0.191210  0.500000  1
  B  B19  1  0.524217  0.808790  0.500000  1
  Os  Os20  1  0.139951  0.407526  0.000000  1
  Os  Os21  1  0.860049  0.592474  0.000000  1
  Ru  Ru22  1  0.638242  0.092588  0.000000  1
  Ru  Ru23  1  0.361758  0.907412  0.000000  1
