# generated using pymatgen
data_Ce(Cr3S4)2
_symmetry_space_group_name_H-M   'P 1'
_cell_length_a   6.21044044
_cell_length_b   6.20742217
_cell_length_c   6.20314239
_cell_angle_alpha   88.88976918
_cell_angle_beta   88.84135949
_cell_angle_gamma   88.90414866
_symmetry_Int_Tables_number   1
_chemical_formula_structural   Ce(Cr3S4)2
_chemical_formula_sum   'Ce1 Cr6 S8'
_cell_volume   239.00050198
_cell_formula_units_Z   1
loop_
 _symmetry_equiv_pos_site_id
 _symmetry_equiv_pos_as_xyz
  1  'x, y, z'
loop_
 _atom_site_type_symbol
 _atom_site_label
 _atom_site_symmetry_multiplicity
 _atom_site_fract_x
 _atom_site_fract_y
 _atom_site_fract_z
 _atom_site_occupancy
  Ce  Ce0  1  0.000000  0.000000  0.000000  1
  Cr  Cr1  1  0.563477  0.230482  0.419795  1
  Cr  Cr2  1  0.419883  0.563494  0.230536  1
  Cr  Cr3  1  0.230606  0.419851  0.563475  1
  Cr  Cr4  1  0.769394  0.580149  0.436525  1
  Cr  Cr5  1  0.580117  0.436506  0.769464  1
  Cr  Cr6  1  0.436523  0.769518  0.580205  1
  S  S7  1  0.743904  0.380406  0.127173  1
  S  S8  1  0.380409  0.127208  0.743972  1
  S  S9  1  0.248874  0.248817  0.248747  1
  S  S10  1  0.127308  0.743965  0.380411  1
  S  S11  1  0.872692  0.256035  0.619589  1
  S  S12  1  0.751126  0.751183  0.751253  1
  S  S13  1  0.619591  0.872792  0.256028  1
  S  S14  1  0.256096  0.619594  0.872827  1
