# generated using pymatgen
data_La11Yb(PrSi2)8
_symmetry_space_group_name_H-M   'P 1'
_cell_length_a   8.00357242
_cell_length_b   8.00357247
_cell_length_c   15.34598761
_cell_angle_alpha   89.91665579
_cell_angle_beta   90.08334133
_cell_angle_gamma   90.17299587
_symmetry_Int_Tables_number   1
_chemical_formula_structural   La11Yb(PrSi2)8
_chemical_formula_sum   'La11 Yb1 Pr8 Si16'
_cell_volume   983.01401199
_cell_formula_units_Z   1
loop_
 _symmetry_equiv_pos_site_id
 _symmetry_equiv_pos_as_xyz
  1  'x, y, z'
loop_
 _atom_site_type_symbol
 _atom_site_label
 _atom_site_symmetry_multiplicity
 _atom_site_fract_x
 _atom_site_fract_y
 _atom_site_fract_z
 _atom_site_occupancy
  La  La0  1  0.308408  0.308408  0.000000  1
  La  La1  1  0.189218  0.808613  0.248980  1
  La  La2  1  0.808613  0.189218  0.751020  1
  La  La3  1  0.377370  0.009536  0.448750  1
  La  La4  1  0.489784  0.878070  0.697642  1
  La  La5  1  0.512367  0.124426  0.200307  1
  La  La6  1  0.878070  0.489784  0.302358  1
  La  La7  1  0.124426  0.512367  0.799693  1
  La  La8  1  0.622734  0.987160  0.948794  1
  La  La9  1  0.009536  0.377370  0.551250  1
  La  La10  1  0.987160  0.622734  0.051206  1
  Yb  Yb11  1  0.689167  0.689167  0.500000  1
  Pr  Pr12  1  0.127783  0.983543  0.875726  1
  Pr  Pr13  1  0.517559  0.626294  0.126273  1
  Pr  Pr14  1  0.487430  0.373263  0.625640  1
  Pr  Pr15  1  0.626294  0.517559  0.873727  1
  Pr  Pr16  1  0.373263  0.487430  0.374360  1
  Pr  Pr17  1  0.873664  0.014138  0.376893  1
  Pr  Pr18  1  0.983543  0.127783  0.124274  1
  Pr  Pr19  1  0.014138  0.873664  0.623107  1
  Si  Si20  1  0.198813  0.168111  0.699412  1
  Si  Si21  1  0.332737  0.698384  0.949992  1
  Si  Si22  1  0.664713  0.297048  0.448462  1
  Si  Si23  1  0.698384  0.332737  0.050008  1
  Si  Si24  1  0.297048  0.664713  0.551538  1
  Si  Si25  1  0.801890  0.832530  0.201808  1
  Si  Si26  1  0.168111  0.198813  0.300588  1
  Si  Si27  1  0.832530  0.801890  0.798192  1
  Si  Si28  1  0.289365  0.919773  0.059133  1
  Si  Si29  1  0.580486  0.788839  0.309734  1
  Si  Si30  1  0.419836  0.212298  0.807766  1
  Si  Si31  1  0.788839  0.580486  0.690266  1
  Si  Si32  1  0.212298  0.419836  0.192234  1
  Si  Si33  1  0.712319  0.082332  0.558947  1
  Si  Si34  1  0.919773  0.289365  0.940867  1
  Si  Si35  1  0.082332  0.712319  0.441053  1
