# generated using pymatgen
data_LiYCr3Co9P7
_symmetry_space_group_name_H-M   'P 1'
_cell_length_a   3.60094400
_cell_length_b   8.91380065
_cell_length_c   8.91380200
_cell_angle_alpha   119.99999757
_cell_angle_beta   90.00000000
_cell_angle_gamma   90.00000000
_symmetry_Int_Tables_number   1
_chemical_formula_structural   LiYCr3Co9P7
_chemical_formula_sum   'Li1 Y1 Cr3 Co9 P7'
_cell_volume   247.78380072
_cell_formula_units_Z   1
loop_
 _symmetry_equiv_pos_site_id
 _symmetry_equiv_pos_as_xyz
  1  'x, y, z'
loop_
 _atom_site_type_symbol
 _atom_site_label
 _atom_site_symmetry_multiplicity
 _atom_site_fract_x
 _atom_site_fract_y
 _atom_site_fract_z
 _atom_site_occupancy
  Li  Li0  1  0.000000  0.666667  0.333333  1
  Y  Y1  1  0.500000  0.333333  0.666667  1
  Cr  Cr2  1  0.500000  0.784913  0.907954  1
  Cr  Cr3  1  0.500000  0.123041  0.215087  1
  Cr  Cr4  1  0.500000  0.092046  0.876959  1
  Co  Co5  1  0.000000  0.568602  0.941451  1
  Co  Co6  1  0.000000  0.372848  0.431398  1
  Co  Co7  1  0.000000  0.058549  0.627152  1
  Co  Co8  1  0.000000  0.878952  0.156581  1
  Co  Co9  1  0.000000  0.277629  0.121048  1
  Co  Co10  1  0.000000  0.843419  0.722371  1
  Co  Co11  1  0.500000  0.949307  0.385539  1
  Co  Co12  1  0.500000  0.436230  0.050693  1
  Co  Co13  1  0.500000  0.614461  0.563770  1
  P  P14  1  0.000000  0.000000  0.000000  1
  P  P15  1  0.500000  0.709690  0.122209  1
  P  P16  1  0.500000  0.412518  0.290310  1
  P  P17  1  0.500000  0.877791  0.587482  1
  P  P18  1  0.000000  0.593075  0.705059  1
  P  P19  1  0.000000  0.111983  0.406925  1
  P  P20  1  0.000000  0.294941  0.888017  1
