# generated using pymatgen
data_Tb16Co3NiHg4
_symmetry_space_group_name_H-M   'P 1'
_cell_length_a   9.48613680
_cell_length_b   9.48613747
_cell_length_c   9.48613711
_cell_angle_alpha   60.27937889
_cell_angle_beta   60.27937593
_cell_angle_gamma   60.27937911
_symmetry_Int_Tables_number   1
_chemical_formula_structural   Tb16Co3NiHg4
_chemical_formula_sum   'Tb16 Co3 Ni1 Hg4'
_cell_volume   607.42207632
_cell_formula_units_Z   1
loop_
 _symmetry_equiv_pos_site_id
 _symmetry_equiv_pos_as_xyz
  1  'x, y, z'
loop_
 _atom_site_type_symbol
 _atom_site_label
 _atom_site_symmetry_multiplicity
 _atom_site_fract_x
 _atom_site_fract_y
 _atom_site_fract_z
 _atom_site_occupancy
  Tb  Tb0  1  0.439703  0.439703  0.056143  1
  Tb  Tb1  1  0.596444  0.596444  0.596444  1
  Tb  Tb2  1  0.189601  0.812106  0.812106  1
  Tb  Tb3  1  0.060584  0.060584  0.436539  1
  Tb  Tb4  1  0.436539  0.060584  0.060584  1
  Tb  Tb5  1  0.812106  0.189601  0.812106  1
  Tb  Tb6  1  0.439703  0.056143  0.439703  1
  Tb  Tb7  1  0.601441  0.202942  0.601441  1
  Tb  Tb8  1  0.812106  0.812106  0.189601  1
  Tb  Tb9  1  0.202942  0.601441  0.601441  1
  Tb  Tb10  1  0.811688  0.188667  0.188667  1
  Tb  Tb11  1  0.056143  0.439703  0.439703  1
  Tb  Tb12  1  0.188667  0.811688  0.188667  1
  Tb  Tb13  1  0.601441  0.601441  0.202942  1
  Tb  Tb14  1  0.188667  0.188667  0.811688  1
  Tb  Tb15  1  0.060584  0.436539  0.060584  1
  Co  Co16  1  0.826207  0.392072  0.392072  1
  Co  Co17  1  0.392072  0.826207  0.392072  1
  Co  Co18  1  0.392072  0.392072  0.826207  1
  Ni  Ni19  1  0.392317  0.392317  0.392317  1
  Hg  Hg20  1  0.834227  0.834227  0.496830  1
  Hg  Hg21  1  0.833693  0.833693  0.833693  1
  Hg  Hg22  1  0.496830  0.834227  0.834227  1
  Hg  Hg23  1  0.834227  0.496830  0.834227  1
