# generated using pymatgen
data_Ho3Lu(HfPt)4
_symmetry_space_group_name_H-M   'P 1'
_cell_length_a   4.65389900
_cell_length_b   7.03205000
_cell_length_c   8.19956882
_cell_angle_alpha   90.10671769
_cell_angle_beta   90.00000000
_cell_angle_gamma   90.00000000
_symmetry_Int_Tables_number   1
_chemical_formula_structural   Ho3Lu(HfPt)4
_chemical_formula_sum   'Ho3 Lu1 Hf4 Pt4'
_cell_volume   268.34231734
_cell_formula_units_Z   1
loop_
 _symmetry_equiv_pos_site_id
 _symmetry_equiv_pos_as_xyz
  1  'x, y, z'
loop_
 _atom_site_type_symbol
 _atom_site_label
 _atom_site_symmetry_multiplicity
 _atom_site_fract_x
 _atom_site_fract_y
 _atom_site_fract_z
 _atom_site_occupancy
  Ho  Ho0  1  0.250000  0.483432  0.178902  1
  Ho  Ho1  1  0.750000  0.016564  0.678039  1
  Ho  Ho2  1  0.750000  0.516118  0.821665  1
  Lu  Lu3  1  0.250000  0.982730  0.321909  1
  Hf  Hf4  1  0.250000  0.853868  0.923302  1
  Hf  Hf5  1  0.250000  0.353334  0.576595  1
  Hf  Hf6  1  0.750000  0.145886  0.078966  1
  Hf  Hf7  1  0.750000  0.646986  0.422162  1
  Pt  Pt8  1  0.250000  0.230822  0.904315  1
  Pt  Pt9  1  0.250000  0.731897  0.593420  1
  Pt  Pt10  1  0.750000  0.770198  0.096628  1
  Pt  Pt11  1  0.750000  0.268163  0.404100  1
