# generated using pymatgen
data_Nb2SiPRh2
_symmetry_space_group_name_H-M   'P 1'
_cell_length_a   3.76094000
_cell_length_b   6.42033800
_cell_length_c   7.31728400
_cell_angle_alpha   90.00000000
_cell_angle_beta   90.00000000
_cell_angle_gamma   90.00000000
_symmetry_Int_Tables_number   1
_chemical_formula_structural   Nb2SiPRh2
_chemical_formula_sum   'Nb4 Si2 P2 Rh4'
_cell_volume   176.68684199
_cell_formula_units_Z   2
loop_
 _symmetry_equiv_pos_site_id
 _symmetry_equiv_pos_as_xyz
  1  'x, y, z'
loop_
 _atom_site_type_symbol
 _atom_site_label
 _atom_site_symmetry_multiplicity
 _atom_site_fract_x
 _atom_site_fract_y
 _atom_site_fract_z
 _atom_site_occupancy
  Nb  Nb0  1  0.250000  0.025793  0.828118  1
  Nb  Nb1  1  0.250000  0.525793  0.671882  1
  Nb  Nb2  1  0.750000  0.971308  0.167821  1
  Nb  Nb3  1  0.750000  0.471308  0.332179  1
  Si  Si4  1  0.250000  0.766893  0.373812  1
  Si  Si5  1  0.250000  0.266893  0.126188  1
  P  P6  1  0.750000  0.235466  0.625538  1
  P  P7  1  0.750000  0.735466  0.874462  1
  Rh  Rh8  1  0.250000  0.146192  0.441324  1
  Rh  Rh9  1  0.250000  0.646192  0.058676  1
  Rh  Rh10  1  0.750000  0.854348  0.564168  1
  Rh  Rh11  1  0.750000  0.354348  0.935832  1
