# generated using pymatgen
data_ScFe2SbO6
_symmetry_space_group_name_H-M   'P 1'
_cell_length_a   6.15360409
_cell_length_b   6.31406933
_cell_length_c   6.30869232
_cell_angle_alpha   90.84195848
_cell_angle_beta   90.69272690
_cell_angle_gamma   90.43439544
_symmetry_Int_Tables_number   1
_chemical_formula_structural   ScFe2SbO6
_chemical_formula_sum   'Sc2 Fe4 Sb2 O12'
_cell_volume   245.06795731
_cell_formula_units_Z   2
loop_
 _symmetry_equiv_pos_site_id
 _symmetry_equiv_pos_as_xyz
  1  'x, y, z'
loop_
 _atom_site_type_symbol
 _atom_site_label
 _atom_site_symmetry_multiplicity
 _atom_site_fract_x
 _atom_site_fract_y
 _atom_site_fract_z
 _atom_site_occupancy
  Sc  Sc0  1  0.944055  0.437502  0.249587  1
  Sc  Sc1  1  0.254162  0.943061  0.436997  1
  Fe  Fe2  1  0.442569  0.255943  0.950061  1
  Fe  Fe3  1  0.052742  0.562484  0.753510  1
  Fe  Fe4  1  0.746250  0.055551  0.563830  1
  Fe  Fe5  1  0.555253  0.742990  0.047476  1
  Sb  Sb6  1  0.998048  0.998818  0.995786  1
  Sb  Sb7  1  0.500818  0.499247  0.501616  1
  O  O8  1  0.195549  0.583888  0.413167  1
  O  O9  1  0.422919  0.196756  0.555250  1
  O  O10  1  0.591567  0.434808  0.200906  1
  O  O11  1  0.811976  0.428955  0.568129  1
  O  O12  1  0.564544  0.802509  0.438934  1
  O  O13  1  0.413148  0.557392  0.800687  1
  O  O14  1  0.957134  0.093747  0.305380  1
  O  O15  1  0.302748  0.949908  0.100731  1
  O  O16  1  0.091408  0.303308  0.971722  1
  O  O17  1  0.057393  0.906316  0.698905  1
  O  O18  1  0.693602  0.047779  0.898663  1
  O  O19  1  0.904113  0.699038  0.048665  1
