# generated using pymatgen
data_Tb11YTc4
_symmetry_space_group_name_H-M   'P 1'
_cell_length_a   6.30041272
_cell_length_b   7.43717333
_cell_length_c   9.25371900
_cell_angle_alpha   90.00000000
_cell_angle_beta   90.00000000
_cell_angle_gamma   89.86413974
_symmetry_Int_Tables_number   1
_chemical_formula_structural   Tb11YTc4
_chemical_formula_sum   'Tb11 Y1 Tc4'
_cell_volume   433.60271160
_cell_formula_units_Z   1
loop_
 _symmetry_equiv_pos_site_id
 _symmetry_equiv_pos_as_xyz
  1  'x, y, z'
loop_
 _atom_site_type_symbol
 _atom_site_label
 _atom_site_symmetry_multiplicity
 _atom_site_fract_x
 _atom_site_fract_y
 _atom_site_fract_z
 _atom_site_occupancy
  Tb  Tb0  1  0.338889  0.676454  0.063495  1
  Tb  Tb1  1  0.161759  0.175280  0.437134  1
  Tb  Tb2  1  0.660731  0.323624  0.563275  1
  Tb  Tb3  1  0.838152  0.824269  0.936986  1
  Tb  Tb4  1  0.660731  0.323624  0.936725  1
  Tb  Tb5  1  0.838152  0.824269  0.563014  1
  Tb  Tb6  1  0.338889  0.676454  0.436505  1
  Tb  Tb7  1  0.161759  0.175280  0.062866  1
  Tb  Tb8  1  0.628676  0.042789  0.250000  1
  Tb  Tb9  1  0.127945  0.458405  0.750000  1
  Tb  Tb10  1  0.372381  0.957416  0.750000  1
  Y  Y11  1  0.872820  0.540791  0.250000  1
  Tc  Tc12  1  0.041669  0.887297  0.250000  1
  Tc  Tc13  1  0.455491  0.385282  0.250000  1
  Tc  Tc14  1  0.961140  0.114344  0.750000  1
  Tc  Tc15  1  0.540817  0.614421  0.750000  1
