# generated using pymatgen
data_Ho4Zn4Ir3Rh
_symmetry_space_group_name_H-M   'P 1'
_cell_length_a   4.03062500
_cell_length_b   6.98748717
_cell_length_c   8.10533939
_cell_angle_alpha   90.06664182
_cell_angle_beta   90.00000000
_cell_angle_gamma   90.00000000
_symmetry_Int_Tables_number   1
_chemical_formula_structural   Ho4Zn4Ir3Rh
_chemical_formula_sum   'Ho4 Zn4 Ir3 Rh1'
_cell_volume   228.27814153
_cell_formula_units_Z   1
loop_
 _symmetry_equiv_pos_site_id
 _symmetry_equiv_pos_as_xyz
  1  'x, y, z'
loop_
 _atom_site_type_symbol
 _atom_site_label
 _atom_site_symmetry_multiplicity
 _atom_site_fract_x
 _atom_site_fract_y
 _atom_site_fract_z
 _atom_site_occupancy
  Ho  Ho0  1  0.250000  0.537806  0.183413  1
  Ho  Ho1  1  0.750000  0.459238  0.817126  1
  Ho  Ho2  1  0.250000  0.039025  0.317598  1
  Ho  Ho3  1  0.750000  0.962936  0.681815  1
  Zn  Zn4  1  0.250000  0.136115  0.935567  1
  Zn  Zn5  1  0.750000  0.863878  0.064213  1
  Zn  Zn6  1  0.250000  0.636593  0.563978  1
  Zn  Zn7  1  0.750000  0.363484  0.435193  1
  Ir  Ir8  1  0.750000  0.744594  0.376386  1
  Ir  Ir9  1  0.250000  0.256805  0.625024  1
  Ir  Ir10  1  0.750000  0.244205  0.122970  1
  Rh  Rh11  1  0.250000  0.755322  0.876716  1
