# generated using pymatgen
data_Tb3Nd4DyAu4
_symmetry_space_group_name_H-M   'P 1'
_cell_length_a   5.03882200
_cell_length_b   7.29107899
_cell_length_c   9.10354629
_cell_angle_alpha   89.68107635
_cell_angle_beta   90.00000000
_cell_angle_gamma   90.00000000
_symmetry_Int_Tables_number   1
_chemical_formula_structural   Tb3Nd4DyAu4
_chemical_formula_sum   'Tb3 Nd4 Dy1 Au4'
_cell_volume   334.44499206
_cell_formula_units_Z   1
loop_
 _symmetry_equiv_pos_site_id
 _symmetry_equiv_pos_as_xyz
  1  'x, y, z'
loop_
 _atom_site_type_symbol
 _atom_site_label
 _atom_site_symmetry_multiplicity
 _atom_site_fract_x
 _atom_site_fract_y
 _atom_site_fract_z
 _atom_site_occupancy
  Tb  Tb0  1  0.250000  0.850072  0.918049  1
  Tb  Tb1  1  0.250000  0.349834  0.582346  1
  Tb  Tb2  1  0.750000  0.151194  0.083586  1
  Nd  Nd3  1  0.250000  0.490566  0.177412  1
  Nd  Nd4  1  0.250000  0.990122  0.324077  1
  Nd  Nd5  1  0.750000  0.509687  0.820763  1
  Nd  Nd6  1  0.750000  0.008109  0.677998  1
  Dy  Dy7  1  0.750000  0.650176  0.415753  1
  Au  Au8  1  0.250000  0.248409  0.903188  1
  Au  Au9  1  0.250000  0.747238  0.598210  1
  Au  Au10  1  0.750000  0.752076  0.095748  1
  Au  Au11  1  0.750000  0.252517  0.402872  1
