# generated using pymatgen
data_Ca(LaPt)2
_symmetry_space_group_name_H-M   'P 1'
_cell_length_a   7.75044288
_cell_length_b   7.75044337
_cell_length_c   7.75044340
_cell_angle_alpha   72.14000228
_cell_angle_beta   72.14000011
_cell_angle_gamma   72.13999886
_symmetry_Int_Tables_number   1
_chemical_formula_structural   Ca(LaPt)2
_chemical_formula_sum   'Ca3 La6 Pt6'
_cell_volume   409.99128982
_cell_formula_units_Z   3
loop_
 _symmetry_equiv_pos_site_id
 _symmetry_equiv_pos_as_xyz
  1  'x, y, z'
loop_
 _atom_site_type_symbol
 _atom_site_label
 _atom_site_symmetry_multiplicity
 _atom_site_fract_x
 _atom_site_fract_y
 _atom_site_fract_z
 _atom_site_occupancy
  Ca  Ca0  1  0.000000  0.000000  0.000000  1
  Ca  Ca1  1  0.800610  0.800610  0.800610  1
  Ca  Ca2  1  0.199390  0.199390  0.199390  1
  La  La3  1  0.327538  0.607007  0.842935  1
  La  La4  1  0.842935  0.327538  0.607007  1
  La  La5  1  0.607007  0.842935  0.327538  1
  La  La6  1  0.672462  0.392993  0.157065  1
  La  La7  1  0.157065  0.672462  0.392993  1
  La  La8  1  0.392993  0.157065  0.672462  1
  Pt  Pt9  1  0.170184  0.953654  0.585332  1
  Pt  Pt10  1  0.585332  0.170184  0.953654  1
  Pt  Pt11  1  0.953654  0.585332  0.170184  1
  Pt  Pt12  1  0.829816  0.046346  0.414668  1
  Pt  Pt13  1  0.414668  0.829816  0.046346  1
  Pt  Pt14  1  0.046346  0.414668  0.829816  1
