# generated using pymatgen
data_TmLu(ZnIr)2
_symmetry_space_group_name_H-M   'P 1'
_cell_length_a   4.00214200
_cell_length_b   6.93429803
_cell_length_c   8.04768869
_cell_angle_alpha   89.78099773
_cell_angle_beta   90.00000000
_cell_angle_gamma   90.00000000
_symmetry_Int_Tables_number   1
_chemical_formula_structural   TmLu(ZnIr)2
_chemical_formula_sum   'Tm2 Lu2 Zn4 Ir4'
_cell_volume   223.33819028
_cell_formula_units_Z   2
loop_
 _symmetry_equiv_pos_site_id
 _symmetry_equiv_pos_as_xyz
  1  'x, y, z'
loop_
 _atom_site_type_symbol
 _atom_site_label
 _atom_site_symmetry_multiplicity
 _atom_site_fract_x
 _atom_site_fract_y
 _atom_site_fract_z
 _atom_site_occupancy
  Tm  Tm0  1  0.250000  0.537213  0.182684  1
  Tm  Tm1  1  0.750000  0.462787  0.817316  1
  Lu  Lu2  1  0.750000  0.962981  0.681240  1
  Lu  Lu3  1  0.250000  0.037019  0.318760  1
  Zn  Zn4  1  0.250000  0.639154  0.565386  1
  Zn  Zn5  1  0.750000  0.360846  0.434614  1
  Zn  Zn6  1  0.750000  0.861837  0.065040  1
  Zn  Zn7  1  0.250000  0.138163  0.934960  1
  Ir  Ir8  1  0.250000  0.756826  0.875869  1
  Ir  Ir9  1  0.750000  0.243174  0.124131  1
  Ir  Ir10  1  0.750000  0.746097  0.377636  1
  Ir  Ir11  1  0.250000  0.253903  0.622364  1
