# generated using pymatgen
data_YbY7VPd24
_symmetry_space_group_name_H-M   'P 1'
_cell_length_a   8.36955000
_cell_length_b   8.36954999
_cell_length_c   8.36954900
_cell_angle_alpha   90.02794432
_cell_angle_beta   89.97205568
_cell_angle_gamma   89.97206247
_symmetry_Int_Tables_number   1
_chemical_formula_structural   YbY7VPd24
_chemical_formula_sum   'Yb1 Y7 V1 Pd24'
_cell_volume   586.28140107
_cell_formula_units_Z   1
loop_
 _symmetry_equiv_pos_site_id
 _symmetry_equiv_pos_as_xyz
  1  'x, y, z'
loop_
 _atom_site_type_symbol
 _atom_site_label
 _atom_site_symmetry_multiplicity
 _atom_site_fract_x
 _atom_site_fract_y
 _atom_site_fract_z
 _atom_site_occupancy
  Yb  Yb0  1  0.747992  0.252008  0.252008  1
  Y  Y1  1  0.252947  0.252991  0.252991  1
  Y  Y2  1  0.747143  0.746975  0.746975  1
  Y  Y3  1  0.747009  0.747053  0.252991  1
  Y  Y4  1  0.747009  0.252991  0.747053  1
  Y  Y5  1  0.253025  0.252857  0.746975  1
  Y  Y6  1  0.253025  0.746975  0.252857  1
  Y  Y7  1  0.252648  0.747352  0.747352  1
  V  V8  1  0.999722  0.000278  0.000278  1
  Pd  Pd9  1  0.260344  0.500021  0.999777  1
  Pd  Pd10  1  0.739576  0.499725  0.000270  1
  Pd  Pd11  1  0.999730  0.260424  0.499725  1
  Pd  Pd12  1  0.500275  0.260424  0.000270  1
  Pd  Pd13  1  0.000223  0.739656  0.500021  1
  Pd  Pd14  1  0.499979  0.739656  0.999777  1
  Pd  Pd15  1  0.500275  0.000270  0.260424  1
  Pd  Pd16  1  0.260344  0.999777  0.500021  1
  Pd  Pd17  1  0.499979  0.999777  0.739656  1
  Pd  Pd18  1  0.739576  0.000270  0.499725  1
  Pd  Pd19  1  0.999730  0.499725  0.260424  1
  Pd  Pd20  1  0.000223  0.500021  0.739656  1
  Pd  Pd21  1  0.253165  0.500205  0.500205  1
  Pd  Pd22  1  0.746983  0.499444  0.499444  1
  Pd  Pd23  1  0.500556  0.253017  0.499444  1
  Pd  Pd24  1  0.499795  0.746835  0.500205  1
  Pd  Pd25  1  0.500556  0.499444  0.253017  1
  Pd  Pd26  1  0.499795  0.500205  0.746835  1
  Pd  Pd27  1  0.290796  0.000151  0.000151  1
  Pd  Pd28  1  0.709332  0.000723  0.000723  1
  Pd  Pd29  1  0.999277  0.290668  0.000723  1
  Pd  Pd30  1  0.999849  0.709204  0.000151  1
  Pd  Pd31  1  0.999277  0.000723  0.290668  1
  Pd  Pd32  1  0.999849  0.000151  0.709204  1
