# generated using pymatgen
data_Dy2Hf2TaSi4
_symmetry_space_group_name_H-M   'P 1'
_cell_length_a   7.21632400
_cell_length_b   7.21632400
_cell_length_c   13.20796500
_cell_angle_alpha   90.00000000
_cell_angle_beta   90.00000000
_cell_angle_gamma   90.00000000
_symmetry_Int_Tables_number   1
_chemical_formula_structural   Dy2Hf2TaSi4
_chemical_formula_sum   'Dy8 Hf8 Ta4 Si16'
_cell_volume   687.80916338
_cell_formula_units_Z   4
loop_
 _symmetry_equiv_pos_site_id
 _symmetry_equiv_pos_as_xyz
  1  'x, y, z'
loop_
 _atom_site_type_symbol
 _atom_site_label
 _atom_site_symmetry_multiplicity
 _atom_site_fract_x
 _atom_site_fract_y
 _atom_site_fract_z
 _atom_site_occupancy
  Dy  Dy0  1  0.497362  0.154760  0.534645  1
  Dy  Dy1  1  0.502638  0.845240  0.034645  1
  Dy  Dy2  1  0.654760  0.002638  0.284645  1
  Dy  Dy3  1  0.345240  0.997362  0.784645  1
  Dy  Dy4  1  0.845240  0.502638  0.965355  1
  Dy  Dy5  1  0.154760  0.497362  0.465355  1
  Dy  Dy6  1  0.002638  0.654760  0.715355  1
  Dy  Dy7  1  0.997362  0.345240  0.215355  1
  Hf  Hf8  1  0.493771  0.352751  0.125086  1
  Hf  Hf9  1  0.506229  0.647249  0.625086  1
  Hf  Hf10  1  0.852751  0.006229  0.875086  1
  Hf  Hf11  1  0.147249  0.993771  0.375086  1
  Hf  Hf12  1  0.647249  0.506229  0.374914  1
  Hf  Hf13  1  0.352751  0.493771  0.874914  1
  Hf  Hf14  1  0.006229  0.852751  0.124914  1
  Hf  Hf15  1  0.993771  0.147249  0.624914  1
  Ta  Ta16  1  0.676720  0.323280  0.750000  1
  Ta  Ta17  1  0.323280  0.676720  0.250000  1
  Ta  Ta18  1  0.823280  0.823280  0.500000  1
  Ta  Ta19  1  0.176720  0.176720  0.000000  1
  Si  Si20  1  0.797253  0.139496  0.067166  1
  Si  Si21  1  0.202747  0.860504  0.567166  1
  Si  Si22  1  0.639496  0.702747  0.817166  1
  Si  Si23  1  0.360504  0.297253  0.317166  1
  Si  Si24  1  0.860504  0.202747  0.432834  1
  Si  Si25  1  0.139496  0.797253  0.932834  1
  Si  Si26  1  0.702747  0.639496  0.182834  1
  Si  Si27  1  0.297253  0.360504  0.682834  1
  Si  Si28  1  0.549314  0.204065  0.934509  1
  Si  Si29  1  0.450686  0.795935  0.434509  1
  Si  Si30  1  0.704065  0.950686  0.684509  1
  Si  Si31  1  0.295935  0.049314  0.184509  1
  Si  Si32  1  0.795935  0.450686  0.565491  1
  Si  Si33  1  0.204065  0.549314  0.065491  1
  Si  Si34  1  0.950686  0.704065  0.315491  1
  Si  Si35  1  0.049314  0.295935  0.815491  1
