# generated using pymatgen
data_CaAl2GaAu
_symmetry_space_group_name_H-M   'P 1'
_cell_length_a   4.12021612
_cell_length_b   4.12021522
_cell_length_c   6.57383341
_cell_angle_alpha   71.73695800
_cell_angle_beta   71.73695774
_cell_angle_gamma   89.99999922
_symmetry_Int_Tables_number   1
_chemical_formula_structural   CaAl2GaAu
_chemical_formula_sum   'Ca1 Al2 Ga1 Au1'
_cell_volume   100.04025027
_cell_formula_units_Z   1
loop_
 _symmetry_equiv_pos_site_id
 _symmetry_equiv_pos_as_xyz
  1  'x, y, z'
loop_
 _atom_site_type_symbol
 _atom_site_label
 _atom_site_symmetry_multiplicity
 _atom_site_fract_x
 _atom_site_fract_y
 _atom_site_fract_z
 _atom_site_occupancy
  Ca  Ca0  1  0.996293  0.996293  0.007414  1
  Al  Al1  1  0.750617  0.250617  0.498767  1
  Al  Al2  1  0.250617  0.750617  0.498767  1
  Ga  Ga3  1  0.390238  0.390238  0.219525  1
  Au  Au4  1  0.612235  0.612235  0.775529  1
