# generated using pymatgen
data_EuCo(As4Os)3
_symmetry_space_group_name_H-M   'P 1'
_cell_length_a   7.42622339
_cell_length_b   7.42622429
_cell_length_c   7.47563300
_cell_angle_alpha   109.60604756
_cell_angle_beta   109.60605004
_cell_angle_gamma   109.33606061
_symmetry_Int_Tables_number   1
_chemical_formula_structural   EuCo(As4Os)3
_chemical_formula_sum   'Eu1 Co1 As12 Os3'
_cell_volume   316.83764371
_cell_formula_units_Z   1
loop_
 _symmetry_equiv_pos_site_id
 _symmetry_equiv_pos_as_xyz
  1  'x, y, z'
loop_
 _atom_site_type_symbol
 _atom_site_label
 _atom_site_symmetry_multiplicity
 _atom_site_fract_x
 _atom_site_fract_y
 _atom_site_fract_z
 _atom_site_occupancy
  Eu  Eu0  1  0.000000  0.000000  0.000000  1
  Co  Co1  1  0.000000  0.000000  0.500000  1
  As  As2  1  0.340207  0.194007  0.843134  1
  As  As3  1  0.659793  0.805993  0.156866  1
  As  As4  1  0.650688  0.501952  0.850747  1
  As  As5  1  0.349312  0.498048  0.149253  1
  As  As6  1  0.194007  0.853800  0.350873  1
  As  As7  1  0.805993  0.146200  0.649127  1
  As  As8  1  0.501952  0.851265  0.651206  1
  As  As9  1  0.498048  0.148735  0.348794  1
  As  As10  1  0.851265  0.349312  0.200059  1
  As  As11  1  0.148735  0.650688  0.799941  1
  As  As12  1  0.853800  0.659793  0.502926  1
  As  As13  1  0.146200  0.340207  0.497074  1
  Os  Os14  1  0.500000  0.000000  0.000000  1
  Os  Os15  1  0.000000  0.500000  0.000000  1
  Os  Os16  1  0.500000  0.500000  0.500000  1
