# generated using pymatgen
data_Hf3Al3GaFe2
_symmetry_space_group_name_H-M   'P 1'
_cell_length_a   7.11439500
_cell_length_b   7.11439442
_cell_length_c   3.34355500
_cell_angle_alpha   90.00000000
_cell_angle_beta   90.00000000
_cell_angle_gamma   119.99998874
_symmetry_Int_Tables_number   1
_chemical_formula_structural   Hf3Al3GaFe2
_chemical_formula_sum   'Hf3 Al3 Ga1 Fe2'
_cell_volume   146.55986805
_cell_formula_units_Z   1
loop_
 _symmetry_equiv_pos_site_id
 _symmetry_equiv_pos_as_xyz
  1  'x, y, z'
loop_
 _atom_site_type_symbol
 _atom_site_label
 _atom_site_symmetry_multiplicity
 _atom_site_fract_x
 _atom_site_fract_y
 _atom_site_fract_z
 _atom_site_occupancy
  Hf  Hf0  1  0.380019  0.406779  0.500000  1
  Hf  Hf1  1  0.593221  0.973240  0.500000  1
  Hf  Hf2  1  0.026760  0.619981  0.500000  1
  Al  Al3  1  0.743926  0.741606  0.000000  1
  Al  Al4  1  0.258394  0.002320  0.000000  1
  Al  Al5  1  0.997680  0.256074  0.000000  1
  Ga  Ga6  1  0.666667  0.333333  0.000000  1
  Fe  Fe7  1  0.333333  0.666667  0.000000  1
  Fe  Fe8  1  0.000000  0.000000  0.500000  1
