# generated using pymatgen
data_Tb2DyP2S
_symmetry_space_group_name_H-M   'P 1'
_cell_length_a   6.92377892
_cell_length_b   6.92377849
_cell_length_c   6.92377739
_cell_angle_alpha   146.53587513
_cell_angle_beta   132.06232779
_cell_angle_gamma   59.72373942
_symmetry_Int_Tables_number   1
_chemical_formula_structural   Tb2DyP2S
_chemical_formula_sum   'Tb2 Dy1 P2 S1'
_cell_volume   134.66092054
_cell_formula_units_Z   1
loop_
 _symmetry_equiv_pos_site_id
 _symmetry_equiv_pos_as_xyz
  1  'x, y, z'
loop_
 _atom_site_type_symbol
 _atom_site_label
 _atom_site_symmetry_multiplicity
 _atom_site_fract_x
 _atom_site_fract_y
 _atom_site_fract_z
 _atom_site_occupancy
  Tb  Tb0  1  0.171227  0.671227  0.500000  1
  Tb  Tb1  1  0.828773  0.328773  0.500000  1
  Dy  Dy2  1  0.500000  0.000000  0.500000  1
  P  P3  1  0.665150  0.665150  0.000000  1
  P  P4  1  0.334850  0.334850  0.000000  1
  S  S5  1  0.000000  0.000000  0.000000  1
