# generated using pymatgen
data_Li8Dy4Y4Sn7Bi
_symmetry_space_group_name_H-M   'P 1'
_cell_length_a   9.41224400
_cell_length_b   9.41146275
_cell_length_c   7.30106720
_cell_angle_alpha   90.09910792
_cell_angle_beta   90.00000000
_cell_angle_gamma   120.00274601
_symmetry_Int_Tables_number   1
_chemical_formula_structural   Li8Dy4Y4Sn7Bi
_chemical_formula_sum   'Li8 Dy4 Y4 Sn7 Bi1'
_cell_volume   560.08558833
_cell_formula_units_Z   1
loop_
 _symmetry_equiv_pos_site_id
 _symmetry_equiv_pos_as_xyz
  1  'x, y, z'
loop_
 _atom_site_type_symbol
 _atom_site_label
 _atom_site_symmetry_multiplicity
 _atom_site_fract_x
 _atom_site_fract_y
 _atom_site_fract_z
 _atom_site_occupancy
  Li  Li0  1  0.166645  0.333290  0.285691  1
  Li  Li1  1  0.167911  0.833602  0.288936  1
  Li  Li2  1  0.665692  0.833602  0.288936  1
  Li  Li3  1  0.833330  0.666660  0.787851  1
  Li  Li4  1  0.829121  0.164686  0.791185  1
  Li  Li5  1  0.335565  0.164686  0.791185  1
  Li  Li6  1  0.335332  0.670666  0.668257  1
  Li  Li7  1  0.666178  0.332357  0.170180  1
  Dy  Dy8  1  0.493031  0.514731  0.996540  1
  Dy  Dy9  1  0.021698  0.514731  0.996540  1
  Dy  Dy10  1  0.997251  0.994502  0.497457  1
  Dy  Dy11  1  0.997801  0.995600  0.002501  1
  Y  Y12  1  0.512756  0.025512  0.493732  1
  Y  Y13  1  0.517595  0.490555  0.491098  1
  Y  Y14  1  0.972961  0.490555  0.491098  1
  Y  Y15  1  0.487275  0.974549  0.994667  1
  Sn  Sn16  1  0.166186  0.832665  0.730009  1
  Sn  Sn17  1  0.666479  0.832665  0.730009  1
  Sn  Sn18  1  0.833368  0.666736  0.230039  1
  Sn  Sn19  1  0.833953  0.167319  0.229778  1
  Sn  Sn20  1  0.333366  0.167319  0.229778  1
  Sn  Sn21  1  0.332733  0.665467  0.261380  1
  Sn  Sn22  1  0.667036  0.334071  0.762476  1
  Bi  Bi23  1  0.166737  0.333474  0.732674  1
