# generated using pymatgen
data_Nb12Al9CoTc2(CN)2
_symmetry_space_group_name_H-M   'P 1'
_cell_length_a   8.26133506
_cell_length_b   8.26133610
_cell_length_c   8.28079700
_cell_angle_alpha   59.89663914
_cell_angle_beta   59.89664296
_cell_angle_gamma   59.85853265
_symmetry_Int_Tables_number   1
_chemical_formula_structural   Nb12Al9CoTc2(CN)2
_chemical_formula_sum   'Nb12 Al9 Co1 Tc2 C2 N2'
_cell_volume   398.57714585
_cell_formula_units_Z   1
loop_
 _symmetry_equiv_pos_site_id
 _symmetry_equiv_pos_as_xyz
  1  'x, y, z'
loop_
 _atom_site_type_symbol
 _atom_site_label
 _atom_site_symmetry_multiplicity
 _atom_site_fract_x
 _atom_site_fract_y
 _atom_site_fract_z
 _atom_site_occupancy
  Nb  Nb0  1  0.694932  0.310081  0.682548  1
  Nb  Nb1  1  0.944476  0.557004  0.558070  1
  Nb  Nb2  1  0.552999  0.941857  0.940245  1
  Nb  Nb3  1  0.945450  0.556264  0.941646  1
  Nb  Nb4  1  0.555018  0.565724  0.940346  1
  Nb  Nb5  1  0.943776  0.941913  0.557264  1
  Nb  Nb6  1  0.694982  0.684276  0.309654  1
  Nb  Nb7  1  0.305524  0.692996  0.691930  1
  Nb  Nb8  1  0.697001  0.308143  0.309755  1
  Nb  Nb9  1  0.306224  0.308087  0.692736  1
  Nb  Nb10  1  0.555068  0.939919  0.567452  1
  Nb  Nb11  1  0.304550  0.693736  0.308354  1
  Al  Al12  1  0.125000  0.125000  0.125000  1
  Al  Al13  1  0.345438  0.330188  0.328636  1
  Al  Al14  1  0.248756  0.913972  0.914973  1
  Al  Al15  1  0.901245  0.253238  0.918857  1
  Al  Al16  1  0.901336  0.918190  0.253536  1
  Al  Al17  1  0.348755  0.996762  0.331143  1
  Al  Al18  1  0.348664  0.331810  0.996464  1
  Al  Al19  1  0.001244  0.336028  0.335027  1
  Al  Al20  1  0.904562  0.919812  0.921364  1
  Co  Co21  1  0.625000  0.125000  0.125000  1
  Tc  Tc22  1  0.125000  0.625000  0.125000  1
  Tc  Tc23  1  0.125000  0.125000  0.625000  1
  C  C24  1  0.625000  0.625000  0.625000  1
  C  C25  1  0.625000  0.625000  0.125000  1
  N  N26  1  0.125000  0.625000  0.625000  1
  N  N27  1  0.625000  0.125000  0.625000  1
