# generated using pymatgen
data_Nd4YIrRu
_symmetry_space_group_name_H-M   'P 1'
_cell_length_a   6.60101062
_cell_length_b   7.34067218
_cell_length_c   8.85701704
_cell_angle_alpha   96.32522283
_cell_angle_beta   111.87871543
_cell_angle_gamma   90.00000163
_symmetry_Int_Tables_number   1
_chemical_formula_structural   Nd4YIrRu
_chemical_formula_sum   'Nd8 Y2 Ir2 Ru2'
_cell_volume   395.44619945
_cell_formula_units_Z   2
loop_
 _symmetry_equiv_pos_site_id
 _symmetry_equiv_pos_as_xyz
  1  'x, y, z'
loop_
 _atom_site_type_symbol
 _atom_site_label
 _atom_site_symmetry_multiplicity
 _atom_site_fract_x
 _atom_site_fract_y
 _atom_site_fract_z
 _atom_site_occupancy
  Nd  Nd0  1  0.982585  0.918888  0.183388  1
  Nd  Nd1  1  0.799197  0.581112  0.816612  1
  Nd  Nd2  1  0.022247  0.083202  0.816993  1
  Nd  Nd3  1  0.205253  0.416798  0.183007  1
  Nd  Nd4  1  0.642613  0.815324  0.429835  1
  Nd  Nd5  1  0.212778  0.684676  0.570165  1
  Nd  Nd6  1  0.353023  0.186610  0.566929  1
  Nd  Nd7  1  0.786094  0.313390  0.433071  1
  Y  Y8  1  0.432979  0.750000  0.000000  1
  Y  Y9  1  0.569247  0.250000  0.000000  1
  Ir  Ir10  1  0.815978  0.573812  0.216667  1
  Ir  Ir11  1  0.599311  0.926188  0.783333  1
  Ru  Ru12  1  0.179998  0.426959  0.781305  1
  Ru  Ru13  1  0.398694  0.073041  0.218695  1
