# generated using pymatgen
data_Nd6Cd15Ag8P
_symmetry_space_group_name_H-M   'P 1'
_cell_length_a   9.89440381
_cell_length_b   9.89440467
_cell_length_c   9.91896518
_cell_angle_alpha   60.08187407
_cell_angle_beta   60.08187343
_cell_angle_gamma   60.00000438
_symmetry_Int_Tables_number   1
_chemical_formula_structural   Nd6Cd15Ag8P
_chemical_formula_sum   'Nd6 Cd15 Ag8 P1'
_cell_volume   687.49100992
_cell_formula_units_Z   1
loop_
 _symmetry_equiv_pos_site_id
 _symmetry_equiv_pos_as_xyz
  1  'x, y, z'
loop_
 _atom_site_type_symbol
 _atom_site_label
 _atom_site_symmetry_multiplicity
 _atom_site_fract_x
 _atom_site_fract_y
 _atom_site_fract_z
 _atom_site_occupancy
  Nd  Nd0  1  0.796870  0.796870  0.205741  1
  Nd  Nd1  1  0.200519  0.796870  0.205741  1
  Nd  Nd2  1  0.796870  0.200519  0.205741  1
  Nd  Nd3  1  0.203935  0.203935  0.797130  1
  Nd  Nd4  1  0.795001  0.203935  0.797130  1
  Nd  Nd5  1  0.203935  0.795001  0.797130  1
  Cd  Cd6  1  0.832636  0.504232  0.830495  1
  Cd  Cd7  1  0.504232  0.832636  0.830495  1
  Cd  Cd8  1  0.832636  0.832636  0.830495  1
  Cd  Cd9  1  0.168108  0.168108  0.495678  1
  Cd  Cd10  1  0.167669  0.496805  0.167859  1
  Cd  Cd11  1  0.496805  0.167669  0.167859  1
  Cd  Cd12  1  0.167669  0.167669  0.167859  1
  Cd  Cd13  1  0.619835  0.619835  0.140495  1
  Cd  Cd14  1  0.622668  0.136265  0.618397  1
  Cd  Cd15  1  0.136265  0.622668  0.618397  1
  Cd  Cd16  1  0.622668  0.622668  0.618397  1
  Cd  Cd17  1  0.379764  0.379764  0.860708  1
  Cd  Cd18  1  0.380671  0.859465  0.379193  1
  Cd  Cd19  1  0.859465  0.380671  0.379193  1
  Cd  Cd20  1  0.380671  0.380671  0.379193  1
  Ag  Ag21  1  0.831006  0.831006  0.506982  1
  Ag  Ag22  1  0.999391  0.999391  0.499844  1
  Ag  Ag23  1  0.501373  0.999391  0.499844  1
  Ag  Ag24  1  0.999391  0.501373  0.499844  1
  Ag  Ag25  1  0.500338  0.500338  0.999807  1
  Ag  Ag26  1  0.999518  0.500338  0.999807  1
  Ag  Ag27  1  0.500338  0.999518  0.999807  1
  Ag  Ag28  1  0.499490  0.499490  0.501530  1
  P  P29  1  0.000264  0.000264  0.999209  1
