# generated using pymatgen
data_Zr12Al3Ga(Pd2N)4
_symmetry_space_group_name_H-M   'P 1'
_cell_length_a   8.64330191
_cell_length_b   8.64330257
_cell_length_c   8.66009313
_cell_angle_alpha   60.06412309
_cell_angle_beta   60.06411973
_cell_angle_gamma   59.99999786
_symmetry_Int_Tables_number   1
_chemical_formula_structural   Zr12Al3Ga(Pd2N)4
_chemical_formula_sum   'Zr12 Al3 Ga1 Pd8 N4'
_cell_volume   457.91744990
_cell_formula_units_Z   1
loop_
 _symmetry_equiv_pos_site_id
 _symmetry_equiv_pos_as_xyz
  1  'x, y, z'
loop_
 _atom_site_type_symbol
 _atom_site_label
 _atom_site_symmetry_multiplicity
 _atom_site_fract_x
 _atom_site_fract_y
 _atom_site_fract_z
 _atom_site_occupancy
  Zr  Zr0  1  0.811867  0.811867  0.187750  1
  Zr  Zr1  1  0.187950  0.187950  0.812306  1
  Zr  Zr2  1  0.811794  0.187950  0.812306  1
  Zr  Zr3  1  0.188516  0.811867  0.187750  1
  Zr  Zr4  1  0.187950  0.811794  0.812306  1
  Zr  Zr5  1  0.811867  0.188516  0.187750  1
  Zr  Zr6  1  0.438133  0.438133  0.062250  1
  Zr  Zr7  1  0.062050  0.062050  0.437694  1
  Zr  Zr8  1  0.438206  0.062050  0.437694  1
  Zr  Zr9  1  0.061484  0.438133  0.062250  1
  Zr  Zr10  1  0.062050  0.438206  0.437694  1
  Zr  Zr11  1  0.438133  0.061484  0.062250  1
  Al  Al12  1  0.125000  0.625000  0.625000  1
  Al  Al13  1  0.625000  0.125000  0.625000  1
  Al  Al14  1  0.625000  0.625000  0.625000  1
  Ga  Ga15  1  0.625000  0.625000  0.125000  1
  Pd  Pd16  1  0.759437  0.412482  0.415600  1
  Pd  Pd17  1  0.412482  0.759437  0.415600  1
  Pd  Pd18  1  0.413708  0.413708  0.758876  1
  Pd  Pd19  1  0.412482  0.412482  0.415600  1
  Pd  Pd20  1  0.490563  0.837518  0.834400  1
  Pd  Pd21  1  0.837518  0.490563  0.834400  1
  Pd  Pd22  1  0.836292  0.836292  0.491124  1
  Pd  Pd23  1  0.837518  0.837518  0.834400  1
  N  N24  1  0.625000  0.125000  0.125000  1
  N  N25  1  0.125000  0.625000  0.125000  1
  N  N26  1  0.125000  0.125000  0.625000  1
  N  N27  1  0.125000  0.125000  0.125000  1
