# generated using pymatgen
data_La5Y(RuBr3)2
_symmetry_space_group_name_H-M   'P 1'
_cell_length_a   4.29103300
_cell_length_b   9.24515922
_cell_length_c   12.11042273
_cell_angle_alpha   87.41927112
_cell_angle_beta   90.00000000
_cell_angle_gamma   90.00000000
_symmetry_Int_Tables_number   1
_chemical_formula_structural   La5Y(RuBr3)2
_chemical_formula_sum   'La5 Y1 Ru2 Br6'
_cell_volume   479.94873854
_cell_formula_units_Z   1
loop_
 _symmetry_equiv_pos_site_id
 _symmetry_equiv_pos_as_xyz
  1  'x, y, z'
loop_
 _atom_site_type_symbol
 _atom_site_label
 _atom_site_symmetry_multiplicity
 _atom_site_fract_x
 _atom_site_fract_y
 _atom_site_fract_z
 _atom_site_occupancy
  La  La0  1  0.750000  0.672495  0.123957  1
  La  La1  1  0.250000  0.325447  0.881499  1
  La  La2  1  0.250000  0.886849  0.338533  1
  La  La3  1  0.750000  0.120964  0.661148  1
  La  La4  1  0.250000  0.897345  0.893401  1
  Y  Y5  1  0.750000  0.092015  0.106688  1
  Ru  Ru6  1  0.250000  0.882453  0.130232  1
  Ru  Ru7  1  0.750000  0.116569  0.868850  1
  Br  Br8  1  0.250000  0.884702  0.616296  1
  Br  Br9  1  0.750000  0.124288  0.374440  1
  Br  Br10  1  0.750000  0.650680  0.376283  1
  Br  Br11  1  0.250000  0.354624  0.626422  1
  Br  Br12  1  0.250000  0.386106  0.131659  1
  Br  Br13  1  0.750000  0.605463  0.870594  1
