# generated using pymatgen
data_LuPa3(Rh2Pb)2
_symmetry_space_group_name_H-M   'P 1'
_cell_length_a   7.79201139
_cell_length_b   7.79201169
_cell_length_c   3.57977400
_cell_angle_alpha   90.00000000
_cell_angle_beta   90.00000000
_cell_angle_gamma   88.30131792
_symmetry_Int_Tables_number   1
_chemical_formula_structural   LuPa3(Rh2Pb)2
_chemical_formula_sum   'Lu1 Pa3 Rh4 Pb2'
_cell_volume   217.25205218
_cell_formula_units_Z   1
loop_
 _symmetry_equiv_pos_site_id
 _symmetry_equiv_pos_as_xyz
  1  'x, y, z'
loop_
 _atom_site_type_symbol
 _atom_site_label
 _atom_site_symmetry_multiplicity
 _atom_site_fract_x
 _atom_site_fract_y
 _atom_site_fract_z
 _atom_site_occupancy
  Lu  Lu0  1  0.331222  0.831222  0.500000  1
  Pa  Pa1  1  0.666401  0.166401  0.500000  1
  Pa  Pa2  1  0.171368  0.331020  0.500000  1
  Pa  Pa3  1  0.831020  0.671368  0.500000  1
  Rh  Rh4  1  0.860967  0.360967  0.000000  1
  Rh  Rh5  1  0.374672  0.143665  0.000000  1
  Rh  Rh6  1  0.643665  0.874672  0.000000  1
  Rh  Rh7  1  0.115036  0.615036  0.000000  1
  Pb  Pb8  1  0.010900  0.994748  0.000000  1
  Pb  Pb9  1  0.494748  0.510900  0.000000  1
