# generated using pymatgen
data_Yb4Sc4Re(TcB8)3
_symmetry_space_group_name_H-M   'P 1'
_cell_length_a   3.54871200
_cell_length_b   9.05317826
_cell_length_c   11.38485967
_cell_angle_alpha   90.01060529
_cell_angle_beta   90.00000000
_cell_angle_gamma   90.00000000
_symmetry_Int_Tables_number   1
_chemical_formula_structural   Yb4Sc4Re(TcB8)3
_chemical_formula_sum   'Yb4 Sc4 Re1 Tc3 B24'
_cell_volume   365.76277286
_cell_formula_units_Z   1
loop_
 _symmetry_equiv_pos_site_id
 _symmetry_equiv_pos_as_xyz
  1  'x, y, z'
loop_
 _atom_site_type_symbol
 _atom_site_label
 _atom_site_symmetry_multiplicity
 _atom_site_fract_x
 _atom_site_fract_y
 _atom_site_fract_z
 _atom_site_occupancy
  Yb  Yb0  1  0.000000  0.323951  0.414898  1
  Yb  Yb1  1  0.000000  0.675793  0.584738  1
  Yb  Yb2  1  0.000000  0.823829  0.085724  1
  Yb  Yb3  1  0.000000  0.176634  0.915210  1
  Sc  Sc4  1  0.000000  0.942903  0.366697  1
  Sc  Sc5  1  0.000000  0.057652  0.632328  1
  Sc  Sc6  1  0.000000  0.442789  0.133380  1
  Sc  Sc7  1  0.000000  0.556053  0.867354  1
  Re  Re8  1  0.000000  0.857140  0.818296  1
  Tc  Tc9  1  0.000000  0.643297  0.317839  1
  Tc  Tc10  1  0.000000  0.356698  0.682262  1
  Tc  Tc11  1  0.000000  0.143237  0.182220  1
  B  B12  1  0.500000  0.554389  0.432655  1
  B  B13  1  0.500000  0.445630  0.567198  1
  B  B14  1  0.500000  0.054707  0.067396  1
  B  B15  1  0.500000  0.945848  0.933134  1
  B  B16  1  0.500000  0.754931  0.417633  1
  B  B17  1  0.500000  0.245312  0.582165  1
  B  B18  1  0.500000  0.254805  0.082237  1
  B  B19  1  0.500000  0.744800  0.918106  1
  B  B20  1  0.500000  0.796309  0.263017  1
  B  B21  1  0.500000  0.203892  0.736779  1
  B  B22  1  0.500000  0.296233  0.237031  1
  B  B23  1  0.500000  0.703366  0.762707  1
  B  B24  1  0.500000  0.629893  0.182209  1
  B  B25  1  0.500000  0.369966  0.817743  1
  B  B26  1  0.500000  0.129895  0.317863  1
  B  B27  1  0.500000  0.870087  0.681717  1
  B  B28  1  0.500000  0.981862  0.213067  1
  B  B29  1  0.500000  0.018739  0.786662  1
  B  B30  1  0.500000  0.481749  0.286847  1
  B  B31  1  0.500000  0.518050  0.713030  1
  B  B32  1  0.500000  0.591718  0.024834  1
  B  B33  1  0.500000  0.407794  0.975540  1
  B  B34  1  0.500000  0.091961  0.475022  1
  B  B35  1  0.500000  0.908090  0.524463  1
