# generated using pymatgen
data_Y13Er3Cd4Os3Pd
_symmetry_space_group_name_H-M   'P 1'
_cell_length_a   9.66183943
_cell_length_b   9.77771032
_cell_length_c   9.77767763
_cell_angle_alpha   59.50781097
_cell_angle_beta   59.09165110
_cell_angle_gamma   59.09161305
_symmetry_Int_Tables_number   1
_chemical_formula_structural   Y13Er3Cd4Os3Pd
_chemical_formula_sum   'Y13 Er3 Cd4 Os3 Pd1'
_cell_volume   641.68279306
_cell_formula_units_Z   1
loop_
 _symmetry_equiv_pos_site_id
 _symmetry_equiv_pos_as_xyz
  1  'x, y, z'
loop_
 _atom_site_type_symbol
 _atom_site_label
 _atom_site_symmetry_multiplicity
 _atom_site_fract_x
 _atom_site_fract_y
 _atom_site_fract_z
 _atom_site_occupancy
  Y  Y0  1  0.967785  0.344230  0.344238  1
  Y  Y1  1  0.814760  0.189954  0.189953  1
  Y  Y2  1  0.183176  0.809477  0.809475  1
  Y  Y3  1  0.188149  0.810524  0.190986  1
  Y  Y4  1  0.813969  0.189814  0.802597  1
  Y  Y5  1  0.188150  0.190980  0.810524  1
  Y  Y6  1  0.813972  0.802602  0.189814  1
  Y  Y7  1  0.938598  0.559225  0.559222  1
  Y  Y8  1  0.552675  0.941072  0.941072  1
  Y  Y9  1  0.551105  0.941216  0.566570  1
  Y  Y10  1  0.936024  0.560020  0.938800  1
  Y  Y11  1  0.551099  0.566573  0.941211  1
  Y  Y12  1  0.936032  0.938786  0.560022  1
  Er  Er13  1  0.347990  0.351754  0.351755  1
  Er  Er14  1  0.344595  0.352207  0.955698  1
  Er  Er15  1  0.344603  0.955696  0.352201  1
  Cd  Cd16  1  0.580567  0.578865  0.578835  1
  Cd  Cd17  1  0.581028  0.579005  0.259037  1
  Cd  Cd18  1  0.581035  0.259034  0.578998  1
  Cd  Cd19  1  0.256414  0.581203  0.581223  1
  Os  Os20  1  0.150740  0.137248  0.137252  1
  Os  Os21  1  0.152397  0.140318  0.576313  1
  Os  Os22  1  0.152386  0.576316  0.140322  1
  Pd  Pd23  1  0.572750  0.143883  0.143881  1
