# generated using pymatgen
data_Yb2AgAu3O8
_symmetry_space_group_name_H-M   'P 1'
_cell_length_a   6.61441365
_cell_length_b   6.63608613
_cell_length_c   6.58755065
_cell_angle_alpha   126.00393563
_cell_angle_beta   125.57976575
_cell_angle_gamma   80.36421690
_symmetry_Int_Tables_number   1
_chemical_formula_structural   Yb2AgAu3O8
_chemical_formula_sum   'Yb2 Ag1 Au3 O8'
_cell_volume   183.42240250
_cell_formula_units_Z   1
loop_
 _symmetry_equiv_pos_site_id
 _symmetry_equiv_pos_as_xyz
  1  'x, y, z'
loop_
 _atom_site_type_symbol
 _atom_site_label
 _atom_site_symmetry_multiplicity
 _atom_site_fract_x
 _atom_site_fract_y
 _atom_site_fract_z
 _atom_site_occupancy
  Yb  Yb0  1  0.502889  0.498597  0.001010  1
  Yb  Yb1  1  0.247111  0.751403  0.498990  1
  Ag  Ag2  1  0.875000  0.125000  0.250000  1
  Au  Au3  1  0.375000  0.125000  0.250000  1
  Au  Au4  1  0.875000  0.125000  0.750000  1
  Au  Au5  1  0.875000  0.625000  0.750000  1
  O  O6  1  0.895442  0.356015  0.145139  1
  O  O7  1  0.207961  0.749505  0.854914  1
  O  O8  1  0.854558  0.893985  0.354861  1
  O  O9  1  0.542039  0.500495  0.645086  1
  O  O10  1  0.499934  0.146060  0.042751  1
  O  O11  1  0.100881  0.454836  0.949803  1
  O  O12  1  0.649119  0.795164  0.550197  1
  O  O13  1  0.250066  0.103940  0.457249  1
