# generated using pymatgen
data_Yb4Cu4IrPd3
_symmetry_space_group_name_H-M   'P 1'
_cell_length_a   5.26399952
_cell_length_b   5.26399991
_cell_length_c   8.84634200
_cell_angle_alpha   90.00000000
_cell_angle_beta   90.00000000
_cell_angle_gamma   122.70939236
_symmetry_Int_Tables_number   1
_chemical_formula_structural   Yb4Cu4IrPd3
_chemical_formula_sum   'Yb4 Cu4 Ir1 Pd3'
_cell_volume   206.25733941
_cell_formula_units_Z   1
loop_
 _symmetry_equiv_pos_site_id
 _symmetry_equiv_pos_as_xyz
  1  'x, y, z'
loop_
 _atom_site_type_symbol
 _atom_site_label
 _atom_site_symmetry_multiplicity
 _atom_site_fract_x
 _atom_site_fract_y
 _atom_site_fract_z
 _atom_site_occupancy
  Yb  Yb0  1  0.333469  0.666531  0.436627  1
  Yb  Yb1  1  0.668087  0.331913  0.570160  1
  Yb  Yb2  1  0.668087  0.331913  0.929840  1
  Yb  Yb3  1  0.333469  0.666531  0.063373  1
  Cu  Cu4  1  0.825631  0.669273  0.250000  1
  Cu  Cu5  1  0.330727  0.174369  0.250000  1
  Cu  Cu6  1  0.170591  0.334962  0.750000  1
  Cu  Cu7  1  0.665038  0.829409  0.750000  1
  Ir  Ir8  1  0.176670  0.823330  0.750000  1
  Pd  Pd9  1  0.003518  0.996482  0.499979  1
  Pd  Pd10  1  0.003518  0.996482  0.000021  1
  Pd  Pd11  1  0.821197  0.178803  0.250000  1
