# generated using pymatgen
data_YLuPa(Co3P2)3
_symmetry_space_group_name_H-M   'P 1'
_cell_length_a   3.69973400
_cell_length_b   10.51438000
_cell_length_c   12.11844900
_cell_angle_alpha   90.00000000
_cell_angle_beta   90.00000000
_cell_angle_gamma   90.00000000
_symmetry_Int_Tables_number   1
_chemical_formula_structural   YLuPa(Co3P2)3
_chemical_formula_sum   'Y2 Lu2 Pa2 Co18 P12'
_cell_volume   471.41262467
_cell_formula_units_Z   2
loop_
 _symmetry_equiv_pos_site_id
 _symmetry_equiv_pos_as_xyz
  1  'x, y, z'
loop_
 _atom_site_type_symbol
 _atom_site_label
 _atom_site_symmetry_multiplicity
 _atom_site_fract_x
 _atom_site_fract_y
 _atom_site_fract_z
 _atom_site_occupancy
  Y  Y0  1  0.500000  0.815279  0.204727  1
  Y  Y1  1  0.500000  0.184721  0.204727  1
  Lu  Lu2  1  0.000000  0.683899  0.794873  1
  Lu  Lu3  1  0.000000  0.316101  0.794873  1
  Pa  Pa4  1  0.000000  0.500000  0.530051  1
  Pa  Pa5  1  0.500000  0.000000  0.471268  1
  Co  Co6  1  0.500000  0.500000  0.158335  1
  Co  Co7  1  0.000000  0.000000  0.841329  1
  Co  Co8  1  0.500000  0.500000  0.698147  1
  Co  Co9  1  0.000000  0.000000  0.303544  1
  Co  Co10  1  0.000000  0.500000  0.983280  1
  Co  Co11  1  0.500000  0.000000  0.013108  1
  Co  Co12  1  0.500000  0.334626  0.992129  1
  Co  Co13  1  0.500000  0.665374  0.992129  1
  Co  Co14  1  0.000000  0.166858  0.004847  1
  Co  Co15  1  0.000000  0.833142  0.004847  1
  Co  Co16  1  0.500000  0.301673  0.432854  1
  Co  Co17  1  0.500000  0.698327  0.432854  1
  Co  Co18  1  0.000000  0.199134  0.569579  1
  Co  Co19  1  0.000000  0.800866  0.569579  1
  Co  Co20  1  0.500000  0.879023  0.711469  1
  Co  Co21  1  0.500000  0.120977  0.711469  1
  Co  Co22  1  0.000000  0.619626  0.289755  1
  Co  Co23  1  0.000000  0.380374  0.289755  1
  P  P24  1  0.500000  0.500000  0.877854  1
  P  P25  1  0.000000  0.000000  0.119545  1
  P  P26  1  0.500000  0.500000  0.343835  1
  P  P27  1  0.000000  0.000000  0.656677  1
  P  P28  1  0.500000  0.307508  0.619249  1
  P  P29  1  0.500000  0.692492  0.619249  1
  P  P30  1  0.000000  0.193378  0.383606  1
  P  P31  1  0.000000  0.806622  0.383606  1
  P  P32  1  0.500000  0.845689  0.893415  1
  P  P33  1  0.500000  0.154311  0.893415  1
  P  P34  1  0.000000  0.651642  0.105010  1
  P  P35  1  0.000000  0.348358  0.105010  1
