# generated using pymatgen
data_Tb3AlGa4Ni
_symmetry_space_group_name_H-M   'P 1'
_cell_length_a   6.87271600
_cell_length_b   6.93292925
_cell_length_c   4.26335100
_cell_angle_alpha   90.00000000
_cell_angle_beta   90.00000000
_cell_angle_gamma   119.71312187
_symmetry_Int_Tables_number   1
_chemical_formula_structural   Tb3AlGa4Ni
_chemical_formula_sum   'Tb3 Al1 Ga4 Ni1'
_cell_volume   176.43107910
_cell_formula_units_Z   1
loop_
 _symmetry_equiv_pos_site_id
 _symmetry_equiv_pos_as_xyz
  1  'x, y, z'
loop_
 _atom_site_type_symbol
 _atom_site_label
 _atom_site_symmetry_multiplicity
 _atom_site_fract_x
 _atom_site_fract_y
 _atom_site_fract_z
 _atom_site_occupancy
  Tb  Tb0  1  0.597407  0.000000  0.500000  1
  Tb  Tb1  1  0.404259  0.405700  0.500000  1
  Tb  Tb2  1  0.998559  0.594300  0.500000  1
  Al  Al3  1  0.227831  0.000000  0.000000  1
  Ga  Ga4  1  0.003439  0.237805  0.000000  1
  Ga  Ga5  1  0.662913  0.329249  0.000000  1
  Ga  Ga6  1  0.333664  0.670751  0.000000  1
  Ga  Ga7  1  0.765634  0.762195  0.000000  1
  Ni  Ni8  1  0.006294  0.000000  0.500000  1
