# generated using pymatgen
data_BaLi2(RhPb)2
_symmetry_space_group_name_H-M   'P 1'
_cell_length_a   7.31137384
_cell_length_b   7.31128435
_cell_length_c   7.31137362
_cell_angle_alpha   109.23516806
_cell_angle_beta   109.22049829
_cell_angle_gamma   109.95958309
_symmetry_Int_Tables_number   1
_chemical_formula_structural   BaLi2(RhPb)2
_chemical_formula_sum   'Ba2 Li4 Rh4 Pb4'
_cell_volume   300.84548081
_cell_formula_units_Z   2
loop_
 _symmetry_equiv_pos_site_id
 _symmetry_equiv_pos_as_xyz
  1  'x, y, z'
loop_
 _atom_site_type_symbol
 _atom_site_label
 _atom_site_symmetry_multiplicity
 _atom_site_fract_x
 _atom_site_fract_y
 _atom_site_fract_z
 _atom_site_occupancy
  Ba  Ba0  1  0.747141  0.747132  0.000008  1
  Ba  Ba1  1  0.247124  0.247132  0.999991  1
  Li  Li2  1  0.530905  0.030871  0.229126  1
  Li  Li3  1  0.801751  0.301757  0.770821  1
  Li  Li4  1  0.301745  0.530871  0.499966  1
  Li  Li5  1  0.030936  0.801757  0.500006  1
  Rh  Rh6  1  0.473686  0.973745  0.773883  1
  Rh  Rh7  1  0.199963  0.699817  0.226195  1
  Rh  Rh8  1  0.699861  0.473745  0.500059  1
  Rh  Rh9  1  0.973621  0.199817  0.499854  1
  Pb  Pb10  1  0.155952  0.655958  0.815326  1
  Pb  Pb11  1  0.840671  0.340719  0.184712  1
  Pb  Pb12  1  0.340633  0.155958  0.500007  1
  Pb  Pb13  1  0.656007  0.840719  0.500048  1
