# generated using pymatgen
data_Na3FeTeO6
_symmetry_space_group_name_H-M   'P 1'
_cell_length_a   5.46010405
_cell_length_b   5.46010109
_cell_length_c   5.80621166
_cell_angle_alpha   97.83675516
_cell_angle_beta   97.83636634
_cell_angle_gamma   121.20267229
_symmetry_Int_Tables_number   1
_chemical_formula_structural   Na3FeTeO6
_chemical_formula_sum   'Na3 Fe1 Te1 O6'
_cell_volume   142.23245978
_cell_formula_units_Z   1
loop_
 _symmetry_equiv_pos_site_id
 _symmetry_equiv_pos_as_xyz
  1  'x, y, z'
loop_
 _atom_site_type_symbol
 _atom_site_label
 _atom_site_symmetry_multiplicity
 _atom_site_fract_x
 _atom_site_fract_y
 _atom_site_fract_z
 _atom_site_occupancy
  Na  Na0  1  0.498336  0.501666  0.000003  1
  Na  Na1  1  0.342930  0.657067  0.500000  1
  Na  Na2  1  0.658487  0.341517  0.500001  1
  Fe  Fe3  1  0.835089  0.164906  0.999995  1
  Te  Te4  1  0.163790  0.836212  0.000002  1
  O  O5  1  0.196328  0.181743  0.196065  1
  O  O6  1  0.943308  0.566966  0.197598  1
  O  O7  1  0.538042  0.931135  0.200844  1
  O  O8  1  0.068869  0.461961  0.799158  1
  O  O9  1  0.433033  0.056692  0.802403  1
  O  O10  1  0.818258  0.803670  0.803936  1
