# generated using pymatgen
data_MgSc7B24IrRh3
_symmetry_space_group_name_H-M   'P 1'
_cell_length_a   3.46763200
_cell_length_b   8.89822147
_cell_length_c   11.19781672
_cell_angle_alpha   89.99809726
_cell_angle_beta   90.00000000
_cell_angle_gamma   90.00000000
_symmetry_Int_Tables_number   1
_chemical_formula_structural   MgSc7B24IrRh3
_chemical_formula_sum   'Mg1 Sc7 B24 Ir1 Rh3'
_cell_volume   345.51711712
_cell_formula_units_Z   1
loop_
 _symmetry_equiv_pos_site_id
 _symmetry_equiv_pos_as_xyz
  1  'x, y, z'
loop_
 _atom_site_type_symbol
 _atom_site_label
 _atom_site_symmetry_multiplicity
 _atom_site_fract_x
 _atom_site_fract_y
 _atom_site_fract_z
 _atom_site_occupancy
  Mg  Mg0  1  0.000000  0.944889  0.377607  1
  Sc  Sc1  1  0.000000  0.054634  0.623923  1
  Sc  Sc2  1  0.000000  0.555710  0.873801  1
  Sc  Sc3  1  0.000000  0.181706  0.913079  1
  Sc  Sc4  1  0.000000  0.817596  0.084525  1
  Sc  Sc5  1  0.000000  0.681118  0.586564  1
  Sc  Sc6  1  0.000000  0.319110  0.415284  1
  Sc  Sc7  1  0.000000  0.444381  0.126080  1
  B  B8  1  0.500000  0.368807  0.818829  1
  B  B9  1  0.500000  0.979497  0.213925  1
  B  B10  1  0.500000  0.554486  0.435953  1
  B  B11  1  0.500000  0.295117  0.237376  1
  B  B12  1  0.500000  0.203385  0.737361  1
  B  B13  1  0.500000  0.102223  0.471829  1
  B  B14  1  0.500000  0.796799  0.263169  1
  B  B15  1  0.500000  0.446360  0.563350  1
  B  B16  1  0.500000  0.246716  0.577411  1
  B  B17  1  0.500000  0.480412  0.287173  1
  B  B18  1  0.500000  0.704194  0.761775  1
  B  B19  1  0.500000  0.753760  0.421629  1
  B  B20  1  0.500000  0.520655  0.712785  1
  B  B21  1  0.500000  0.896714  0.527379  1
  B  B22  1  0.500000  0.054017  0.064036  1
  B  B23  1  0.500000  0.603183  0.027650  1
  B  B24  1  0.500000  0.747076  0.922036  1
  B  B25  1  0.500000  0.020044  0.786278  1
  B  B26  1  0.500000  0.397318  0.972001  1
  B  B27  1  0.500000  0.945882  0.936598  1
  B  B28  1  0.500000  0.631353  0.181290  1
  B  B29  1  0.500000  0.252889  0.078241  1
  B  B30  1  0.500000  0.868587  0.680000  1
  B  B31  1  0.500000  0.130322  0.319414  1
  Ir  Ir32  1  0.000000  0.138363  0.180532  1
  Rh  Rh33  1  0.000000  0.359547  0.681042  1
  Rh  Rh34  1  0.000000  0.859898  0.821564  1
  Rh  Rh35  1  0.000000  0.643250  0.318513  1
