# generated using pymatgen
data_HoTm9In8(IrPt)2
_symmetry_space_group_name_H-M   'P 1'
_cell_length_a   3.58416300
_cell_length_b   8.08294688
_cell_length_c   18.13305101
_cell_angle_alpha   89.96264414
_cell_angle_beta   90.00000000
_cell_angle_gamma   90.00000000
_symmetry_Int_Tables_number   1
_chemical_formula_structural   HoTm9In8(IrPt)2
_chemical_formula_sum   'Ho1 Tm9 In8 Ir2 Pt2'
_cell_volume   525.32524040
_cell_formula_units_Z   1
loop_
 _symmetry_equiv_pos_site_id
 _symmetry_equiv_pos_as_xyz
  1  'x, y, z'
loop_
 _atom_site_type_symbol
 _atom_site_label
 _atom_site_symmetry_multiplicity
 _atom_site_fract_x
 _atom_site_fract_y
 _atom_site_fract_z
 _atom_site_occupancy
  Ho  Ho0  1  0.000000  0.500000  0.500000  1
  Tm  Tm1  1  0.000000  0.115288  0.411878  1
  Tm  Tm2  1  0.000000  0.884712  0.588122  1
  Tm  Tm3  1  0.000000  0.383074  0.913547  1
  Tm  Tm4  1  0.000000  0.616926  0.086453  1
  Tm  Tm5  1  0.000000  0.235665  0.222207  1
  Tm  Tm6  1  0.000000  0.764335  0.777793  1
  Tm  Tm7  1  0.000000  0.248765  0.720360  1
  Tm  Tm8  1  0.000000  0.751235  0.279640  1
  Tm  Tm9  1  0.000000  0.000000  0.000000  1
  In  In10  1  0.500000  0.423462  0.350925  1
  In  In11  1  0.500000  0.576538  0.649075  1
  In  In12  1  0.500000  0.074630  0.850938  1
  In  In13  1  0.500000  0.925370  0.149062  1
  In  In14  1  0.500000  0.292353  0.066368  1
  In  In15  1  0.500000  0.707647  0.933632  1
  In  In16  1  0.500000  0.206193  0.567428  1
  In  In17  1  0.500000  0.793807  0.432572  1
  Ir  Ir18  1  0.500000  0.021808  0.303790  1
  Ir  Ir19  1  0.500000  0.978192  0.696210  1
  Pt  Pt20  1  0.500000  0.477392  0.803567  1
  Pt  Pt21  1  0.500000  0.522608  0.196433  1
