# generated using pymatgen
data_Nb12Ga5Ni3N4
_symmetry_space_group_name_H-M   'P 1'
_cell_length_a   6.98628398
_cell_length_b   6.98628483
_cell_length_c   6.98628446
_cell_angle_alpha   90.29097577
_cell_angle_beta   90.29097446
_cell_angle_gamma   90.29098035
_symmetry_Int_Tables_number   1
_chemical_formula_structural   Nb12Ga5Ni3N4
_chemical_formula_sum   'Nb12 Ga5 Ni3 N4'
_cell_volume   340.97452156
_cell_formula_units_Z   1
loop_
 _symmetry_equiv_pos_site_id
 _symmetry_equiv_pos_as_xyz
  1  'x, y, z'
loop_
 _atom_site_type_symbol
 _atom_site_label
 _atom_site_symmetry_multiplicity
 _atom_site_fract_x
 _atom_site_fract_y
 _atom_site_fract_z
 _atom_site_occupancy
  Nb  Nb0  1  0.794876  0.959091  0.373467  1
  Nb  Nb1  1  0.706468  0.044710  0.874673  1
  Nb  Nb2  1  0.207060  0.455888  0.124369  1
  Nb  Nb3  1  0.291852  0.543354  0.624509  1
  Nb  Nb4  1  0.959091  0.373467  0.794876  1
  Nb  Nb5  1  0.044710  0.874673  0.706468  1
  Nb  Nb6  1  0.455888  0.124369  0.207060  1
  Nb  Nb7  1  0.543354  0.624509  0.291852  1
  Nb  Nb8  1  0.373467  0.794876  0.959091  1
  Nb  Nb9  1  0.874673  0.706468  0.044710  1
  Nb  Nb10  1  0.124369  0.207060  0.455888  1
  Nb  Nb11  1  0.624509  0.291852  0.543354  1
  Ga  Ga12  1  0.678673  0.678673  0.678673  1
  Ga  Ga13  1  0.569167  0.416877  0.936947  1
  Ga  Ga14  1  0.416877  0.936947  0.569167  1
  Ga  Ga15  1  0.936947  0.569167  0.416877  1
  Ga  Ga16  1  0.073157  0.073157  0.073157  1
  Ni  Ni17  1  0.177025  0.823907  0.320017  1
  Ni  Ni18  1  0.320017  0.177025  0.823907  1
  Ni  Ni19  1  0.823907  0.320017  0.177025  1
  N  N20  1  0.877966  0.125547  0.625154  1
  N  N21  1  0.625154  0.877966  0.125547  1
  N  N22  1  0.125547  0.625154  0.877966  1
  N  N23  1  0.375248  0.375248  0.375248  1
