# generated using pymatgen
data_Yb3Dy(Al3Ir)2
_symmetry_space_group_name_H-M   'P 1'
_cell_length_a   5.52651500
_cell_length_b   5.52651888
_cell_length_c   8.73290600
_cell_angle_alpha   90.00000240
_cell_angle_beta   90.00001693
_cell_angle_gamma   120.00001546
_symmetry_Int_Tables_number   1
_chemical_formula_structural   Yb3Dy(Al3Ir)2
_chemical_formula_sum   'Yb3 Dy1 Al6 Ir2'
_cell_volume   230.98956487
_cell_formula_units_Z   1
loop_
 _symmetry_equiv_pos_site_id
 _symmetry_equiv_pos_as_xyz
  1  'x, y, z'
loop_
 _atom_site_type_symbol
 _atom_site_label
 _atom_site_symmetry_multiplicity
 _atom_site_fract_x
 _atom_site_fract_y
 _atom_site_fract_z
 _atom_site_occupancy
  Yb  Yb0  1  0.666665  0.333333  0.446800  1
  Yb  Yb1  1  0.333333  0.666666  0.555422  1
  Yb  Yb2  1  0.333333  0.666666  0.944356  1
  Dy  Dy3  1  0.666667  0.333334  0.049862  1
  Al  Al4  1  0.161643  0.323286  0.249354  1
  Al  Al5  1  0.161643  0.838357  0.249354  1
  Al  Al6  1  0.676714  0.838357  0.249354  1
  Al  Al7  1  0.323396  0.161697  0.751468  1
  Al  Al8  1  0.838301  0.161697  0.751468  1
  Al  Al9  1  0.838301  0.676603  0.751467  1
  Ir  Ir10  1  0.000000  0.000001  0.000354  1
  Ir  Ir11  1  0.000000  0.000000  0.500740  1
