# generated using pymatgen
data_Ce2Dy7YAl2(GaRu3)2
_symmetry_space_group_name_H-M   'P 1'
_cell_length_a   8.45993440
_cell_length_b   8.36548363
_cell_length_c   8.33693800
_cell_angle_alpha   109.95698905
_cell_angle_beta   109.32633703
_cell_angle_gamma   110.23020197
_symmetry_Int_Tables_number   1
_chemical_formula_structural   Ce2Dy7YAl2(GaRu3)2
_chemical_formula_sum   'Ce2 Dy7 Y1 Al2 Ga2 Ru6'
_cell_volume   447.90234368
_cell_formula_units_Z   1
loop_
 _symmetry_equiv_pos_site_id
 _symmetry_equiv_pos_as_xyz
  1  'x, y, z'
loop_
 _atom_site_type_symbol
 _atom_site_label
 _atom_site_symmetry_multiplicity
 _atom_site_fract_x
 _atom_site_fract_y
 _atom_site_fract_z
 _atom_site_occupancy
  Ce  Ce0  1  0.945423  0.252811  0.196357  1
  Ce  Ce1  1  0.197920  0.942608  0.251591  1
  Dy  Dy2  1  0.779947  0.784402  0.776483  1
  Dy  Dy3  1  0.316746  0.565263  0.754060  1
  Dy  Dy4  1  0.751647  0.317123  0.568646  1
  Dy  Dy5  1  0.565757  0.747332  0.312441  1
  Dy  Dy6  1  0.722870  0.502951  0.999535  1
  Dy  Dy7  1  0.000248  0.720117  0.506272  1
  Dy  Dy8  1  0.500080  0.991404  0.715964  1
  Y  Y9  1  0.253873  0.190093  0.933981  1
  Al  Al10  1  0.997449  0.090473  0.501521  1
  Al  Al11  1  0.502808  0.010916  0.094762  1
  Ga  Ga12  1  0.417946  0.412637  0.411154  1
  Ga  Ga13  1  0.091796  0.491557  0.996033  1
  Ru  Ru14  1  0.864016  0.113190  0.736782  1
  Ru  Ru15  1  0.753377  0.902561  0.121483  1
  Ru  Ru16  1  0.127581  0.765596  0.908387  1
  Ru  Ru17  1  0.223313  0.592201  0.365007  1
  Ru  Ru18  1  0.357441  0.220637  0.596539  1
  Ru  Ru19  1  0.629760  0.386126  0.253000  1
