# generated using pymatgen
data_La2ErFe2Sb3O14
_symmetry_space_group_name_H-M   'P 1'
_cell_length_a   7.35689654
_cell_length_b   7.29515450
_cell_length_c   7.29781633
_cell_angle_alpha   117.70088003
_cell_angle_beta   62.12335749
_cell_angle_gamma   117.90406081
_symmetry_Int_Tables_number   1
_chemical_formula_structural   La2ErFe2Sb3O14
_chemical_formula_sum   'La2 Er1 Fe2 Sb3 O14'
_cell_volume   290.39471865
_cell_formula_units_Z   1
loop_
 _symmetry_equiv_pos_site_id
 _symmetry_equiv_pos_as_xyz
  1  'x, y, z'
loop_
 _atom_site_type_symbol
 _atom_site_label
 _atom_site_symmetry_multiplicity
 _atom_site_fract_x
 _atom_site_fract_y
 _atom_site_fract_z
 _atom_site_occupancy
  La  La0  1  0.500021  0.000026  0.999993  1
  La  La1  1  0.499981  0.499988  0.499994  1
  Er  Er2  1  0.000016  0.499979  0.000104  1
  Fe  Fe3  1  0.499998  0.500002  0.000027  1
  Fe  Fe4  1  0.999990  0.000000  0.500009  1
  Sb  Sb5  1  0.499993  0.999995  0.499995  1
  Sb  Sb6  1  0.999988  0.499993  0.500010  1
  Sb  Sb7  1  0.999998  0.999988  0.999991  1
  O  O8  1  0.632908  0.395513  0.104709  1
  O  O9  1  0.367136  0.604494  0.895313  1
  O  O10  1  0.073467  0.319158  0.181047  1
  O  O11  1  0.678954  0.917729  0.178219  1
  O  O12  1  0.680016  0.320963  0.578952  1
  O  O13  1  0.926452  0.680855  0.818924  1
  O  O14  1  0.321051  0.082292  0.821777  1
  O  O15  1  0.319977  0.679023  0.421008  1
  O  O16  1  0.650819  0.910142  0.590562  1
  O  O17  1  0.084130  0.351965  0.601491  1
  O  O18  1  0.084412  0.899045  0.147945  1
  O  O19  1  0.349154  0.089827  0.409437  1
  O  O20  1  0.915915  0.648030  0.398450  1
  O  O21  1  0.915625  0.100993  0.852045  1
