# generated using pymatgen
data_NdCo2(Sb6Os)2
_symmetry_space_group_name_H-M   'P 1'
_cell_length_a   8.05780398
_cell_length_b   8.05780305
_cell_length_c   8.09723069
_cell_angle_alpha   109.36397305
_cell_angle_beta   109.61005212
_cell_angle_gamma   109.24151314
_symmetry_Int_Tables_number   1
_chemical_formula_structural   NdCo2(Sb6Os)2
_chemical_formula_sum   'Nd1 Co2 Sb12 Os2'
_cell_volume   405.69704119
_cell_formula_units_Z   1
loop_
 _symmetry_equiv_pos_site_id
 _symmetry_equiv_pos_as_xyz
  1  'x, y, z'
loop_
 _atom_site_type_symbol
 _atom_site_label
 _atom_site_symmetry_multiplicity
 _atom_site_fract_x
 _atom_site_fract_y
 _atom_site_fract_z
 _atom_site_occupancy
  Nd  Nd0  1  0.000000  0.000000  0.000000  1
  Co  Co1  1  0.000000  0.000000  0.500000  1
  Co  Co2  1  0.500000  0.500000  0.500000  1
  Sb  Sb3  1  0.152681  0.822491  0.658657  1
  Sb  Sb4  1  0.847319  0.177509  0.341343  1
  Sb  Sb5  1  0.836166  0.505977  0.658657  1
  Sb  Sb6  1  0.163834  0.494023  0.341343  1
  Sb  Sb7  1  0.822915  0.669292  0.164665  1
  Sb  Sb8  1  0.177085  0.330708  0.835335  1
  Sb  Sb9  1  0.504628  0.658250  0.835335  1
  Sb  Sb10  1  0.495372  0.341750  0.164665  1
  Sb  Sb11  1  0.659721  0.156173  0.815895  1
  Sb  Sb12  1  0.340279  0.843827  0.184105  1
  Sb  Sb13  1  0.667494  0.839284  0.506778  1
  Sb  Sb14  1  0.332506  0.160716  0.493222  1
  Os  Os15  1  0.500000  0.000000  0.000000  1
  Os  Os16  1  0.000000  0.500000  0.000000  1
