# generated using pymatgen
data_ZrNb8BiSe16
_symmetry_space_group_name_H-M   'P 1'
_cell_length_a   7.03307400
_cell_length_b   7.03308161
_cell_length_c   14.18344400
_cell_angle_alpha   89.99991727
_cell_angle_beta   89.99864517
_cell_angle_gamma   119.99990777
_symmetry_Int_Tables_number   1
_chemical_formula_structural   ZrNb8BiSe16
_chemical_formula_sum   'Zr1 Nb8 Bi1 Se16'
_cell_volume   607.58015068
_cell_formula_units_Z   1
loop_
 _symmetry_equiv_pos_site_id
 _symmetry_equiv_pos_as_xyz
  1  'x, y, z'
loop_
 _atom_site_type_symbol
 _atom_site_label
 _atom_site_symmetry_multiplicity
 _atom_site_fract_x
 _atom_site_fract_y
 _atom_site_fract_z
 _atom_site_occupancy
  Zr  Zr0  1  0.000000  0.000000  0.500000  1
  Nb  Nb1  1  0.983148  0.491574  0.260469  1
  Nb  Nb2  1  0.016852  0.508426  0.739531  1
  Nb  Nb3  1  0.491591  0.508418  0.739533  1
  Nb  Nb4  1  0.508411  0.016830  0.260468  1
  Nb  Nb5  1  0.000008  0.000003  0.739237  1
  Nb  Nb6  1  0.999992  0.999997  0.260763  1
  Nb  Nb7  1  0.508409  0.491582  0.260467  1
  Nb  Nb8  1  0.491589  0.983170  0.739532  1
  Bi  Bi9  1  0.000000  0.000000  0.000000  1
  Se  Se10  1  0.333362  0.666679  0.617228  1
  Se  Se11  1  0.666661  0.333331  0.137232  1
  Se  Se12  1  0.666638  0.333321  0.382772  1
  Se  Se13  1  0.333339  0.666669  0.862768  1
  Se  Se14  1  0.169167  0.338359  0.377302  1
  Se  Se15  1  0.829014  0.171002  0.855877  1
  Se  Se16  1  0.341998  0.170999  0.855877  1
  Se  Se17  1  0.661632  0.830816  0.377311  1
  Se  Se18  1  0.169166  0.830808  0.377304  1
  Se  Se19  1  0.829012  0.658012  0.855878  1
  Se  Se20  1  0.170988  0.341988  0.144122  1
  Se  Se21  1  0.830834  0.169192  0.622696  1
  Se  Se22  1  0.338368  0.169184  0.622689  1
  Se  Se23  1  0.658002  0.829001  0.144123  1
  Se  Se24  1  0.170986  0.828998  0.144123  1
  Se  Se25  1  0.830833  0.661641  0.622698  1
