# generated using pymatgen
data_Np2UI18
_symmetry_space_group_name_H-M   'P 1'
_cell_length_a   12.95863200
_cell_length_b   12.95863106
_cell_length_c   7.04918400
_cell_angle_alpha   90.00000000
_cell_angle_beta   90.00000000
_cell_angle_gamma   119.99999730
_symmetry_Int_Tables_number   1
_chemical_formula_structural   Np2UI18
_chemical_formula_sum   'Np2 U1 I18'
_cell_volume   1025.15084166
_cell_formula_units_Z   1
loop_
 _symmetry_equiv_pos_site_id
 _symmetry_equiv_pos_as_xyz
  1  'x, y, z'
loop_
 _atom_site_type_symbol
 _atom_site_label
 _atom_site_symmetry_multiplicity
 _atom_site_fract_x
 _atom_site_fract_y
 _atom_site_fract_z
 _atom_site_occupancy
  Np  Np0  1  0.666667  0.333333  0.514773  1
  Np  Np1  1  0.333333  0.666667  0.485227  1
  U  U2  1  0.000000  0.000000  0.000000  1
  I  I3  1  0.228950  0.771050  0.719848  1
  I  I4  1  0.228950  0.457900  0.719848  1
  I  I5  1  0.542100  0.771050  0.719848  1
  I  I6  1  0.104624  0.895376  0.235500  1
  I  I7  1  0.104624  0.209247  0.235500  1
  I  I8  1  0.790753  0.895376  0.235500  1
  I  I9  1  0.209247  0.104624  0.764500  1
  I  I10  1  0.895376  0.790753  0.764500  1
  I  I11  1  0.895376  0.104624  0.764500  1
  I  I12  1  0.437672  0.562328  0.251012  1
  I  I13  1  0.437672  0.875342  0.251012  1
  I  I14  1  0.124658  0.562328  0.251012  1
  I  I15  1  0.875342  0.437672  0.748988  1
  I  I16  1  0.562328  0.124658  0.748988  1
  I  I17  1  0.562328  0.437672  0.748988  1
  I  I18  1  0.771050  0.228950  0.280152  1
  I  I19  1  0.771050  0.542100  0.280152  1
  I  I20  1  0.457900  0.228950  0.280152  1
