# generated using pymatgen
data_Er10IrPdRh4
_symmetry_space_group_name_H-M   'P 1'
_cell_length_a   10.86649905
_cell_length_b   10.85510401
_cell_length_c   6.30488204
_cell_angle_alpha   90.00179295
_cell_angle_beta   89.99885458
_cell_angle_gamma   89.99639150
_symmetry_Int_Tables_number   1
_chemical_formula_structural   Er10IrPdRh4
_chemical_formula_sum   'Er20 Ir2 Pd2 Rh8'
_cell_volume   743.70482634
_cell_formula_units_Z   2
loop_
 _symmetry_equiv_pos_site_id
 _symmetry_equiv_pos_as_xyz
  1  'x, y, z'
loop_
 _atom_site_type_symbol
 _atom_site_label
 _atom_site_symmetry_multiplicity
 _atom_site_fract_x
 _atom_site_fract_y
 _atom_site_fract_z
 _atom_site_occupancy
  Er  Er0  1  0.290752  0.090043  0.375628  1
  Er  Er1  1  0.290777  0.909957  0.875559  1
  Er  Er2  1  0.703154  0.090413  0.870976  1
  Er  Er3  1  0.703163  0.909605  0.370992  1
  Er  Er4  1  0.581737  0.790062  0.877424  1
  Er  Er5  1  0.581682  0.209952  0.377456  1
  Er  Er6  1  0.408739  0.791329  0.377236  1
  Er  Er7  1  0.408663  0.208716  0.877198  1
  Er  Er8  1  0.210753  0.412535  0.620906  1
  Er  Er9  1  0.210735  0.587641  0.120917  1
  Er  Er10  1  0.792059  0.414873  0.124114  1
  Er  Er11  1  0.792102  0.585217  0.624053  1
  Er  Er12  1  0.915198  0.707360  0.129902  1
  Er  Er13  1  0.915141  0.292775  0.629925  1
  Er  Er14  1  0.094635  0.705814  0.623141  1
  Er  Er15  1  0.094643  0.294297  0.123196  1
  Er  Er16  1  0.002825  0.998613  0.500474  1
  Er  Er17  1  0.002793  0.001517  0.000410  1
  Er  Er18  1  0.500622  0.498629  0.999629  1
  Er  Er19  1  0.500618  0.501349  0.499668  1
  Ir  Ir20  1  0.347735  0.344819  0.250631  1
  Ir  Ir21  1  0.347732  0.655157  0.750625  1
  Pd  Pd22  1  0.842693  0.153715  0.252158  1
  Pd  Pd23  1  0.843612  0.846084  0.751897  1
  Rh  Rh24  1  0.151602  0.154734  0.750024  1
  Rh  Rh25  1  0.152004  0.845635  0.249415  1
  Rh  Rh26  1  0.657433  0.345859  0.749147  1
  Rh  Rh27  1  0.658522  0.653677  0.248489  1
  Rh  Rh28  1  0.499794  0.999435  0.118697  1
  Rh  Rh29  1  0.500108  0.000229  0.619282  1
  Rh  Rh30  1  0.998939  0.500493  0.880484  1
  Rh  Rh31  1  0.999040  0.499468  0.380346  1
