# generated using pymatgen
data_Sm6Al7Pd16O
_symmetry_space_group_name_H-M   'P 1'
_cell_length_a   9.02846471
_cell_length_b   9.02846399
_cell_length_c   9.02846400
_cell_angle_alpha   59.99999997
_cell_angle_beta   60.00000260
_cell_angle_gamma   60.00000122
_symmetry_Int_Tables_number   1
_chemical_formula_structural   Sm6Al7Pd16O
_chemical_formula_sum   'Sm6 Al7 Pd16 O1'
_cell_volume   520.38726568
_cell_formula_units_Z   1
loop_
 _symmetry_equiv_pos_site_id
 _symmetry_equiv_pos_as_xyz
  1  'x, y, z'
loop_
 _atom_site_type_symbol
 _atom_site_label
 _atom_site_symmetry_multiplicity
 _atom_site_fract_x
 _atom_site_fract_y
 _atom_site_fract_z
 _atom_site_occupancy
  Sm  Sm0  1  0.702506  0.297494  0.297494  1
  Sm  Sm1  1  0.297494  0.702506  0.702506  1
  Sm  Sm2  1  0.297494  0.702506  0.297494  1
  Sm  Sm3  1  0.702506  0.297494  0.702506  1
  Sm  Sm4  1  0.297494  0.297494  0.702506  1
  Sm  Sm5  1  0.702506  0.702506  0.297494  1
  Al  Al6  1  0.000000  0.000000  0.000000  1
  Al  Al7  1  0.500000  0.000000  0.000000  1
  Al  Al8  1  0.000000  0.500000  0.500000  1
  Al  Al9  1  0.000000  0.500000  0.000000  1
  Al  Al10  1  0.500000  0.000000  0.500000  1
  Al  Al11  1  0.000000  0.000000  0.500000  1
  Al  Al12  1  0.500000  0.500000  0.000000  1
  Pd  Pd13  1  0.118730  0.118730  0.118730  1
  Pd  Pd14  1  0.881270  0.881270  0.881270  1
  Pd  Pd15  1  0.118730  0.118730  0.643810  1
  Pd  Pd16  1  0.118730  0.643810  0.118730  1
  Pd  Pd17  1  0.881270  0.881270  0.356190  1
  Pd  Pd18  1  0.881270  0.356190  0.881270  1
  Pd  Pd19  1  0.643810  0.118730  0.118730  1
  Pd  Pd20  1  0.356190  0.881270  0.881270  1
  Pd  Pd21  1  0.332728  0.332728  0.332728  1
  Pd  Pd22  1  0.667272  0.667272  0.667272  1
  Pd  Pd23  1  0.332728  0.332728  0.001816  1
  Pd  Pd24  1  0.332728  0.001816  0.332728  1
  Pd  Pd25  1  0.667272  0.667272  0.998184  1
  Pd  Pd26  1  0.667272  0.998184  0.667272  1
  Pd  Pd27  1  0.001816  0.332728  0.332728  1
  Pd  Pd28  1  0.998184  0.667272  0.667272  1
  O  O29  1  0.500000  0.500000  0.500000  1
