# generated using pymatgen
data_SmZn3PdRh
_symmetry_space_group_name_H-M   'P 1'
_cell_length_a   5.37762900
_cell_length_b   5.37762933
_cell_length_c   4.21332600
_cell_angle_alpha   90.00000000
_cell_angle_beta   90.00000000
_cell_angle_gamma   119.99999180
_symmetry_Int_Tables_number   1
_chemical_formula_structural   SmZn3PdRh
_chemical_formula_sum   'Sm1 Zn3 Pd1 Rh1'
_cell_volume   105.52064378
_cell_formula_units_Z   1
loop_
 _symmetry_equiv_pos_site_id
 _symmetry_equiv_pos_as_xyz
  1  'x, y, z'
loop_
 _atom_site_type_symbol
 _atom_site_label
 _atom_site_symmetry_multiplicity
 _atom_site_fract_x
 _atom_site_fract_y
 _atom_site_fract_z
 _atom_site_occupancy
  Sm  Sm0  1  0.000000  0.000000  0.000000  1
  Zn  Zn1  1  0.501825  0.003651  0.499999  1
  Zn  Zn2  1  0.996349  0.498174  0.499999  1
  Zn  Zn3  1  0.501827  0.498174  0.499999  1
  Pd  Pd4  1  0.333334  0.666667  0.000000  1
  Rh  Rh5  1  0.666666  0.333334  0.000000  1
