# generated using pymatgen
data_NdEr19Sn16
_symmetry_space_group_name_H-M   'P 1'
_cell_length_a   8.00064084
_cell_length_b   8.12469083
_cell_length_c   15.36553407
_cell_angle_alpha   90.03415138
_cell_angle_beta   89.63606716
_cell_angle_gamma   90.15597596
_symmetry_Int_Tables_number   1
_chemical_formula_structural   NdEr19Sn16
_chemical_formula_sum   'Nd1 Er19 Sn16'
_cell_volume   998.77769590
_cell_formula_units_Z   1
loop_
 _symmetry_equiv_pos_site_id
 _symmetry_equiv_pos_as_xyz
  1  'x, y, z'
loop_
 _atom_site_type_symbol
 _atom_site_label
 _atom_site_symmetry_multiplicity
 _atom_site_fract_x
 _atom_site_fract_y
 _atom_site_fract_z
 _atom_site_occupancy
  Nd  Nd0  1  0.516542  0.320874  0.404630  1
  Er  Er1  1  0.020820  0.177512  0.403524  1
  Er  Er2  1  0.368587  0.837485  0.121159  1
  Er  Er3  1  0.134158  0.337315  0.623879  1
  Er  Er4  1  0.477477  0.678594  0.902440  1
  Er  Er5  1  0.869812  0.662022  0.121931  1
  Er  Er6  1  0.130947  0.338235  0.877138  1
  Er  Er7  1  0.198880  0.504125  0.249060  1
  Er  Er8  1  0.699138  0.996229  0.249134  1
  Er  Er9  1  0.480085  0.680570  0.597231  1
  Er  Er10  1  0.301175  0.003384  0.750483  1
  Er  Er11  1  0.634122  0.161867  0.623526  1
  Er  Er12  1  0.801537  0.496752  0.750678  1
  Er  Er13  1  0.865784  0.662940  0.376634  1
  Er  Er14  1  0.021934  0.178536  0.095733  1
  Er  Er15  1  0.978004  0.821463  0.902402  1
  Er  Er16  1  0.631561  0.161733  0.877459  1
  Er  Er17  1  0.523757  0.320788  0.097649  1
  Er  Er18  1  0.367283  0.837694  0.377223  1
  Er  Er19  1  0.979233  0.820961  0.597417  1
  Sn  Sn20  1  0.797387  0.464740  0.543706  1
  Sn  Sn21  1  0.707866  0.959800  0.459635  1
  Sn  Sn22  1  0.668090  0.850525  0.749952  1
  Sn  Sn23  1  0.199228  0.542674  0.460370  1
  Sn  Sn24  1  0.291802  0.037941  0.958171  1
  Sn  Sn25  1  0.833780  0.350365  0.249424  1
  Sn  Sn26  1  0.791335  0.463120  0.958171  1
  Sn  Sn27  1  0.565579  0.620181  0.248811  1
  Sn  Sn28  1  0.209255  0.535869  0.041403  1
  Sn  Sn29  1  0.435816  0.380512  0.750501  1
  Sn  Sn30  1  0.168757  0.649349  0.749911  1
  Sn  Sn31  1  0.935340  0.118609  0.750242  1
  Sn  Sn32  1  0.292975  0.037216  0.542011  1
  Sn  Sn33  1  0.708817  0.962245  0.041212  1
  Sn  Sn34  1  0.327935  0.146804  0.247584  1
  Sn  Sn35  1  0.065202  0.880970  0.249564  1
