# generated using pymatgen
data_Ba4NaPu3O12
_symmetry_space_group_name_H-M   'P 1'
_cell_length_a   6.02737127
_cell_length_b   6.05358947
_cell_length_c   8.51541800
_cell_angle_alpha   89.93686056
_cell_angle_beta   89.89422744
_cell_angle_gamma   90.06399764
_symmetry_Int_Tables_number   1
_chemical_formula_structural   Ba4NaPu3O12
_chemical_formula_sum   'Ba4 Na1 Pu3 O12'
_cell_volume   310.70311296
_cell_formula_units_Z   1
loop_
 _symmetry_equiv_pos_site_id
 _symmetry_equiv_pos_as_xyz
  1  'x, y, z'
loop_
 _atom_site_type_symbol
 _atom_site_label
 _atom_site_symmetry_multiplicity
 _atom_site_fract_x
 _atom_site_fract_y
 _atom_site_fract_z
 _atom_site_occupancy
  Ba  Ba0  1  0.982334  0.006929  0.233188  1
  Ba  Ba1  1  0.487546  0.496550  0.233408  1
  Ba  Ba2  1  0.512454  0.503450  0.766592  1
  Ba  Ba3  1  0.017666  0.993071  0.766812  1
  Na  Na4  1  0.500000  0.000000  0.000000  1
  Pu  Pu5  1  0.000000  0.500000  0.500000  1
  Pu  Pu6  1  0.000000  0.500000  0.000000  1
  Pu  Pu7  1  0.500000  0.000000  0.500000  1
  O  O8  1  0.505405  0.939414  0.272541  1
  O  O9  1  0.007421  0.571185  0.255669  1
  O  O10  1  0.992579  0.428815  0.744331  1
  O  O11  1  0.494595  0.060586  0.727459  1
  O  O12  1  0.749127  0.279766  0.029494  1
  O  O13  1  0.225230  0.230521  0.457071  1
  O  O14  1  0.777936  0.748155  0.972733  1
  O  O15  1  0.269790  0.723494  0.543163  1
  O  O16  1  0.250873  0.720234  0.970506  1
  O  O17  1  0.774770  0.769479  0.542929  1
  O  O18  1  0.222064  0.251845  0.027267  1
  O  O19  1  0.730210  0.276506  0.456837  1
