# generated using pymatgen
data_Zr10TlGaCuBi4Pb
_symmetry_space_group_name_H-M   'P 1'
_cell_length_a   8.84765961
_cell_length_b   8.84765966
_cell_length_c   5.93974900
_cell_angle_alpha   89.97868163
_cell_angle_beta   89.97868810
_cell_angle_gamma   119.98790671
_symmetry_Int_Tables_number   1
_chemical_formula_structural   Zr10TlGaCuBi4Pb
_chemical_formula_sum   'Zr10 Tl1 Ga1 Cu1 Bi4 Pb1'
_cell_volume   402.72475831
_cell_formula_units_Z   1
loop_
 _symmetry_equiv_pos_site_id
 _symmetry_equiv_pos_as_xyz
  1  'x, y, z'
loop_
 _atom_site_type_symbol
 _atom_site_label
 _atom_site_symmetry_multiplicity
 _atom_site_fract_x
 _atom_site_fract_y
 _atom_site_fract_z
 _atom_site_occupancy
  Zr  Zr0  1  0.736326  0.001667  0.248204  1
  Zr  Zr1  1  0.003479  0.738409  0.248338  1
  Zr  Zr2  1  0.263566  0.261975  0.247883  1
  Zr  Zr3  1  0.261083  0.999645  0.751640  1
  Zr  Zr4  1  0.999195  0.261155  0.751910  1
  Zr  Zr5  1  0.737238  0.737751  0.751855  1
  Zr  Zr6  1  0.332900  0.666661  0.498448  1
  Zr  Zr7  1  0.666298  0.332990  0.498507  1
  Zr  Zr8  1  0.666939  0.333093  0.001484  1
  Zr  Zr9  1  0.333610  0.667174  0.001477  1
  Tl  Tl10  1  0.385625  0.000172  0.249401  1
  Ga  Ga11  1  0.000065  0.000046  0.497658  1
  Cu  Cu12  1  0.001341  0.000421  0.002685  1
  Bi  Bi13  1  0.614038  0.613727  0.248773  1
  Bi  Bi14  1  0.610608  0.000544  0.751236  1
  Bi  Bi15  1  0.000693  0.612187  0.750910  1
  Bi  Bi16  1  0.386576  0.386376  0.750385  1
  Pb  Pb17  1  0.000420  0.386006  0.249206  1
