# generated using pymatgen
data_Gd3Y2(OsO6)2
_symmetry_space_group_name_H-M   'P 1'
_cell_length_a   6.95918011
_cell_length_b   6.95917971
_cell_length_c   7.58151978
_cell_angle_alpha   73.79671088
_cell_angle_beta   73.79671454
_cell_angle_gamma   48.18241574
_symmetry_Int_Tables_number   1
_chemical_formula_structural   Gd3Y2(OsO6)2
_chemical_formula_sum   'Gd3 Y2 Os2 O12'
_cell_volume   260.54717622
_cell_formula_units_Z   1
loop_
 _symmetry_equiv_pos_site_id
 _symmetry_equiv_pos_as_xyz
  1  'x, y, z'
loop_
 _atom_site_type_symbol
 _atom_site_label
 _atom_site_symmetry_multiplicity
 _atom_site_fract_x
 _atom_site_fract_y
 _atom_site_fract_z
 _atom_site_occupancy
  Gd  Gd0  1  0.500000  0.500000  0.500000  1
  Gd  Gd1  1  0.188140  0.188140  0.170539  1
  Gd  Gd2  1  0.811860  0.811860  0.829461  1
  Y  Y3  1  0.801624  0.801624  0.358152  1
  Y  Y4  1  0.198376  0.198376  0.641848  1
  Os  Os5  1  0.719440  0.280560  0.000000  1
  Os  Os6  1  0.280560  0.719440  0.000000  1
  O  O7  1  0.997763  0.997763  0.172300  1
  O  O8  1  0.002237  0.002237  0.827700  1
  O  O9  1  0.498766  0.498766  0.799433  1
  O  O10  1  0.501234  0.501234  0.200567  1
  O  O11  1  0.597033  0.094674  0.571463  1
  O  O12  1  0.905326  0.402967  0.428537  1
  O  O13  1  0.402967  0.905326  0.428537  1
  O  O14  1  0.412126  0.916871  0.913803  1
  O  O15  1  0.083129  0.587874  0.086197  1
  O  O16  1  0.587874  0.083129  0.086197  1
  O  O17  1  0.916871  0.412126  0.913803  1
  O  O18  1  0.094674  0.597033  0.571463  1
