# generated using pymatgen
data_Th14CoTc5
_symmetry_space_group_name_H-M   'P 1'
_cell_length_a   9.91754202
_cell_length_b   9.91754340
_cell_length_c   6.35386936
_cell_angle_alpha   90.20091903
_cell_angle_beta   89.79908440
_cell_angle_gamma   119.73801379
_symmetry_Int_Tables_number   1
_chemical_formula_structural   Th14CoTc5
_chemical_formula_sum   'Th14 Co1 Tc5'
_cell_volume   542.64271045
_cell_formula_units_Z   1
loop_
 _symmetry_equiv_pos_site_id
 _symmetry_equiv_pos_as_xyz
  1  'x, y, z'
loop_
 _atom_site_type_symbol
 _atom_site_label
 _atom_site_symmetry_multiplicity
 _atom_site_fract_x
 _atom_site_fract_y
 _atom_site_fract_z
 _atom_site_occupancy
  Th  Th0  1  0.331009  0.668991  0.023141  1
  Th  Th1  1  0.667084  0.332916  0.525189  1
  Th  Th2  1  0.126009  0.873991  0.249202  1
  Th  Th3  1  0.252582  0.122914  0.757921  1
  Th  Th4  1  0.877086  0.747418  0.757921  1
  Th  Th5  1  0.125891  0.250927  0.259418  1
  Th  Th6  1  0.749073  0.874109  0.259418  1
  Th  Th7  1  0.875549  0.124451  0.757512  1
  Th  Th8  1  0.539869  0.460131  0.046592  1
  Th  Th9  1  0.079627  0.545359  0.552826  1
  Th  Th10  1  0.454641  0.920373  0.552826  1
  Th  Th11  1  0.543211  0.080674  0.048854  1
  Th  Th12  1  0.919326  0.456789  0.048854  1
  Th  Th13  1  0.459737  0.540263  0.550631  1
  Co  Co14  1  0.185550  0.814450  0.792614  1
  Tc  Tc15  1  0.815952  0.184048  0.296612  1
  Tc  Tc16  1  0.627429  0.818092  0.796580  1
  Tc  Tc17  1  0.181908  0.372571  0.796580  1
  Tc  Tc18  1  0.820114  0.631647  0.293654  1
  Tc  Tc19  1  0.368353  0.179886  0.293654  1
