# generated using pymatgen
data_Ca4TbHo5(AgPb3)2
_symmetry_space_group_name_H-M   'P 1'
_cell_length_a   9.32777601
_cell_length_b   9.32777660
_cell_length_c   6.83124200
_cell_angle_alpha   90.00000000
_cell_angle_beta   90.00000000
_cell_angle_gamma   120.00532542
_symmetry_Int_Tables_number   1
_chemical_formula_structural   Ca4TbHo5(AgPb3)2
_chemical_formula_sum   'Ca4 Tb1 Ho5 Ag2 Pb6'
_cell_volume   514.71075099
_cell_formula_units_Z   1
loop_
 _symmetry_equiv_pos_site_id
 _symmetry_equiv_pos_as_xyz
  1  'x, y, z'
loop_
 _atom_site_type_symbol
 _atom_site_label
 _atom_site_symmetry_multiplicity
 _atom_site_fract_x
 _atom_site_fract_y
 _atom_site_fract_z
 _atom_site_occupancy
  Ca  Ca0  1  0.666589  0.333113  0.500086  1
  Ca  Ca1  1  0.333113  0.666589  0.500086  1
  Ca  Ca2  1  0.333113  0.666589  0.999914  1
  Ca  Ca3  1  0.666589  0.333113  0.999914  1
  Tb  Tb4  1  0.729371  0.729371  0.250000  1
  Ho  Ho5  1  0.270225  0.999906  0.250000  1
  Ho  Ho6  1  0.999906  0.270225  0.250000  1
  Ho  Ho7  1  0.270607  0.270607  0.750000  1
  Ho  Ho8  1  0.729676  0.999998  0.750000  1
  Ho  Ho9  1  0.999998  0.729676  0.750000  1
  Ag  Ag10  1  0.000693  0.000693  0.500493  1
  Ag  Ag11  1  0.000693  0.000693  0.999507  1
  Pb  Pb12  1  0.378426  0.378426  0.250000  1
  Pb  Pb13  1  0.620554  0.000545  0.250000  1
  Pb  Pb14  1  0.000545  0.620554  0.250000  1
  Pb  Pb15  1  0.620620  0.620620  0.750000  1
  Pb  Pb16  1  0.379288  0.999993  0.750000  1
  Pb  Pb17  1  0.999993  0.379288  0.750000  1
