# generated using pymatgen
data_Sc2Pa2VReB12
_symmetry_space_group_name_H-M   'P 1'
_cell_length_a   3.60671900
_cell_length_b   9.00502350
_cell_length_c   11.37793990
_cell_angle_alpha   90.06625613
_cell_angle_beta   90.00000000
_cell_angle_gamma   90.00000000
_symmetry_Int_Tables_number   1
_chemical_formula_structural   Sc2Pa2VReB12
_chemical_formula_sum   'Sc4 Pa4 V2 Re2 B24'
_cell_volume   369.53919089
_cell_formula_units_Z   2
loop_
 _symmetry_equiv_pos_site_id
 _symmetry_equiv_pos_as_xyz
  1  'x, y, z'
loop_
 _atom_site_type_symbol
 _atom_site_label
 _atom_site_symmetry_multiplicity
 _atom_site_fract_x
 _atom_site_fract_y
 _atom_site_fract_z
 _atom_site_occupancy
  Sc  Sc0  1  0.000000  0.943419  0.374267  1
  Sc  Sc1  1  0.000000  0.056581  0.625733  1
  Sc  Sc2  1  0.000000  0.447318  0.127134  1
  Sc  Sc3  1  0.000000  0.552682  0.872866  1
  Pa  Pa4  1  0.000000  0.321937  0.414918  1
  Pa  Pa5  1  0.000000  0.678063  0.585082  1
  Pa  Pa6  1  0.000000  0.819006  0.086754  1
  Pa  Pa7  1  0.000000  0.180994  0.913246  1
  V  V8  1  0.000000  0.640921  0.318592  1
  V  V9  1  0.000000  0.359079  0.681408  1
  Re  Re10  1  0.000000  0.140166  0.180209  1
  Re  Re11  1  0.000000  0.859834  0.819791  1
  B  B12  1  0.500000  0.554169  0.432379  1
  B  B13  1  0.500000  0.445831  0.567621  1
  B  B14  1  0.500000  0.054651  0.067540  1
  B  B15  1  0.500000  0.945349  0.932460  1
  B  B16  1  0.500000  0.752760  0.418879  1
  B  B17  1  0.500000  0.247240  0.581121  1
  B  B18  1  0.500000  0.254042  0.081484  1
  B  B19  1  0.500000  0.745958  0.918516  1
  B  B20  1  0.500000  0.794511  0.264972  1
  B  B21  1  0.500000  0.205489  0.735028  1
  B  B22  1  0.500000  0.294450  0.235567  1
  B  B23  1  0.500000  0.705550  0.764433  1
  B  B24  1  0.500000  0.630041  0.182994  1
  B  B25  1  0.500000  0.369959  0.817006  1
  B  B26  1  0.500000  0.129336  0.316854  1
  B  B27  1  0.500000  0.870664  0.683146  1
  B  B28  1  0.500000  0.981344  0.214366  1
  B  B29  1  0.500000  0.018656  0.785634  1
  B  B30  1  0.500000  0.481693  0.285456  1
  B  B31  1  0.500000  0.518307  0.714544  1
  B  B32  1  0.500000  0.600287  0.026799  1
  B  B33  1  0.500000  0.399713  0.973201  1
  B  B34  1  0.500000  0.100037  0.472171  1
  B  B35  1  0.500000  0.899963  0.527829  1
