# generated using pymatgen
data_ZrPa3Pt4
_symmetry_space_group_name_H-M   'P 1'
_cell_length_a   4.30485200
_cell_length_b   5.62001106
_cell_length_c   7.24630827
_cell_angle_alpha   91.04433824
_cell_angle_beta   90.00000000
_cell_angle_gamma   90.00000000
_symmetry_Int_Tables_number   1
_chemical_formula_structural   ZrPa3Pt4
_chemical_formula_sum   'Zr1 Pa3 Pt4'
_cell_volume   175.28310368
_cell_formula_units_Z   1
loop_
 _symmetry_equiv_pos_site_id
 _symmetry_equiv_pos_as_xyz
  1  'x, y, z'
loop_
 _atom_site_type_symbol
 _atom_site_label
 _atom_site_symmetry_multiplicity
 _atom_site_fract_x
 _atom_site_fract_y
 _atom_site_fract_z
 _atom_site_occupancy
  Zr  Zr0  1  0.250000  0.851959  0.678759  1
  Pa  Pa1  1  0.250000  0.653416  0.178169  1
  Pa  Pa2  1  0.750000  0.355203  0.817195  1
  Pa  Pa3  1  0.750000  0.139716  0.325126  1
  Pt  Pt4  1  0.250000  0.171599  0.049940  1
  Pt  Pt5  1  0.750000  0.843031  0.937976  1
  Pt  Pt6  1  0.750000  0.659189  0.460111  1
  Pt  Pt7  1  0.250000  0.325888  0.552725  1
