# generated using pymatgen
data_HoEr5(Lu2Si3)2
_symmetry_space_group_name_H-M   'P 1'
_cell_length_a   8.32091700
_cell_length_b   8.32279876
_cell_length_c   6.21378200
_cell_angle_alpha   90.00000000
_cell_angle_beta   90.00000000
_cell_angle_gamma   119.99252504
_symmetry_Int_Tables_number   1
_chemical_formula_structural   HoEr5(Lu2Si3)2
_chemical_formula_sum   'Ho1 Er5 Lu4 Si6'
_cell_volume   372.70046562
_cell_formula_units_Z   1
loop_
 _symmetry_equiv_pos_site_id
 _symmetry_equiv_pos_as_xyz
  1  'x, y, z'
loop_
 _atom_site_type_symbol
 _atom_site_label
 _atom_site_symmetry_multiplicity
 _atom_site_fract_x
 _atom_site_fract_y
 _atom_site_fract_z
 _atom_site_occupancy
  Ho  Ho0  1  0.757353  0.000000  0.750000  1
  Er  Er1  1  0.757377  0.757293  0.250000  1
  Er  Er2  1  0.000084  0.242707  0.250000  1
  Er  Er3  1  0.000049  0.757377  0.750000  1
  Er  Er4  1  0.242672  0.242623  0.750000  1
  Er  Er5  1  0.242537  0.000000  0.250000  1
  Lu  Lu6  1  0.666677  0.333394  0.000023  1
  Lu  Lu7  1  0.333281  0.666606  0.499977  1
  Lu  Lu8  1  0.333281  0.666606  0.000023  1
  Lu  Lu9  1  0.666677  0.333394  0.499977  1
  Si  Si10  1  0.395032  0.000000  0.750000  1
  Si  Si11  1  0.395237  0.395202  0.250000  1
  Si  Si12  1  0.000035  0.604798  0.250000  1
  Si  Si13  1  0.000168  0.395456  0.750000  1
  Si  Si14  1  0.604712  0.604544  0.750000  1
  Si  Si15  1  0.604829  0.000000  0.250000  1
