# generated using pymatgen
data_Tb2Sm6AlPd24
_symmetry_space_group_name_H-M   'P 1'
_cell_length_a   8.43524321
_cell_length_b   8.43524342
_cell_length_c   8.43524300
_cell_angle_alpha   89.95851864
_cell_angle_beta   89.95851864
_cell_angle_gamma   89.95851579
_symmetry_Int_Tables_number   1
_chemical_formula_structural   Tb2Sm6AlPd24
_chemical_formula_sum   'Tb2 Sm6 Al1 Pd24'
_cell_volume   600.19515523
_cell_formula_units_Z   1
loop_
 _symmetry_equiv_pos_site_id
 _symmetry_equiv_pos_as_xyz
  1  'x, y, z'
loop_
 _atom_site_type_symbol
 _atom_site_label
 _atom_site_symmetry_multiplicity
 _atom_site_fract_x
 _atom_site_fract_y
 _atom_site_fract_z
 _atom_site_occupancy
  Tb  Tb0  1  0.251871  0.251871  0.251871  1
  Tb  Tb1  1  0.748129  0.748129  0.748129  1
  Sm  Sm2  1  0.748027  0.748027  0.251788  1
  Sm  Sm3  1  0.748027  0.251788  0.748027  1
  Sm  Sm4  1  0.251973  0.251973  0.748212  1
  Sm  Sm5  1  0.251973  0.748212  0.251973  1
  Sm  Sm6  1  0.251788  0.748027  0.748027  1
  Sm  Sm7  1  0.748212  0.251973  0.251973  1
  Al  Al8  1  0.000000  0.000000  0.000000  1
  Pd  Pd9  1  0.260565  0.499107  0.001451  1
  Pd  Pd10  1  0.739435  0.500893  0.998549  1
  Pd  Pd11  1  0.001451  0.260565  0.499107  1
  Pd  Pd12  1  0.499107  0.260565  0.001451  1
  Pd  Pd13  1  0.998549  0.739435  0.500893  1
  Pd  Pd14  1  0.500893  0.739435  0.998549  1
  Pd  Pd15  1  0.499107  0.001451  0.260565  1
  Pd  Pd16  1  0.260565  0.001451  0.499107  1
  Pd  Pd17  1  0.500893  0.998549  0.739435  1
  Pd  Pd18  1  0.739435  0.998549  0.500893  1
  Pd  Pd19  1  0.001451  0.499107  0.260565  1
  Pd  Pd20  1  0.998549  0.500893  0.739435  1
  Pd  Pd21  1  0.253205  0.498714  0.498714  1
  Pd  Pd22  1  0.746795  0.501286  0.501286  1
  Pd  Pd23  1  0.498714  0.253205  0.498714  1
  Pd  Pd24  1  0.501286  0.746795  0.501286  1
  Pd  Pd25  1  0.498714  0.498714  0.253205  1
  Pd  Pd26  1  0.501286  0.501286  0.746795  1
  Pd  Pd27  1  0.291183  0.001131  0.001131  1
  Pd  Pd28  1  0.708817  0.998869  0.998869  1
  Pd  Pd29  1  0.001131  0.291183  0.001131  1
  Pd  Pd30  1  0.998869  0.708817  0.998869  1
  Pd  Pd31  1  0.001131  0.001131  0.291183  1
  Pd  Pd32  1  0.998869  0.998869  0.708817  1
