# generated using pymatgen
data_Dy3Er9Os3Ru
_symmetry_space_group_name_H-M   'P 1'
_cell_length_a   6.27230084
_cell_length_b   7.35312412
_cell_length_c   8.99018600
_cell_angle_alpha   90.00000000
_cell_angle_beta   90.00000000
_cell_angle_gamma   89.99795174
_symmetry_Int_Tables_number   1
_chemical_formula_structural   Dy3Er9Os3Ru
_chemical_formula_sum   'Dy3 Er9 Os3 Ru1'
_cell_volume   414.63642733
_cell_formula_units_Z   1
loop_
 _symmetry_equiv_pos_site_id
 _symmetry_equiv_pos_as_xyz
  1  'x, y, z'
loop_
 _atom_site_type_symbol
 _atom_site_label
 _atom_site_symmetry_multiplicity
 _atom_site_fract_x
 _atom_site_fract_y
 _atom_site_fract_z
 _atom_site_occupancy
  Dy  Dy0  1  0.870355  0.539362  0.250000  1
  Dy  Dy1  1  0.630404  0.039012  0.250000  1
  Dy  Dy2  1  0.130306  0.461033  0.750000  1
  Er  Er3  1  0.333426  0.675401  0.062482  1
  Er  Er4  1  0.167555  0.174835  0.437363  1
  Er  Er5  1  0.666817  0.324619  0.562923  1
  Er  Er6  1  0.831539  0.824946  0.936189  1
  Er  Er7  1  0.666817  0.324619  0.937077  1
  Er  Er8  1  0.831539  0.824946  0.563811  1
  Er  Er9  1  0.333426  0.675401  0.437518  1
  Er  Er10  1  0.167555  0.174835  0.062637  1
  Er  Er11  1  0.369542  0.960907  0.750000  1
  Os  Os12  1  0.458253  0.382751  0.250000  1
  Os  Os13  1  0.959972  0.116455  0.750000  1
  Os  Os14  1  0.541287  0.617948  0.750000  1
  Ru  Ru15  1  0.041209  0.882933  0.250000  1
