# generated using pymatgen
data_Nb3SiOs2N
_symmetry_space_group_name_H-M   'P 1'
_cell_length_a   8.25710795
_cell_length_b   8.25726338
_cell_length_c   8.25705001
_cell_angle_alpha   60.00002900
_cell_angle_beta   60.00129430
_cell_angle_gamma   59.99861027
_symmetry_Int_Tables_number   1
_chemical_formula_structural   Nb3SiOs2N
_chemical_formula_sum   'Nb12 Si4 Os8 N4'
_cell_volume   398.08315298
_cell_formula_units_Z   4
loop_
 _symmetry_equiv_pos_site_id
 _symmetry_equiv_pos_as_xyz
  1  'x, y, z'
loop_
 _atom_site_type_symbol
 _atom_site_label
 _atom_site_symmetry_multiplicity
 _atom_site_fract_x
 _atom_site_fract_y
 _atom_site_fract_z
 _atom_site_occupancy
  Nb  Nb0  1  0.804482  0.804482  0.195521  1
  Nb  Nb1  1  0.195512  0.195518  0.804481  1
  Nb  Nb2  1  0.804418  0.195591  0.804407  1
  Nb  Nb3  1  0.195581  0.804419  0.195586  1
  Nb  Nb4  1  0.195494  0.804510  0.804500  1
  Nb  Nb5  1  0.804507  0.195493  0.195492  1
  Nb  Nb6  1  0.445518  0.445518  0.054479  1
  Nb  Nb7  1  0.054488  0.054482  0.445519  1
  Nb  Nb8  1  0.445582  0.054409  0.445593  1
  Nb  Nb9  1  0.054419  0.445581  0.054414  1
  Nb  Nb10  1  0.054506  0.445490  0.445500  1
  Nb  Nb11  1  0.445493  0.054507  0.054508  1
  Si  Si12  1  0.125000  0.625000  0.625000  1
  Si  Si13  1  0.625000  0.125000  0.625000  1
  Si  Si14  1  0.625000  0.625000  0.125000  1
  Si  Si15  1  0.625000  0.625000  0.625000  1
  Os  Os16  1  0.749545  0.416822  0.416793  1
  Os  Os17  1  0.416823  0.749536  0.416833  1
  Os  Os18  1  0.416802  0.416836  0.749545  1
  Os  Os19  1  0.416832  0.416805  0.416810  1
  Os  Os20  1  0.500455  0.833178  0.833207  1
  Os  Os21  1  0.833177  0.500464  0.833167  1
  Os  Os22  1  0.833198  0.833164  0.500455  1
  Os  Os23  1  0.833168  0.833195  0.833190  1
  N  N24  1  0.625000  0.125000  0.125000  1
  N  N25  1  0.125000  0.625000  0.125000  1
  N  N26  1  0.125000  0.125000  0.625000  1
  N  N27  1  0.125000  0.125000  0.125000  1
