# generated using pymatgen
data_Pr9HoC4I15
_symmetry_space_group_name_H-M   'P 1'
_cell_length_a   9.80967447
_cell_length_b   10.70855402
_cell_length_c   11.80238914
_cell_angle_alpha   93.83847219
_cell_angle_beta   114.11127180
_cell_angle_gamma   109.51657283
_symmetry_Int_Tables_number   1
_chemical_formula_structural   Pr9HoC4I15
_chemical_formula_sum   'Pr9 Ho1 C4 I15'
_cell_volume   1036.37835153
_cell_formula_units_Z   1
loop_
 _symmetry_equiv_pos_site_id
 _symmetry_equiv_pos_as_xyz
  1  'x, y, z'
loop_
 _atom_site_type_symbol
 _atom_site_label
 _atom_site_symmetry_multiplicity
 _atom_site_fract_x
 _atom_site_fract_y
 _atom_site_fract_z
 _atom_site_occupancy
  Pr  Pr0  1  0.344303  0.746036  0.164249  1
  Pr  Pr1  1  0.777413  0.883698  0.257463  1
  Pr  Pr2  1  0.529032  0.185677  0.103390  1
  Pr  Pr3  1  0.222406  0.114934  0.743074  1
  Pr  Pr4  1  0.402773  0.458631  0.656928  1
  Pr  Pr5  1  0.472720  0.814280  0.897851  1
  Pr  Pr6  1  0.704806  0.567321  0.044338  1
  Pr  Pr7  1  0.295313  0.432415  0.955677  1
  Pr  Pr8  1  0.655810  0.254790  0.832200  1
  Ho  Ho9  1  0.593334  0.545570  0.334290  1
  C  C10  1  0.482738  0.300738  0.937826  1
  C  C11  1  0.518282  0.698067  0.062247  1
  C  C12  1  0.452933  0.362507  0.834426  1
  C  C13  1  0.546572  0.635971  0.165837  1
  I  I14  1  0.206040  0.906383  0.937829  1
  I  I15  1  0.102366  0.185800  0.467281  1
  I  I16  1  0.150320  0.554616  0.703298  1
  I  I17  1  0.403830  0.967651  0.645998  1
  I  I18  1  0.716400  0.734474  0.821921  1
  I  I19  1  0.297127  0.275105  0.187769  1
  I  I20  1  0.839901  0.449035  0.303514  1
  I  I21  1  0.882981  0.798906  0.526883  1
  I  I22  1  0.369323  0.627669  0.412436  1
  I  I23  1  0.056043  0.832595  0.222260  1
  I  I24  1  0.795205  0.096413  0.062858  1
  I  I25  1  0.642263  0.375130  0.582702  1
  I  I26  1  0.945011  0.165861  0.779708  1
  I  I27  1  0.594627  0.030740  0.353926  1
  I  I28  1  0.000124  0.498988  0.001821  1
