# generated using pymatgen
data_TeSe7I2
_symmetry_space_group_name_H-M   'P 1'
_cell_length_a   9.89650200
_cell_length_b   10.74045200
_cell_length_c   14.88487000
_cell_angle_alpha   90.00000000
_cell_angle_beta   90.00000000
_cell_angle_gamma   90.00000000
_symmetry_Int_Tables_number   1
_chemical_formula_structural   TeSe7I2
_chemical_formula_sum   'Te4 Se28 I8'
_cell_volume   1582.15606837
_cell_formula_units_Z   4
loop_
 _symmetry_equiv_pos_site_id
 _symmetry_equiv_pos_as_xyz
  1  'x, y, z'
loop_
 _atom_site_type_symbol
 _atom_site_label
 _atom_site_symmetry_multiplicity
 _atom_site_fract_x
 _atom_site_fract_y
 _atom_site_fract_z
 _atom_site_occupancy
  Te  Te0  1  0.750000  0.204766  0.092566  1
  Te  Te1  1  0.750000  0.704767  0.407435  1
  Te  Te2  1  0.250000  0.295232  0.592565  1
  Te  Te3  1  0.250000  0.795232  0.907435  1
  Se  Se4  1  0.542536  0.331813  0.025336  1
  Se  Se5  1  0.957464  0.331813  0.025336  1
  Se  Se6  1  0.532130  0.768201  0.103950  1
  Se  Se7  1  0.967870  0.768201  0.103950  1
  Se  Se8  1  0.059221  0.647515  0.223799  1
  Se  Se9  1  0.440779  0.647515  0.223799  1
  Se  Se10  1  0.250000  0.251902  0.216776  1
  Se  Se11  1  0.250000  0.751903  0.283225  1
  Se  Se12  1  0.059221  0.147515  0.276201  1
  Se  Se13  1  0.440779  0.147515  0.276201  1
  Se  Se14  1  0.532130  0.268201  0.396049  1
  Se  Se15  1  0.967870  0.268201  0.396049  1
  Se  Se16  1  0.542536  0.831813  0.474664  1
  Se  Se17  1  0.957464  0.831813  0.474664  1
  Se  Se18  1  0.042536  0.168187  0.525336  1
  Se  Se19  1  0.457464  0.168187  0.525336  1
  Se  Se20  1  0.032130  0.731799  0.603951  1
  Se  Se21  1  0.467870  0.731799  0.603951  1
  Se  Se22  1  0.559222  0.852485  0.723799  1
  Se  Se23  1  0.940779  0.852485  0.723799  1
  Se  Se24  1  0.750000  0.248098  0.716776  1
  Se  Se25  1  0.750000  0.748099  0.783224  1
  Se  Se26  1  0.559222  0.352485  0.776202  1
  Se  Se27  1  0.940779  0.352485  0.776202  1
  Se  Se28  1  0.032130  0.231799  0.896049  1
  Se  Se29  1  0.467870  0.231799  0.896049  1
  Se  Se30  1  0.042536  0.668186  0.974664  1
  Se  Se31  1  0.457464  0.668186  0.974664  1
  I  I32  1  0.250000  0.990745  0.034424  1
  I  I33  1  0.750000  0.432727  0.209331  1
  I  I34  1  0.750000  0.932726  0.290669  1
  I  I35  1  0.250000  0.490745  0.465576  1
  I  I36  1  0.750000  0.509255  0.534423  1
  I  I37  1  0.250000  0.067273  0.709331  1
  I  I38  1  0.250000  0.567273  0.790669  1
  I  I39  1  0.750000  0.009255  0.965577  1
