# generated using pymatgen
data_Ba4Sn9BiPb2
_symmetry_space_group_name_H-M   'P 1'
_cell_length_a   7.34132370
_cell_length_b   7.32547213
_cell_length_c   22.65175500
_cell_angle_alpha   90.00000000
_cell_angle_beta   90.00000000
_cell_angle_gamma   119.92859549
_symmetry_Int_Tables_number   1
_chemical_formula_structural   Ba4Sn9BiPb2
_chemical_formula_sum   'Ba8 Sn18 Bi2 Pb4'
_cell_volume   1055.73401765
_cell_formula_units_Z   2
loop_
 _symmetry_equiv_pos_site_id
 _symmetry_equiv_pos_as_xyz
  1  'x, y, z'
loop_
 _atom_site_type_symbol
 _atom_site_label
 _atom_site_symmetry_multiplicity
 _atom_site_fract_x
 _atom_site_fract_y
 _atom_site_fract_z
 _atom_site_occupancy
  Ba  Ba0  1  0.333573  0.666787  0.135393  1
  Ba  Ba1  1  0.666427  0.333213  0.864607  1
  Ba  Ba2  1  0.666427  0.333213  0.635393  1
  Ba  Ba3  1  0.333573  0.666787  0.364607  1
  Ba  Ba4  1  0.000000  0.000000  0.000000  1
  Ba  Ba5  1  0.000000  0.000000  0.500000  1
  Ba  Ba6  1  0.000432  0.000216  0.250000  1
  Ba  Ba7  1  0.999568  0.999784  0.750000  1
  Sn  Sn8  1  0.192395  0.386079  0.625234  1
  Sn  Sn9  1  0.807605  0.613921  0.374766  1
  Sn  Sn10  1  0.614751  0.807376  0.624988  1
  Sn  Sn11  1  0.807605  0.613921  0.125234  1
  Sn  Sn12  1  0.385249  0.192624  0.375012  1
  Sn  Sn13  1  0.192395  0.386079  0.874766  1
  Sn  Sn14  1  0.192395  0.806317  0.625234  1
  Sn  Sn15  1  0.385249  0.192624  0.124988  1
  Sn  Sn16  1  0.807605  0.193683  0.374766  1
  Sn  Sn17  1  0.614751  0.807376  0.875012  1
  Sn  Sn18  1  0.807605  0.193683  0.125234  1
  Sn  Sn19  1  0.192395  0.806317  0.874766  1
  Sn  Sn20  1  0.527657  0.056364  0.250000  1
  Sn  Sn21  1  0.472343  0.943636  0.750000  1
  Sn  Sn22  1  0.942017  0.471009  0.250000  1
  Sn  Sn23  1  0.057983  0.528991  0.750000  1
  Sn  Sn24  1  0.527657  0.471294  0.250000  1
  Sn  Sn25  1  0.472343  0.528706  0.750000  1
  Bi  Bi26  1  0.000000  0.500000  0.000000  1
  Bi  Bi27  1  0.000000  0.500000  0.500000  1
  Pb  Pb28  1  0.500000  0.000000  0.000000  1
  Pb  Pb29  1  0.500000  0.000000  0.500000  1
  Pb  Pb30  1  0.500000  0.500000  0.000000  1
  Pb  Pb31  1  0.500000  0.500000  0.500000  1
