# generated using pymatgen
data_YbY5Ho4(In2Pt)4
_symmetry_space_group_name_H-M   'P 1'
_cell_length_a   3.61190400
_cell_length_b   8.18806098
_cell_length_c   18.36708722
_cell_angle_alpha   89.88555684
_cell_angle_beta   90.00000000
_cell_angle_gamma   90.00000000
_symmetry_Int_Tables_number   1
_chemical_formula_structural   YbY5Ho4(In2Pt)4
_chemical_formula_sum   'Yb1 Y5 Ho4 In8 Pt4'
_cell_volume   543.19615744
_cell_formula_units_Z   1
loop_
 _symmetry_equiv_pos_site_id
 _symmetry_equiv_pos_as_xyz
  1  'x, y, z'
loop_
 _atom_site_type_symbol
 _atom_site_label
 _atom_site_symmetry_multiplicity
 _atom_site_fract_x
 _atom_site_fract_y
 _atom_site_fract_z
 _atom_site_occupancy
  Yb  Yb0  1  0.000000  0.000000  0.000000  1
  Y  Y1  1  0.000000  0.117707  0.415377  1
  Y  Y2  1  0.000000  0.882293  0.584623  1
  Y  Y3  1  0.000000  0.380413  0.914736  1
  Y  Y4  1  0.000000  0.619587  0.085264  1
  Y  Y5  1  0.000000  0.500000  0.500000  1
  Ho  Ho6  1  0.000000  0.242118  0.221126  1
  Ho  Ho7  1  0.000000  0.757882  0.778874  1
  Ho  Ho8  1  0.000000  0.258079  0.720637  1
  Ho  Ho9  1  0.000000  0.741921  0.279363  1
  In  In10  1  0.500000  0.423387  0.351268  1
  In  In11  1  0.500000  0.576613  0.648732  1
  In  In12  1  0.500000  0.074644  0.850518  1
  In  In13  1  0.500000  0.925356  0.149482  1
  In  In14  1  0.500000  0.292813  0.067812  1
  In  In15  1  0.500000  0.707187  0.932188  1
  In  In16  1  0.500000  0.208232  0.567276  1
  In  In17  1  0.500000  0.791768  0.432724  1
  Pt  Pt18  1  0.500000  0.023183  0.303214  1
  Pt  Pt19  1  0.500000  0.976817  0.696786  1
  Pt  Pt20  1  0.500000  0.478152  0.802333  1
  Pt  Pt21  1  0.500000  0.521848  0.197667  1
