# generated using pymatgen
data_Er12Co8Si7As
_symmetry_space_group_name_H-M   'P 1'
_cell_length_a   5.49553710
_cell_length_b   7.54957814
_cell_length_c   12.47817900
_cell_angle_alpha   90.00000000
_cell_angle_beta   90.00000000
_cell_angle_gamma   90.02224460
_symmetry_Int_Tables_number   1
_chemical_formula_structural   Er12Co8Si7As
_chemical_formula_sum   'Er12 Co8 Si7 As1'
_cell_volume   517.70696476
_cell_formula_units_Z   1
loop_
 _symmetry_equiv_pos_site_id
 _symmetry_equiv_pos_as_xyz
  1  'x, y, z'
loop_
 _atom_site_type_symbol
 _atom_site_label
 _atom_site_symmetry_multiplicity
 _atom_site_fract_x
 _atom_site_fract_y
 _atom_site_fract_z
 _atom_site_occupancy
  Er  Er0  1  0.626080  0.252751  0.250000  1
  Er  Er1  1  0.370914  0.748401  0.750000  1
  Er  Er2  1  0.375411  0.750427  0.250000  1
  Er  Er3  1  0.628221  0.248417  0.750000  1
  Er  Er4  1  0.142052  0.398361  0.099858  1
  Er  Er5  1  0.858089  0.605186  0.897679  1
  Er  Er6  1  0.858089  0.605186  0.602321  1
  Er  Er7  1  0.858584  0.891958  0.399297  1
  Er  Er8  1  0.142052  0.398361  0.400142  1
  Er  Er9  1  0.139502  0.105332  0.602113  1
  Er  Er10  1  0.139502  0.105332  0.897887  1
  Er  Er11  1  0.858584  0.891958  0.100703  1
  Co  Co12  1  0.372040  0.028591  0.085667  1
  Co  Co13  1  0.631844  0.970641  0.913492  1
  Co  Co14  1  0.631844  0.970641  0.586508  1
  Co  Co15  1  0.632653  0.529001  0.411850  1
  Co  Co16  1  0.372040  0.028591  0.414333  1
  Co  Co17  1  0.366855  0.470668  0.587376  1
  Co  Co18  1  0.366855  0.470668  0.912624  1
  Co  Co19  1  0.632653  0.529001  0.088150  1
  Si  Si20  1  0.846439  0.900218  0.750000  1
  Si  Si21  1  0.851569  0.599425  0.250000  1
  Si  Si22  1  0.151620  0.399465  0.750000  1
  Si  Si23  1  0.613435  0.250482  0.000096  1
  Si  Si24  1  0.387092  0.749312  0.000066  1
  Si  Si25  1  0.387092  0.749312  0.499934  1
  Si  Si26  1  0.613435  0.250482  0.499904  1
  As  As27  1  0.145455  0.101838  0.250000  1
