# generated using pymatgen
data_Tb4DyTm15Sn16
_symmetry_space_group_name_H-M   'P 1'
_cell_length_a   7.97351947
_cell_length_b   8.09368645
_cell_length_c   15.30586300
_cell_angle_alpha   90.00823296
_cell_angle_beta   89.87668512
_cell_angle_gamma   89.89587061
_symmetry_Int_Tables_number   1
_chemical_formula_structural   Tb4DyTm15Sn16
_chemical_formula_sum   'Tb4 Dy1 Tm15 Sn16'
_cell_volume   987.76248749
_cell_formula_units_Z   1
loop_
 _symmetry_equiv_pos_site_id
 _symmetry_equiv_pos_as_xyz
  1  'x, y, z'
loop_
 _atom_site_type_symbol
 _atom_site_label
 _atom_site_symmetry_multiplicity
 _atom_site_fract_x
 _atom_site_fract_y
 _atom_site_fract_z
 _atom_site_occupancy
  Tb  Tb0  1  0.978677  0.820572  0.096967  1
  Tb  Tb1  1  0.478826  0.678661  0.096379  1
  Tb  Tb2  1  0.978262  0.820918  0.403303  1
  Tb  Tb3  1  0.521483  0.321100  0.596562  1
  Dy  Dy4  1  0.020805  0.179441  0.903474  1
  Tm  Tm5  1  0.367018  0.837254  0.876897  1
  Tm  Tm6  1  0.867923  0.662660  0.622770  1
  Tm  Tm7  1  0.631853  0.162856  0.377273  1
  Tm  Tm8  1  0.132551  0.337280  0.122893  1
  Tm  Tm9  1  0.632284  0.162920  0.122970  1
  Tm  Tm10  1  0.131715  0.337160  0.377582  1
  Tm  Tm11  1  0.368480  0.837318  0.622739  1
  Tm  Tm12  1  0.867358  0.662408  0.876880  1
  Tm  Tm13  1  0.522343  0.320860  0.902599  1
  Tm  Tm14  1  0.022804  0.179013  0.597446  1
  Tm  Tm15  1  0.477090  0.678702  0.402759  1
  Tm  Tm16  1  0.198490  0.504078  0.749905  1
  Tm  Tm17  1  0.698491  0.995997  0.749808  1
  Tm  Tm18  1  0.801342  0.495793  0.250401  1
  Tm  Tm19  1  0.301795  0.004327  0.250343  1
  Sn  Sn20  1  0.294671  0.038061  0.041568  1
  Sn  Sn21  1  0.792054  0.463495  0.458129  1
  Sn  Sn22  1  0.707743  0.963795  0.542048  1
  Sn  Sn23  1  0.207071  0.536573  0.957927  1
  Sn  Sn24  1  0.704592  0.962601  0.958143  1
  Sn  Sn25  1  0.206277  0.538320  0.541166  1
  Sn  Sn26  1  0.293739  0.037642  0.458934  1
  Sn  Sn27  1  0.794015  0.460696  0.040892  1
  Sn  Sn28  1  0.564686  0.619033  0.749828  1
  Sn  Sn29  1  0.064564  0.880861  0.749773  1
  Sn  Sn30  1  0.435097  0.380793  0.250219  1
  Sn  Sn31  1  0.935270  0.119932  0.250184  1
  Sn  Sn32  1  0.331487  0.148973  0.750517  1
  Sn  Sn33  1  0.831829  0.350690  0.749630  1
  Sn  Sn34  1  0.667630  0.851152  0.250718  1
  Sn  Sn35  1  0.169686  0.648064  0.250380  1
