# generated using pymatgen
data_La8Lu2Tl5InBr2
_symmetry_space_group_name_H-M   'P 1'
_cell_length_a   9.65279920
_cell_length_b   9.65279879
_cell_length_c   6.91800100
_cell_angle_alpha   90.00063406
_cell_angle_beta   90.00063659
_cell_angle_gamma   119.97677134
_symmetry_Int_Tables_number   1
_chemical_formula_structural   La8Lu2Tl5InBr2
_chemical_formula_sum   'La8 Lu2 Tl5 In1 Br2'
_cell_volume   558.36653835
_cell_formula_units_Z   1
loop_
 _symmetry_equiv_pos_site_id
 _symmetry_equiv_pos_as_xyz
  1  'x, y, z'
loop_
 _atom_site_type_symbol
 _atom_site_label
 _atom_site_symmetry_multiplicity
 _atom_site_fract_x
 _atom_site_fract_y
 _atom_site_fract_z
 _atom_site_occupancy
  La  La0  1  0.732062  0.732062  0.254433  1
  La  La1  1  0.999795  0.732136  0.745319  1
  La  La2  1  0.732136  0.999795  0.745319  1
  La  La3  1  0.267783  0.267783  0.745430  1
  La  La4  1  0.999947  0.267811  0.254668  1
  La  La5  1  0.267811  0.999947  0.254668  1
  La  La6  1  0.333439  0.666620  0.999801  1
  La  La7  1  0.666620  0.333439  0.999801  1
  Lu  Lu8  1  0.333765  0.666673  0.500515  1
  Lu  Lu9  1  0.666673  0.333765  0.500515  1
  Tl  Tl10  1  0.392758  0.999983  0.743390  1
  Tl  Tl11  1  0.000012  0.607107  0.256627  1
  Tl  Tl12  1  0.607107  0.000012  0.256627  1
  Tl  Tl13  1  0.999983  0.392758  0.743390  1
  Tl  Tl14  1  0.392930  0.392930  0.256603  1
  In  In15  1  0.607132  0.607132  0.742926  1
  Br  Br16  1  0.999998  0.999998  0.499907  1
  Br  Br17  1  0.000048  0.000048  0.000061  1
