# generated using pymatgen
data_Mg4B8Ru7Rh3
_symmetry_space_group_name_H-M   'P 1'
_cell_length_a   2.95204000
_cell_length_b   8.46902365
_cell_length_c   10.07110578
_cell_angle_alpha   89.95505674
_cell_angle_beta   90.00000000
_cell_angle_gamma   90.00000000
_symmetry_Int_Tables_number   1
_chemical_formula_structural   Mg4B8Ru7Rh3
_chemical_formula_sum   'Mg4 B8 Ru7 Rh3'
_cell_volume   251.78659645
_cell_formula_units_Z   1
loop_
 _symmetry_equiv_pos_site_id
 _symmetry_equiv_pos_as_xyz
  1  'x, y, z'
loop_
 _atom_site_type_symbol
 _atom_site_label
 _atom_site_symmetry_multiplicity
 _atom_site_fract_x
 _atom_site_fract_y
 _atom_site_fract_z
 _atom_site_occupancy
  Mg  Mg0  1  0.500000  0.649777  0.817041  1
  Mg  Mg1  1  0.500000  0.349766  0.183732  1
  Mg  Mg2  1  0.500000  0.149859  0.682436  1
  Mg  Mg3  1  0.500000  0.852238  0.315996  1
  B  B4  1  0.500000  0.851791  0.595436  1
  B  B5  1  0.500000  0.146615  0.396485  1
  B  B6  1  0.500000  0.349288  0.904648  1
  B  B7  1  0.500000  0.650222  0.095688  1
  B  B8  1  0.500000  0.961790  0.913181  1
  B  B9  1  0.500000  0.039570  0.091245  1
  B  B10  1  0.500000  0.460999  0.587401  1
  B  B11  1  0.500000  0.537048  0.412407  1
  Ru  Ru12  1  0.000000  0.104354  0.237868  1
  Ru  Ru13  1  0.000000  0.999587  0.501307  1
  Ru  Ru14  1  0.000000  0.500259  0.000090  1
  Ru  Ru15  1  0.000000  0.657390  0.548112  1
  Ru  Ru16  1  0.000000  0.343607  0.453528  1
  Ru  Ru17  1  0.000000  0.156512  0.951674  1
  Ru  Ru18  1  0.000000  0.843107  0.047531  1
  Rh  Rh19  1  0.000000  0.396255  0.737917  1
  Rh  Rh20  1  0.000000  0.603699  0.262697  1
  Rh  Rh21  1  0.000000  0.896264  0.763581  1
