# generated using pymatgen
data_Ba4HoNp2O12
_symmetry_space_group_name_H-M   'P 1'
_cell_length_a   10.35455358
_cell_length_b   10.35455327
_cell_length_c   10.35455400
_cell_angle_alpha   33.91817516
_cell_angle_beta   33.91817774
_cell_angle_gamma   33.91817569
_symmetry_Int_Tables_number   1
_chemical_formula_structural   Ba4HoNp2O12
_chemical_formula_sum   'Ba4 Ho1 Np2 O12'
_cell_volume   308.08994536
_cell_formula_units_Z   1
loop_
 _symmetry_equiv_pos_site_id
 _symmetry_equiv_pos_as_xyz
  1  'x, y, z'
loop_
 _atom_site_type_symbol
 _atom_site_label
 _atom_site_symmetry_multiplicity
 _atom_site_fract_x
 _atom_site_fract_y
 _atom_site_fract_z
 _atom_site_occupancy
  Ba  Ba0  1  0.714651  0.714651  0.714651  1
  Ba  Ba1  1  0.285349  0.285349  0.285349  1
  Ba  Ba2  1  0.862556  0.862556  0.862556  1
  Ba  Ba3  1  0.137444  0.137444  0.137444  1
  Ho  Ho4  1  0.000000  0.000000  0.000000  1
  Np  Np5  1  0.580147  0.580147  0.580147  1
  Np  Np6  1  0.419853  0.419853  0.419853  1
  O  O7  1  0.216735  0.698438  0.216735  1
  O  O8  1  0.216735  0.216735  0.698438  1
  O  O9  1  0.698438  0.216735  0.216735  1
  O  O10  1  0.783265  0.301562  0.783265  1
  O  O11  1  0.783265  0.783265  0.301562  1
  O  O12  1  0.301562  0.783265  0.783265  1
  O  O13  1  0.380196  0.874071  0.380196  1
  O  O14  1  0.380196  0.380196  0.874071  1
  O  O15  1  0.874071  0.380196  0.380196  1
  O  O16  1  0.619804  0.125929  0.619804  1
  O  O17  1  0.619804  0.619804  0.125929  1
  O  O18  1  0.125929  0.619804  0.619804  1
