# generated using pymatgen
data_Tm3LuCo4Si3Ge
_symmetry_space_group_name_H-M   'P 1'
_cell_length_a   4.12444600
_cell_length_b   6.72641658
_cell_length_c   7.01801053
_cell_angle_alpha   89.87708393
_cell_angle_beta   90.00000000
_cell_angle_gamma   90.00000000
_symmetry_Int_Tables_number   1
_chemical_formula_structural   Tm3LuCo4Si3Ge
_chemical_formula_sum   'Tm3 Lu1 Co4 Si3 Ge1'
_cell_volume   194.69840714
_cell_formula_units_Z   1
loop_
 _symmetry_equiv_pos_site_id
 _symmetry_equiv_pos_as_xyz
  1  'x, y, z'
loop_
 _atom_site_type_symbol
 _atom_site_label
 _atom_site_symmetry_multiplicity
 _atom_site_fract_x
 _atom_site_fract_y
 _atom_site_fract_z
 _atom_site_occupancy
  Tm  Tm0  1  0.750000  0.010221  0.692925  1
  Tm  Tm1  1  0.250000  0.493230  0.193155  1
  Tm  Tm2  1  0.250000  0.987956  0.306790  1
  Lu  Lu3  1  0.750000  0.513011  0.804964  1
  Co  Co4  1  0.750000  0.350609  0.441451  1
  Co  Co5  1  0.750000  0.836994  0.068528  1
  Co  Co6  1  0.250000  0.651402  0.566899  1
  Co  Co7  1  0.250000  0.151965  0.923297  1
  Si  Si8  1  0.750000  0.698829  0.399510  1
  Si  Si9  1  0.250000  0.800933  0.897154  1
  Si  Si10  1  0.250000  0.301988  0.603937  1
  Ge  Ge11  1  0.750000  0.202862  0.101390  1
