# generated using pymatgen
data_Er8Ta9Ti2Si16Ru
_symmetry_space_group_name_H-M   'P 1'
_cell_length_a   7.01017730
_cell_length_b   7.00462808
_cell_length_c   12.88383335
_cell_angle_alpha   90.14624505
_cell_angle_beta   89.88725245
_cell_angle_gamma   89.74566646
_symmetry_Int_Tables_number   1
_chemical_formula_structural   Er8Ta9Ti2Si16Ru
_chemical_formula_sum   'Er8 Ta9 Ti2 Si16 Ru1'
_cell_volume   632.63415845
_cell_formula_units_Z   1
loop_
 _symmetry_equiv_pos_site_id
 _symmetry_equiv_pos_as_xyz
  1  'x, y, z'
loop_
 _atom_site_type_symbol
 _atom_site_label
 _atom_site_symmetry_multiplicity
 _atom_site_fract_x
 _atom_site_fract_y
 _atom_site_fract_z
 _atom_site_occupancy
  Er  Er0  1  0.341648  0.002144  0.468018  1
  Er  Er1  1  0.497074  0.842450  0.719537  1
  Er  Er2  1  0.500784  0.158543  0.217138  1
  Er  Er3  1  0.842315  0.497356  0.280800  1
  Er  Er4  1  0.158457  0.500977  0.783457  1
  Er  Er5  1  0.658197  0.998822  0.968938  1
  Er  Er6  1  0.003151  0.340351  0.531542  1
  Er  Er7  1  0.998117  0.660933  0.030955  1
  Ta  Ta8  1  0.174245  0.827235  0.247747  1
  Ta  Ta9  1  0.827840  0.174980  0.752451  1
  Ta  Ta10  1  0.670524  0.669956  0.499509  1
  Ta  Ta11  1  0.147273  0.002021  0.873591  1
  Ta  Ta12  1  0.495396  0.656710  0.123425  1
  Ta  Ta13  1  0.503971  0.348344  0.625430  1
  Ta  Ta14  1  0.657394  0.494221  0.876703  1
  Ta  Ta15  1  0.348558  0.505684  0.375051  1
  Ta  Ta16  1  0.849049  0.991467  0.374341  1
  Ti  Ti17  1  0.003216  0.147484  0.126466  1
  Ti  Ti18  1  0.991435  0.848149  0.625790  1
  Si  Si19  1  0.202276  0.134075  0.682616  1
  Si  Si20  1  0.367630  0.702407  0.931986  1
  Si  Si21  1  0.635286  0.293972  0.431463  1
  Si  Si22  1  0.703306  0.366035  0.068549  1
  Si  Si23  1  0.294357  0.636448  0.568992  1
  Si  Si24  1  0.795800  0.868217  0.181149  1
  Si  Si25  1  0.135828  0.202103  0.316034  1
  Si  Si26  1  0.864665  0.795746  0.817578  1
  Si  Si27  1  0.290493  0.958935  0.061392  1
  Si  Si28  1  0.545192  0.795345  0.313268  1
  Si  Si29  1  0.449121  0.208621  0.818009  1
  Si  Si30  1  0.796815  0.546141  0.685310  1
  Si  Si31  1  0.207520  0.448397  0.180951  1
  Si  Si32  1  0.706605  0.045266  0.565635  1
  Si  Si33  1  0.959393  0.292332  0.940481  1
  Si  Si34  1  0.046177  0.704588  0.436150  1
  Ru  Ru35  1  0.330891  0.333542  0.999549  1
