# generated using pymatgen
data_DyHo3ScBi3
_symmetry_space_group_name_H-M   'P 1'
_cell_length_a   8.12171500
_cell_length_b   9.41828900
_cell_length_c   11.95586900
_cell_angle_alpha   90.00000000
_cell_angle_beta   90.00000000
_cell_angle_gamma   90.00000000
_symmetry_Int_Tables_number   1
_chemical_formula_structural   DyHo3ScBi3
_chemical_formula_sum   'Dy4 Ho12 Sc4 Bi12'
_cell_volume   914.53621101
_cell_formula_units_Z   4
loop_
 _symmetry_equiv_pos_site_id
 _symmetry_equiv_pos_as_xyz
  1  'x, y, z'
loop_
 _atom_site_type_symbol
 _atom_site_label
 _atom_site_symmetry_multiplicity
 _atom_site_fract_x
 _atom_site_fract_y
 _atom_site_fract_z
 _atom_site_occupancy
  Dy  Dy0  1  0.315961  0.250000  0.218820  1
  Dy  Dy1  1  0.815961  0.250000  0.281180  1
  Dy  Dy2  1  0.684039  0.750000  0.781180  1
  Dy  Dy3  1  0.184039  0.750000  0.718820  1
  Ho  Ho4  1  0.352247  0.750000  0.216995  1
  Ho  Ho5  1  0.852247  0.750000  0.283005  1
  Ho  Ho6  1  0.647753  0.250000  0.783005  1
  Ho  Ho7  1  0.147753  0.250000  0.716995  1
  Ho  Ho8  1  0.693897  0.564924  0.059269  1
  Ho  Ho9  1  0.193897  0.935076  0.440731  1
  Ho  Ho10  1  0.306103  0.064924  0.940731  1
  Ho  Ho11  1  0.806103  0.435076  0.559269  1
  Ho  Ho12  1  0.306103  0.435076  0.940731  1
  Ho  Ho13  1  0.806103  0.064924  0.559269  1
  Ho  Ho14  1  0.693897  0.935076  0.059269  1
  Ho  Ho15  1  0.193897  0.564924  0.440731  1
  Sc  Sc16  1  0.477774  0.250000  0.487231  1
  Sc  Sc17  1  0.977774  0.250000  0.012769  1
  Sc  Sc18  1  0.522226  0.750000  0.512769  1
  Sc  Sc19  1  0.022226  0.750000  0.987231  1
  Bi  Bi20  1  0.400419  0.750000  0.958940  1
  Bi  Bi21  1  0.900419  0.750000  0.541060  1
  Bi  Bi22  1  0.599581  0.250000  0.041060  1
  Bi  Bi23  1  0.099581  0.250000  0.458940  1
  Bi  Bi24  1  0.564955  0.995768  0.330893  1
  Bi  Bi25  1  0.064955  0.504232  0.169107  1
  Bi  Bi26  1  0.435045  0.495768  0.669107  1
  Bi  Bi27  1  0.935045  0.004232  0.830893  1
  Bi  Bi28  1  0.435045  0.004232  0.669107  1
  Bi  Bi29  1  0.935045  0.495768  0.830893  1
  Bi  Bi30  1  0.564955  0.504232  0.330893  1
  Bi  Bi31  1  0.064955  0.995768  0.169107  1
