# generated using pymatgen
data_La8Er8Sc4Si15Ge
_symmetry_space_group_name_H-M   'P 1'
_cell_length_a   7.43370142
_cell_length_b   7.78184816
_cell_length_c   14.76618239
_cell_angle_alpha   90.02267625
_cell_angle_beta   89.87935817
_cell_angle_gamma   90.02425042
_symmetry_Int_Tables_number   1
_chemical_formula_structural   La8Er8Sc4Si15Ge
_chemical_formula_sum   'La8 Er8 Sc4 Si15 Ge1'
_cell_volume   854.19113324
_cell_formula_units_Z   1
loop_
 _symmetry_equiv_pos_site_id
 _symmetry_equiv_pos_as_xyz
  1  'x, y, z'
loop_
 _atom_site_type_symbol
 _atom_site_label
 _atom_site_symmetry_multiplicity
 _atom_site_fract_x
 _atom_site_fract_y
 _atom_site_fract_z
 _atom_site_occupancy
  La  La0  1  0.018298  0.176695  0.400418  1
  La  La1  1  0.519037  0.322617  0.400418  1
  La  La2  1  0.481083  0.676896  0.901269  1
  La  La3  1  0.483200  0.678182  0.599539  1
  La  La4  1  0.980248  0.823504  0.599186  1
  La  La5  1  0.980721  0.823293  0.901293  1
  La  La6  1  0.519271  0.322923  0.098702  1
  La  La7  1  0.019524  0.177556  0.098618  1
  Er  Er8  1  0.322152  0.173653  0.625959  1
  Er  Er9  1  0.679030  0.824436  0.374660  1
  Er  Er10  1  0.178197  0.677047  0.374793  1
  Er  Er11  1  0.819607  0.323881  0.875329  1
  Er  Er12  1  0.819538  0.324086  0.624872  1
  Er  Er13  1  0.319957  0.175509  0.875277  1
  Er  Er14  1  0.179805  0.676247  0.124443  1
  Er  Er15  1  0.679590  0.823932  0.124478  1
  Sc  Sc16  1  0.651700  0.993472  0.750860  1
  Sc  Sc17  1  0.848374  0.493722  0.249756  1
  Sc  Sc18  1  0.348388  0.006509  0.249810  1
  Sc  Sc19  1  0.151629  0.505529  0.751704  1
  Si  Si20  1  0.279655  0.875095  0.750395  1
  Si  Si21  1  0.478659  0.613953  0.249720  1
  Si  Si22  1  0.020226  0.114355  0.750068  1
  Si  Si23  1  0.520260  0.386032  0.750321  1
  Si  Si24  1  0.979082  0.886716  0.249411  1
  Si  Si25  1  0.720494  0.123559  0.249477  1
  Si  Si26  1  0.855002  0.532260  0.040329  1
  Si  Si27  1  0.355063  0.967789  0.040407  1
  Si  Si28  1  0.144836  0.467856  0.959429  1
  Si  Si29  1  0.645621  0.032958  0.539912  1
  Si  Si30  1  0.354473  0.967415  0.459810  1
  Si  Si31  1  0.850274  0.533294  0.458584  1
  Si  Si32  1  0.780517  0.623543  0.750208  1
  Si  Si33  1  0.220331  0.377006  0.249822  1
  Si  Si34  1  0.644777  0.032345  0.959611  1
  Ge  Ge35  1  0.151382  0.466137  0.541113  1
