# generated using pymatgen
data_Y3Zn2Cd3Rh
_symmetry_space_group_name_H-M   'P 1'
_cell_length_a   7.82347900
_cell_length_b   7.82347827
_cell_length_c   3.77721100
_cell_angle_alpha   90.00000000
_cell_angle_beta   90.00000000
_cell_angle_gamma   119.99999888
_symmetry_Int_Tables_number   1
_chemical_formula_structural   Y3Zn2Cd3Rh
_chemical_formula_sum   'Y3 Zn2 Cd3 Rh1'
_cell_volume   200.21733846
_cell_formula_units_Z   1
loop_
 _symmetry_equiv_pos_site_id
 _symmetry_equiv_pos_as_xyz
  1  'x, y, z'
loop_
 _atom_site_type_symbol
 _atom_site_label
 _atom_site_symmetry_multiplicity
 _atom_site_fract_x
 _atom_site_fract_y
 _atom_site_fract_z
 _atom_site_occupancy
  Y  Y0  1  0.394356  0.972744  0.500000  1
  Y  Y1  1  0.027256  0.421611  0.500000  1
  Y  Y2  1  0.578389  0.605644  0.500000  1
  Zn  Zn3  1  0.000000  0.000000  0.500000  1
  Zn  Zn4  1  0.666667  0.333333  0.000000  1
  Cd  Cd5  1  0.741284  0.009326  0.000000  1
  Cd  Cd6  1  0.268041  0.258716  0.000000  1
  Cd  Cd7  1  0.990674  0.731959  0.000000  1
  Rh  Rh8  1  0.333333  0.666667  0.000000  1
