# generated using pymatgen
data_Sm2Bi2O7
_symmetry_space_group_name_H-M   'P 1'
_cell_length_a   6.69327570
_cell_length_b   6.77145925
_cell_length_c   7.89853358
_cell_angle_alpha   106.60656511
_cell_angle_beta   89.53909447
_cell_angle_gamma   97.82163145
_symmetry_Int_Tables_number   1
_chemical_formula_structural   Sm2Bi2O7
_chemical_formula_sum   'Sm4 Bi4 O14'
_cell_volume   339.68436920
_cell_formula_units_Z   2
loop_
 _symmetry_equiv_pos_site_id
 _symmetry_equiv_pos_as_xyz
  1  'x, y, z'
loop_
 _atom_site_type_symbol
 _atom_site_label
 _atom_site_symmetry_multiplicity
 _atom_site_fract_x
 _atom_site_fract_y
 _atom_site_fract_z
 _atom_site_occupancy
  Sm  Sm0  1  0.458618  0.002917  0.250684  1
  Sm  Sm1  1  0.541382  0.997083  0.749316  1
  Sm  Sm2  1  0.259045  0.534935  0.885108  1
  Sm  Sm3  1  0.740955  0.465065  0.114892  1
  Bi  Bi4  1  0.000000  0.000000  0.500000  1
  Bi  Bi5  1  0.000000  0.000000  0.000000  1
  Bi  Bi6  1  0.724432  0.463539  0.611436  1
  Bi  Bi7  1  0.275568  0.536461  0.388564  1
  O  O8  1  0.442511  0.644888  0.166914  1
  O  O9  1  0.557489  0.355112  0.833086  1
  O  O10  1  0.299829  0.923045  0.949591  1
  O  O11  1  0.700171  0.076955  0.050409  1
  O  O12  1  0.297366  0.914397  0.509245  1
  O  O13  1  0.702634  0.085603  0.490755  1
  O  O14  1  0.544260  0.363866  0.345924  1
  O  O15  1  0.455740  0.636134  0.654076  1
  O  O16  1  0.933618  0.675735  0.967038  1
  O  O17  1  0.066382  0.324265  0.032962  1
  O  O18  1  0.093633  0.320266  0.625922  1
  O  O19  1  0.906367  0.679734  0.374078  1
  O  O20  1  0.882563  0.921529  0.731494  1
  O  O21  1  0.117437  0.078471  0.268506  1
