# generated using pymatgen
data_SmDy5(CuRh8)2
_symmetry_space_group_name_H-M   'P 1'
_cell_length_a   5.30250800
_cell_length_b   5.30250968
_cell_length_c   17.19709300
_cell_angle_alpha   90.00000000
_cell_angle_beta   90.00000000
_cell_angle_gamma   120.00000197
_symmetry_Int_Tables_number   1
_chemical_formula_structural   SmDy5(CuRh8)2
_chemical_formula_sum   'Sm1 Dy5 Cu2 Rh16'
_cell_volume   418.74387325
_cell_formula_units_Z   1
loop_
 _symmetry_equiv_pos_site_id
 _symmetry_equiv_pos_as_xyz
  1  'x, y, z'
loop_
 _atom_site_type_symbol
 _atom_site_label
 _atom_site_symmetry_multiplicity
 _atom_site_fract_x
 _atom_site_fract_y
 _atom_site_fract_z
 _atom_site_occupancy
  Sm  Sm0  1  0.666667  0.333333  0.250000  1
  Dy  Dy1  1  0.333333  0.666667  0.957670  1
  Dy  Dy2  1  0.666667  0.333333  0.041722  1
  Dy  Dy3  1  0.666667  0.333333  0.458278  1
  Dy  Dy4  1  0.333333  0.666667  0.542330  1
  Dy  Dy5  1  0.333333  0.666667  0.750000  1
  Cu  Cu6  1  0.333333  0.666667  0.250000  1
  Cu  Cu7  1  0.666667  0.333333  0.750000  1
  Rh  Rh8  1  0.168487  0.831513  0.374701  1
  Rh  Rh9  1  0.168487  0.336973  0.374701  1
  Rh  Rh10  1  0.663027  0.831513  0.374701  1
  Rh  Rh11  1  0.831476  0.168524  0.625776  1
  Rh  Rh12  1  0.831476  0.662953  0.625776  1
  Rh  Rh13  1  0.337047  0.168524  0.625776  1
  Rh  Rh14  1  0.831476  0.168524  0.874224  1
  Rh  Rh15  1  0.831476  0.662953  0.874224  1
  Rh  Rh16  1  0.337047  0.168524  0.874224  1
  Rh  Rh17  1  0.168487  0.831513  0.125299  1
  Rh  Rh18  1  0.168487  0.336973  0.125299  1
  Rh  Rh19  1  0.663027  0.831513  0.125299  1
  Rh  Rh20  1  0.000000  0.000000  0.250000  1
  Rh  Rh21  1  0.000000  0.000000  0.750000  1
  Rh  Rh22  1  0.000000  0.000000  0.500161  1
  Rh  Rh23  1  0.000000  0.000000  0.999839  1
