# generated using pymatgen
data_YbDyTm2(SiPt2)4
_symmetry_space_group_name_H-M   'P 1'
_cell_length_a   5.51771675
_cell_length_b   6.95435800
_cell_length_c   7.28062627
_cell_angle_alpha   90.00000000
_cell_angle_beta   89.93869121
_cell_angle_gamma   90.00000000
_symmetry_Int_Tables_number   1
_chemical_formula_structural   YbDyTm2(SiPt2)4
_chemical_formula_sum   'Yb1 Dy1 Tm2 Si4 Pt8'
_cell_volume   279.37332455
_cell_formula_units_Z   1
loop_
 _symmetry_equiv_pos_site_id
 _symmetry_equiv_pos_as_xyz
  1  'x, y, z'
loop_
 _atom_site_type_symbol
 _atom_site_label
 _atom_site_symmetry_multiplicity
 _atom_site_fract_x
 _atom_site_fract_y
 _atom_site_fract_z
 _atom_site_occupancy
  Yb  Yb0  1  0.364447  0.750000  0.024116  1
  Dy  Dy1  1  0.635010  0.250000  0.974673  1
  Tm  Tm2  1  0.136811  0.750000  0.525119  1
  Tm  Tm3  1  0.864198  0.250000  0.475592  1
  Si  Si4  1  0.635901  0.750000  0.379044  1
  Si  Si5  1  0.865447  0.750000  0.880864  1
  Si  Si6  1  0.364329  0.250000  0.619909  1
  Si  Si7  1  0.134784  0.250000  0.120726  1
  Pt  Pt8  1  0.908087  0.550043  0.182221  1
  Pt  Pt9  1  0.595779  0.949124  0.679457  1
  Pt  Pt10  1  0.089634  0.050213  0.815804  1
  Pt  Pt11  1  0.406038  0.448940  0.322496  1
  Pt  Pt12  1  0.089634  0.449787  0.815804  1
  Pt  Pt13  1  0.406038  0.051060  0.322496  1
  Pt  Pt14  1  0.908087  0.949957  0.182221  1
  Pt  Pt15  1  0.595779  0.550876  0.679457  1
