# generated using pymatgen
data_Yb9Ce(Sn3H)2
_symmetry_space_group_name_H-M   'P 1'
_cell_length_a   9.36598548
_cell_length_b   9.36598505
_cell_length_c   9.35841919
_cell_angle_alpha   128.40990167
_cell_angle_beta   128.40990178
_cell_angle_gamma   75.92465166
_symmetry_Int_Tables_number   1
_chemical_formula_structural   Yb9Ce(Sn3H)2
_chemical_formula_sum   'Yb9 Ce1 Sn6 H2'
_cell_volume   490.24012160
_cell_formula_units_Z   1
loop_
 _symmetry_equiv_pos_site_id
 _symmetry_equiv_pos_as_xyz
  1  'x, y, z'
loop_
 _atom_site_type_symbol
 _atom_site_label
 _atom_site_symmetry_multiplicity
 _atom_site_fract_x
 _atom_site_fract_y
 _atom_site_fract_z
 _atom_site_occupancy
  Yb  Yb0  1  0.498837  0.503875  0.000545  1
  Yb  Yb1  1  0.003875  0.998837  0.000545  1
  Yb  Yb2  1  0.184091  0.684091  0.171331  1
  Yb  Yb3  1  0.009772  0.187946  0.501499  1
  Yb  Yb4  1  0.687946  0.509772  0.501499  1
  Yb  Yb5  1  0.489511  0.989511  0.178790  1
  Yb  Yb6  1  0.812990  0.312990  0.823352  1
  Yb  Yb7  1  0.987178  0.810460  0.496011  1
  Yb  Yb8  1  0.310460  0.487178  0.496011  1
  Ce  Ce9  1  0.517635  0.017635  0.834608  1
  Sn  Sn10  1  0.254558  0.246173  0.993891  1
  Sn  Sn11  1  0.746173  0.754558  0.993891  1
  Sn  Sn12  1  0.868806  0.368806  0.241347  1
  Sn  Sn13  1  0.126979  0.626979  0.752976  1
  Sn  Sn14  1  0.372108  0.126934  0.505007  1
  Sn  Sn15  1  0.626934  0.872108  0.505007  1
  H  H16  1  0.252473  0.752473  0.502326  1
  H  H17  1  0.749674  0.249674  0.501365  1
