# generated using pymatgen
data_Ho4AlTc7
_symmetry_space_group_name_H-M   'P 1'
_cell_length_a   5.31619100
_cell_length_b   5.31619035
_cell_length_c   9.00688200
_cell_angle_alpha   90.00000000
_cell_angle_beta   90.00000000
_cell_angle_gamma   119.99999780
_symmetry_Int_Tables_number   1
_chemical_formula_structural   Ho4AlTc7
_chemical_formula_sum   'Ho4 Al1 Tc7'
_cell_volume   220.44802552
_cell_formula_units_Z   1
loop_
 _symmetry_equiv_pos_site_id
 _symmetry_equiv_pos_as_xyz
  1  'x, y, z'
loop_
 _atom_site_type_symbol
 _atom_site_label
 _atom_site_symmetry_multiplicity
 _atom_site_fract_x
 _atom_site_fract_y
 _atom_site_fract_z
 _atom_site_occupancy
  Ho  Ho0  1  0.333333  0.666667  0.434553  1
  Ho  Ho1  1  0.666667  0.333333  0.565447  1
  Ho  Ho2  1  0.666667  0.333333  0.935139  1
  Ho  Ho3  1  0.333333  0.666667  0.064861  1
  Al  Al4  1  0.000000  0.000000  0.500000  1
  Tc  Tc5  1  0.000000  0.000000  0.000000  1
  Tc  Tc6  1  0.829921  0.170079  0.250010  1
  Tc  Tc7  1  0.829921  0.659842  0.250010  1
  Tc  Tc8  1  0.340158  0.170079  0.250010  1
  Tc  Tc9  1  0.170079  0.829921  0.749990  1
  Tc  Tc10  1  0.170079  0.340158  0.749990  1
  Tc  Tc11  1  0.659842  0.829921  0.749990  1
