# generated using pymatgen
data_Li2Pr8Si12OsRh
_symmetry_space_group_name_H-M   'P 1'
_cell_length_a   8.29909800
_cell_length_b   8.29909876
_cell_length_c   8.53915900
_cell_angle_alpha   90.00000000
_cell_angle_beta   90.00000000
_cell_angle_gamma   120.00000493
_symmetry_Int_Tables_number   1
_chemical_formula_structural   Li2Pr8Si12OsRh
_chemical_formula_sum   'Li2 Pr8 Si12 Os1 Rh1'
_cell_volume   509.33970948
_cell_formula_units_Z   1
loop_
 _symmetry_equiv_pos_site_id
 _symmetry_equiv_pos_as_xyz
  1  'x, y, z'
loop_
 _atom_site_type_symbol
 _atom_site_label
 _atom_site_symmetry_multiplicity
 _atom_site_fract_x
 _atom_site_fract_y
 _atom_site_fract_z
 _atom_site_occupancy
  Li  Li0  1  0.666667  0.333333  0.995135  1
  Li  Li1  1  0.333333  0.666667  0.004600  1
  Pr  Pr2  1  0.500778  0.499222  0.740637  1
  Pr  Pr3  1  0.502572  0.497428  0.259256  1
  Pr  Pr4  1  0.998445  0.499222  0.740637  1
  Pr  Pr5  1  0.994857  0.497428  0.259256  1
  Pr  Pr6  1  0.500778  0.001555  0.740637  1
  Pr  Pr7  1  0.502572  0.005143  0.259256  1
  Pr  Pr8  1  0.000000  0.000000  0.750953  1
  Pr  Pr9  1  0.000000  0.000000  0.249221  1
  Si  Si10  1  0.835141  0.164859  0.001356  1
  Si  Si11  1  0.164675  0.835325  0.998699  1
  Si  Si12  1  0.329718  0.164859  0.001356  1
  Si  Si13  1  0.166449  0.833551  0.499688  1
  Si  Si14  1  0.670650  0.835325  0.998699  1
  Si  Si15  1  0.833554  0.166446  0.500264  1
  Si  Si16  1  0.835141  0.670282  0.001356  1
  Si  Si17  1  0.667103  0.833551  0.499688  1
  Si  Si18  1  0.164675  0.329350  0.998699  1
  Si  Si19  1  0.332893  0.166446  0.500264  1
  Si  Si20  1  0.166449  0.332897  0.499688  1
  Si  Si21  1  0.833554  0.667107  0.500264  1
  Os  Os22  1  0.666667  0.333333  0.502705  1
  Rh  Rh23  1  0.333333  0.666667  0.497692  1
