# generated using pymatgen
data_SrYb4(TcN3)2
_symmetry_space_group_name_H-M   'P 1'
_cell_length_a   6.07168625
_cell_length_b   6.71427525
_cell_length_c   11.95861315
_cell_angle_alpha   89.99999992
_cell_angle_beta   103.68841497
_cell_angle_gamma   123.56734976
_symmetry_Int_Tables_number   1
_chemical_formula_structural   SrYb4(TcN3)2
_chemical_formula_sum   'Sr2 Yb8 Tc4 N12'
_cell_volume   389.48986203
_cell_formula_units_Z   2
loop_
 _symmetry_equiv_pos_site_id
 _symmetry_equiv_pos_as_xyz
  1  'x, y, z'
loop_
 _atom_site_type_symbol
 _atom_site_label
 _atom_site_symmetry_multiplicity
 _atom_site_fract_x
 _atom_site_fract_y
 _atom_site_fract_z
 _atom_site_occupancy
  Sr  Sr0  1  0.000000  0.391100  0.750000  1
  Sr  Sr1  1  0.000000  0.608900  0.250000  1
  Yb  Yb2  1  0.115193  0.806567  0.001207  1
  Yb  Yb3  1  0.884807  0.691373  0.498793  1
  Yb  Yb4  1  0.884807  0.193433  0.998793  1
  Yb  Yb5  1  0.115193  0.308627  0.501207  1
  Yb  Yb6  1  0.328691  0.047578  0.731365  1
  Yb  Yb7  1  0.671309  0.718889  0.768635  1
  Yb  Yb8  1  0.671309  0.952422  0.268635  1
  Yb  Yb9  1  0.328691  0.281111  0.231365  1
  Tc  Tc10  1  0.523610  0.846317  0.529861  1
  Tc  Tc11  1  0.476390  0.322707  0.970139  1
  Tc  Tc12  1  0.476390  0.153683  0.470139  1
  Tc  Tc13  1  0.523610  0.677293  0.029861  1
  N  N14  1  0.892664  0.983384  0.619697  1
  N  N15  1  0.107336  0.090722  0.880303  1
  N  N16  1  0.107336  0.016616  0.380303  1
  N  N17  1  0.892664  0.909278  0.119697  1
  N  N18  1  0.275669  0.683912  0.621430  1
  N  N19  1  0.724331  0.408243  0.878570  1
  N  N20  1  0.724331  0.316088  0.378570  1
  N  N21  1  0.275669  0.591757  0.121430  1
  N  N22  1  0.557964  0.353876  0.604763  1
  N  N23  1  0.442036  0.795912  0.895237  1
  N  N24  1  0.442036  0.646124  0.395237  1
  N  N25  1  0.557964  0.204088  0.104763  1
