# generated using pymatgen
data_Tb3Mg3(Ni7B2)2
_symmetry_space_group_name_H-M   'P 1'
_cell_length_a   4.99109800
_cell_length_b   4.99109879
_cell_length_c   14.05992000
_cell_angle_alpha   90.00000000
_cell_angle_beta   90.00000000
_cell_angle_gamma   120.00000799
_symmetry_Int_Tables_number   1
_chemical_formula_structural   Tb3Mg3(Ni7B2)2
_chemical_formula_sum   'Tb3 Mg3 Ni14 B4'
_cell_volume   303.32325651
_cell_formula_units_Z   1
loop_
 _symmetry_equiv_pos_site_id
 _symmetry_equiv_pos_as_xyz
  1  'x, y, z'
loop_
 _atom_site_type_symbol
 _atom_site_label
 _atom_site_symmetry_multiplicity
 _atom_site_fract_x
 _atom_site_fract_y
 _atom_site_fract_z
 _atom_site_occupancy
  Tb  Tb0  1  0.333333  0.666667  0.030767  1
  Tb  Tb1  1  0.666667  0.333333  0.747475  1
  Tb  Tb2  1  0.333333  0.666667  0.258694  1
  Mg  Mg3  1  0.333333  0.666667  0.476333  1
  Mg  Mg4  1  0.666667  0.333333  0.963748  1
  Mg  Mg5  1  0.666667  0.333333  0.525407  1
  Ni  Ni6  1  0.833489  0.166511  0.356152  1
  Ni  Ni7  1  0.833489  0.666978  0.356152  1
  Ni  Ni8  1  0.000000  0.000000  0.998442  1
  Ni  Ni9  1  0.000000  0.000000  0.500067  1
  Ni  Ni10  1  0.833369  0.666736  0.148093  1
  Ni  Ni11  1  0.166068  0.833932  0.644808  1
  Ni  Ni12  1  0.667865  0.833932  0.644808  1
  Ni  Ni13  1  0.333264  0.166631  0.148093  1
  Ni  Ni14  1  0.833369  0.166631  0.148093  1
  Ni  Ni15  1  0.165580  0.331160  0.851398  1
  Ni  Ni16  1  0.165580  0.834420  0.851398  1
  Ni  Ni17  1  0.166068  0.332135  0.644808  1
  Ni  Ni18  1  0.668840  0.834420  0.851398  1
  Ni  Ni19  1  0.333022  0.166511  0.356152  1
  B  B20  1  0.666667  0.333333  0.251383  1
  B  B21  1  0.333333  0.666667  0.748715  1
  B  B22  1  0.000000  0.000000  0.746585  1
  B  B23  1  0.000000  0.000000  0.251029  1
