# generated using pymatgen
data_Pr3Nd5CdHgIr2
_symmetry_space_group_name_H-M   'P 1'
_cell_length_a   9.96894887
_cell_length_b   9.96894928
_cell_length_c   9.97816900
_cell_angle_alpha   59.96940502
_cell_angle_beta   59.96940366
_cell_angle_gamma   60.04321675
_symmetry_Int_Tables_number   1
_chemical_formula_structural   Pr3Nd5CdHgIr2
_chemical_formula_sum   'Pr6 Nd10 Cd2 Hg2 Ir4'
_cell_volume   701.09219072
_cell_formula_units_Z   2
loop_
 _symmetry_equiv_pos_site_id
 _symmetry_equiv_pos_as_xyz
  1  'x, y, z'
loop_
 _atom_site_type_symbol
 _atom_site_label
 _atom_site_symmetry_multiplicity
 _atom_site_fract_x
 _atom_site_fract_y
 _atom_site_fract_z
 _atom_site_occupancy
  Pr  Pr0  1  0.939784  0.559479  0.560509  1
  Pr  Pr1  1  0.559479  0.939784  0.940228  1
  Pr  Pr2  1  0.559479  0.939784  0.560509  1
  Pr  Pr3  1  0.939784  0.559479  0.940228  1
  Pr  Pr4  1  0.560247  0.560247  0.939753  1
  Pr  Pr5  1  0.940171  0.940171  0.559829  1
  Nd  Nd6  1  0.348815  0.348815  0.348134  1
  Nd  Nd7  1  0.348815  0.348815  0.954234  1
  Nd  Nd8  1  0.349964  0.951072  0.349482  1
  Nd  Nd9  1  0.951072  0.349964  0.349482  1
  Nd  Nd10  1  0.809132  0.189569  0.191615  1
  Nd  Nd11  1  0.189569  0.809132  0.809684  1
  Nd  Nd12  1  0.189569  0.809132  0.191615  1
  Nd  Nd13  1  0.809132  0.189569  0.809684  1
  Nd  Nd14  1  0.189501  0.189501  0.810499  1
  Nd  Nd15  1  0.808211  0.808211  0.191789  1
  Cd  Cd16  1  0.579290  0.260185  0.580261  1
  Cd  Cd17  1  0.260185  0.579290  0.580261  1
  Hg  Hg18  1  0.582510  0.582510  0.584226  1
  Hg  Hg19  1  0.582510  0.582510  0.250752  1
  Ir  Ir20  1  0.142390  0.142390  0.140544  1
  Ir  Ir21  1  0.142390  0.142390  0.574677  1
  Ir  Ir22  1  0.142870  0.575128  0.141002  1
  Ir  Ir23  1  0.575128  0.142870  0.141002  1
