# generated using pymatgen
data_U2BeB7Ru8
_symmetry_space_group_name_H-M   'P 1'
_cell_length_a   9.27164194
_cell_length_b   7.49372311
_cell_length_c   7.50019050
_cell_angle_alpha   89.75752895
_cell_angle_beta   114.37050297
_cell_angle_gamma   113.55733322
_symmetry_Int_Tables_number   1
_chemical_formula_structural   U2BeB7Ru8
_chemical_formula_sum   'U4 Be2 B14 Ru16'
_cell_volume   426.98208504
_cell_formula_units_Z   2
loop_
 _symmetry_equiv_pos_site_id
 _symmetry_equiv_pos_as_xyz
  1  'x, y, z'
loop_
 _atom_site_type_symbol
 _atom_site_label
 _atom_site_symmetry_multiplicity
 _atom_site_fract_x
 _atom_site_fract_y
 _atom_site_fract_z
 _atom_site_occupancy
  U  U0  1  0.745374  0.873245  0.120273  1
  U  U1  1  0.246746  0.626435  0.374325  1
  U  U2  1  0.753821  0.383251  0.633884  1
  U  U3  1  0.251452  0.117950  0.871833  1
  Be  Be4  1  0.919323  0.634580  0.081555  1
  Be  Be5  1  0.415977  0.836371  0.132420  1
  B  B6  1  0.108244  0.889148  0.138341  1
  B  B7  1  0.580511  0.427919  0.213720  1
  B  B8  1  0.414759  0.355221  0.293058  1
  B  B9  1  0.917254  0.289813  0.347225  1
  B  B10  1  0.597103  0.957016  0.390981  1
  B  B11  1  0.082760  0.208257  0.426547  1
  B  B12  1  0.912709  0.788415  0.563304  1
  B  B13  1  0.414002  0.068878  0.630706  1
  B  B14  1  0.083029  0.709733  0.645564  1
  B  B15  1  0.589314  0.652620  0.716017  1
  B  B16  1  0.417339  0.567220  0.789426  1
  B  B17  1  0.915409  0.127805  0.847802  1
  B  B18  1  0.581623  0.145592  0.878179  1
  B  B19  1  0.079704  0.371191  0.929267  1
  Ru  Ru20  1  0.867905  0.312092  0.032977  1
  Ru  Ru21  1  0.364200  0.516868  0.042419  1
  Ru  Ru22  1  0.129908  0.179336  0.158659  1
  Ru  Ru23  1  0.631073  0.161554  0.183099  1
  Ru  Ru24  1  0.386381  0.051436  0.336331  1
  Ru  Ru25  1  0.866276  0.543596  0.347271  1
  Ru  Ru26  1  0.620695  0.668240  0.445855  1
  Ru  Ru27  1  0.122015  0.942728  0.451017  1
  Ru  Ru28  1  0.875996  0.051941  0.534987  1
  Ru  Ru29  1  0.368882  0.339007  0.551429  1
  Ru  Ru30  1  0.127239  0.446313  0.655917  1
  Ru  Ru31  1  0.630824  0.969462  0.685084  1
  Ru  Ru32  1  0.369290  0.832960  0.813269  1
  Ru  Ru33  1  0.875506  0.827216  0.835091  1
  Ru  Ru34  1  0.618541  0.457710  0.950301  1
  Ru  Ru35  1  0.118812  0.668878  0.951868  1
