# generated using pymatgen
data_Tb3Yb2Dy(MnC3)4
_symmetry_space_group_name_H-M   'P 1'
_cell_length_a   8.09371214
_cell_length_b   8.06536471
_cell_length_c   4.98756900
_cell_angle_alpha   90.00000000
_cell_angle_beta   90.00000000
_cell_angle_gamma   120.06297605
_symmetry_Int_Tables_number   1
_chemical_formula_structural   Tb3Yb2Dy(MnC3)4
_chemical_formula_sum   'Tb3 Yb2 Dy1 Mn4 C12'
_cell_volume   281.78337440
_cell_formula_units_Z   1
loop_
 _symmetry_equiv_pos_site_id
 _symmetry_equiv_pos_as_xyz
  1  'x, y, z'
loop_
 _atom_site_type_symbol
 _atom_site_label
 _atom_site_symmetry_multiplicity
 _atom_site_fract_x
 _atom_site_fract_y
 _atom_site_fract_z
 _atom_site_occupancy
  Tb  Tb0  1  0.310642  0.931353  0.750000  1
  Tb  Tb1  1  0.066863  0.383190  0.750000  1
  Tb  Tb2  1  0.381317  0.315105  0.250000  1
  Yb  Yb3  1  0.613097  0.683027  0.750000  1
  Yb  Yb4  1  0.928024  0.614152  0.250000  1
  Dy  Dy5  1  0.686747  0.067902  0.250000  1
  Mn  Mn6  1  0.996938  0.996273  0.500216  1
  Mn  Mn7  1  0.996938  0.996273  0.999784  1
  Mn  Mn8  1  0.666860  0.329613  0.750000  1
  Mn  Mn9  1  0.337476  0.668747  0.250000  1
  C  C10  1  0.956884  0.771500  0.750000  1
  C  C11  1  0.188780  0.961012  0.250000  1
  C  C12  1  0.777430  0.820352  0.250000  1
  C  C13  1  0.229954  0.194234  0.750000  1
  C  C14  1  0.818035  0.039392  0.750000  1
  C  C15  1  0.035366  0.229641  0.250000  1
  C  C16  1  0.857634  0.577175  0.750000  1
  C  C17  1  0.281978  0.860046  0.250000  1
  C  C18  1  0.583639  0.720126  0.250000  1
  C  C19  1  0.424499  0.282646  0.750000  1
  C  C20  1  0.143041  0.424815  0.250000  1
  C  C21  1  0.717855  0.133426  0.750000  1
