# generated using pymatgen
data_NaCeAl20Ru3Rh
_symmetry_space_group_name_H-M   'P 1'
_cell_length_a   6.87597176
_cell_length_b   6.87268611
_cell_length_c   9.16033606
_cell_angle_alpha   90.09378850
_cell_angle_beta   90.23827283
_cell_angle_gamma   96.86172623
_symmetry_Int_Tables_number   1
_chemical_formula_structural   NaCeAl20Ru3Rh
_chemical_formula_sum   'Na1 Ce1 Al20 Ru3 Rh1'
_cell_volume   429.77916554
_cell_formula_units_Z   1
loop_
 _symmetry_equiv_pos_site_id
 _symmetry_equiv_pos_as_xyz
  1  'x, y, z'
loop_
 _atom_site_type_symbol
 _atom_site_label
 _atom_site_symmetry_multiplicity
 _atom_site_fract_x
 _atom_site_fract_y
 _atom_site_fract_z
 _atom_site_occupancy
  Na  Na0  1  0.874814  0.126426  0.749356  1
  Ce  Ce1  1  0.119823  0.876555  0.250127  1
  Al  Al2  1  0.588785  0.861312  0.250607  1
  Al  Al3  1  0.777631  0.519380  0.249597  1
  Al  Al4  1  0.159886  0.838861  0.896663  1
  Al  Al5  1  0.415342  0.141443  0.748815  1
  Al  Al6  1  0.625021  0.378568  0.956173  1
  Al  Al7  1  0.844903  0.154787  0.402551  1
  Al  Al8  1  0.773708  0.776115  0.998860  1
  Al  Al9  1  0.859565  0.584236  0.749446  1
  Al  Al10  1  0.845783  0.156441  0.099406  1
  Al  Al11  1  0.219028  0.473696  0.750818  1
  Al  Al12  1  0.161847  0.839679  0.602383  1
  Al  Al13  1  0.773945  0.777358  0.501661  1
  Al  Al14  1  0.479638  0.222984  0.252580  1
  Al  Al15  1  0.625045  0.375881  0.543119  1
  Al  Al16  1  0.222440  0.227125  0.502792  1
  Al  Al17  1  0.377876  0.621993  0.446749  1
  Al  Al18  1  0.137750  0.409582  0.250230  1
  Al  Al19  1  0.526509  0.778799  0.747479  1
  Al  Al20  1  0.377076  0.620236  0.055112  1
  Al  Al21  1  0.221472  0.227134  0.996575  1
  Ru  Ru22  1  0.495737  0.000266  0.499000  1
  Ru  Ru23  1  0.000398  0.504626  0.000511  1
  Ru  Ru24  1  0.000477  0.505353  0.498756  1
  Rh  Rh25  1  0.495500  0.001163  0.000635  1
