# generated using pymatgen
data_Ac11SmGa12
_symmetry_space_group_name_H-M   'P 1'
_cell_length_a   4.28698700
_cell_length_b   14.20138497
_cell_length_c   11.99521584
_cell_angle_alpha   89.95733787
_cell_angle_beta   90.00000000
_cell_angle_gamma   90.00000000
_symmetry_Int_Tables_number   1
_chemical_formula_structural   Ac11SmGa12
_chemical_formula_sum   'Ac11 Sm1 Ga12'
_cell_volume   730.28236557
_cell_formula_units_Z   1
loop_
 _symmetry_equiv_pos_site_id
 _symmetry_equiv_pos_as_xyz
  1  'x, y, z'
loop_
 _atom_site_type_symbol
 _atom_site_label
 _atom_site_symmetry_multiplicity
 _atom_site_fract_x
 _atom_site_fract_y
 _atom_site_fract_z
 _atom_site_occupancy
  Ac  Ac0  1  0.250000  0.663646  0.854547  1
  Ac  Ac1  1  0.250000  0.830469  0.358400  1
  Ac  Ac2  1  0.750000  0.333700  0.142315  1
  Ac  Ac3  1  0.750000  0.167625  0.642682  1
  Ac  Ac4  1  0.250000  0.335727  0.855917  1
  Ac  Ac5  1  0.250000  0.170035  0.359437  1
  Ac  Ac6  1  0.750000  0.666469  0.141195  1
  Ac  Ac7  1  0.750000  0.832262  0.641658  1
  Ac  Ac8  1  0.250000  0.000244  0.858914  1
  Ac  Ac9  1  0.250000  0.499843  0.357443  1
  Ac  Ac10  1  0.750000  0.999521  0.143386  1
  Sm  Sm11  1  0.750000  0.500337  0.630609  1
  Ga  Ga12  1  0.250000  0.342518  0.573013  1
  Ga  Ga13  1  0.250000  0.166691  0.066387  1
  Ga  Ga14  1  0.750000  0.663273  0.439237  1
  Ga  Ga15  1  0.750000  0.831711  0.932276  1
  Ga  Ga16  1  0.250000  0.657950  0.571030  1
  Ga  Ga17  1  0.250000  0.832788  0.064071  1
  Ga  Ga18  1  0.750000  0.336980  0.441278  1
  Ga  Ga19  1  0.750000  0.168052  0.934628  1
  Ga  Ga20  1  0.250000  0.000051  0.564774  1
  Ga  Ga21  1  0.250000  0.500044  0.062953  1
  Ga  Ga22  1  0.750000  0.000225  0.433461  1
  Ga  Ga23  1  0.750000  0.499844  0.930390  1
