# generated using pymatgen
data_Sr4Tc(N2Cl)2
_symmetry_space_group_name_H-M   'P 1'
_cell_length_a   5.90342500
_cell_length_b   8.06155335
_cell_length_c   10.35244834
_cell_angle_alpha   81.52949180
_cell_angle_beta   90.00000000
_cell_angle_gamma   90.00000000
_symmetry_Int_Tables_number   1
_chemical_formula_structural   Sr4Tc(N2Cl)2
_chemical_formula_sum   'Sr8 Tc2 N8 Cl4'
_cell_volume   487.30678888
_cell_formula_units_Z   2
loop_
 _symmetry_equiv_pos_site_id
 _symmetry_equiv_pos_as_xyz
  1  'x, y, z'
loop_
 _atom_site_type_symbol
 _atom_site_label
 _atom_site_symmetry_multiplicity
 _atom_site_fract_x
 _atom_site_fract_y
 _atom_site_fract_z
 _atom_site_occupancy
  Sr  Sr0  1  0.750000  0.286023  0.296176  1
  Sr  Sr1  1  0.750000  0.002089  0.624499  1
  Sr  Sr2  1  0.750000  0.448774  0.620387  1
  Sr  Sr3  1  0.750000  0.816549  0.086101  1
  Sr  Sr4  1  0.250000  0.997911  0.375501  1
  Sr  Sr5  1  0.250000  0.551226  0.379613  1
  Sr  Sr6  1  0.250000  0.183451  0.913899  1
  Sr  Sr7  1  0.250000  0.713977  0.703824  1
  Tc  Tc8  1  0.750000  0.771983  0.391868  1
  Tc  Tc9  1  0.250000  0.228017  0.608132  1
  N  N10  1  0.250000  0.026076  0.719211  1
  N  N11  1  0.999617  0.246793  0.497029  1
  N  N12  1  0.499617  0.753207  0.502971  1
  N  N13  1  0.000383  0.753207  0.502971  1
  N  N14  1  0.750000  0.602326  0.287958  1
  N  N15  1  0.750000  0.973924  0.280789  1
  N  N16  1  0.500383  0.246793  0.497029  1
  N  N17  1  0.250000  0.397674  0.712042  1
  Cl  Cl18  1  0.250000  0.319547  0.167824  1
  Cl  Cl19  1  0.750000  0.680453  0.832176  1
  Cl  Cl20  1  0.250000  0.843762  0.098713  1
  Cl  Cl21  1  0.750000  0.156238  0.901287  1
