# generated using pymatgen
data_Mn3Ni(SeO4)6
_symmetry_space_group_name_H-M   'P 1'
_cell_length_a   9.31532932
_cell_length_b   9.31532838
_cell_length_c   9.31532900
_cell_angle_alpha   55.04773230
_cell_angle_beta   55.04773632
_cell_angle_gamma   55.04774010
_symmetry_Int_Tables_number   1
_chemical_formula_structural   Mn3Ni(SeO4)6
_chemical_formula_sum   'Mn3 Ni1 Se6 O24'
_cell_volume   505.73598467
_cell_formula_units_Z   1
loop_
 _symmetry_equiv_pos_site_id
 _symmetry_equiv_pos_as_xyz
  1  'x, y, z'
loop_
 _atom_site_type_symbol
 _atom_site_label
 _atom_site_symmetry_multiplicity
 _atom_site_fract_x
 _atom_site_fract_y
 _atom_site_fract_z
 _atom_site_occupancy
  Mn  Mn0  1  0.844880  0.844880  0.844880  1
  Mn  Mn1  1  0.358803  0.358803  0.358803  1
  Mn  Mn2  1  0.154907  0.154907  0.154907  1
  Ni  Ni3  1  0.643055  0.643055  0.643055  1
  Se  Se4  1  0.542986  0.959030  0.241717  1
  Se  Se5  1  0.763213  0.455895  0.036790  1
  Se  Se6  1  0.036790  0.763213  0.455895  1
  Se  Se7  1  0.959030  0.241717  0.542986  1
  Se  Se8  1  0.241717  0.542986  0.959030  1
  Se  Se9  1  0.455895  0.036790  0.763213  1
  O  O10  1  0.679131  0.990431  0.011690  1
  O  O11  1  0.320938  0.983415  0.293758  1
  O  O12  1  0.708903  0.675954  0.016668  1
  O  O13  1  0.001112  0.994807  0.320973  1
  O  O14  1  0.267230  0.530376  0.127401  1
  O  O15  1  0.624149  0.744649  0.384672  1
  O  O16  1  0.994807  0.320973  0.001112  1
  O  O17  1  0.254130  0.627923  0.369197  1
  O  O18  1  0.875186  0.726347  0.469689  1
  O  O19  1  0.469689  0.875186  0.726347  1
  O  O20  1  0.627923  0.369197  0.254130  1
  O  O21  1  0.016668  0.708903  0.675954  1
  O  O22  1  0.983415  0.293758  0.320938  1
  O  O23  1  0.384672  0.624149  0.744649  1
  O  O24  1  0.530376  0.127401  0.267230  1
  O  O25  1  0.127401  0.267230  0.530376  1
  O  O26  1  0.744649  0.384672  0.624149  1
  O  O27  1  0.011690  0.679131  0.990431  1
  O  O28  1  0.369197  0.254130  0.627923  1
  O  O29  1  0.726347  0.469689  0.875186  1
  O  O30  1  0.990431  0.011690  0.679131  1
  O  O31  1  0.293758  0.320938  0.983415  1
  O  O32  1  0.675954  0.016668  0.708903  1
  O  O33  1  0.320973  0.001112  0.994807  1
