# generated using pymatgen
data_Nd9EuC4Cl15
_symmetry_space_group_name_H-M   'P 1'
_cell_length_a   8.89657352
_cell_length_b   10.21746063
_cell_length_c   10.77162033
_cell_angle_alpha   69.88285652
_cell_angle_beta   66.56463280
_cell_angle_gamma   70.08803927
_symmetry_Int_Tables_number   1
_chemical_formula_structural   Nd9EuC4Cl15
_chemical_formula_sum   'Nd9 Eu1 C4 Cl15'
_cell_volume   819.62702506
_cell_formula_units_Z   1
loop_
 _symmetry_equiv_pos_site_id
 _symmetry_equiv_pos_as_xyz
  1  'x, y, z'
loop_
 _atom_site_type_symbol
 _atom_site_label
 _atom_site_symmetry_multiplicity
 _atom_site_fract_x
 _atom_site_fract_y
 _atom_site_fract_z
 _atom_site_occupancy
  Nd  Nd0  1  0.657263  0.255440  0.172758  1
  Nd  Nd1  1  0.172852  0.429807  0.045294  1
  Nd  Nd2  1  0.821756  0.570191  0.954859  1
  Nd  Nd3  1  0.085597  0.190232  0.877912  1
  Nd  Nd4  1  0.912836  0.807358  0.122648  1
  Nd  Nd5  1  0.243635  0.550205  0.633417  1
  Nd  Nd6  1  0.751931  0.448883  0.368601  1
  Nd  Nd7  1  0.036416  0.104075  0.266307  1
  Nd  Nd8  1  0.965701  0.894309  0.734467  1
  Eu  Eu9  1  0.357445  0.746308  0.821816  1
  C  C10  1  0.879856  0.358688  0.175433  1
  C  C11  1  0.119647  0.642226  0.824095  1
  C  C12  1  0.956806  0.296945  0.059866  1
  C  C13  1  0.043380  0.703925  0.939508  1
  Cl  Cl14  1  0.502207  0.497660  0.001859  1
  Cl  Cl15  1  0.123687  0.819255  0.471929  1
  Cl  Cl16  1  0.876809  0.180046  0.528708  1
  Cl  Cl17  1  0.238037  0.019199  0.662949  1
  Cl  Cl18  1  0.758400  0.986151  0.338003  1
  Cl  Cl19  1  0.337603  0.174711  0.214001  1
  Cl  Cl20  1  0.665681  0.830271  0.783902  1
  Cl  Cl21  1  0.457990  0.372018  0.411365  1
  Cl  Cl22  1  0.545861  0.621146  0.582382  1
  Cl  Cl23  1  0.954695  0.443672  0.703729  1
  Cl  Cl24  1  0.043051  0.553862  0.295988  1
  Cl  Cl25  1  0.200530  0.923313  0.060077  1
  Cl  Cl26  1  0.793297  0.081111  0.947095  1
  Cl  Cl27  1  0.374853  0.285189  0.810416  1
  Cl  Cl28  1  0.622177  0.713805  0.190617  1
