# generated using pymatgen
data_RbGaHgF6
_symmetry_space_group_name_H-M   'P 1'
_cell_length_a   7.46841100
_cell_length_b   7.59996800
_cell_length_c   10.55548100
_cell_angle_alpha   90.00000000
_cell_angle_beta   90.00000000
_cell_angle_gamma   90.00000000
_symmetry_Int_Tables_number   1
_chemical_formula_structural   RbGaHgF6
_chemical_formula_sum   'Rb4 Ga4 Hg4 F24'
_cell_volume   599.12577248
_cell_formula_units_Z   4
loop_
 _symmetry_equiv_pos_site_id
 _symmetry_equiv_pos_as_xyz
  1  'x, y, z'
loop_
 _atom_site_type_symbol
 _atom_site_label
 _atom_site_symmetry_multiplicity
 _atom_site_fract_x
 _atom_site_fract_y
 _atom_site_fract_z
 _atom_site_occupancy
  Rb  Rb0  1  0.033446  0.250000  0.625344  1
  Rb  Rb1  1  0.966554  0.750000  0.374656  1
  Rb  Rb2  1  0.466554  0.750000  0.125344  1
  Rb  Rb3  1  0.533446  0.250000  0.874656  1
  Ga  Ga4  1  0.000000  0.000000  0.000000  1
  Ga  Ga5  1  0.500000  0.000000  0.500000  1
  Ga  Ga6  1  0.000000  0.500000  0.000000  1
  Ga  Ga7  1  0.500000  0.500000  0.500000  1
  Hg  Hg8  1  0.202062  0.250000  0.257176  1
  Hg  Hg9  1  0.797938  0.750000  0.742824  1
  Hg  Hg10  1  0.297938  0.750000  0.757176  1
  Hg  Hg11  1  0.702062  0.250000  0.242824  1
  F  F12  1  0.271648  0.037829  0.422821  1
  F  F13  1  0.728352  0.962171  0.577179  1
  F  F14  1  0.228352  0.962171  0.922821  1
  F  F15  1  0.728352  0.537829  0.577179  1
  F  F16  1  0.771648  0.037829  0.077179  1
  F  F17  1  0.271648  0.462171  0.422821  1
  F  F18  1  0.771648  0.462171  0.077179  1
  F  F19  1  0.228352  0.537829  0.922821  1
  F  F20  1  0.561092  0.250000  0.479576  1
  F  F21  1  0.438908  0.750000  0.520424  1
  F  F22  1  0.938908  0.750000  0.979576  1
  F  F23  1  0.061092  0.250000  0.020424  1
  F  F24  1  0.107396  0.536401  0.161932  1
  F  F25  1  0.892604  0.463599  0.838068  1
  F  F26  1  0.392604  0.463599  0.661932  1
  F  F27  1  0.892604  0.036401  0.838068  1
  F  F28  1  0.607396  0.536401  0.338068  1
  F  F29  1  0.107396  0.963599  0.161932  1
  F  F30  1  0.607396  0.963599  0.338068  1
  F  F31  1  0.392604  0.036401  0.661932  1
  F  F32  1  0.442922  0.250000  0.138892  1
  F  F33  1  0.557078  0.750000  0.861108  1
  F  F34  1  0.057078  0.750000  0.638892  1
  F  F35  1  0.942922  0.250000  0.361108  1
