# generated using pymatgen
data_Pr2Sm3Er3(Si3Rh)4
_symmetry_space_group_name_H-M   'P 1'
_cell_length_a   8.22665558
_cell_length_b   8.22665632
_cell_length_c   8.10808500
_cell_angle_alpha   90.00000000
_cell_angle_beta   90.00000000
_cell_angle_gamma   119.95712365
_symmetry_Int_Tables_number   1
_chemical_formula_structural   Pr2Sm3Er3(Si3Rh)4
_chemical_formula_sum   'Pr2 Sm3 Er3 Si12 Rh4'
_cell_volume   475.42615369
_cell_formula_units_Z   1
loop_
 _symmetry_equiv_pos_site_id
 _symmetry_equiv_pos_as_xyz
  1  'x, y, z'
loop_
 _atom_site_type_symbol
 _atom_site_label
 _atom_site_symmetry_multiplicity
 _atom_site_fract_x
 _atom_site_fract_y
 _atom_site_fract_z
 _atom_site_occupancy
  Pr  Pr0  1  0.000210  0.999790  0.250000  1
  Pr  Pr1  1  0.495045  0.504955  0.250000  1
  Sm  Sm2  1  0.000018  0.999982  0.750000  1
  Sm  Sm3  1  0.495673  0.991573  0.250000  1
  Sm  Sm4  1  0.008427  0.504327  0.250000  1
  Er  Er5  1  0.507241  0.492759  0.750000  1
  Er  Er6  1  0.985443  0.492655  0.750000  1
  Er  Er7  1  0.507345  0.014557  0.750000  1
  Si  Si8  1  0.833209  0.166791  0.506737  1
  Si  Si9  1  0.833942  0.666731  0.508026  1
  Si  Si10  1  0.333269  0.166058  0.508026  1
  Si  Si11  1  0.833209  0.166791  0.993263  1
  Si  Si12  1  0.833942  0.666731  0.991974  1
  Si  Si13  1  0.333269  0.166058  0.991974  1
  Si  Si14  1  0.168522  0.831478  0.995815  1
  Si  Si15  1  0.663747  0.832578  0.993687  1
  Si  Si16  1  0.167422  0.336253  0.993687  1
  Si  Si17  1  0.168522  0.831478  0.504185  1
  Si  Si18  1  0.663747  0.832578  0.506313  1
  Si  Si19  1  0.167422  0.336253  0.506313  1
  Rh  Rh20  1  0.667005  0.332995  0.494144  1
  Rh  Rh21  1  0.667005  0.332995  0.005856  1
  Rh  Rh22  1  0.333182  0.666818  0.955376  1
  Rh  Rh23  1  0.333182  0.666818  0.544624  1
