# generated using pymatgen
data_Th2NiB8Ir
_symmetry_space_group_name_H-M   'P 1'
_cell_length_a   7.04029545
_cell_length_b   7.04029517
_cell_length_c   7.04029564
_cell_angle_alpha   111.53870224
_cell_angle_beta   113.07999410
_cell_angle_gamma   103.93697775
_symmetry_Int_Tables_number   1
_chemical_formula_structural   Th2NiB8Ir
_chemical_formula_sum   'Th4 Ni2 B16 Ir2'
_cell_volume   266.71881472
_cell_formula_units_Z   2
loop_
 _symmetry_equiv_pos_site_id
 _symmetry_equiv_pos_as_xyz
  1  'x, y, z'
loop_
 _atom_site_type_symbol
 _atom_site_label
 _atom_site_symmetry_multiplicity
 _atom_site_fract_x
 _atom_site_fract_y
 _atom_site_fract_z
 _atom_site_occupancy
  Th  Th0  1  0.792897  0.792897  0.000000  1
  Th  Th1  1  0.207103  0.207103  0.000000  1
  Th  Th2  1  0.752134  0.252134  0.500000  1
  Th  Th3  1  0.247866  0.747866  0.500000  1
  Ni  Ni4  1  0.500000  0.740833  0.240833  1
  Ni  Ni5  1  0.500000  0.259167  0.759167  1
  B  B6  1  0.270854  0.108803  0.379658  1
  B  B7  1  0.729146  0.891197  0.620342  1
  B  B8  1  0.270854  0.891197  0.162050  1
  B  B9  1  0.729146  0.108803  0.837950  1
  B  B10  1  0.110837  0.731910  0.842748  1
  B  B11  1  0.889163  0.268090  0.157252  1
  B  B12  1  0.110837  0.268090  0.378927  1
  B  B13  1  0.889163  0.731910  0.621073  1
  B  B14  1  0.114954  0.110076  0.528971  1
  B  B15  1  0.581105  0.585983  0.471029  1
  B  B16  1  0.114954  0.585983  0.004878  1
  B  B17  1  0.581105  0.110076  0.995122  1
  B  B18  1  0.885046  0.889924  0.471029  1
  B  B19  1  0.418895  0.414017  0.528971  1
  B  B20  1  0.885047  0.414017  0.995122  1
  B  B21  1  0.418895  0.889925  0.004878  1
  Ir  Ir22  1  0.275004  0.500000  0.775004  1
  Ir  Ir23  1  0.724996  0.500000  0.224996  1
