# generated using pymatgen
data_Sc4Al4Ir3Pt
_symmetry_space_group_name_H-M   'P 1'
_cell_length_a   4.27476000
_cell_length_b   6.41067555
_cell_length_c   7.63561293
_cell_angle_alpha   90.08614750
_cell_angle_beta   90.00000000
_cell_angle_gamma   90.00000000
_symmetry_Int_Tables_number   1
_chemical_formula_structural   Sc4Al4Ir3Pt
_chemical_formula_sum   'Sc4 Al4 Ir3 Pt1'
_cell_volume   209.24685919
_cell_formula_units_Z   1
loop_
 _symmetry_equiv_pos_site_id
 _symmetry_equiv_pos_as_xyz
  1  'x, y, z'
loop_
 _atom_site_type_symbol
 _atom_site_label
 _atom_site_symmetry_multiplicity
 _atom_site_fract_x
 _atom_site_fract_y
 _atom_site_fract_z
 _atom_site_occupancy
  Sc  Sc0  1  0.250000  0.964512  0.319509  1
  Sc  Sc1  1  0.250000  0.474231  0.175890  1
  Sc  Sc2  1  0.750000  0.026699  0.683051  1
  Sc  Sc3  1  0.750000  0.528766  0.821876  1
  Al  Al4  1  0.250000  0.353493  0.560620  1
  Al  Al5  1  0.250000  0.852790  0.940446  1
  Al  Al6  1  0.750000  0.649703  0.441228  1
  Al  Al7  1  0.750000  0.146968  0.058516  1
  Ir  Ir8  1  0.250000  0.241603  0.880988  1
  Ir  Ir9  1  0.250000  0.742973  0.617821  1
  Ir  Ir10  1  0.750000  0.757966  0.119864  1
  Pt  Pt11  1  0.750000  0.260295  0.380190  1
