# generated using pymatgen
data_Li3Dy5P12(IrRh3)4
_symmetry_space_group_name_H-M   'P 1'
_cell_length_a   12.70195300
_cell_length_b   12.70195277
_cell_length_c   3.95938800
_cell_angle_alpha   90.00000000
_cell_angle_beta   90.00000000
_cell_angle_gamma   119.99999799
_symmetry_Int_Tables_number   1
_chemical_formula_structural   Li3Dy5P12(IrRh3)4
_chemical_formula_sum   'Li3 Dy5 P12 Ir4 Rh12'
_cell_volume   553.22232561
_cell_formula_units_Z   1
loop_
 _symmetry_equiv_pos_site_id
 _symmetry_equiv_pos_as_xyz
  1  'x, y, z'
loop_
 _atom_site_type_symbol
 _atom_site_label
 _atom_site_symmetry_multiplicity
 _atom_site_fract_x
 _atom_site_fract_y
 _atom_site_fract_z
 _atom_site_occupancy
  Li  Li0  1  0.000000  0.441984  0.500000  1
  Li  Li1  1  0.558016  0.558016  0.500000  1
  Li  Li2  1  0.441984  0.000000  0.500000  1
  Dy  Dy3  1  0.333333  0.666667  0.500000  1
  Dy  Dy4  1  0.666667  0.333333  0.500000  1
  Dy  Dy5  1  0.000000  0.808178  0.000000  1
  Dy  Dy6  1  0.191822  0.191822  0.000000  1
  Dy  Dy7  1  0.808178  0.000000  0.000000  1
  P  P8  1  0.000000  0.630804  0.500000  1
  P  P9  1  0.369196  0.369196  0.500000  1
  P  P10  1  0.630804  0.000000  0.500000  1
  P  P11  1  0.516394  0.689301  0.000000  1
  P  P12  1  0.310699  0.827093  0.000000  1
  P  P13  1  0.172907  0.483606  0.000000  1
  P  P14  1  0.483606  0.172907  0.000000  1
  P  P15  1  0.689301  0.516394  0.000000  1
  P  P16  1  0.827093  0.310699  0.000000  1
  P  P17  1  0.000000  0.180587  0.500000  1
  P  P18  1  0.819413  0.819413  0.500000  1
  P  P19  1  0.180587  0.000000  0.500000  1
  Ir  Ir20  1  0.000000  0.281115  0.000000  1
  Ir  Ir21  1  0.718885  0.718885  0.000000  1
  Ir  Ir22  1  0.281115  0.000000  0.000000  1
  Ir  Ir23  1  0.000000  0.000000  0.500000  1
  Rh  Rh24  1  0.510317  0.870290  0.000000  1
  Rh  Rh25  1  0.129710  0.640028  0.000000  1
  Rh  Rh26  1  0.359972  0.489683  0.000000  1
  Rh  Rh27  1  0.489683  0.359972  0.000000  1
  Rh  Rh28  1  0.870290  0.510317  0.000000  1
  Rh  Rh29  1  0.640028  0.129710  0.000000  1
  Rh  Rh30  1  0.623529  0.803597  0.500000  1
  Rh  Rh31  1  0.196403  0.819932  0.500000  1
  Rh  Rh32  1  0.180068  0.376471  0.500000  1
  Rh  Rh33  1  0.376471  0.180068  0.500000  1
  Rh  Rh34  1  0.803597  0.623529  0.500000  1
  Rh  Rh35  1  0.819932  0.196403  0.500000  1
