# generated using pymatgen
data_TbY9In8(IrPd)2
_symmetry_space_group_name_H-M   'P 1'
_cell_length_a   3.64750600
_cell_length_b   8.15750160
_cell_length_c   18.34650300
_cell_angle_alpha   90.17161948
_cell_angle_beta   90.00000000
_cell_angle_gamma   90.00000000
_symmetry_Int_Tables_number   1
_chemical_formula_structural   TbY9In8(IrPd)2
_chemical_formula_sum   'Tb1 Y9 In8 Ir2 Pd2'
_cell_volume   545.88923586
_cell_formula_units_Z   1
loop_
 _symmetry_equiv_pos_site_id
 _symmetry_equiv_pos_as_xyz
  1  'x, y, z'
loop_
 _atom_site_type_symbol
 _atom_site_label
 _atom_site_symmetry_multiplicity
 _atom_site_fract_x
 _atom_site_fract_y
 _atom_site_fract_z
 _atom_site_occupancy
  Tb  Tb0  1  0.500000  0.229204  0.778198  1
  Y  Y1  1  0.500000  0.770730  0.221544  1
  Y  Y2  1  0.500000  0.246138  0.280480  1
  Y  Y3  1  0.500000  0.753597  0.719490  1
  Y  Y4  1  0.500000  0.115354  0.586788  1
  Y  Y5  1  0.500000  0.884611  0.413093  1
  Y  Y6  1  0.500000  0.382552  0.084419  1
  Y  Y7  1  0.500000  0.617523  0.915661  1
  Y  Y8  1  0.500000  0.000067  0.999963  1
  Y  Y9  1  0.500000  0.499997  0.500011  1
  In  In10  1  0.000000  0.077463  0.149046  1
  In  In11  1  0.000000  0.922440  0.851005  1
  In  In12  1  0.000000  0.423540  0.650586  1
  In  In13  1  0.000000  0.576667  0.349290  1
  In  In14  1  0.000000  0.207795  0.432000  1
  In  In15  1  0.000000  0.792126  0.567945  1
  In  In16  1  0.000000  0.292840  0.932248  1
  In  In17  1  0.000000  0.707066  0.067887  1
  Ir  Ir18  1  0.000000  0.021134  0.695902  1
  Ir  Ir19  1  0.000000  0.979384  0.304436  1
  Pd  Pd20  1  0.000000  0.479520  0.196286  1
  Pd  Pd21  1  0.000000  0.520251  0.803719  1
