# generated using pymatgen
data_SmTm3(Rh2O7)2
_symmetry_space_group_name_H-M   'P 1'
_cell_length_a   7.19321258
_cell_length_b   7.21715586
_cell_length_c   7.19321400
_cell_angle_alpha   60.10968581
_cell_angle_beta   60.00000268
_cell_angle_gamma   60.10969021
_symmetry_Int_Tables_number   1
_chemical_formula_structural   SmTm3(Rh2O7)2
_chemical_formula_sum   'Sm1 Tm3 Rh4 O14'
_cell_volume   264.49350817
_cell_formula_units_Z   1
loop_
 _symmetry_equiv_pos_site_id
 _symmetry_equiv_pos_as_xyz
  1  'x, y, z'
loop_
 _atom_site_type_symbol
 _atom_site_label
 _atom_site_symmetry_multiplicity
 _atom_site_fract_x
 _atom_site_fract_y
 _atom_site_fract_z
 _atom_site_occupancy
  Sm  Sm0  1  0.125000  0.625000  0.125000  1
  Tm  Tm1  1  0.125000  0.125000  0.125000  1
  Tm  Tm2  1  0.625000  0.125000  0.125000  1
  Tm  Tm3  1  0.125000  0.125000  0.625000  1
  Rh  Rh4  1  0.625000  0.625000  0.625000  1
  Rh  Rh5  1  0.625000  0.625000  0.125000  1
  Rh  Rh6  1  0.125000  0.625000  0.625000  1
  Rh  Rh7  1  0.625000  0.125000  0.625000  1
  O  O8  1  0.253735  0.238794  0.253735  1
  O  O9  1  0.287225  0.719432  0.287225  1
  O  O10  1  0.962403  0.963894  0.536852  1
  O  O11  1  0.536852  0.963894  0.536852  1
  O  O12  1  0.706119  0.719432  0.287225  1
  O  O13  1  0.962775  0.530568  0.543881  1
  O  O14  1  0.713148  0.286106  0.713148  1
  O  O15  1  0.287597  0.286106  0.713148  1
  O  O16  1  0.713148  0.286106  0.287597  1
  O  O17  1  0.287225  0.719432  0.706119  1
  O  O18  1  0.962775  0.530568  0.962775  1
  O  O19  1  0.543881  0.530568  0.962775  1
  O  O20  1  0.996265  0.011206  0.996265  1
  O  O21  1  0.536852  0.963894  0.962403  1
