# generated using pymatgen
data_PrHo(CuSi)2
_symmetry_space_group_name_H-M   'P 1'
_cell_length_a   4.18805200
_cell_length_b   4.18805250
_cell_length_c   7.67238800
_cell_angle_alpha   90.00000000
_cell_angle_beta   90.00000000
_cell_angle_gamma   119.99999606
_symmetry_Int_Tables_number   1
_chemical_formula_structural   PrHo(CuSi)2
_chemical_formula_sum   'Pr1 Ho1 Cu2 Si2'
_cell_volume   116.54278409
_cell_formula_units_Z   1
loop_
 _symmetry_equiv_pos_site_id
 _symmetry_equiv_pos_as_xyz
  1  'x, y, z'
loop_
 _atom_site_type_symbol
 _atom_site_label
 _atom_site_symmetry_multiplicity
 _atom_site_fract_x
 _atom_site_fract_y
 _atom_site_fract_z
 _atom_site_occupancy
  Pr  Pr0  1  0.000000  0.000000  0.000000  1
  Ho  Ho1  1  0.000000  0.000000  0.500000  1
  Cu  Cu2  1  0.333333  0.666667  0.269051  1
  Cu  Cu3  1  0.666667  0.333333  0.730949  1
  Si  Si4  1  0.666667  0.333333  0.263979  1
  Si  Si5  1  0.333333  0.666667  0.736021  1
