# generated using pymatgen
data_Nd3Dy2Zr5(Si5Ir2)4
_symmetry_space_group_name_H-M   'P 1'
_cell_length_a   12.58045929
_cell_length_b   12.58028229
_cell_length_c   4.21850900
_cell_angle_alpha   90.00000000
_cell_angle_beta   90.00000000
_cell_angle_gamma   90.09466734
_symmetry_Int_Tables_number   1
_chemical_formula_structural   Nd3Dy2Zr5(Si5Ir2)4
_chemical_formula_sum   'Nd3 Dy2 Zr5 Si20 Ir8'
_cell_volume   667.64449204
_cell_formula_units_Z   1
loop_
 _symmetry_equiv_pos_site_id
 _symmetry_equiv_pos_as_xyz
  1  'x, y, z'
loop_
 _atom_site_type_symbol
 _atom_site_label
 _atom_site_symmetry_multiplicity
 _atom_site_fract_x
 _atom_site_fract_y
 _atom_site_fract_z
 _atom_site_occupancy
  Nd  Nd0  1  0.885084  0.385447  0.500000  1
  Nd  Nd1  1  0.114950  0.614500  0.500000  1
  Nd  Nd2  1  0.386127  0.114367  0.500000  1
  Dy  Dy3  1  0.999398  0.999909  0.000000  1
  Dy  Dy4  1  0.614469  0.885153  0.500000  1
  Zr  Zr5  1  0.500054  0.500508  0.000000  1
  Zr  Zr6  1  0.673904  0.175636  0.500000  1
  Zr  Zr7  1  0.326695  0.823946  0.500000  1
  Zr  Zr8  1  0.176575  0.325716  0.500000  1
  Zr  Zr9  1  0.822815  0.674964  0.500000  1
  Si  Si10  1  0.567394  0.068002  0.000000  1
  Si  Si11  1  0.433341  0.931347  0.000000  1
  Si  Si12  1  0.068900  0.432258  0.000000  1
  Si  Si13  1  0.930930  0.567900  0.000000  1
  Si  Si14  1  0.664732  0.702121  0.000000  1
  Si  Si15  1  0.335389  0.298869  0.000000  1
  Si  Si16  1  0.163791  0.800422  0.000000  1
  Si  Si17  1  0.835951  0.198568  0.000000  1
  Si  Si18  1  0.299819  0.665102  0.000000  1
  Si  Si19  1  0.701203  0.335119  0.000000  1
  Si  Si20  1  0.199484  0.163387  0.000000  1
  Si  Si21  1  0.799685  0.836452  0.000000  1
  Si  Si22  1  0.652646  0.509193  0.500000  1
  Si  Si23  1  0.347560  0.491364  0.500000  1
  Si  Si24  1  0.157013  0.990589  0.500000  1
  Si  Si25  1  0.841392  0.007571  0.500000  1
  Si  Si26  1  0.492313  0.654125  0.500000  1
  Si  Si27  1  0.508973  0.347255  0.500000  1
  Si  Si28  1  0.009224  0.156787  0.500000  1
  Si  Si29  1  0.990577  0.843057  0.500000  1
  Ir  Ir30  1  0.739986  0.523005  0.000000  1
  Ir  Ir31  1  0.260092  0.477588  0.000000  1
  Ir  Ir32  1  0.244135  0.976984  0.000000  1
  Ir  Ir33  1  0.754150  0.021137  0.000000  1
  Ir  Ir34  1  0.479014  0.742173  0.000000  1
  Ir  Ir35  1  0.522762  0.259563  0.000000  1
  Ir  Ir36  1  0.022583  0.243508  0.000000  1
  Ir  Ir37  1  0.976892  0.756409  0.000000  1
