# generated using pymatgen
data_Sm8Ga(PdPt3)6
_symmetry_space_group_name_H-M   'P 1'
_cell_length_a   8.42728900
_cell_length_b   8.44123100
_cell_length_c   8.48826900
_cell_angle_alpha   90.00000000
_cell_angle_beta   90.00000000
_cell_angle_gamma   90.00000000
_symmetry_Int_Tables_number   1
_chemical_formula_structural   Sm8Ga(PdPt3)6
_chemical_formula_sum   'Sm8 Ga1 Pd6 Pt18'
_cell_volume   603.82738725
_cell_formula_units_Z   1
loop_
 _symmetry_equiv_pos_site_id
 _symmetry_equiv_pos_as_xyz
  1  'x, y, z'
loop_
 _atom_site_type_symbol
 _atom_site_label
 _atom_site_symmetry_multiplicity
 _atom_site_fract_x
 _atom_site_fract_y
 _atom_site_fract_z
 _atom_site_occupancy
  Sm  Sm0  1  0.251223  0.251403  0.251911  1
  Sm  Sm1  1  0.748777  0.748597  0.748089  1
  Sm  Sm2  1  0.748777  0.748597  0.251911  1
  Sm  Sm3  1  0.748777  0.251403  0.748089  1
  Sm  Sm4  1  0.251223  0.251403  0.748089  1
  Sm  Sm5  1  0.251223  0.748597  0.251911  1
  Sm  Sm6  1  0.251223  0.748597  0.748089  1
  Sm  Sm7  1  0.748777  0.251403  0.251911  1
  Ga  Ga8  1  0.000000  0.000000  0.000000  1
  Pd  Pd9  1  0.500000  0.253552  0.500000  1
  Pd  Pd10  1  0.500000  0.746448  0.500000  1
  Pd  Pd11  1  0.500000  0.500000  0.253944  1
  Pd  Pd12  1  0.500000  0.500000  0.746056  1
  Pd  Pd13  1  0.000000  0.000000  0.295881  1
  Pd  Pd14  1  0.000000  0.000000  0.704119  1
  Pt  Pt15  1  0.262235  0.500000  0.000000  1
  Pt  Pt16  1  0.737765  0.500000  0.000000  1
  Pt  Pt17  1  0.000000  0.260728  0.500000  1
  Pt  Pt18  1  0.500000  0.261984  0.000000  1
  Pt  Pt19  1  0.000000  0.739272  0.500000  1
  Pt  Pt20  1  0.500000  0.738016  0.000000  1
  Pt  Pt21  1  0.500000  0.000000  0.262376  1
  Pt  Pt22  1  0.261411  0.000000  0.500000  1
  Pt  Pt23  1  0.500000  0.000000  0.737624  1
  Pt  Pt24  1  0.738589  0.000000  0.500000  1
  Pt  Pt25  1  0.000000  0.500000  0.261794  1
  Pt  Pt26  1  0.000000  0.500000  0.738206  1
  Pt  Pt27  1  0.253209  0.500000  0.500000  1
  Pt  Pt28  1  0.746791  0.500000  0.500000  1
  Pt  Pt29  1  0.295336  0.000000  0.000000  1
  Pt  Pt30  1  0.704664  0.000000  0.000000  1
  Pt  Pt31  1  0.000000  0.294604  0.000000  1
  Pt  Pt32  1  0.000000  0.705396  0.000000  1
