# generated using pymatgen
data_Nd8CdInIr2
_symmetry_space_group_name_H-M   'P 1'
_cell_length_a   9.97224746
_cell_length_b   9.97224784
_cell_length_c   9.95740700
_cell_angle_alpha   60.04921421
_cell_angle_beta   60.04921296
_cell_angle_gamma   60.16917666
_symmetry_Int_Tables_number   1
_chemical_formula_structural   Nd8CdInIr2
_chemical_formula_sum   'Nd16 Cd2 In2 Ir4'
_cell_volume   701.60560127
_cell_formula_units_Z   2
loop_
 _symmetry_equiv_pos_site_id
 _symmetry_equiv_pos_as_xyz
  1  'x, y, z'
loop_
 _atom_site_type_symbol
 _atom_site_label
 _atom_site_symmetry_multiplicity
 _atom_site_fract_x
 _atom_site_fract_y
 _atom_site_fract_z
 _atom_site_occupancy
  Nd  Nd0  1  0.348234  0.348234  0.348212  1
  Nd  Nd1  1  0.348234  0.348234  0.955321  1
  Nd  Nd2  1  0.348829  0.954474  0.348349  1
  Nd  Nd3  1  0.954474  0.348829  0.348349  1
  Nd  Nd4  1  0.808821  0.189968  0.191696  1
  Nd  Nd5  1  0.189968  0.808821  0.809516  1
  Nd  Nd6  1  0.189968  0.808821  0.191696  1
  Nd  Nd7  1  0.808821  0.189968  0.809516  1
  Nd  Nd8  1  0.191980  0.191980  0.808020  1
  Nd  Nd9  1  0.810510  0.810510  0.189490  1
  Nd  Nd10  1  0.939802  0.559971  0.560900  1
  Nd  Nd11  1  0.559971  0.939802  0.939327  1
  Nd  Nd12  1  0.559971  0.939802  0.560900  1
  Nd  Nd13  1  0.939802  0.559971  0.939327  1
  Nd  Nd14  1  0.560459  0.560459  0.939541  1
  Nd  Nd15  1  0.940010  0.940010  0.559990  1
  Cd  Cd16  1  0.580416  0.580416  0.579486  1
  Cd  Cd17  1  0.580416  0.580416  0.259683  1
  In  In18  1  0.581430  0.257040  0.580765  1
  In  In19  1  0.257040  0.581430  0.580765  1
  Ir  Ir20  1  0.141756  0.141756  0.141531  1
  Ir  Ir21  1  0.141756  0.141756  0.574956  1
  Ir  Ir22  1  0.141860  0.575474  0.141333  1
  Ir  Ir23  1  0.575474  0.141860  0.141333  1
