# generated using pymatgen
data_DyEr7(MoI4)2
_symmetry_space_group_name_H-M   'P 1'
_cell_length_a   11.37913575
_cell_length_b   11.39217571
_cell_length_c   5.95054645
_cell_angle_alpha   90.35020303
_cell_angle_beta   90.29665251
_cell_angle_gamma   89.98293401
_symmetry_Int_Tables_number   1
_chemical_formula_structural   DyEr7(MoI4)2
_chemical_formula_sum   'Dy1 Er7 Mo2 I8'
_cell_volume   771.36308997
_cell_formula_units_Z   1
loop_
 _symmetry_equiv_pos_site_id
 _symmetry_equiv_pos_as_xyz
  1  'x, y, z'
loop_
 _atom_site_type_symbol
 _atom_site_label
 _atom_site_symmetry_multiplicity
 _atom_site_fract_x
 _atom_site_fract_y
 _atom_site_fract_z
 _atom_site_occupancy
  Dy  Dy0  1  0.206342  0.915233  0.001568  1
  Er  Er1  1  0.796663  0.083589  0.997948  1
  Er  Er2  1  0.083300  0.796433  0.497202  1
  Er  Er3  1  0.916217  0.203334  0.502454  1
  Er  Er4  1  0.796545  0.916374  0.497042  1
  Er  Er5  1  0.203355  0.084107  0.502895  1
  Er  Er6  1  0.083491  0.203361  0.002941  1
  Er  Er7  1  0.916255  0.796845  0.996889  1
  Mo  Mo8  1  0.999983  0.000106  0.250084  1
  Mo  Mo9  1  0.000261  0.999771  0.749686  1
  I  I10  1  0.358110  0.849779  0.497864  1
  I  I11  1  0.642160  0.150006  0.503115  1
  I  I12  1  0.148904  0.641170  0.002991  1
  I  I13  1  0.849628  0.357471  0.997072  1
  I  I14  1  0.357667  0.152104  0.009990  1
  I  I15  1  0.642101  0.850042  0.990140  1
  I  I16  1  0.849217  0.642684  0.490123  1
  I  I17  1  0.149802  0.357591  0.509995  1
