# generated using pymatgen
data_Pr3Mg3SnHg2
_symmetry_space_group_name_H-M   'P 1'
_cell_length_a   7.80648800
_cell_length_b   7.80648943
_cell_length_c   4.61781600
_cell_angle_alpha   90.00000000
_cell_angle_beta   90.00000000
_cell_angle_gamma   120.00000240
_symmetry_Int_Tables_number   1
_chemical_formula_structural   Pr3Mg3SnHg2
_chemical_formula_sum   'Pr3 Mg3 Sn1 Hg2'
_cell_volume   243.71301252
_cell_formula_units_Z   1
loop_
 _symmetry_equiv_pos_site_id
 _symmetry_equiv_pos_as_xyz
  1  'x, y, z'
loop_
 _atom_site_type_symbol
 _atom_site_label
 _atom_site_symmetry_multiplicity
 _atom_site_fract_x
 _atom_site_fract_y
 _atom_site_fract_z
 _atom_site_occupancy
  Pr  Pr0  1  0.414756  0.996082  0.000000  1
  Pr  Pr1  1  0.003918  0.418674  0.000000  1
  Pr  Pr2  1  0.581327  0.585244  0.000000  1
  Mg  Mg3  1  0.753867  0.994937  0.499999  1
  Mg  Mg4  1  0.241069  0.246133  0.499999  1
  Mg  Mg5  1  0.005063  0.758929  0.499999  1
  Sn  Sn6  1  0.666666  0.333334  0.499999  1
  Hg  Hg7  1  0.000000  0.000000  0.000000  1
  Hg  Hg8  1  0.333333  0.666666  0.499999  1
