# generated using pymatgen
data_TbMn3Bi5O18
_symmetry_space_group_name_H-M   'P 1'
_cell_length_a   9.00364487
_cell_length_b   9.00970799
_cell_length_c   5.13700866
_cell_angle_alpha   89.99999525
_cell_angle_beta   90.07991445
_cell_angle_gamma   120.02228373
_symmetry_Int_Tables_number   1
_chemical_formula_structural   TbMn3Bi5O18
_chemical_formula_sum   'Tb1 Mn3 Bi5 O18'
_cell_volume   360.80444249
_cell_formula_units_Z   1
loop_
 _symmetry_equiv_pos_site_id
 _symmetry_equiv_pos_as_xyz
  1  'x, y, z'
loop_
 _atom_site_type_symbol
 _atom_site_label
 _atom_site_symmetry_multiplicity
 _atom_site_fract_x
 _atom_site_fract_y
 _atom_site_fract_z
 _atom_site_occupancy
  Tb  Tb0  1  0.000000  0.380201  0.500000  1
  Mn  Mn1  1  0.000000  0.001349  0.500000  1
  Mn  Mn2  1  0.331913  0.665295  0.999495  1
  Mn  Mn3  1  0.668087  0.333381  0.000505  1
  Bi  Bi4  1  0.290141  0.292075  0.000142  1
  Bi  Bi5  1  0.000000  0.706198  0.000000  1
  Bi  Bi6  1  0.621777  0.622243  0.498101  1
  Bi  Bi7  1  0.378223  0.000466  0.501899  1
  Bi  Bi8  1  0.709859  0.001934  0.999858  1
  O  O9  1  0.086866  0.203369  0.714531  1
  O  O10  1  0.228837  0.459381  0.217667  1
  O  O11  1  0.133201  0.596835  0.785320  1
  O  O12  1  0.397090  0.533430  0.787499  1
  O  O13  1  0.227080  0.765925  0.217246  1
  O  O14  1  0.113745  0.912476  0.718714  1
  O  O15  1  0.539348  0.772061  0.215344  1
  O  O16  1  0.200354  0.087352  0.281103  1
  O  O17  1  0.465687  0.863706  0.788145  1
  O  O18  1  0.799646  0.886999  0.718897  1
  O  O19  1  0.460652  0.232713  0.784656  1
  O  O20  1  0.602910  0.136340  0.212501  1
  O  O21  1  0.534313  0.398018  0.211855  1
  O  O22  1  0.771163  0.230544  0.782333  1
  O  O23  1  0.913134  0.116502  0.285469  1
  O  O24  1  0.772920  0.538844  0.782754  1
  O  O25  1  0.866799  0.463633  0.214680  1
  O  O26  1  0.886255  0.798730  0.281286  1
