# generated using pymatgen
data_Y4Lu16(Bi3Sb)3
_symmetry_space_group_name_H-M   'P 1'
_cell_length_a   8.09361734
_cell_length_b   9.33926100
_cell_length_c   11.78999100
_cell_angle_alpha   90.00000000
_cell_angle_beta   90.01667843
_cell_angle_gamma   90.00000000
_symmetry_Int_Tables_number   1
_chemical_formula_structural   Y4Lu16(Bi3Sb)3
_chemical_formula_sum   'Y4 Lu16 Bi9 Sb3'
_cell_volume   891.18657453
_cell_formula_units_Z   1
loop_
 _symmetry_equiv_pos_site_id
 _symmetry_equiv_pos_as_xyz
  1  'x, y, z'
loop_
 _atom_site_type_symbol
 _atom_site_label
 _atom_site_symmetry_multiplicity
 _atom_site_fract_x
 _atom_site_fract_y
 _atom_site_fract_z
 _atom_site_occupancy
  Y  Y0  1  0.317784  0.250000  0.215694  1
  Y  Y1  1  0.812772  0.250000  0.280693  1
  Y  Y2  1  0.683530  0.750000  0.782808  1
  Y  Y3  1  0.183523  0.750000  0.717027  1
  Lu  Lu4  1  0.353062  0.750000  0.215632  1
  Lu  Lu5  1  0.853365  0.750000  0.283933  1
  Lu  Lu6  1  0.646883  0.250000  0.784136  1
  Lu  Lu7  1  0.147677  0.250000  0.719088  1
  Lu  Lu8  1  0.688119  0.565890  0.059171  1
  Lu  Lu9  1  0.189313  0.930780  0.440498  1
  Lu  Lu10  1  0.311840  0.065560  0.941027  1
  Lu  Lu11  1  0.809310  0.436399  0.560479  1
  Lu  Lu12  1  0.311840  0.434440  0.941027  1
  Lu  Lu13  1  0.809310  0.063601  0.560479  1
  Lu  Lu14  1  0.688119  0.934110  0.059171  1
  Lu  Lu15  1  0.189313  0.569220  0.440498  1
  Lu  Lu16  1  0.478344  0.250000  0.489798  1
  Lu  Lu17  1  0.975032  0.250000  0.010169  1
  Lu  Lu18  1  0.526084  0.750000  0.510642  1
  Lu  Lu19  1  0.025201  0.750000  0.989706  1
  Bi  Bi20  1  0.097513  0.250000  0.459047  1
  Bi  Bi21  1  0.565606  0.994257  0.326349  1
  Bi  Bi22  1  0.065877  0.505116  0.173575  1
  Bi  Bi23  1  0.433817  0.494578  0.673707  1
  Bi  Bi24  1  0.934096  0.005087  0.826508  1
  Bi  Bi25  1  0.433817  0.005422  0.673707  1
  Bi  Bi26  1  0.934096  0.494913  0.826508  1
  Bi  Bi27  1  0.565606  0.505743  0.326349  1
  Bi  Bi28  1  0.065877  0.994884  0.173575  1
  Sb  Sb29  1  0.402411  0.750000  0.960208  1
  Sb  Sb30  1  0.902804  0.750000  0.539575  1
  Sb  Sb31  1  0.598065  0.250000  0.039215  1
