# generated using pymatgen
data_NdYEr2(Ir2O7)2
_symmetry_space_group_name_H-M   'P 1'
_cell_length_a   7.29790244
_cell_length_b   7.23147918
_cell_length_c   7.23181401
_cell_angle_alpha   60.00153370
_cell_angle_beta   60.29428672
_cell_angle_gamma   60.30062601
_symmetry_Int_Tables_number   1
_chemical_formula_structural   NdYEr2(Ir2O7)2
_chemical_formula_sum   'Nd1 Y1 Er2 Ir4 O14'
_cell_volume   271.08192973
_cell_formula_units_Z   1
loop_
 _symmetry_equiv_pos_site_id
 _symmetry_equiv_pos_as_xyz
  1  'x, y, z'
loop_
 _atom_site_type_symbol
 _atom_site_label
 _atom_site_symmetry_multiplicity
 _atom_site_fract_x
 _atom_site_fract_y
 _atom_site_fract_z
 _atom_site_occupancy
  Nd  Nd0  1  0.625000  0.125000  0.125000  1
  Y  Y1  1  0.125000  0.125000  0.625000  1
  Er  Er2  1  0.125000  0.625000  0.125000  1
  Er  Er3  1  0.125000  0.125000  0.125000  1
  Ir  Ir4  1  0.125000  0.625000  0.625000  1
  Ir  Ir5  1  0.625000  0.125000  0.625000  1
  Ir  Ir6  1  0.625000  0.625000  0.125000  1
  Ir  Ir7  1  0.625000  0.625000  0.625000  1
  O  O8  1  0.722967  0.701321  0.287817  1
  O  O9  1  0.288324  0.289549  0.712817  1
  O  O10  1  0.720521  0.288525  0.702429  1
  O  O11  1  0.287651  0.711667  0.289015  1
  O  O12  1  0.288324  0.709311  0.712817  1
  O  O13  1  0.722967  0.287896  0.287817  1
  O  O14  1  0.527033  0.548679  0.962183  1
  O  O15  1  0.961676  0.960451  0.537183  1
  O  O16  1  0.529479  0.961475  0.547571  1
  O  O17  1  0.962349  0.538333  0.960985  1
  O  O18  1  0.961676  0.540689  0.537183  1
  O  O19  1  0.527033  0.962104  0.962183  1
  O  O20  1  0.240019  0.254901  0.250180  1
  O  O21  1  0.009981  0.995099  0.999820  1
