# generated using pymatgen
data_Th2Al3Si2Ir3
_symmetry_space_group_name_H-M   'P 1'
_cell_length_a   8.43211571
_cell_length_b   8.43211527
_cell_length_c   8.43211484
_cell_angle_alpha   138.93282739
_cell_angle_beta   101.82224003
_cell_angle_gamma   92.36034047
_symmetry_Int_Tables_number   1
_chemical_formula_structural   Th2Al3Si2Ir3
_chemical_formula_sum   'Th4 Al6 Si4 Ir6'
_cell_volume   367.22331607
_cell_formula_units_Z   2
loop_
 _symmetry_equiv_pos_site_id
 _symmetry_equiv_pos_as_xyz
  1  'x, y, z'
loop_
 _atom_site_type_symbol
 _atom_site_label
 _atom_site_symmetry_multiplicity
 _atom_site_fract_x
 _atom_site_fract_y
 _atom_site_fract_z
 _atom_site_occupancy
  Th  Th0  1  0.873383  0.629662  0.243720  1
  Th  Th1  1  0.126618  0.370338  0.756280  1
  Th  Th2  1  0.385942  0.129662  0.256280  1
  Th  Th3  1  0.614058  0.870338  0.743720  1
  Al  Al4  1  0.500000  0.750000  0.250000  1
  Al  Al5  1  0.500000  0.250000  0.750000  1
  Al  Al6  1  0.242285  0.992285  0.750000  1
  Al  Al7  1  0.757715  0.507715  0.750000  1
  Al  Al8  1  0.757715  0.007715  0.250000  1
  Al  Al9  1  0.242285  0.492285  0.250000  1
  Si  Si10  1  0.029738  0.889820  0.139918  1
  Si  Si11  1  0.970262  0.110180  0.860082  1
  Si  Si12  1  0.749903  0.389820  0.360082  1
  Si  Si13  1  0.250097  0.610180  0.639918  1
  Ir  Ir14  1  0.000000  0.750000  0.750000  1
  Ir  Ir15  1  0.000000  0.250000  0.250000  1
  Ir  Ir16  1  0.228910  0.866279  0.362629  1
  Ir  Ir17  1  0.771090  0.133721  0.637371  1
  Ir  Ir18  1  0.503649  0.366279  0.137371  1
  Ir  Ir19  1  0.496351  0.633721  0.862629  1
