# generated using pymatgen
data_Ti12ZnSn9
_symmetry_space_group_name_H-M   'P 1'
_cell_length_a   9.23779200
_cell_length_b   9.23779153
_cell_length_c   5.68944900
_cell_angle_alpha   90.00000000
_cell_angle_beta   90.00000000
_cell_angle_gamma   120.00000170
_symmetry_Int_Tables_number   1
_chemical_formula_structural   Ti12ZnSn9
_chemical_formula_sum   'Ti12 Zn1 Sn9'
_cell_volume   420.47208604
_cell_formula_units_Z   1
loop_
 _symmetry_equiv_pos_site_id
 _symmetry_equiv_pos_as_xyz
  1  'x, y, z'
loop_
 _atom_site_type_symbol
 _atom_site_label
 _atom_site_symmetry_multiplicity
 _atom_site_fract_x
 _atom_site_fract_y
 _atom_site_fract_z
 _atom_site_occupancy
  Ti  Ti0  1  0.845698  0.691395  0.748036  1
  Ti  Ti1  1  0.154302  0.845698  0.251964  1
  Ti  Ti2  1  0.691395  0.845698  0.251964  1
  Ti  Ti3  1  0.308605  0.154302  0.748036  1
  Ti  Ti4  1  0.845698  0.154302  0.748036  1
  Ti  Ti5  1  0.154302  0.308605  0.251964  1
  Ti  Ti6  1  0.500000  0.000000  0.500000  1
  Ti  Ti7  1  0.500000  0.500000  0.000000  1
  Ti  Ti8  1  0.000000  0.500000  0.000000  1
  Ti  Ti9  1  0.000000  0.500000  0.500000  1
  Ti  Ti10  1  0.500000  0.000000  0.000000  1
  Ti  Ti11  1  0.500000  0.500000  0.500000  1
  Zn  Zn12  1  0.000000  0.000000  0.500000  1
  Sn  Sn13  1  0.200908  0.401816  0.749114  1
  Sn  Sn14  1  0.799092  0.200908  0.250886  1
  Sn  Sn15  1  0.401816  0.200908  0.250886  1
  Sn  Sn16  1  0.598184  0.799092  0.749114  1
  Sn  Sn17  1  0.200908  0.799092  0.749114  1
  Sn  Sn18  1  0.799092  0.598184  0.250886  1
  Sn  Sn19  1  0.666667  0.333333  0.750823  1
  Sn  Sn20  1  0.333333  0.666667  0.249177  1
  Sn  Sn21  1  0.000000  0.000000  0.000000  1
