# generated using pymatgen
data_Tm20CoIr3Pt8
_symmetry_space_group_name_H-M   'P 1'
_cell_length_a   10.87738500
_cell_length_b   10.87738500
_cell_length_c   6.29588000
_cell_angle_alpha   90.00000000
_cell_angle_beta   90.00000000
_cell_angle_gamma   90.00000000
_symmetry_Int_Tables_number   1
_chemical_formula_structural   Tm20CoIr3Pt8
_chemical_formula_sum   'Tm20 Co1 Ir3 Pt8'
_cell_volume   744.91280984
_cell_formula_units_Z   1
loop_
 _symmetry_equiv_pos_site_id
 _symmetry_equiv_pos_as_xyz
  1  'x, y, z'
loop_
 _atom_site_type_symbol
 _atom_site_label
 _atom_site_symmetry_multiplicity
 _atom_site_fract_x
 _atom_site_fract_y
 _atom_site_fract_z
 _atom_site_occupancy
  Tm  Tm0  1  0.297383  0.085887  0.372050  1
  Tm  Tm1  1  0.297919  0.914147  0.877394  1
  Tm  Tm2  1  0.702081  0.085853  0.877394  1
  Tm  Tm3  1  0.702617  0.914113  0.372050  1
  Tm  Tm4  1  0.585853  0.797919  0.877394  1
  Tm  Tm5  1  0.585887  0.202617  0.372050  1
  Tm  Tm6  1  0.414113  0.797383  0.372050  1
  Tm  Tm7  1  0.414147  0.202081  0.877394  1
  Tm  Tm8  1  0.204738  0.412848  0.625827  1
  Tm  Tm9  1  0.204646  0.586976  0.125666  1
  Tm  Tm10  1  0.795354  0.413024  0.125666  1
  Tm  Tm11  1  0.795262  0.587152  0.625827  1
  Tm  Tm12  1  0.913024  0.704646  0.125666  1
  Tm  Tm13  1  0.912848  0.295262  0.625827  1
  Tm  Tm14  1  0.087152  0.704738  0.625827  1
  Tm  Tm15  1  0.086976  0.295354  0.125666  1
  Tm  Tm16  1  0.000000  0.000000  0.499910  1
  Tm  Tm17  1  0.000000  0.000000  0.999569  1
  Tm  Tm18  1  0.500000  0.500000  0.999569  1
  Tm  Tm19  1  0.500000  0.500000  0.499910  1
  Co  Co20  1  0.500000  0.000000  0.120424  1
  Ir  Ir21  1  0.500000  0.000000  0.620468  1
  Ir  Ir22  1  0.000000  0.500000  0.879588  1
  Ir  Ir23  1  0.000000  0.500000  0.379593  1
  Pt  Pt24  1  0.845638  0.153532  0.249776  1
  Pt  Pt25  1  0.845938  0.846323  0.749530  1
  Pt  Pt26  1  0.154062  0.153677  0.749530  1
  Pt  Pt27  1  0.154362  0.846468  0.249776  1
  Pt  Pt28  1  0.653677  0.345938  0.749530  1
  Pt  Pt29  1  0.653532  0.654362  0.249776  1
  Pt  Pt30  1  0.346468  0.345638  0.249776  1
  Pt  Pt31  1  0.346323  0.654062  0.749530  1
