# generated using pymatgen
data_YTm2Si2Ni
_symmetry_space_group_name_H-M   'P 1'
_cell_length_a   4.08230600
_cell_length_b   11.20505200
_cell_length_c   11.14976300
_cell_angle_alpha   90.00000000
_cell_angle_beta   90.00000000
_cell_angle_gamma   90.00000000
_symmetry_Int_Tables_number   1
_chemical_formula_structural   YTm2Si2Ni
_chemical_formula_sum   'Y4 Tm8 Si8 Ni4'
_cell_volume   510.01748780
_cell_formula_units_Z   4
loop_
 _symmetry_equiv_pos_site_id
 _symmetry_equiv_pos_as_xyz
  1  'x, y, z'
loop_
 _atom_site_type_symbol
 _atom_site_label
 _atom_site_symmetry_multiplicity
 _atom_site_fract_x
 _atom_site_fract_y
 _atom_site_fract_z
 _atom_site_occupancy
  Y  Y0  1  0.250000  0.375174  0.056506  1
  Y  Y1  1  0.750000  0.624826  0.943494  1
  Y  Y2  1  0.750000  0.875174  0.443494  1
  Y  Y3  1  0.250000  0.124826  0.556506  1
  Tm  Tm4  1  0.250000  0.696254  0.215958  1
  Tm  Tm5  1  0.750000  0.303746  0.784042  1
  Tm  Tm6  1  0.750000  0.196254  0.284042  1
  Tm  Tm7  1  0.250000  0.803746  0.715958  1
  Tm  Tm8  1  0.250000  0.440525  0.382393  1
  Tm  Tm9  1  0.750000  0.559475  0.617607  1
  Tm  Tm10  1  0.750000  0.940525  0.117607  1
  Tm  Tm11  1  0.250000  0.059475  0.882393  1
  Si  Si12  1  0.250000  0.684880  0.476688  1
  Si  Si13  1  0.750000  0.315120  0.523312  1
  Si  Si14  1  0.750000  0.184880  0.023312  1
  Si  Si15  1  0.250000  0.815120  0.976688  1
  Si  Si16  1  0.250000  0.004527  0.302430  1
  Si  Si17  1  0.750000  0.995473  0.697570  1
  Si  Si18  1  0.750000  0.504527  0.197570  1
  Si  Si19  1  0.250000  0.495473  0.802430  1
  Ni  Ni20  1  0.250000  0.132320  0.130090  1
  Ni  Ni21  1  0.750000  0.867680  0.869910  1
  Ni  Ni22  1  0.750000  0.632320  0.369910  1
  Ni  Ni23  1  0.250000  0.367680  0.630090  1
