# generated using pymatgen
data_Nd2SmY2(In2Pd)2
_symmetry_space_group_name_H-M   'P 1'
_cell_length_a   3.71724600
_cell_length_b   8.30244112
_cell_length_c   18.50917640
_cell_angle_alpha   90.12720950
_cell_angle_beta   90.00000000
_cell_angle_gamma   90.00000000
_symmetry_Int_Tables_number   1
_chemical_formula_structural   Nd2SmY2(In2Pd)2
_chemical_formula_sum   'Nd4 Sm2 Y4 In8 Pd4'
_cell_volume   571.23279278
_cell_formula_units_Z   2
loop_
 _symmetry_equiv_pos_site_id
 _symmetry_equiv_pos_as_xyz
  1  'x, y, z'
loop_
 _atom_site_type_symbol
 _atom_site_label
 _atom_site_symmetry_multiplicity
 _atom_site_fract_x
 _atom_site_fract_y
 _atom_site_fract_z
 _atom_site_occupancy
  Nd  Nd0  1  0.500000  0.262459  0.285343  1
  Nd  Nd1  1  0.500000  0.737541  0.714657  1
  Nd  Nd2  1  0.500000  0.000000  0.000000  1
  Nd  Nd3  1  0.500000  0.500000  0.500000  1
  Sm  Sm4  1  0.500000  0.237641  0.785248  1
  Sm  Sm5  1  0.500000  0.762359  0.214752  1
  Y  Y6  1  0.500000  0.121323  0.584855  1
  Y  Y7  1  0.500000  0.878677  0.415145  1
  Y  Y8  1  0.500000  0.378814  0.084806  1
  Y  Y9  1  0.500000  0.621186  0.915194  1
  In  In10  1  0.000000  0.086192  0.152692  1
  In  In11  1  0.000000  0.913808  0.847308  1
  In  In12  1  0.000000  0.412690  0.652867  1
  In  In13  1  0.000000  0.587310  0.347133  1
  In  In14  1  0.000000  0.194770  0.437003  1
  In  In15  1  0.000000  0.805230  0.562997  1
  In  In16  1  0.000000  0.304855  0.936670  1
  In  In17  1  0.000000  0.695145  0.063330  1
  Pd  Pd18  1  0.000000  0.025649  0.694832  1
  Pd  Pd19  1  0.000000  0.974351  0.305168  1
  Pd  Pd20  1  0.000000  0.476462  0.194573  1
  Pd  Pd21  1  0.000000  0.523538  0.805427  1
