# generated using pymatgen
data_TbTh5Cd23Sb
_symmetry_space_group_name_H-M   'P 1'
_cell_length_a   10.09325485
_cell_length_b   10.11382103
_cell_length_c   10.11383000
_cell_angle_alpha   60.14045460
_cell_angle_beta   60.27912853
_cell_angle_gamma   60.27917862
_symmetry_Int_Tables_number   1
_chemical_formula_structural   TbTh5Cd23Sb
_chemical_formula_sum   'Tb1 Th5 Cd23 Sb1'
_cell_volume   733.88755990
_cell_formula_units_Z   1
loop_
 _symmetry_equiv_pos_site_id
 _symmetry_equiv_pos_as_xyz
  1  'x, y, z'
loop_
 _atom_site_type_symbol
 _atom_site_label
 _atom_site_symmetry_multiplicity
 _atom_site_fract_x
 _atom_site_fract_y
 _atom_site_fract_z
 _atom_site_occupancy
  Tb  Tb0  1  0.219464  0.781682  0.781678  1
  Th  Th1  1  0.780260  0.783189  0.220199  1
  Th  Th2  1  0.216351  0.782929  0.219119  1
  Th  Th3  1  0.784968  0.214245  0.214284  1
  Th  Th4  1  0.216368  0.219102  0.782906  1
  Th  Th5  1  0.780265  0.220182  0.783153  1
  Cd  Cd6  1  0.838635  0.837755  0.484619  1
  Cd  Cd7  1  0.838636  0.484616  0.837754  1
  Cd  Cd8  1  0.478839  0.839438  0.839438  1
  Cd  Cd9  1  0.842743  0.840076  0.840075  1
  Cd  Cd10  1  0.161166  0.159454  0.519061  1
  Cd  Cd11  1  0.161167  0.519060  0.159455  1
  Cd  Cd12  1  0.512304  0.162351  0.162350  1
  Cd  Cd13  1  0.162579  0.161988  0.161985  1
  Cd  Cd14  1  0.625965  0.624898  0.127643  1
  Cd  Cd15  1  0.625965  0.127640  0.624899  1
  Cd  Cd16  1  0.130962  0.626074  0.626073  1
  Cd  Cd17  1  0.619381  0.625778  0.625780  1
  Cd  Cd18  1  0.373426  0.379328  0.869181  1
  Cd  Cd19  1  0.373426  0.869183  0.379328  1
  Cd  Cd20  1  0.872455  0.373822  0.373825  1
  Cd  Cd21  1  0.376411  0.375251  0.375250  1
  Cd  Cd22  1  0.000883  0.998819  0.500738  1
  Cd  Cd23  1  0.499595  0.999863  0.500668  1
  Cd  Cd24  1  0.999531  0.499929  0.499929  1
  Cd  Cd25  1  0.499596  0.500665  0.999863  1
  Cd  Cd26  1  0.000885  0.500737  0.998818  1
  Cd  Cd27  1  0.500872  0.999074  0.999071  1
  Cd  Cd28  1  0.502381  0.497824  0.497825  1
  Sb  Sb29  1  0.004518  0.995048  0.995032  1
