# generated using pymatgen
data_Tb5Dy(SnIr)6
_symmetry_space_group_name_H-M   'P 1'
_cell_length_a   7.47006800
_cell_length_b   7.46885208
_cell_length_c   7.96197200
_cell_angle_alpha   90.00000000
_cell_angle_beta   90.00000000
_cell_angle_gamma   119.67209193
_symmetry_Int_Tables_number   1
_chemical_formula_structural   Tb5Dy(SnIr)6
_chemical_formula_sum   'Tb5 Dy1 Sn6 Ir6'
_cell_volume   385.97149612
_cell_formula_units_Z   1
loop_
 _symmetry_equiv_pos_site_id
 _symmetry_equiv_pos_as_xyz
  1  'x, y, z'
loop_
 _atom_site_type_symbol
 _atom_site_label
 _atom_site_symmetry_multiplicity
 _atom_site_fract_x
 _atom_site_fract_y
 _atom_site_fract_z
 _atom_site_occupancy
  Tb  Tb0  1  0.406588  0.000621  0.250000  1
  Tb  Tb1  1  0.593662  0.592708  0.250000  1
  Tb  Tb2  1  0.998359  0.405461  0.250000  1
  Tb  Tb3  1  0.000720  0.406508  0.750000  1
  Tb  Tb4  1  0.405128  0.998012  0.750000  1
  Dy  Dy5  1  0.595126  0.596135  0.750000  1
  Sn  Sn6  1  0.257515  0.257447  0.501302  1
  Sn  Sn7  1  0.257515  0.257447  0.998698  1
  Sn  Sn8  1  0.741696  0.000328  0.999943  1
  Sn  Sn9  1  0.000242  0.741689  0.499878  1
  Sn  Sn10  1  0.741696  0.000328  0.500057  1
  Sn  Sn11  1  0.000242  0.741689  0.000122  1
  Ir  Ir12  1  0.666135  0.335107  0.503194  1
  Ir  Ir13  1  0.666135  0.335107  0.996806  1
  Ir  Ir14  1  0.335092  0.666135  0.000375  1
  Ir  Ir15  1  0.335092  0.666135  0.499625  1
  Ir  Ir16  1  0.998884  0.998824  0.750000  1
  Ir  Ir17  1  0.000166  0.000314  0.250000  1
