# generated using pymatgen
data_HoEr4Si6P6Ir19
_symmetry_space_group_name_H-M   'P 1'
_cell_length_a   12.78207100
_cell_length_b   12.78207021
_cell_length_c   3.94313900
_cell_angle_alpha   90.00000000
_cell_angle_beta   90.00000000
_cell_angle_gamma   120.00000463
_symmetry_Int_Tables_number   1
_chemical_formula_structural   HoEr4Si6P6Ir19
_chemical_formula_sum   'Ho1 Er4 Si6 P6 Ir19'
_cell_volume   557.92410126
_cell_formula_units_Z   1
loop_
 _symmetry_equiv_pos_site_id
 _symmetry_equiv_pos_as_xyz
  1  'x, y, z'
loop_
 _atom_site_type_symbol
 _atom_site_label
 _atom_site_symmetry_multiplicity
 _atom_site_fract_x
 _atom_site_fract_y
 _atom_site_fract_z
 _atom_site_occupancy
  Ho  Ho0  1  0.666667  0.333333  0.000000  1
  Er  Er1  1  0.333333  0.666667  0.000000  1
  Er  Er2  1  0.816530  0.814734  0.500000  1
  Er  Er3  1  0.185266  0.001796  0.500000  1
  Er  Er4  1  0.998204  0.183470  0.500000  1
  Si  Si5  1  0.681952  0.162616  0.500000  1
  Si  Si6  1  0.837384  0.519336  0.500000  1
  Si  Si7  1  0.480664  0.318048  0.500000  1
  Si  Si8  1  0.636611  0.635835  0.000000  1
  Si  Si9  1  0.364165  0.000777  0.000000  1
  Si  Si10  1  0.999223  0.363389  0.000000  1
  P  P11  1  0.177913  0.693789  0.500000  1
  P  P12  1  0.515877  0.822087  0.500000  1
  P  P13  1  0.306211  0.484123  0.500000  1
  P  P14  1  0.176001  0.180081  0.000000  1
  P  P15  1  0.819919  0.995920  0.000000  1
  P  P16  1  0.004080  0.823999  0.000000  1
  Ir  Ir17  1  0.809254  0.175717  0.000000  1
  Ir  Ir18  1  0.824283  0.633537  0.000000  1
  Ir  Ir19  1  0.366463  0.190746  0.000000  1
  Ir  Ir20  1  0.182868  0.801179  0.000000  1
  Ir  Ir21  1  0.618311  0.817132  0.000000  1
  Ir  Ir22  1  0.198821  0.381689  0.000000  1
  Ir  Ir23  1  0.458041  0.443258  0.000000  1
  Ir  Ir24  1  0.556742  0.014783  0.000000  1
  Ir  Ir25  1  0.985217  0.541959  0.000000  1
  Ir  Ir26  1  0.277497  0.284081  0.500000  1
  Ir  Ir27  1  0.715919  0.993416  0.500000  1
  Ir  Ir28  1  0.006584  0.722503  0.500000  1
  Ir  Ir29  1  0.868928  0.353243  0.500000  1
  Ir  Ir30  1  0.646757  0.515686  0.500000  1
  Ir  Ir31  1  0.484314  0.131072  0.500000  1
  Ir  Ir32  1  0.368221  0.873539  0.500000  1
  Ir  Ir33  1  0.505318  0.631779  0.500000  1
  Ir  Ir34  1  0.126461  0.494682  0.500000  1
  Ir  Ir35  1  0.000000  0.000000  0.000000  1
