# generated using pymatgen
data_Tm4Ga5SiPt7
_symmetry_space_group_name_H-M   'P 1'
_cell_length_a   7.30816191
_cell_length_b   7.30816208
_cell_length_c   7.30816281
_cell_angle_alpha   109.80379821
_cell_angle_beta   109.30519631
_cell_angle_gamma   109.30519009
_symmetry_Int_Tables_number   1
_chemical_formula_structural   Tm4Ga5SiPt7
_chemical_formula_sum   'Tm4 Ga5 Si1 Pt7'
_cell_volume   300.46342898
_cell_formula_units_Z   1
loop_
 _symmetry_equiv_pos_site_id
 _symmetry_equiv_pos_as_xyz
  1  'x, y, z'
loop_
 _atom_site_type_symbol
 _atom_site_label
 _atom_site_symmetry_multiplicity
 _atom_site_fract_x
 _atom_site_fract_y
 _atom_site_fract_z
 _atom_site_occupancy
  Tm  Tm0  1  0.000000  0.000707  0.513034  1
  Tm  Tm1  1  0.000000  0.513034  0.000707  1
  Tm  Tm2  1  0.487673  0.000707  0.000707  1
  Tm  Tm3  1  0.512327  0.513034  0.513034  1
  Ga  Ga4  1  0.684702  0.691050  0.006346  1
  Ga  Ga5  1  0.315298  0.006346  0.321644  1
  Ga  Ga6  1  0.000000  0.299796  0.299796  1
  Ga  Ga7  1  0.315298  0.321644  0.006346  1
  Ga  Ga8  1  0.684702  0.006346  0.691050  1
  Si  Si9  1  0.000000  0.666251  0.666251  1
  Pt  Pt10  1  0.752997  0.253708  0.500711  1
  Pt  Pt11  1  0.752997  0.500711  0.253708  1
  Pt  Pt12  1  0.500000  0.253748  0.753748  1
  Pt  Pt13  1  0.247003  0.500711  0.747714  1
  Pt  Pt14  1  0.247003  0.747714  0.500711  1
  Pt  Pt15  1  0.500000  0.753748  0.253748  1
  Pt  Pt16  1  0.000000  0.970746  0.970746  1
