# generated using pymatgen
data_Tb4Y(OsO6)2
_symmetry_space_group_name_H-M   'P 1'
_cell_length_a   6.91238598
_cell_length_b   6.91238644
_cell_length_c   7.53298649
_cell_angle_alpha   73.95860559
_cell_angle_beta   73.95860446
_cell_angle_gamma   48.42753234
_symmetry_Int_Tables_number   1
_chemical_formula_structural   Tb4Y(OsO6)2
_chemical_formula_sum   'Tb4 Y1 Os2 O12'
_cell_volume   256.61558769
_cell_formula_units_Z   1
loop_
 _symmetry_equiv_pos_site_id
 _symmetry_equiv_pos_as_xyz
  1  'x, y, z'
loop_
 _atom_site_type_symbol
 _atom_site_label
 _atom_site_symmetry_multiplicity
 _atom_site_fract_x
 _atom_site_fract_y
 _atom_site_fract_z
 _atom_site_occupancy
  Tb  Tb0  1  0.188003  0.188003  0.170902  1
  Tb  Tb1  1  0.811997  0.811997  0.829098  1
  Tb  Tb2  1  0.801617  0.801617  0.357745  1
  Tb  Tb3  1  0.198383  0.198383  0.642255  1
  Y  Y4  1  0.500000  0.500000  0.500000  1
  Os  Os5  1  0.719198  0.280802  0.000000  1
  Os  Os6  1  0.280802  0.719198  0.000000  1
  O  O7  1  0.999055  0.999055  0.172922  1
  O  O8  1  0.000945  0.000945  0.827078  1
  O  O9  1  0.499050  0.499050  0.797303  1
  O  O10  1  0.500950  0.500950  0.202697  1
  O  O11  1  0.598410  0.096114  0.572846  1
  O  O12  1  0.903886  0.401590  0.427154  1
  O  O13  1  0.401590  0.903886  0.427154  1
  O  O14  1  0.412878  0.918144  0.915010  1
  O  O15  1  0.081856  0.587122  0.084990  1
  O  O16  1  0.587122  0.081856  0.084990  1
  O  O17  1  0.918144  0.412878  0.915010  1
  O  O18  1  0.096114  0.598410  0.572846  1
