# generated using pymatgen
data_CaZn(PO3)4
_symmetry_space_group_name_H-M   'P 1'
_cell_length_a   7.53678402
_cell_length_b   7.53678405
_cell_length_c   10.20867394
_cell_angle_alpha   67.70109528
_cell_angle_beta   67.70109394
_cell_angle_gamma   71.28512126
_symmetry_Int_Tables_number   1
_chemical_formula_structural   CaZn(PO3)4
_chemical_formula_sum   'Ca2 Zn2 P8 O24'
_cell_volume   485.68320884
_cell_formula_units_Z   2
loop_
 _symmetry_equiv_pos_site_id
 _symmetry_equiv_pos_as_xyz
  1  'x, y, z'
loop_
 _atom_site_type_symbol
 _atom_site_label
 _atom_site_symmetry_multiplicity
 _atom_site_fract_x
 _atom_site_fract_y
 _atom_site_fract_z
 _atom_site_occupancy
  Ca  Ca0  1  0.950789  0.049211  0.250000  1
  Ca  Ca1  1  0.049211  0.950789  0.750000  1
  Zn  Zn2  1  0.000000  0.500000  0.000000  1
  Zn  Zn3  1  0.500000  0.000000  0.500000  1
  P  P4  1  0.696978  0.680903  0.305811  1
  P  P5  1  0.319097  0.303022  0.194189  1
  P  P6  1  0.303022  0.319097  0.694189  1
  P  P7  1  0.680903  0.696978  0.805811  1
  P  P8  1  0.727241  0.281466  0.525422  1
  P  P9  1  0.718534  0.272759  0.974578  1
  P  P10  1  0.272759  0.718534  0.474578  1
  P  P11  1  0.281466  0.727241  0.025422  1
  O  O12  1  0.470069  0.676803  0.343493  1
  O  O13  1  0.323197  0.529931  0.156507  1
  O  O14  1  0.529931  0.323197  0.656507  1
  O  O15  1  0.676803  0.470069  0.843493  1
  O  O16  1  0.768612  0.497767  0.434573  1
  O  O17  1  0.502233  0.231388  0.065427  1
  O  O18  1  0.231388  0.502233  0.565427  1
  O  O19  1  0.497767  0.768612  0.934573  1
  O  O20  1  0.805397  0.650922  0.157756  1
  O  O21  1  0.349078  0.194603  0.342244  1
  O  O22  1  0.194603  0.349078  0.842244  1
  O  O23  1  0.650922  0.805397  0.657756  1
  O  O24  1  0.706250  0.862856  0.332176  1
  O  O25  1  0.137144  0.293750  0.167824  1
  O  O26  1  0.293750  0.137144  0.667824  1
  O  O27  1  0.862856  0.706250  0.832176  1
  O  O28  1  0.684875  0.198447  0.427992  1
  O  O29  1  0.801553  0.315125  0.072008  1
  O  O30  1  0.315125  0.801553  0.572008  1
  O  O31  1  0.198447  0.684875  0.927992  1
  O  O32  1  0.891259  0.169848  0.589120  1
  O  O33  1  0.830152  0.108741  0.910880  1
  O  O34  1  0.108741  0.830152  0.410880  1
  O  O35  1  0.169848  0.891259  0.089120  1
