# generated using pymatgen
data_Tm4PSe4
_symmetry_space_group_name_H-M   'P 1'
_cell_length_a   3.97899512
_cell_length_b   6.94444364
_cell_length_c   8.88014700
_cell_angle_alpha   96.77374676
_cell_angle_beta   102.99979092
_cell_angle_gamma   106.50867076
_symmetry_Int_Tables_number   1
_chemical_formula_structural   Tm4PSe4
_chemical_formula_sum   'Tm4 P1 Se4'
_cell_volume   224.84483437
_cell_formula_units_Z   1
loop_
 _symmetry_equiv_pos_site_id
 _symmetry_equiv_pos_as_xyz
  1  'x, y, z'
loop_
 _atom_site_type_symbol
 _atom_site_label
 _atom_site_symmetry_multiplicity
 _atom_site_fract_x
 _atom_site_fract_y
 _atom_site_fract_z
 _atom_site_occupancy
  Tm  Tm0  1  0.440559  0.745488  0.764465  1
  Tm  Tm1  1  0.651133  0.562873  0.366033  1
  Tm  Tm2  1  0.032273  0.128136  0.564714  1
  Tm  Tm3  1  0.241702  0.945611  0.166206  1
  P  P4  1  0.341749  0.845495  0.465357  1
  Se  Se5  1  0.944794  0.252328  0.265482  1
  Se  Se6  1  0.738425  0.438455  0.665280  1
  Se  Se7  1  0.136402  0.039600  0.864955  1
  Se  Se8  1  0.545828  0.651932  0.065849  1
