# generated using pymatgen
data_Ca9Th(Sn3H)2
_symmetry_space_group_name_H-M   'P 1'
_cell_length_a   9.47439273
_cell_length_b   9.47439255
_cell_length_c   9.47298758
_cell_angle_alpha   128.85758528
_cell_angle_beta   128.85758428
_cell_angle_gamma   75.14114256
_symmetry_Int_Tables_number   1
_chemical_formula_structural   Ca9Th(Sn3H)2
_chemical_formula_sum   'Ca9 Th1 Sn6 H2'
_cell_volume   502.26387704
_cell_formula_units_Z   1
loop_
 _symmetry_equiv_pos_site_id
 _symmetry_equiv_pos_as_xyz
  1  'x, y, z'
loop_
 _atom_site_type_symbol
 _atom_site_label
 _atom_site_symmetry_multiplicity
 _atom_site_fract_x
 _atom_site_fract_y
 _atom_site_fract_z
 _atom_site_occupancy
  Ca  Ca0  1  0.498577  0.503604  0.000161  1
  Ca  Ca1  1  0.003604  0.998577  0.000161  1
  Ca  Ca2  1  0.184393  0.684393  0.170156  1
  Ca  Ca3  1  0.009344  0.188250  0.500846  1
  Ca  Ca4  1  0.688250  0.509344  0.500846  1
  Ca  Ca5  1  0.489092  0.989092  0.180677  1
  Ca  Ca6  1  0.811638  0.311638  0.822422  1
  Ca  Ca7  1  0.987150  0.810735  0.497634  1
  Ca  Ca8  1  0.310735  0.487150  0.497634  1
  Th  Th9  1  0.519652  0.019652  0.834774  1
  Sn  Sn10  1  0.254712  0.244060  0.992815  1
  Sn  Sn11  1  0.744060  0.754712  0.992815  1
  Sn  Sn12  1  0.869123  0.369123  0.241252  1
  Sn  Sn13  1  0.126537  0.626537  0.752847  1
  Sn  Sn14  1  0.370460  0.127527  0.503655  1
  Sn  Sn15  1  0.627527  0.870460  0.503655  1
  H  H16  1  0.255452  0.755452  0.505599  1
  H  H17  1  0.749692  0.249692  0.502049  1
