# generated using pymatgen
data_TbY(In2Cl5)2
_symmetry_space_group_name_H-M   'P 1'
_cell_length_a   8.29701300
_cell_length_b   8.58584500
_cell_length_c   13.09846200
_cell_angle_alpha   90.00000000
_cell_angle_beta   90.00000000
_cell_angle_gamma   90.00000000
_symmetry_Int_Tables_number   1
_chemical_formula_structural   TbY(In2Cl5)2
_chemical_formula_sum   'Tb2 Y2 In8 Cl20'
_cell_volume   933.09340301
_cell_formula_units_Z   2
loop_
 _symmetry_equiv_pos_site_id
 _symmetry_equiv_pos_as_xyz
  1  'x, y, z'
loop_
 _atom_site_type_symbol
 _atom_site_label
 _atom_site_symmetry_multiplicity
 _atom_site_fract_x
 _atom_site_fract_y
 _atom_site_fract_z
 _atom_site_occupancy
  Tb  Tb0  1  0.072255  0.250000  0.495838  1
  Tb  Tb1  1  0.427745  0.250000  0.995838  1
  Y  Y2  1  0.928188  0.750000  0.504013  1
  Y  Y3  1  0.571812  0.750000  0.004013  1
  In  In4  1  0.941529  0.005861  0.828864  1
  In  In5  1  0.058679  0.995382  0.171248  1
  In  In6  1  0.558471  0.494139  0.328864  1
  In  In7  1  0.058679  0.504618  0.171248  1
  In  In8  1  0.941529  0.494139  0.828864  1
  In  In9  1  0.441321  0.504618  0.671248  1
  In  In10  1  0.558471  0.005861  0.328864  1
  In  In11  1  0.441321  0.995382  0.671248  1
  Cl  Cl12  1  0.596778  0.750000  0.508789  1
  Cl  Cl13  1  0.162596  0.954327  0.432640  1
  Cl  Cl14  1  0.838267  0.044166  0.566799  1
  Cl  Cl15  1  0.337404  0.545673  0.932640  1
  Cl  Cl16  1  0.162596  0.545673  0.432640  1
  Cl  Cl17  1  0.348446  0.250000  0.196552  1
  Cl  Cl18  1  0.337404  0.954327  0.932640  1
  Cl  Cl19  1  0.838267  0.455834  0.566799  1
  Cl  Cl20  1  0.402687  0.750000  0.179803  1
  Cl  Cl21  1  0.661733  0.044166  0.066799  1
  Cl  Cl22  1  0.151554  0.250000  0.696552  1
  Cl  Cl23  1  0.597896  0.250000  0.819817  1
  Cl  Cl24  1  0.405512  0.250000  0.491554  1
  Cl  Cl25  1  0.097313  0.750000  0.679803  1
  Cl  Cl26  1  0.661733  0.455834  0.066799  1
  Cl  Cl27  1  0.094488  0.250000  0.991554  1
  Cl  Cl28  1  0.903222  0.750000  0.008789  1
  Cl  Cl29  1  0.848520  0.750000  0.304531  1
  Cl  Cl30  1  0.651480  0.750000  0.804531  1
  Cl  Cl31  1  0.902104  0.250000  0.319817  1
