# generated using pymatgen
data_Dy7ErSc12Si15Ru
_symmetry_space_group_name_H-M   'P 1'
_cell_length_a   7.06893069
_cell_length_b   7.44372503
_cell_length_c   13.92922445
_cell_angle_alpha   89.97245067
_cell_angle_beta   90.00902923
_cell_angle_gamma   90.16939205
_symmetry_Int_Tables_number   1
_chemical_formula_structural   Dy7ErSc12Si15Ru
_chemical_formula_sum   'Dy7 Er1 Sc12 Si15 Ru1'
_cell_volume   732.94102073
_cell_formula_units_Z   1
loop_
 _symmetry_equiv_pos_site_id
 _symmetry_equiv_pos_as_xyz
  1  'x, y, z'
loop_
 _atom_site_type_symbol
 _atom_site_label
 _atom_site_symmetry_multiplicity
 _atom_site_fract_x
 _atom_site_fract_y
 _atom_site_fract_z
 _atom_site_occupancy
  Dy  Dy0  1  0.010998  0.178937  0.095767  1
  Dy  Dy1  1  0.991597  0.826817  0.904545  1
  Dy  Dy2  1  0.489322  0.676984  0.904638  1
  Dy  Dy3  1  0.991617  0.826694  0.595335  1
  Dy  Dy4  1  0.510765  0.322479  0.095923  1
  Dy  Dy5  1  0.011058  0.178933  0.404292  1
  Dy  Dy6  1  0.510727  0.322514  0.404244  1
  Er  Er7  1  0.489372  0.677400  0.595919  1
  Sc  Sc8  1  0.157956  0.502336  0.749858  1
  Sc  Sc9  1  0.837999  0.495004  0.250003  1
  Sc  Sc10  1  0.339212  0.005513  0.250022  1
  Sc  Sc11  1  0.670074  0.998389  0.749872  1
  Sc  Sc12  1  0.316529  0.171884  0.628225  1
  Sc  Sc13  1  0.671271  0.825569  0.374025  1
  Sc  Sc14  1  0.171093  0.677870  0.374084  1
  Sc  Sc15  1  0.671463  0.825744  0.126102  1
  Sc  Sc16  1  0.837770  0.319735  0.627851  1
  Sc  Sc17  1  0.316519  0.171816  0.871666  1
  Sc  Sc18  1  0.837790  0.319698  0.872045  1
  Sc  Sc19  1  0.171012  0.677797  0.126018  1
  Si  Si20  1  0.968473  0.885554  0.249998  1
  Si  Si21  1  0.468934  0.613696  0.250021  1
  Si  Si22  1  0.529471  0.389051  0.749780  1
  Si  Si23  1  0.287183  0.866630  0.749686  1
  Si  Si24  1  0.713213  0.129586  0.250001  1
  Si  Si25  1  0.213932  0.370706  0.249996  1
  Si  Si26  1  0.779691  0.627583  0.749666  1
  Si  Si27  1  0.160819  0.468674  0.537546  1
  Si  Si28  1  0.843313  0.535717  0.461666  1
  Si  Si29  1  0.344184  0.965278  0.460459  1
  Si  Si30  1  0.843554  0.535688  0.038404  1
  Si  Si31  1  0.655985  0.034222  0.538852  1
  Si  Si32  1  0.159998  0.468258  0.962604  1
  Si  Si33  1  0.656254  0.034849  0.961252  1
  Si  Si34  1  0.344072  0.965765  0.039677  1
  Ru  Ru35  1  0.026779  0.106629  0.749957  1
