# generated using pymatgen
data_LaPr5IrBr10
_symmetry_space_group_name_H-M   'P 1'
_cell_length_a   7.75258167
_cell_length_b   9.56066906
_cell_length_c   9.75900565
_cell_angle_alpha   108.38943560
_cell_angle_beta   97.15838779
_cell_angle_gamma   105.66525458
_symmetry_Int_Tables_number   1
_chemical_formula_structural   LaPr5IrBr10
_chemical_formula_sum   'La1 Pr5 Ir1 Br10'
_cell_volume   643.24439388
_cell_formula_units_Z   1
loop_
 _symmetry_equiv_pos_site_id
 _symmetry_equiv_pos_as_xyz
  1  'x, y, z'
loop_
 _atom_site_type_symbol
 _atom_site_label
 _atom_site_symmetry_multiplicity
 _atom_site_fract_x
 _atom_site_fract_y
 _atom_site_fract_z
 _atom_site_occupancy
  La  La0  1  0.533454  0.205756  0.410250  1
  Pr  Pr1  1  0.466035  0.791482  0.589138  1
  Pr  Pr2  1  0.131295  0.357934  0.313972  1
  Pr  Pr3  1  0.869061  0.643364  0.686254  1
  Pr  Pr4  1  0.630044  0.550660  0.250945  1
  Pr  Pr5  1  0.371155  0.449328  0.749481  1
  Ir  Ir6  1  0.500701  0.496995  0.499239  1
  Br  Br7  1  0.147599  0.043378  0.227467  1
  Br  Br8  1  0.846683  0.956131  0.770415  1
  Br  Br9  1  0.251113  0.416858  0.048457  1
  Br  Br10  1  0.749864  0.584359  0.952114  1
  Br  Br11  1  0.706971  0.246842  0.152849  1
  Br  Br12  1  0.295349  0.755223  0.844671  1
  Br  Br13  1  0.047124  0.675111  0.419553  1
  Br  Br14  1  0.955859  0.327265  0.582126  1
  Br  Br15  1  0.412889  0.130975  0.673550  1
  Br  Br16  1  0.584803  0.868337  0.329518  1
