# generated using pymatgen
data_VCuRh3Se8
_symmetry_space_group_name_H-M   'P 1'
_cell_length_a   6.98763053
_cell_length_b   6.98763169
_cell_length_c   6.98763114
_cell_angle_alpha   64.04423261
_cell_angle_beta   64.04422789
_cell_angle_gamma   64.04423038
_symmetry_Int_Tables_number   1
_chemical_formula_structural   VCuRh3Se8
_chemical_formula_sum   'V1 Cu1 Rh3 Se8'
_cell_volume   262.73461307
_cell_formula_units_Z   1
loop_
 _symmetry_equiv_pos_site_id
 _symmetry_equiv_pos_as_xyz
  1  'x, y, z'
loop_
 _atom_site_type_symbol
 _atom_site_label
 _atom_site_symmetry_multiplicity
 _atom_site_fract_x
 _atom_site_fract_y
 _atom_site_fract_z
 _atom_site_occupancy
  V  V0  1  0.407079  0.407079  0.407079  1
  Cu  Cu1  1  0.985959  0.985959  0.985959  1
  Rh  Rh2  1  0.860019  0.374022  0.374022  1
  Rh  Rh3  1  0.374022  0.860019  0.374022  1
  Rh  Rh4  1  0.374022  0.374022  0.860019  1
  Se  Se5  1  0.128622  0.128622  0.128622  1
  Se  Se6  1  0.587819  0.142707  0.142707  1
  Se  Se7  1  0.142707  0.587819  0.142707  1
  Se  Se8  1  0.142707  0.142707  0.587819  1
  Se  Se9  1  0.618462  0.618462  0.618462  1
  Se  Se10  1  0.116528  0.631028  0.631028  1
  Se  Se11  1  0.631028  0.116528  0.631028  1
  Se  Se12  1  0.631028  0.631028  0.116528  1
