# generated using pymatgen
data_Y3SnPd2RhPb2
_symmetry_space_group_name_H-M   'P 1'
_cell_length_a   7.78633800
_cell_length_b   7.82422205
_cell_length_c   3.82976700
_cell_angle_alpha   90.00000000
_cell_angle_beta   90.00000000
_cell_angle_gamma   119.83996029
_symmetry_Int_Tables_number   1
_chemical_formula_structural   Y3SnPd2RhPb2
_chemical_formula_sum   'Y3 Sn1 Pd2 Rh1 Pb2'
_cell_volume   202.38369435
_cell_formula_units_Z   1
loop_
 _symmetry_equiv_pos_site_id
 _symmetry_equiv_pos_as_xyz
  1  'x, y, z'
loop_
 _atom_site_type_symbol
 _atom_site_label
 _atom_site_symmetry_multiplicity
 _atom_site_fract_x
 _atom_site_fract_y
 _atom_site_fract_z
 _atom_site_occupancy
  Y  Y0  1  0.400391  0.000000  0.500000  1
  Y  Y1  1  0.996648  0.394084  0.500000  1
  Y  Y2  1  0.602564  0.605916  0.500000  1
  Sn  Sn3  1  0.736753  0.000000  0.000000  1
  Pd  Pd4  1  0.341298  0.672752  0.000000  1
  Pd  Pd5  1  0.668548  0.327248  0.000000  1
  Rh  Rh6  1  0.989918  0.000000  0.500000  1
  Pb  Pb7  1  0.999378  0.734876  0.000000  1
  Pb  Pb8  1  0.264502  0.265124  0.000000  1
