# generated using pymatgen
data_Tb3Dy2FeBi2
_symmetry_space_group_name_H-M   'P 1'
_cell_length_a   7.99780000
_cell_length_b   8.95222300
_cell_length_c   12.45040100
_cell_angle_alpha   90.00000000
_cell_angle_beta   90.00000000
_cell_angle_gamma   90.00000000
_symmetry_Int_Tables_number   1
_chemical_formula_structural   Tb3Dy2FeBi2
_chemical_formula_sum   'Tb12 Dy8 Fe4 Bi8'
_cell_volume   891.42492025
_cell_formula_units_Z   4
loop_
 _symmetry_equiv_pos_site_id
 _symmetry_equiv_pos_as_xyz
  1  'x, y, z'
loop_
 _atom_site_type_symbol
 _atom_site_label
 _atom_site_symmetry_multiplicity
 _atom_site_fract_x
 _atom_site_fract_y
 _atom_site_fract_z
 _atom_site_occupancy
  Tb  Tb0  1  0.849981  0.750000  0.801449  1
  Tb  Tb1  1  0.150019  0.250000  0.198551  1
  Tb  Tb2  1  0.349981  0.250000  0.698551  1
  Tb  Tb3  1  0.650019  0.750000  0.301449  1
  Tb  Tb4  1  0.382173  0.750000  0.686583  1
  Tb  Tb5  1  0.617827  0.250000  0.313417  1
  Tb  Tb6  1  0.882173  0.250000  0.813417  1
  Tb  Tb7  1  0.117827  0.750000  0.186583  1
  Tb  Tb8  1  0.947126  0.750000  0.505573  1
  Tb  Tb9  1  0.052874  0.250000  0.494427  1
  Tb  Tb10  1  0.447126  0.250000  0.994427  1
  Tb  Tb11  1  0.552874  0.750000  0.005573  1
  Dy  Dy12  1  0.674744  0.034192  0.563653  1
  Dy  Dy13  1  0.325256  0.965808  0.436347  1
  Dy  Dy14  1  0.174744  0.965808  0.936347  1
  Dy  Dy15  1  0.325256  0.534192  0.436347  1
  Dy  Dy16  1  0.825256  0.034192  0.063653  1
  Dy  Dy17  1  0.674744  0.465808  0.563653  1
  Dy  Dy18  1  0.825256  0.465808  0.063653  1
  Dy  Dy19  1  0.174744  0.534192  0.936347  1
  Fe  Fe20  1  0.569283  0.750000  0.508488  1
  Fe  Fe21  1  0.430717  0.250000  0.491512  1
  Fe  Fe22  1  0.069283  0.250000  0.991512  1
  Fe  Fe23  1  0.930717  0.750000  0.008488  1
  Bi  Bi24  1  0.570549  0.494623  0.826410  1
  Bi  Bi25  1  0.429451  0.505377  0.173590  1
  Bi  Bi26  1  0.070549  0.505377  0.673590  1
  Bi  Bi27  1  0.429451  0.994623  0.173590  1
  Bi  Bi28  1  0.929451  0.494623  0.326410  1
  Bi  Bi29  1  0.570549  0.005377  0.826410  1
  Bi  Bi30  1  0.929451  0.005377  0.326410  1
  Bi  Bi31  1  0.070549  0.994623  0.673590  1
