# generated using pymatgen
data_Hf7Zr5Zn12O2
_symmetry_space_group_name_H-M   'P 1'
_cell_length_a   8.49280965
_cell_length_b   8.49122887
_cell_length_c   8.51219400
_cell_angle_alpha   59.91828357
_cell_angle_beta   59.92446084
_cell_angle_gamma   59.95096482
_symmetry_Int_Tables_number   1
_chemical_formula_structural   Hf7Zr5Zn12O2
_chemical_formula_sum   'Hf7 Zr5 Zn12 O2'
_cell_volume   433.38159924
_cell_formula_units_Z   1
loop_
 _symmetry_equiv_pos_site_id
 _symmetry_equiv_pos_as_xyz
  1  'x, y, z'
loop_
 _atom_site_type_symbol
 _atom_site_label
 _atom_site_symmetry_multiplicity
 _atom_site_fract_x
 _atom_site_fract_y
 _atom_site_fract_z
 _atom_site_occupancy
  Hf  Hf0  1  0.057774  0.442502  0.055876  1
  Hf  Hf1  1  0.807137  0.807776  0.192544  1
  Hf  Hf2  1  0.057774  0.442502  0.443848  1
  Hf  Hf3  1  0.192738  0.192572  0.807345  1
  Hf  Hf4  1  0.807431  0.192689  0.193721  1
  Hf  Hf5  1  0.807431  0.192689  0.806159  1
  Hf  Hf6  1  0.057737  0.056530  0.442866  1
  Zr  Zr7  1  0.193620  0.807249  0.193577  1
  Zr  Zr8  1  0.442226  0.056712  0.444727  1
  Zr  Zr9  1  0.442226  0.056712  0.056335  1
  Zr  Zr10  1  0.442616  0.443707  0.056839  1
  Zr  Zr11  1  0.193620  0.807249  0.805553  1
  Zn  Zn12  1  0.834630  0.500494  0.832438  1
  Zn  Zn13  1  0.418133  0.417070  0.746291  1
  Zn  Zn14  1  0.749977  0.416504  0.416759  1
  Zn  Zn15  1  0.418133  0.417070  0.418505  1
  Zn  Zn16  1  0.833100  0.832069  0.501859  1
  Zn  Zn17  1  0.418914  0.745083  0.418002  1
  Zn  Zn18  1  0.833100  0.832069  0.832972  1
  Zn  Zn19  1  0.505598  0.832247  0.831077  1
  Zn  Zn20  1  0.625449  0.124911  0.624820  1
  Zn  Zn21  1  0.625507  0.624600  0.124919  1
  Zn  Zn22  1  0.124711  0.625237  0.625026  1
  Zn  Zn23  1  0.625507  0.624600  0.624974  1
  O  O24  1  0.995052  0.006543  0.999203  1
  O  O25  1  0.239858  0.252613  0.253764  1
