# generated using pymatgen
data_Ir3Os(RuW)2
_symmetry_space_group_name_H-M   'P 1'
_cell_length_a   5.53269706
_cell_length_b   5.55252236
_cell_length_c   4.40963500
_cell_angle_alpha   90.00000000
_cell_angle_beta   90.00000000
_cell_angle_gamma   120.22593519
_symmetry_Int_Tables_number   1
_chemical_formula_structural   Ir3Os(RuW)2
_chemical_formula_sum   'Ir3 Os1 Ru2 W2'
_cell_volume   117.04887025
_cell_formula_units_Z   1
loop_
 _symmetry_equiv_pos_site_id
 _symmetry_equiv_pos_as_xyz
  1  'x, y, z'
loop_
 _atom_site_type_symbol
 _atom_site_label
 _atom_site_symmetry_multiplicity
 _atom_site_fract_x
 _atom_site_fract_y
 _atom_site_fract_z
 _atom_site_occupancy
  Ir  Ir0  1  0.670382  0.834765  0.250000  1
  Ir  Ir1  1  0.836462  0.670569  0.750000  1
  Ir  Ir2  1  0.331264  0.164417  0.750000  1
  Os  Os3  1  0.163718  0.331345  0.250000  1
  Ru  Ru4  1  0.163359  0.833666  0.250000  1
  Ru  Ru5  1  0.834815  0.166533  0.750000  1
  W  W6  1  0.329529  0.664669  0.750000  1
  W  W7  1  0.670471  0.334033  0.250000  1
