# generated using pymatgen
data_Tb6DySn22Os6Au
_symmetry_space_group_name_H-M   'P 1'
_cell_length_a   9.85861247
_cell_length_b   9.85703009
_cell_length_c   10.08445052
_cell_angle_alpha   90.00000020
_cell_angle_beta   90.00706505
_cell_angle_gamma   119.99467577
_symmetry_Int_Tables_number   1
_chemical_formula_structural   Tb6DySn22Os6Au
_chemical_formula_sum   'Tb6 Dy1 Sn22 Os6 Au1'
_cell_volume   848.72704631
_cell_formula_units_Z   1
loop_
 _symmetry_equiv_pos_site_id
 _symmetry_equiv_pos_as_xyz
  1  'x, y, z'
loop_
 _atom_site_type_symbol
 _atom_site_label
 _atom_site_symmetry_multiplicity
 _atom_site_fract_x
 _atom_site_fract_y
 _atom_site_fract_z
 _atom_site_occupancy
  Tb  Tb0  1  0.999678  0.999839  0.999951  1
  Tb  Tb1  1  0.483994  0.515966  0.303967  1
  Tb  Tb2  1  0.515901  0.483928  0.696072  1
  Tb  Tb3  1  0.483994  0.968029  0.303967  1
  Tb  Tb4  1  0.515901  0.031974  0.696072  1
  Tb  Tb5  1  0.032019  0.516009  0.303919  1
  Dy  Dy6  1  0.968744  0.484371  0.696264  1
  Sn  Sn7  1  0.349439  0.999917  0.999969  1
  Sn  Sn8  1  0.650441  0.000024  0.999993  1
  Sn  Sn9  1  0.999984  0.349549  0.000013  1
  Sn  Sn10  1  0.999984  0.650435  0.000013  1
  Sn  Sn11  1  0.650441  0.650416  0.999993  1
  Sn  Sn12  1  0.349439  0.349522  0.999969  1
  Sn  Sn13  1  0.333376  0.666688  0.826320  1
  Sn  Sn14  1  0.666605  0.333302  0.173478  1
  Sn  Sn15  1  0.779400  0.221061  0.463248  1
  Sn  Sn16  1  0.220559  0.778991  0.536963  1
  Sn  Sn17  1  0.779400  0.558340  0.463248  1
  Sn  Sn18  1  0.220559  0.441568  0.536963  1
  Sn  Sn19  1  0.441444  0.220722  0.463018  1
  Sn  Sn20  1  0.558463  0.779231  0.536987  1
  Sn  Sn21  1  0.333348  0.666674  0.126629  1
  Sn  Sn22  1  0.667460  0.333730  0.872953  1
  Sn  Sn23  1  0.117727  0.882243  0.278555  1
  Sn  Sn24  1  0.882182  0.118026  0.721405  1
  Sn  Sn25  1  0.117727  0.235484  0.278555  1
  Sn  Sn26  1  0.882182  0.764156  0.721405  1
  Sn  Sn27  1  0.764462  0.882231  0.278630  1
  Sn  Sn28  1  0.235353  0.117678  0.721560  1
  Os  Os29  1  0.831438  0.168509  0.204670  1
  Os  Os30  1  0.168388  0.831171  0.795281  1
  Os  Os31  1  0.831438  0.662928  0.204670  1
  Os  Os32  1  0.168388  0.337219  0.795281  1
  Os  Os33  1  0.337017  0.168507  0.204569  1
  Os  Os34  1  0.663123  0.831562  0.795364  1
  Au  Au35  1  0.000001  0.000000  0.500082  1
