# generated using pymatgen
data_Ti20Si15As
_symmetry_space_group_name_H-M   'P 1'
_cell_length_a   6.71726914
_cell_length_b   6.71479908
_cell_length_c   12.20041737
_cell_angle_alpha   89.99996398
_cell_angle_beta   90.12598076
_cell_angle_gamma   90.01739511
_symmetry_Int_Tables_number   1
_chemical_formula_structural   Ti20Si15As
_chemical_formula_sum   'Ti20 Si15 As1'
_cell_volume   550.29984380
_cell_formula_units_Z   1
loop_
 _symmetry_equiv_pos_site_id
 _symmetry_equiv_pos_as_xyz
  1  'x, y, z'
loop_
 _atom_site_type_symbol
 _atom_site_label
 _atom_site_symmetry_multiplicity
 _atom_site_fract_x
 _atom_site_fract_y
 _atom_site_fract_z
 _atom_site_occupancy
  Ti  Ti0  1  0.995202  0.150466  0.622525  1
  Ti  Ti1  1  0.004316  0.850045  0.121563  1
  Ti  Ti2  1  0.495697  0.350225  0.128334  1
  Ti  Ti3  1  0.505722  0.652771  0.627623  1
  Ti  Ti4  1  0.849721  0.003120  0.878502  1
  Ti  Ti5  1  0.150133  0.995609  0.378250  1
  Ti  Ti6  1  0.649906  0.504063  0.371689  1
  Ti  Ti7  1  0.349248  0.494706  0.871869  1
  Ti  Ti8  1  0.003288  0.344959  0.217995  1
  Ti  Ti9  1  0.994772  0.657128  0.719018  1
  Ti  Ti10  1  0.507536  0.152105  0.529866  1
  Ti  Ti11  1  0.496821  0.844398  0.031900  1
  Ti  Ti12  1  0.655136  0.997007  0.282002  1
  Ti  Ti13  1  0.345249  0.001398  0.782263  1
  Ti  Ti14  1  0.843650  0.498523  0.968984  1
  Ti  Ti15  1  0.154668  0.504769  0.467072  1
  Ti  Ti16  1  0.171045  0.170224  0.000025  1
  Ti  Ti17  1  0.829672  0.829946  0.499775  1
  Ti  Ti18  1  0.672088  0.329354  0.750071  1
  Ti  Ti19  1  0.329459  0.670168  0.249945  1
  Si  Si20  1  0.705734  0.641815  0.172650  1
  Si  Si21  1  0.794171  0.141645  0.077742  1
  Si  Si22  1  0.204609  0.858142  0.576862  1
  Si  Si23  1  0.640737  0.705432  0.827640  1
  Si  Si24  1  0.358235  0.294204  0.327487  1
  Si  Si25  1  0.859076  0.205778  0.422520  1
  Si  Si26  1  0.141834  0.793799  0.922580  1
  Si  Si27  1  0.037687  0.301783  0.817352  1
  Si  Si28  1  0.956023  0.699087  0.313053  1
  Si  Si29  1  0.543862  0.198670  0.936777  1
  Si  Si30  1  0.456265  0.800843  0.436105  1
  Si  Si31  1  0.699476  0.955996  0.686770  1
  Si  Si32  1  0.301480  0.043609  0.186650  1
  Si  Si33  1  0.801258  0.456726  0.563093  1
  Si  Si34  1  0.198365  0.543524  0.063533  1
  As  As35  1  0.297861  0.357965  0.669919  1
