# generated using pymatgen
data_HfTaP7Ru12
_symmetry_space_group_name_H-M   'P 1'
_cell_length_a   9.36469800
_cell_length_b   9.36469718
_cell_length_c   3.86868400
_cell_angle_alpha   90.00000000
_cell_angle_beta   90.00000000
_cell_angle_gamma   120.00000194
_symmetry_Int_Tables_number   1
_chemical_formula_structural   HfTaP7Ru12
_chemical_formula_sum   'Hf1 Ta1 P7 Ru12'
_cell_volume   293.82002785
_cell_formula_units_Z   1
loop_
 _symmetry_equiv_pos_site_id
 _symmetry_equiv_pos_as_xyz
  1  'x, y, z'
loop_
 _atom_site_type_symbol
 _atom_site_label
 _atom_site_symmetry_multiplicity
 _atom_site_fract_x
 _atom_site_fract_y
 _atom_site_fract_z
 _atom_site_occupancy
  Hf  Hf0  1  0.333333  0.666667  0.000000  1
  Ta  Ta1  1  0.666667  0.333333  0.500000  1
  P  P2  1  0.593513  0.718375  0.500000  1
  P  P3  1  0.000000  0.000000  0.000000  1
  P  P4  1  0.281625  0.875139  0.500000  1
  P  P5  1  0.124861  0.406487  0.500000  1
  P  P6  1  0.884571  0.578712  0.000000  1
  P  P7  1  0.421288  0.305859  0.000000  1
  P  P8  1  0.694141  0.115429  0.000000  1
  Ru  Ru9  1  0.551550  0.945628  0.500000  1
  Ru  Ru10  1  0.394079  0.448450  0.500000  1
  Ru  Ru11  1  0.909372  0.128922  0.500000  1
  Ru  Ru12  1  0.219550  0.090628  0.500000  1
  Ru  Ru13  1  0.871078  0.780450  0.500000  1
  Ru  Ru14  1  0.724153  0.885538  0.000000  1
  Ru  Ru15  1  0.114462  0.838614  0.000000  1
  Ru  Ru16  1  0.161386  0.275847  0.000000  1
  Ru  Ru17  1  0.437695  0.077895  0.000000  1
  Ru  Ru18  1  0.922105  0.359801  0.000000  1
  Ru  Ru19  1  0.640199  0.562305  0.000000  1
  Ru  Ru20  1  0.054372  0.605921  0.500000  1
