# generated using pymatgen
data_Gd2Y6Re(B8Ru)3
_symmetry_space_group_name_H-M   'P 1'
_cell_length_a   3.67498200
_cell_length_b   9.16399912
_cell_length_c   11.55153401
_cell_angle_alpha   89.87229274
_cell_angle_beta   90.00000000
_cell_angle_gamma   90.00000000
_symmetry_Int_Tables_number   1
_chemical_formula_structural   Gd2Y6Re(B8Ru)3
_chemical_formula_sum   'Gd2 Y6 Re1 B24 Ru3'
_cell_volume   389.02618745
_cell_formula_units_Z   1
loop_
 _symmetry_equiv_pos_site_id
 _symmetry_equiv_pos_as_xyz
  1  'x, y, z'
loop_
 _atom_site_type_symbol
 _atom_site_label
 _atom_site_symmetry_multiplicity
 _atom_site_fract_x
 _atom_site_fract_y
 _atom_site_fract_z
 _atom_site_occupancy
  Gd  Gd0  1  0.000000  0.823656  0.085035  1
  Gd  Gd1  1  0.000000  0.179566  0.911773  1
  Y  Y2  1  0.000000  0.323012  0.416482  1
  Y  Y3  1  0.000000  0.675754  0.586529  1
  Y  Y4  1  0.000000  0.443291  0.129114  1
  Y  Y5  1  0.000000  0.556433  0.872154  1
  Y  Y6  1  0.000000  0.942344  0.371672  1
  Y  Y7  1  0.000000  0.056079  0.627268  1
  Re  Re8  1  0.000000  0.362589  0.678744  1
  B  B9  1  0.500000  0.054694  0.067533  1
  B  B10  1  0.500000  0.945896  0.931931  1
  B  B11  1  0.500000  0.553571  0.432477  1
  B  B12  1  0.500000  0.447084  0.567030  1
  B  B13  1  0.500000  0.248248  0.081142  1
  B  B14  1  0.500000  0.752322  0.919031  1
  B  B15  1  0.500000  0.747131  0.419181  1
  B  B16  1  0.500000  0.252234  0.580788  1
  B  B17  1  0.500000  0.290250  0.234247  1
  B  B18  1  0.500000  0.709344  0.766620  1
  B  B19  1  0.500000  0.789952  0.266340  1
  B  B20  1  0.500000  0.209041  0.733501  1
  B  B21  1  0.500000  0.131317  0.314630  1
  B  B22  1  0.500000  0.867899  0.685685  1
  B  B23  1  0.500000  0.631688  0.185638  1
  B  B24  1  0.500000  0.368876  0.814011  1
  B  B25  1  0.500000  0.483684  0.287782  1
  B  B26  1  0.500000  0.517589  0.712509  1
  B  B27  1  0.500000  0.984187  0.212282  1
  B  B28  1  0.500000  0.015872  0.787004  1
  B  B29  1  0.500000  0.106826  0.469634  1
  B  B30  1  0.500000  0.891019  0.529539  1
  B  B31  1  0.500000  0.607006  0.030121  1
  B  B32  1  0.500000  0.393940  0.971342  1
  Ru  Ru33  1  0.000000  0.138304  0.179424  1
  Ru  Ru34  1  0.000000  0.861794  0.820906  1
  Ru  Ru35  1  0.000000  0.637507  0.320904  1
