# generated using pymatgen
data_Sr4YSc(PtO6)2
_symmetry_space_group_name_H-M   'P 1'
_cell_length_a   5.78915322
_cell_length_b   5.78698022
_cell_length_c   10.05387921
_cell_angle_alpha   54.56723391
_cell_angle_beta   90.20400784
_cell_angle_gamma   90.02250350
_symmetry_Int_Tables_number   1
_chemical_formula_structural   Sr4YSc(PtO6)2
_chemical_formula_sum   'Sr4 Y1 Sc1 Pt2 O12'
_cell_volume   274.43919194
_cell_formula_units_Z   1
loop_
 _symmetry_equiv_pos_site_id
 _symmetry_equiv_pos_as_xyz
  1  'x, y, z'
loop_
 _atom_site_type_symbol
 _atom_site_label
 _atom_site_symmetry_multiplicity
 _atom_site_fract_x
 _atom_site_fract_y
 _atom_site_fract_z
 _atom_site_occupancy
  Sr  Sr0  1  0.473810  0.745236  0.260006  1
  Sr  Sr1  1  0.526190  0.254764  0.739994  1
  Sr  Sr2  1  0.969724  0.235632  0.257812  1
  Sr  Sr3  1  0.030276  0.764368  0.742188  1
  Y  Y4  1  0.000000  0.000000  0.000000  1
  Sc  Sc5  1  0.500000  0.000000  0.500000  1
  Pt  Pt6  1  0.000000  0.500000  0.500000  1
  Pt  Pt7  1  0.500000  0.500000  0.000000  1
  O  O8  1  0.697224  0.184592  0.039908  1
  O  O9  1  0.302776  0.815408  0.960092  1
  O  O10  1  0.223376  0.799319  0.467531  1
  O  O11  1  0.776624  0.200681  0.532469  1
  O  O12  1  0.013241  0.668201  0.262976  1
  O  O13  1  0.986759  0.331799  0.737024  1
  O  O14  1  0.513225  0.322725  0.243904  1
  O  O15  1  0.486775  0.677275  0.756096  1
  O  O16  1  0.222262  0.268959  0.037781  1
  O  O17  1  0.777738  0.731041  0.962219  1
  O  O18  1  0.731879  0.755007  0.466362  1
  O  O19  1  0.268121  0.244993  0.533638  1
