# generated using pymatgen
data_Eu4Cr3WO12
_symmetry_space_group_name_H-M   'P 1'
_cell_length_a   5.52671956
_cell_length_b   5.64925310
_cell_length_c   7.93280973
_cell_angle_alpha   90.26666415
_cell_angle_beta   89.95098658
_cell_angle_gamma   90.18467382
_symmetry_Int_Tables_number   1
_chemical_formula_structural   Eu4Cr3WO12
_chemical_formula_sum   'Eu4 Cr3 W1 O12'
_cell_volume   247.67284059
_cell_formula_units_Z   1
loop_
 _symmetry_equiv_pos_site_id
 _symmetry_equiv_pos_as_xyz
  1  'x, y, z'
loop_
 _atom_site_type_symbol
 _atom_site_label
 _atom_site_symmetry_multiplicity
 _atom_site_fract_x
 _atom_site_fract_y
 _atom_site_fract_z
 _atom_site_occupancy
  Eu  Eu0  1  0.509683  0.548577  0.266766  1
  Eu  Eu1  1  0.995063  0.036897  0.265864  1
  Eu  Eu2  1  0.490317  0.451423  0.733234  1
  Eu  Eu3  1  0.004937  0.963103  0.734136  1
  Cr  Cr4  1  0.500000  0.000000  0.500000  1
  Cr  Cr5  1  0.000000  0.500000  0.500000  1
  Cr  Cr6  1  0.500000  0.000000  0.000000  1
  W  W7  1  0.000000  0.500000  0.000000  1
  O  O8  1  0.418836  0.973939  0.248032  1
  O  O9  1  0.077996  0.475868  0.248568  1
  O  O10  1  0.581164  0.026061  0.751968  1
  O  O11  1  0.922004  0.524132  0.751432  1
  O  O12  1  0.794902  0.792232  0.047569  1
  O  O13  1  0.708348  0.292152  0.461389  1
  O  O14  1  0.207298  0.210231  0.537849  1
  O  O15  1  0.285560  0.703206  0.956463  1
  O  O16  1  0.205098  0.207768  0.952431  1
  O  O17  1  0.291652  0.707848  0.538611  1
  O  O18  1  0.792702  0.789769  0.462151  1
  O  O19  1  0.714440  0.296794  0.043537  1
