# generated using pymatgen
data_Tb6Dy2Sc12Si15As
_symmetry_space_group_name_H-M   'P 1'
_cell_length_a   7.15063539
_cell_length_b   7.38773683
_cell_length_c   14.00075263
_cell_angle_alpha   90.05747867
_cell_angle_beta   88.91790876
_cell_angle_gamma   90.17832140
_symmetry_Int_Tables_number   1
_chemical_formula_structural   Tb6Dy2Sc12Si15As
_chemical_formula_sum   'Tb6 Dy2 Sc12 Si15 As1'
_cell_volume   739.48212169
_cell_formula_units_Z   1
loop_
 _symmetry_equiv_pos_site_id
 _symmetry_equiv_pos_as_xyz
  1  'x, y, z'
loop_
 _atom_site_type_symbol
 _atom_site_label
 _atom_site_symmetry_multiplicity
 _atom_site_fract_x
 _atom_site_fract_y
 _atom_site_fract_z
 _atom_site_occupancy
  Tb  Tb0  1  0.012398  0.175623  0.097376  1
  Tb  Tb1  1  0.988184  0.824920  0.902296  1
  Tb  Tb2  1  0.488026  0.675137  0.902655  1
  Tb  Tb3  1  0.992118  0.822062  0.595888  1
  Tb  Tb4  1  0.512455  0.325419  0.097344  1
  Tb  Tb5  1  0.006464  0.177921  0.403871  1
  Dy  Dy6  1  0.504981  0.322016  0.402069  1
  Dy  Dy7  1  0.499499  0.676752  0.597669  1
  Sc  Sc8  1  0.164346  0.500720  0.749821  1
  Sc  Sc9  1  0.835359  0.499236  0.252902  1
  Sc  Sc10  1  0.335854  0.000358  0.251259  1
  Sc  Sc11  1  0.664364  0.999389  0.749106  1
  Sc  Sc12  1  0.339629  0.171330  0.626645  1
  Sc  Sc13  1  0.661412  0.827104  0.373819  1
  Sc  Sc14  1  0.158817  0.672350  0.377241  1
  Sc  Sc15  1  0.668572  0.823767  0.125586  1
  Sc  Sc16  1  0.838173  0.328712  0.622568  1
  Sc  Sc17  1  0.331047  0.175698  0.873883  1
  Sc  Sc18  1  0.832107  0.323258  0.874410  1
  Sc  Sc19  1  0.168159  0.676870  0.125132  1
  Si  Si20  1  0.035582  0.117962  0.749057  1
  Si  Si21  1  0.963766  0.882752  0.249931  1
  Si  Si22  1  0.460145  0.617678  0.249119  1
  Si  Si23  1  0.538437  0.382408  0.750597  1
  Si  Si24  1  0.288718  0.871713  0.749900  1
  Si  Si25  1  0.712551  0.126516  0.249549  1
  Si  Si26  1  0.211347  0.375120  0.250120  1
  Si  Si27  1  0.790451  0.625845  0.749985  1
  Si  Si28  1  0.812980  0.539784  0.457168  1
  Si  Si29  1  0.334895  0.962645  0.460895  1
  Si  Si30  1  0.844195  0.535486  0.039321  1
  Si  Si31  1  0.665074  0.037296  0.540067  1
  Si  Si32  1  0.155549  0.465122  0.960093  1
  Si  Si33  1  0.655347  0.034881  0.959669  1
  Si  Si34  1  0.344640  0.965795  0.039962  1
  As  As35  1  0.184356  0.460360  0.543026  1
