# generated using pymatgen
data_Ta3Nb15(NiP2)4
_symmetry_space_group_name_H-M   'P 1'
_cell_length_a   11.52780881
_cell_length_b   11.52780881
_cell_length_c   3.47917000
_cell_angle_alpha   90.00000000
_cell_angle_beta   90.00000000
_cell_angle_gamma   90.09318175
_symmetry_Int_Tables_number   1
_chemical_formula_structural   Ta3Nb15(NiP2)4
_chemical_formula_sum   'Ta3 Nb15 Ni4 P8'
_cell_volume   462.34759799
_cell_formula_units_Z   1
loop_
 _symmetry_equiv_pos_site_id
 _symmetry_equiv_pos_as_xyz
  1  'x, y, z'
loop_
 _atom_site_type_symbol
 _atom_site_label
 _atom_site_symmetry_multiplicity
 _atom_site_fract_x
 _atom_site_fract_y
 _atom_site_fract_z
 _atom_site_occupancy
  Ta  Ta0  1  0.398130  0.898122  0.000000  1
  Ta  Ta1  1  0.601878  0.101870  0.000000  1
  Ta  Ta2  1  0.897925  0.602075  0.000000  1
  Nb  Nb3  1  0.000049  0.000072  0.000000  1
  Nb  Nb4  1  0.499928  0.499951  0.000000  1
  Nb  Nb5  1  0.102886  0.183039  0.500000  1
  Nb  Nb6  1  0.183339  0.897350  0.500000  1
  Nb  Nb7  1  0.816607  0.102628  0.500000  1
  Nb  Nb8  1  0.897357  0.816776  0.500000  1
  Nb  Nb9  1  0.397372  0.683393  0.500000  1
  Nb  Nb10  1  0.602650  0.316661  0.500000  1
  Nb  Nb11  1  0.683224  0.602643  0.500000  1
  Nb  Nb12  1  0.316961  0.397114  0.500000  1
  Nb  Nb13  1  0.101730  0.398270  0.000000  1
  Nb  Nb14  1  0.393646  0.106354  0.500000  1
  Nb  Nb15  1  0.106320  0.606720  0.500000  1
  Nb  Nb16  1  0.893280  0.393680  0.500000  1
  Nb  Nb17  1  0.606401  0.893599  0.500000  1
  Ni  Ni18  1  0.265011  0.234989  0.000000  1
  Ni  Ni19  1  0.235304  0.735321  0.000000  1
  Ni  Ni20  1  0.764679  0.264696  0.000000  1
  Ni  Ni21  1  0.735279  0.764721  0.000000  1
  P  P22  1  0.226449  0.052333  0.000000  1
  P  P23  1  0.052264  0.773344  0.000000  1
  P  P24  1  0.947671  0.226451  0.000000  1
  P  P25  1  0.773490  0.947702  0.000000  1
  P  P26  1  0.273549  0.552329  0.000000  1
  P  P27  1  0.726656  0.447736  0.000000  1
  P  P28  1  0.552298  0.726510  0.000000  1
  P  P29  1  0.447667  0.273551  0.000000  1
