# generated using pymatgen
data_TbY3AlNi
_symmetry_space_group_name_H-M   'P 1'
_cell_length_a   9.51815299
_cell_length_b   9.51815291
_cell_length_c   9.51815200
_cell_angle_alpha   59.99999621
_cell_angle_beta   59.99999651
_cell_angle_gamma   59.99999738
_symmetry_Int_Tables_number   1
_chemical_formula_structural   TbY3AlNi
_chemical_formula_sum   'Tb4 Y12 Al4 Ni4'
_cell_volume   609.73758246
_cell_formula_units_Z   4
loop_
 _symmetry_equiv_pos_site_id
 _symmetry_equiv_pos_as_xyz
  1  'x, y, z'
loop_
 _atom_site_type_symbol
 _atom_site_label
 _atom_site_symmetry_multiplicity
 _atom_site_fract_x
 _atom_site_fract_y
 _atom_site_fract_z
 _atom_site_occupancy
  Tb  Tb0  1  0.600454  0.600454  0.600454  1
  Tb  Tb1  1  0.600454  0.600454  0.198638  1
  Tb  Tb2  1  0.600454  0.198638  0.600454  1
  Tb  Tb3  1  0.198638  0.600454  0.600454  1
  Y  Y4  1  0.058127  0.441873  0.441873  1
  Y  Y5  1  0.441873  0.058127  0.058127  1
  Y  Y6  1  0.441873  0.058127  0.441873  1
  Y  Y7  1  0.058127  0.441873  0.058127  1
  Y  Y8  1  0.441873  0.441873  0.058127  1
  Y  Y9  1  0.058127  0.058127  0.441873  1
  Y  Y10  1  0.186709  0.813291  0.813291  1
  Y  Y11  1  0.813291  0.186709  0.186709  1
  Y  Y12  1  0.813291  0.186709  0.813291  1
  Y  Y13  1  0.186709  0.813291  0.186709  1
  Y  Y14  1  0.813291  0.813291  0.186709  1
  Y  Y15  1  0.186709  0.186709  0.813291  1
  Al  Al16  1  0.827268  0.827268  0.827268  1
  Al  Al17  1  0.827268  0.827268  0.518196  1
  Al  Al18  1  0.827268  0.518196  0.827268  1
  Al  Al19  1  0.518196  0.827268  0.827268  1
  Ni  Ni20  1  0.393252  0.393252  0.393252  1
  Ni  Ni21  1  0.393252  0.393252  0.820245  1
  Ni  Ni22  1  0.393252  0.820245  0.393252  1
  Ni  Ni23  1  0.820245  0.393252  0.393252  1
