# generated using pymatgen
data_Pr(CoO2)3
_symmetry_space_group_name_H-M   'P 1'
_cell_length_a   4.95345438
_cell_length_b   5.76290376
_cell_length_c   8.58122500
_cell_angle_alpha   89.99996023
_cell_angle_beta   89.99998843
_cell_angle_gamma   73.39572408
_symmetry_Int_Tables_number   1
_chemical_formula_structural   Pr(CoO2)3
_chemical_formula_sum   'Pr2 Co6 O12'
_cell_volume   234.74744774
_cell_formula_units_Z   2
loop_
 _symmetry_equiv_pos_site_id
 _symmetry_equiv_pos_as_xyz
  1  'x, y, z'
loop_
 _atom_site_type_symbol
 _atom_site_label
 _atom_site_symmetry_multiplicity
 _atom_site_fract_x
 _atom_site_fract_y
 _atom_site_fract_z
 _atom_site_occupancy
  Pr  Pr0  1  0.000000  0.499999  0.167028  1
  Pr  Pr1  1  0.500001  0.500000  0.666718  1
  Co  Co2  1  0.000000  0.000000  0.666695  1
  Co  Co3  1  0.500000  0.000000  0.834604  1
  Co  Co4  1  0.500000  0.000000  0.498821  1
  Co  Co5  1  0.500000  0.000000  0.166542  1
  Co  Co6  1  0.000000  0.000000  0.334560  1
  Co  Co7  1  0.000000  0.000000  0.998612  1
  O  O8  1  0.772630  0.182342  0.166658  1
  O  O9  1  0.272648  0.182338  0.666639  1
  O  O10  1  0.227369  0.817658  0.166659  1
  O  O11  1  0.727352  0.817662  0.666639  1
  O  O12  1  0.271868  0.183672  0.000116  1
  O  O13  1  0.771928  0.183673  0.499917  1
  O  O14  1  0.271908  0.183608  0.333337  1
  O  O15  1  0.771966  0.183556  0.833209  1
  O  O16  1  0.728092  0.816392  0.333337  1
  O  O17  1  0.228034  0.816445  0.833209  1
  O  O18  1  0.728132  0.816327  0.000116  1
  O  O19  1  0.228072  0.816328  0.499917  1
