# generated using pymatgen
data_K7RbBa4(ZrBi4)2
_symmetry_space_group_name_H-M   'P 1'
_cell_length_a   11.42761310
_cell_length_b   11.42418013
_cell_length_c   8.80427227
_cell_angle_alpha   88.53265965
_cell_angle_beta   88.82261366
_cell_angle_gamma   119.43259261
_symmetry_Int_Tables_number   1
_chemical_formula_structural   K7RbBa4(ZrBi4)2
_chemical_formula_sum   'K7 Rb1 Ba4 Zr2 Bi8'
_cell_volume   1000.00548935
_cell_formula_units_Z   1
loop_
 _symmetry_equiv_pos_site_id
 _symmetry_equiv_pos_as_xyz
  1  'x, y, z'
loop_
 _atom_site_type_symbol
 _atom_site_label
 _atom_site_symmetry_multiplicity
 _atom_site_fract_x
 _atom_site_fract_y
 _atom_site_fract_z
 _atom_site_occupancy
  K  K0  1  0.056961  0.524821  0.616380  1
  K  K1  1  0.526864  0.056489  0.116240  1
  K  K2  1  0.281210  0.136692  0.818176  1
  K  K3  1  0.869218  0.726248  0.765066  1
  K  K4  1  0.860765  0.144914  0.793713  1
  K  K5  1  0.726135  0.869577  0.264213  1
  K  K6  1  0.137425  0.282293  0.319420  1
  Rb  Rb7  1  0.142334  0.865413  0.297332  1
  Ba  Ba8  1  0.470227  0.939853  0.607693  1
  Ba  Ba9  1  0.469936  0.521634  0.621121  1
  Ba  Ba10  1  0.940133  0.468596  0.109362  1
  Ba  Ba11  1  0.521009  0.469227  0.121428  1
  Zr  Zr12  1  0.667678  0.334625  0.509705  1
  Zr  Zr13  1  0.334957  0.666214  0.005903  1
  Bi  Bi14  1  0.669330  0.348545  0.839812  1
  Bi  Bi15  1  0.349187  0.668239  0.336417  1
  Bi  Bi16  1  0.609102  0.797618  0.878806  1
  Bi  Bi17  1  0.195213  0.385156  0.919380  1
  Bi  Bi18  1  0.190990  0.797701  0.895370  1
  Bi  Bi19  1  0.388350  0.199315  0.421688  1
  Bi  Bi20  1  0.793924  0.606715  0.379930  1
  Bi  Bi21  1  0.799050  0.190117  0.400336  1
