# generated using pymatgen
data_Tb11YPd3Pt
_symmetry_space_group_name_H-M   'P 1'
_cell_length_a   6.51117448
_cell_length_b   7.06014240
_cell_length_c   9.71825300
_cell_angle_alpha   90.00000000
_cell_angle_beta   90.00000000
_cell_angle_gamma   89.98592886
_symmetry_Int_Tables_number   1
_chemical_formula_structural   Tb11YPd3Pt
_chemical_formula_sum   'Tb11 Y1 Pd3 Pt1'
_cell_volume   446.74631834
_cell_formula_units_Z   1
loop_
 _symmetry_equiv_pos_site_id
 _symmetry_equiv_pos_as_xyz
  1  'x, y, z'
loop_
 _atom_site_type_symbol
 _atom_site_label
 _atom_site_symmetry_multiplicity
 _atom_site_fract_x
 _atom_site_fract_y
 _atom_site_fract_z
 _atom_site_occupancy
  Tb  Tb0  1  0.636721  0.024591  0.250000  1
  Tb  Tb1  1  0.134838  0.474669  0.750000  1
  Tb  Tb2  1  0.866261  0.529038  0.250000  1
  Tb  Tb3  1  0.175422  0.178411  0.060626  1
  Tb  Tb4  1  0.824670  0.819611  0.940665  1
  Tb  Tb5  1  0.675305  0.320415  0.940101  1
  Tb  Tb6  1  0.824670  0.819611  0.559335  1
  Tb  Tb7  1  0.322526  0.681799  0.060826  1
  Tb  Tb8  1  0.175422  0.178411  0.439374  1
  Tb  Tb9  1  0.322526  0.681799  0.439174  1
  Tb  Tb10  1  0.675305  0.320415  0.559899  1
  Y  Y11  1  0.365683  0.974079  0.750000  1
  Pd  Pd12  1  0.442579  0.389141  0.250000  1
  Pd  Pd13  1  0.559435  0.610434  0.750000  1
  Pd  Pd14  1  0.940630  0.110262  0.750000  1
  Pt  Pt15  1  0.058003  0.887315  0.250000  1
