# generated using pymatgen
data_Ce2HoTh(Al3Ir)6
_symmetry_space_group_name_H-M   'P 1'
_cell_length_a   7.61415200
_cell_length_b   7.62478599
_cell_length_c   9.45918200
_cell_angle_alpha   90.00000000
_cell_angle_beta   90.00000000
_cell_angle_gamma   119.54244412
_symmetry_Int_Tables_number   1
_chemical_formula_structural   Ce2HoTh(Al3Ir)6
_chemical_formula_sum   'Ce2 Ho1 Th1 Al18 Ir6'
_cell_volume   477.76835443
_cell_formula_units_Z   1
loop_
 _symmetry_equiv_pos_site_id
 _symmetry_equiv_pos_as_xyz
  1  'x, y, z'
loop_
 _atom_site_type_symbol
 _atom_site_label
 _atom_site_symmetry_multiplicity
 _atom_site_fract_x
 _atom_site_fract_y
 _atom_site_fract_z
 _atom_site_occupancy
  Ce  Ce0  1  0.001865  0.327957  0.750000  1
  Ce  Ce1  1  0.672133  0.996123  0.250000  1
  Ho  Ho2  1  0.328276  0.006011  0.750000  1
  Th  Th3  1  0.995281  0.671301  0.250000  1
  Al  Al4  1  0.133739  0.133313  0.250000  1
  Al  Al5  1  0.871284  0.872414  0.750000  1
  Al  Al6  1  0.003630  0.333188  0.073699  1
  Al  Al7  1  0.000182  0.666693  0.919416  1
  Al  Al8  1  0.000182  0.666693  0.580584  1
  Al  Al9  1  0.338152  0.004709  0.428801  1
  Al  Al10  1  0.003630  0.333188  0.426301  1
  Al  Al11  1  0.661874  0.997531  0.577238  1
  Al  Al12  1  0.661874  0.997531  0.922762  1
  Al  Al13  1  0.338152  0.004709  0.071199  1
  Al  Al14  1  0.333607  0.332286  0.554581  1
  Al  Al15  1  0.663159  0.664908  0.453566  1
  Al  Al16  1  0.663159  0.664908  0.046434  1
  Al  Al17  1  0.333607  0.332286  0.945419  1
  Al  Al18  1  0.345062  0.548007  0.250000  1
  Al  Al19  1  0.657373  0.449748  0.750000  1
  Al  Al20  1  0.544774  0.338242  0.250000  1
  Al  Al21  1  0.448713  0.659065  0.750000  1
  Ir  Ir22  1  0.673567  0.328967  0.999968  1
  Ir  Ir23  1  0.326894  0.671662  0.000370  1
  Ir  Ir24  1  0.326894  0.671662  0.499630  1
  Ir  Ir25  1  0.673567  0.328967  0.500032  1
  Ir  Ir26  1  0.999685  0.998964  0.000522  1
  Ir  Ir27  1  0.999685  0.998964  0.499478  1
