# generated using pymatgen
data_TbY3Ga12Ir
_symmetry_space_group_name_H-M   'P 1'
_cell_length_a   7.48689758
_cell_length_b   7.47487986
_cell_length_c   7.48689800
_cell_angle_alpha   109.43871720
_cell_angle_beta   109.50371403
_cell_angle_gamma   109.43870806
_symmetry_Int_Tables_number   1
_chemical_formula_structural   TbY3Ga12Ir
_chemical_formula_sum   'Tb1 Y3 Ga12 Ir1'
_cell_volume   322.67118685
_cell_formula_units_Z   1
loop_
 _symmetry_equiv_pos_site_id
 _symmetry_equiv_pos_as_xyz
  1  'x, y, z'
loop_
 _atom_site_type_symbol
 _atom_site_label
 _atom_site_symmetry_multiplicity
 _atom_site_fract_x
 _atom_site_fract_y
 _atom_site_fract_z
 _atom_site_occupancy
  Tb  Tb0  1  0.000000  0.500000  0.000000  1
  Y  Y1  1  0.500000  0.500000  0.500000  1
  Y  Y2  1  0.000000  0.000000  0.500000  1
  Y  Y3  1  0.500000  0.000000  0.000000  1
  Ga  Ga4  1  0.500040  0.750020  0.250020  1
  Ga  Ga5  1  0.499960  0.249980  0.749980  1
  Ga  Ga6  1  0.250020  0.500000  0.749980  1
  Ga  Ga7  1  0.749980  0.500000  0.250020  1
  Ga  Ga8  1  0.749980  0.249980  0.499960  1
  Ga  Ga9  1  0.250020  0.750020  0.500040  1
  Ga  Ga10  1  0.000000  0.292302  0.292141  1
  Ga  Ga11  1  0.000000  0.707698  0.707859  1
  Ga  Ga12  1  0.292141  0.999838  0.292141  1
  Ga  Ga13  1  0.707859  0.000162  0.707859  1
  Ga  Ga14  1  0.292141  0.292302  0.000000  1
  Ga  Ga15  1  0.707859  0.707698  0.000000  1
  Ir  Ir16  1  0.000000  0.000000  0.000000  1
