# generated using pymatgen
data_Tm7Lu(OsI4)2
_symmetry_space_group_name_H-M   'P 1'
_cell_length_a   11.27393848
_cell_length_b   11.27011311
_cell_length_c   6.10547668
_cell_angle_alpha   89.28566223
_cell_angle_beta   89.24683045
_cell_angle_gamma   88.71588141
_symmetry_Int_Tables_number   1
_chemical_formula_structural   Tm7Lu(OsI4)2
_chemical_formula_sum   'Tm7 Lu1 Os2 I8'
_cell_volume   775.43376185
_cell_formula_units_Z   1
loop_
 _symmetry_equiv_pos_site_id
 _symmetry_equiv_pos_as_xyz
  1  'x, y, z'
loop_
 _atom_site_type_symbol
 _atom_site_label
 _atom_site_symmetry_multiplicity
 _atom_site_fract_x
 _atom_site_fract_y
 _atom_site_fract_z
 _atom_site_occupancy
  Tm  Tm0  1  0.804046  0.082532  0.004397  1
  Tm  Tm1  1  0.083138  0.803792  0.504218  1
  Tm  Tm2  1  0.917619  0.196024  0.495698  1
  Tm  Tm3  1  0.805868  0.921775  0.506722  1
  Tm  Tm4  1  0.194792  0.077805  0.493205  1
  Tm  Tm5  1  0.078324  0.194262  0.993241  1
  Tm  Tm6  1  0.922110  0.805560  0.006673  1
  Lu  Lu7  1  0.193118  0.918621  0.995399  1
  Os  Os8  1  0.000276  0.999762  0.250204  1
  Os  Os9  1  0.999721  0.000259  0.749674  1
  I  I10  1  0.356623  0.848401  0.512138  1
  I  I11  1  0.643648  0.151509  0.488479  1
  I  I12  1  0.152051  0.644224  0.988389  1
  I  I13  1  0.848504  0.356332  0.011566  1
  I  I14  1  0.351839  0.143920  0.995940  1
  I  I15  1  0.648228  0.855269  0.004049  1
  I  I16  1  0.855245  0.648078  0.504031  1
  I  I17  1  0.144848  0.351874  0.495978  1
