# generated using pymatgen
data_Tb2Gd4Si3Ag
_symmetry_space_group_name_H-M   'P 1'
_cell_length_a   7.55469800
_cell_length_b   7.55469796
_cell_length_c   4.29123600
_cell_angle_alpha   90.00000000
_cell_angle_beta   90.00000000
_cell_angle_gamma   87.57008375
_symmetry_Int_Tables_number   1
_chemical_formula_structural   Tb2Gd4Si3Ag
_chemical_formula_sum   'Tb2 Gd4 Si3 Ag1'
_cell_volume   244.69547201
_cell_formula_units_Z   1
loop_
 _symmetry_equiv_pos_site_id
 _symmetry_equiv_pos_as_xyz
  1  'x, y, z'
loop_
 _atom_site_type_symbol
 _atom_site_label
 _atom_site_symmetry_multiplicity
 _atom_site_fract_x
 _atom_site_fract_y
 _atom_site_fract_z
 _atom_site_occupancy
  Tb  Tb0  1  0.007152  0.001115  0.000000  1
  Tb  Tb1  1  0.501115  0.507152  0.000000  1
  Gd  Gd2  1  0.674223  0.174223  0.500000  1
  Gd  Gd3  1  0.340603  0.840603  0.500000  1
  Gd  Gd4  1  0.172565  0.312874  0.500000  1
  Gd  Gd5  1  0.812874  0.672565  0.500000  1
  Si  Si6  1  0.870384  0.370384  0.000000  1
  Si  Si7  1  0.621123  0.885392  0.000000  1
  Si  Si8  1  0.385392  0.121123  0.000000  1
  Ag  Ag9  1  0.114569  0.614569  0.000000  1
