# generated using pymatgen
data_La8Yb9Ho3Ge16
_symmetry_space_group_name_H-M   'P 1'
_cell_length_a   7.58362312
_cell_length_b   8.04798307
_cell_length_c   15.17074900
_cell_angle_alpha   89.94418490
_cell_angle_beta   89.90187303
_cell_angle_gamma   89.95708205
_symmetry_Int_Tables_number   1
_chemical_formula_structural   La8Yb9Ho3Ge16
_chemical_formula_sum   'La8 Yb9 Ho3 Ge16'
_cell_volume   925.91230275
_cell_formula_units_Z   1
loop_
 _symmetry_equiv_pos_site_id
 _symmetry_equiv_pos_as_xyz
  1  'x, y, z'
loop_
 _atom_site_type_symbol
 _atom_site_label
 _atom_site_symmetry_multiplicity
 _atom_site_fract_x
 _atom_site_fract_y
 _atom_site_fract_z
 _atom_site_occupancy
  La  La0  1  0.486437  0.315028  0.903514  1
  La  La1  1  0.985408  0.183980  0.597914  1
  La  La2  1  0.514535  0.684279  0.402861  1
  La  La3  1  0.014288  0.816681  0.098469  1
  La  La4  1  0.513699  0.685370  0.098020  1
  La  La5  1  0.013010  0.816143  0.402196  1
  La  La6  1  0.486465  0.316213  0.597757  1
  La  La7  1  0.986359  0.183682  0.901189  1
  Yb  Yb8  1  0.326392  0.824988  0.877740  1
  Yb  Yb9  1  0.825504  0.674169  0.621484  1
  Yb  Yb10  1  0.673557  0.175024  0.378802  1
  Yb  Yb11  1  0.173533  0.325627  0.122190  1
  Yb  Yb12  1  0.674214  0.173384  0.122432  1
  Yb  Yb13  1  0.161371  0.499267  0.749686  1
  Yb  Yb14  1  0.661136  0.999870  0.750271  1
  Yb  Yb15  1  0.837466  0.496580  0.248042  1
  Yb  Yb16  1  0.343677  0.002136  0.249372  1
  Ho  Ho17  1  0.170660  0.323912  0.376483  1
  Ho  Ho18  1  0.327173  0.824426  0.623403  1
  Ho  Ho19  1  0.826227  0.674764  0.876109  1
  Ge  Ge20  1  0.344918  0.034103  0.038250  1
  Ge  Ge21  1  0.848101  0.464888  0.460448  1
  Ge  Ge22  1  0.651160  0.965460  0.540019  1
  Ge  Ge23  1  0.151266  0.535916  0.960071  1
  Ge  Ge24  1  0.661274  0.962333  0.960849  1
  Ge  Ge25  1  0.164768  0.536838  0.536396  1
  Ge  Ge26  1  0.335026  0.037023  0.463763  1
  Ge  Ge27  1  0.840921  0.468298  0.035917  1
  Ge  Ge28  1  0.535372  0.610694  0.751795  1
  Ge  Ge29  1  0.035575  0.890766  0.747989  1
  Ge  Ge30  1  0.461526  0.395062  0.253123  1
  Ge  Ge31  1  0.967669  0.106710  0.250975  1
  Ge  Ge32  1  0.277406  0.124731  0.748701  1
  Ge  Ge33  1  0.777020  0.374226  0.751052  1
  Ge  Ge34  1  0.725421  0.871810  0.250887  1
  Ge  Ge35  1  0.221468  0.625620  0.251831  1
