# generated using pymatgen
data_TbSm5Co16(TcP6)2
_symmetry_space_group_name_H-M   'P 1'
_cell_length_a   3.74459200
_cell_length_b   10.60186611
_cell_length_c   12.33476213
_cell_angle_alpha   90.01658943
_cell_angle_beta   90.00000000
_cell_angle_gamma   90.00000000
_symmetry_Int_Tables_number   1
_chemical_formula_structural   TbSm5Co16(TcP6)2
_chemical_formula_sum   'Tb1 Sm5 Co16 Tc2 P12'
_cell_volume   489.68587950
_cell_formula_units_Z   1
loop_
 _symmetry_equiv_pos_site_id
 _symmetry_equiv_pos_as_xyz
  1  'x, y, z'
loop_
 _atom_site_type_symbol
 _atom_site_label
 _atom_site_symmetry_multiplicity
 _atom_site_fract_x
 _atom_site_fract_y
 _atom_site_fract_z
 _atom_site_occupancy
  Tb  Tb0  1  0.500000  0.816977  0.205893  1
  Sm  Sm1  1  0.000000  0.500241  0.522898  1
  Sm  Sm2  1  0.500000  0.999611  0.476701  1
  Sm  Sm3  1  0.500000  0.182548  0.206026  1
  Sm  Sm4  1  0.000000  0.682813  0.793710  1
  Sm  Sm5  1  0.000000  0.317191  0.794245  1
  Co  Co6  1  0.500000  0.500227  0.704006  1
  Co  Co7  1  0.000000  0.998629  0.295571  1
  Co  Co8  1  0.000000  0.500748  0.988523  1
  Co  Co9  1  0.500000  0.999176  0.012648  1
  Co  Co10  1  0.500000  0.332342  0.991392  1
  Co  Co11  1  0.500000  0.668311  0.991706  1
  Co  Co12  1  0.000000  0.167236  0.009293  1
  Co  Co13  1  0.000000  0.832147  0.009926  1
  Co  Co14  1  0.500000  0.296320  0.430459  1
  Co  Co15  1  0.500000  0.703748  0.429381  1
  Co  Co16  1  0.000000  0.203520  0.569420  1
  Co  Co17  1  0.000000  0.796385  0.568672  1
  Co  Co18  1  0.500000  0.880513  0.708554  1
  Co  Co19  1  0.500000  0.119368  0.708977  1
  Co  Co20  1  0.000000  0.620632  0.290343  1
  Co  Co21  1  0.000000  0.380966  0.291167  1
  Tc  Tc22  1  0.500000  0.500636  0.155567  1
  Tc  Tc23  1  0.000000  0.999567  0.844728  1
  P  P24  1  0.500000  0.500353  0.884148  1
  P  P25  1  0.000000  0.998751  0.117143  1
  P  P26  1  0.500000  0.499991  0.345852  1
  P  P27  1  0.000000  0.999997  0.654050  1
  P  P28  1  0.500000  0.309293  0.615138  1
  P  P29  1  0.500000  0.691067  0.614441  1
  P  P30  1  0.000000  0.190460  0.384784  1
  P  P31  1  0.000000  0.809404  0.383162  1
  P  P32  1  0.500000  0.847267  0.894310  1
  P  P33  1  0.500000  0.152503  0.894834  1
  P  P34  1  0.000000  0.653934  0.106621  1
  P  P35  1  0.000000  0.347129  0.105712  1
