# generated using pymatgen
data_Ac9Pr7(HoPb4)4
_symmetry_space_group_name_H-M   'P 1'
_cell_length_a   8.65607587
_cell_length_b   16.61319479
_cell_length_c   8.68632620
_cell_angle_alpha   90.17256627
_cell_angle_beta   90.21423931
_cell_angle_gamma   90.11006247
_symmetry_Int_Tables_number   1
_chemical_formula_structural   Ac9Pr7(HoPb4)4
_chemical_formula_sum   'Ac9 Pr7 Ho4 Pb16'
_cell_volume   1249.12105748
_cell_formula_units_Z   1
loop_
 _symmetry_equiv_pos_site_id
 _symmetry_equiv_pos_as_xyz
  1  'x, y, z'
loop_
 _atom_site_type_symbol
 _atom_site_label
 _atom_site_symmetry_multiplicity
 _atom_site_fract_x
 _atom_site_fract_y
 _atom_site_fract_z
 _atom_site_occupancy
  Ac  Ac0  1  0.125558  0.617976  0.343418  1
  Ac  Ac1  1  0.468289  0.598461  0.679870  1
  Ac  Ac2  1  0.968617  0.902572  0.821439  1
  Ac  Ac3  1  0.531130  0.098621  0.321517  1
  Ac  Ac4  1  0.032631  0.399627  0.177134  1
  Ac  Ac5  1  0.531637  0.400709  0.321525  1
  Ac  Ac6  1  0.031518  0.098922  0.178102  1
  Ac  Ac7  1  0.468897  0.902118  0.678840  1
  Ac  Ac8  1  0.967169  0.598872  0.822445  1
  Pr  Pr9  1  0.626850  0.620033  0.155426  1
  Pr  Pr10  1  0.126997  0.880227  0.344087  1
  Pr  Pr11  1  0.372503  0.119970  0.845176  1
  Pr  Pr12  1  0.873768  0.379328  0.655202  1
  Pr  Pr13  1  0.374915  0.378445  0.845738  1
  Pr  Pr14  1  0.873450  0.120579  0.655906  1
  Pr  Pr15  1  0.627038  0.881206  0.154904  1
  Ho  Ho16  1  0.788295  0.750987  0.495428  1
  Ho  Ho17  1  0.291279  0.750996  0.004551  1
  Ho  Ho18  1  0.210321  0.249376  0.505132  1
  Ho  Ho19  1  0.710334  0.249984  0.994571  1
  Pb  Pb20  1  0.713365  0.452174  0.963988  1
  Pb  Pb21  1  0.211399  0.047975  0.536094  1
  Pb  Pb22  1  0.288191  0.952505  0.036673  1
  Pb  Pb23  1  0.780426  0.547013  0.466975  1
  Pb  Pb24  1  0.291632  0.546623  0.029458  1
  Pb  Pb25  1  0.788473  0.952342  0.463994  1
  Pb  Pb26  1  0.711946  0.048279  0.963296  1
  Pb  Pb27  1  0.212820  0.448087  0.539425  1
  Pb  Pb28  1  0.434740  0.752372  0.368457  1
  Pb  Pb29  1  0.927735  0.752184  0.126302  1
  Pb  Pb30  1  0.568753  0.249784  0.631405  1
  Pb  Pb31  1  0.069119  0.249945  0.869103  1
  Pb  Pb32  1  0.659213  0.750585  0.852184  1
  Pb  Pb33  1  0.159453  0.751624  0.652164  1
  Pb  Pb34  1  0.340796  0.249671  0.148518  1
  Pb  Pb35  1  0.840741  0.249828  0.351552  1
