# generated using pymatgen
data_Nb3Fe4B7
_symmetry_space_group_name_H-M   'P 1'
_cell_length_a   9.38810011
_cell_length_b   9.38809992
_cell_length_c   8.99707500
_cell_angle_alpha   90.00000000
_cell_angle_beta   90.00000000
_cell_angle_gamma   160.35205203
_symmetry_Int_Tables_number   1
_chemical_formula_structural   Nb3Fe4B7
_chemical_formula_sum   'Nb6 Fe8 B14'
_cell_volume   266.62808366
_cell_formula_units_Z   2
loop_
 _symmetry_equiv_pos_site_id
 _symmetry_equiv_pos_as_xyz
  1  'x, y, z'
loop_
 _atom_site_type_symbol
 _atom_site_label
 _atom_site_symmetry_multiplicity
 _atom_site_fract_x
 _atom_site_fract_y
 _atom_site_fract_z
 _atom_site_occupancy
  Nb  Nb0  1  0.697152  0.302848  0.250000  1
  Nb  Nb1  1  0.302848  0.697152  0.750000  1
  Nb  Nb2  1  0.580262  0.419738  0.552475  1
  Nb  Nb3  1  0.419738  0.580262  0.447525  1
  Nb  Nb4  1  0.419738  0.580262  0.052475  1
  Nb  Nb5  1  0.580262  0.419738  0.947525  1
  Fe  Fe6  1  0.542246  0.457754  0.250000  1
  Fe  Fe7  1  0.457754  0.542246  0.750000  1
  Fe  Fe8  1  0.845091  0.154909  0.250000  1
  Fe  Fe9  1  0.154909  0.845091  0.750000  1
  Fe  Fe10  1  0.799884  0.200116  0.503481  1
  Fe  Fe11  1  0.200116  0.799884  0.496519  1
  Fe  Fe12  1  0.200116  0.799884  0.003481  1
  Fe  Fe13  1  0.799884  0.200116  0.996519  1
  B  B14  1  0.956296  0.043704  0.250000  1
  B  B15  1  0.043704  0.956296  0.750000  1
  B  B16  1  0.891887  0.108113  0.649264  1
  B  B17  1  0.108113  0.891887  0.350736  1
  B  B18  1  0.108113  0.891887  0.149264  1
  B  B19  1  0.891887  0.108113  0.850736  1
  B  B20  1  0.709118  0.290882  0.649033  1
  B  B21  1  0.290882  0.709118  0.350967  1
  B  B22  1  0.290882  0.709118  0.149033  1
  B  B23  1  0.709118  0.290882  0.850967  1
  B  B24  1  0.984990  0.015010  0.593569  1
  B  B25  1  0.015010  0.984990  0.406431  1
  B  B26  1  0.015010  0.984990  0.093569  1
  B  B27  1  0.984990  0.015010  0.906431  1
