# generated using pymatgen
data_CaTbYbGa8Ag3
_symmetry_space_group_name_H-M   'P 1'
_cell_length_a   4.37177817
_cell_length_b   8.38821583
_cell_length_c   8.38821524
_cell_angle_alpha   70.79933473
_cell_angle_beta   74.89489292
_cell_angle_gamma   74.89488924
_symmetry_Int_Tables_number   1
_chemical_formula_structural   CaTbYbGa8Ag3
_chemical_formula_sum   'Ca1 Tb1 Yb1 Ga8 Ag3'
_cell_volume   275.25155149
_cell_formula_units_Z   1
loop_
 _symmetry_equiv_pos_site_id
 _symmetry_equiv_pos_as_xyz
  1  'x, y, z'
loop_
 _atom_site_type_symbol
 _atom_site_label
 _atom_site_symmetry_multiplicity
 _atom_site_fract_x
 _atom_site_fract_y
 _atom_site_fract_z
 _atom_site_occupancy
  Ca  Ca0  1  0.498978  0.501022  0.501022  1
  Tb  Tb1  1  0.797844  0.202156  0.202156  1
  Yb  Yb2  1  0.198111  0.801889  0.801889  1
  Ga  Ga3  1  0.358587  0.360639  0.922187  1
  Ga  Ga4  1  0.644508  0.635338  0.075646  1
  Ga  Ga5  1  0.358587  0.922187  0.360639  1
  Ga  Ga6  1  0.644508  0.075646  0.635338  1
  Ga  Ga7  1  0.160621  0.470597  0.208162  1
  Ga  Ga8  1  0.837344  0.529675  0.795636  1
  Ga  Ga9  1  0.160621  0.208162  0.470597  1
  Ga  Ga10  1  0.837344  0.795636  0.529675  1
  Ag  Ag11  1  0.500865  0.999135  0.999135  1
  Ag  Ag12  1  0.001042  0.804399  0.193518  1
  Ag  Ag13  1  0.001042  0.193518  0.804399  1
