# generated using pymatgen
data_Al4V12ZnCu3N4
_symmetry_space_group_name_H-M   'P 1'
_cell_length_a   6.55688964
_cell_length_b   6.55688964
_cell_length_c   6.55688964
_cell_angle_alpha   90.03571642
_cell_angle_beta   90.03571642
_cell_angle_gamma   90.03571642
_symmetry_Int_Tables_number   1
_chemical_formula_structural   Al4V12ZnCu3N4
_chemical_formula_sum   'Al4 V12 Zn1 Cu3 N4'
_cell_volume   281.89889165
_cell_formula_units_Z   1
loop_
 _symmetry_equiv_pos_site_id
 _symmetry_equiv_pos_as_xyz
  1  'x, y, z'
loop_
 _atom_site_type_symbol
 _atom_site_label
 _atom_site_symmetry_multiplicity
 _atom_site_fract_x
 _atom_site_fract_y
 _atom_site_fract_z
 _atom_site_occupancy
  Al  Al0  1  0.177673  0.819718  0.329192  1
  Al  Al1  1  0.329192  0.177673  0.819718  1
  Al  Al2  1  0.819718  0.329192  0.177673  1
  Al  Al3  1  0.675730  0.675730  0.675730  1
  V  V4  1  0.788572  0.962066  0.375938  1
  V  V5  1  0.710553  0.038012  0.876126  1
  V  V6  1  0.211024  0.462207  0.123500  1
  V  V7  1  0.289154  0.537863  0.623501  1
  V  V8  1  0.962066  0.375938  0.788572  1
  V  V9  1  0.038012  0.876126  0.710553  1
  V  V10  1  0.462207  0.123500  0.211024  1
  V  V11  1  0.537863  0.623501  0.289154  1
  V  V12  1  0.375938  0.788572  0.962066  1
  V  V13  1  0.876126  0.710553  0.038012  1
  V  V14  1  0.123500  0.211024  0.462207  1
  V  V15  1  0.623501  0.289154  0.537863  1
  Zn  Zn16  1  0.072083  0.072083  0.072083  1
  Cu  Cu17  1  0.572324  0.428977  0.927443  1
  Cu  Cu18  1  0.428977  0.927443  0.572324  1
  Cu  Cu19  1  0.927443  0.572324  0.428977  1
  N  N20  1  0.871750  0.127087  0.626959  1
  N  N21  1  0.626959  0.871750  0.127087  1
  N  N22  1  0.127087  0.626959  0.871750  1
  N  N23  1  0.372546  0.372546  0.372546  1
