# generated using pymatgen
data_Tb9Y(CoBi2)2
_symmetry_space_group_name_H-M   'P 1'
_cell_length_a   8.07069728
_cell_length_b   8.88194600
_cell_length_c   12.47198343
_cell_angle_alpha   90.00000000
_cell_angle_beta   89.96999002
_cell_angle_gamma   90.00000000
_symmetry_Int_Tables_number   1
_chemical_formula_structural   Tb9Y(CoBi2)2
_chemical_formula_sum   'Tb18 Y2 Co4 Bi8'
_cell_volume   894.03526891
_cell_formula_units_Z   2
loop_
 _symmetry_equiv_pos_site_id
 _symmetry_equiv_pos_as_xyz
  1  'x, y, z'
loop_
 _atom_site_type_symbol
 _atom_site_label
 _atom_site_symmetry_multiplicity
 _atom_site_fract_x
 _atom_site_fract_y
 _atom_site_fract_z
 _atom_site_occupancy
  Tb  Tb0  1  0.347821  0.250000  0.698506  1
  Tb  Tb1  1  0.652179  0.750000  0.301494  1
  Tb  Tb2  1  0.379730  0.750000  0.690190  1
  Tb  Tb3  1  0.620270  0.250000  0.309810  1
  Tb  Tb4  1  0.879435  0.250000  0.809703  1
  Tb  Tb5  1  0.120565  0.750000  0.190297  1
  Tb  Tb6  1  0.954474  0.750000  0.502314  1
  Tb  Tb7  1  0.045526  0.250000  0.497686  1
  Tb  Tb8  1  0.454472  0.250000  0.997655  1
  Tb  Tb9  1  0.545528  0.750000  0.002345  1
  Tb  Tb10  1  0.676800  0.033840  0.562937  1
  Tb  Tb11  1  0.323200  0.966160  0.437063  1
  Tb  Tb12  1  0.176777  0.966117  0.937269  1
  Tb  Tb13  1  0.323200  0.533840  0.437063  1
  Tb  Tb14  1  0.823223  0.033883  0.062731  1
  Tb  Tb15  1  0.676800  0.466160  0.562937  1
  Tb  Tb16  1  0.823223  0.466117  0.062731  1
  Tb  Tb17  1  0.176777  0.533883  0.937269  1
  Y  Y18  1  0.847611  0.750000  0.800925  1
  Y  Y19  1  0.152389  0.250000  0.199075  1
  Co  Co20  1  0.559724  0.750000  0.508205  1
  Co  Co21  1  0.440276  0.250000  0.491795  1
  Co  Co22  1  0.059205  0.250000  0.991194  1
  Co  Co23  1  0.940795  0.750000  0.008806  1
  Bi  Bi24  1  0.571019  0.492436  0.825509  1
  Bi  Bi25  1  0.428981  0.507564  0.174491  1
  Bi  Bi26  1  0.070504  0.508016  0.674574  1
  Bi  Bi27  1  0.428981  0.992436  0.174491  1
  Bi  Bi28  1  0.929496  0.491984  0.325426  1
  Bi  Bi29  1  0.571019  0.007564  0.825509  1
  Bi  Bi30  1  0.929496  0.008016  0.325426  1
  Bi  Bi31  1  0.070504  0.991984  0.674574  1
