# generated using pymatgen
data_SrTh2Zr(Al3Ir)6
_symmetry_space_group_name_H-M   'P 1'
_cell_length_a   7.60550664
_cell_length_b   7.62265462
_cell_length_c   9.49126900
_cell_angle_alpha   90.00000000
_cell_angle_beta   90.00000000
_cell_angle_gamma   119.53829259
_symmetry_Int_Tables_number   1
_chemical_formula_structural   SrTh2Zr(Al3Ir)6
_chemical_formula_sum   'Sr1 Th2 Zr1 Al18 Ir6'
_cell_volume   478.73050843
_cell_formula_units_Z   1
loop_
 _symmetry_equiv_pos_site_id
 _symmetry_equiv_pos_as_xyz
  1  'x, y, z'
loop_
 _atom_site_type_symbol
 _atom_site_label
 _atom_site_symmetry_multiplicity
 _atom_site_fract_x
 _atom_site_fract_y
 _atom_site_fract_z
 _atom_site_occupancy
  Sr  Sr0  1  0.005949  0.329075  0.750000  1
  Th  Th1  1  0.994380  0.670591  0.250000  1
  Th  Th2  1  0.672623  0.995920  0.250000  1
  Zr  Zr3  1  0.328747  0.004309  0.750000  1
  Al  Al4  1  0.136881  0.134476  0.250000  1
  Al  Al5  1  0.878328  0.873253  0.750000  1
  Al  Al6  1  0.006573  0.335987  0.070522  1
  Al  Al7  1  0.003624  0.669929  0.917812  1
  Al  Al8  1  0.003624  0.669929  0.582188  1
  Al  Al9  1  0.334946  0.003804  0.435132  1
  Al  Al10  1  0.006573  0.335987  0.429478  1
  Al  Al11  1  0.659679  0.999503  0.582204  1
  Al  Al12  1  0.659679  0.999503  0.917796  1
  Al  Al13  1  0.334946  0.003804  0.064868  1
  Al  Al14  1  0.333138  0.329147  0.556203  1
  Al  Al15  1  0.662487  0.662781  0.457935  1
  Al  Al16  1  0.662487  0.662781  0.042065  1
  Al  Al17  1  0.333138  0.329147  0.943797  1
  Al  Al18  1  0.340992  0.543923  0.250000  1
  Al  Al19  1  0.649507  0.441370  0.750000  1
  Al  Al20  1  0.541500  0.338219  0.250000  1
  Al  Al21  1  0.451539  0.667614  0.750000  1
  Ir  Ir22  1  0.671582  0.328433  0.002665  1
  Ir  Ir23  1  0.329792  0.674452  0.001700  1
  Ir  Ir24  1  0.329792  0.674452  0.498300  1
  Ir  Ir25  1  0.671582  0.328433  0.497335  1
  Ir  Ir26  1  0.997956  0.996591  0.003266  1
  Ir  Ir27  1  0.997956  0.996591  0.496734  1
