# generated using pymatgen
data_Er3Tm7(InBi)3
_symmetry_space_group_name_H-M   'P 1'
_cell_length_a   6.49629700
_cell_length_b   8.96287981
_cell_length_c   8.96364300
_cell_angle_alpha   119.99718200
_cell_angle_beta   90.00009855
_cell_angle_gamma   89.99979552
_symmetry_Int_Tables_number   1
_chemical_formula_structural   Er3Tm7(InBi)3
_chemical_formula_sum   'Er3 Tm7 In3 Bi3'
_cell_volume   452.00262724
_cell_formula_units_Z   1
loop_
 _symmetry_equiv_pos_site_id
 _symmetry_equiv_pos_as_xyz
  1  'x, y, z'
loop_
 _atom_site_type_symbol
 _atom_site_label
 _atom_site_symmetry_multiplicity
 _atom_site_fract_x
 _atom_site_fract_y
 _atom_site_fract_z
 _atom_site_occupancy
  Er  Er0  1  0.749991  0.236241  0.000000  1
  Er  Er1  1  0.749998  0.763538  0.763614  1
  Er  Er2  1  0.749998  0.999923  0.236386  1
  Tm  Tm3  1  0.492331  0.333338  0.666659  1
  Tm  Tm4  1  0.492331  0.666679  0.333341  1
  Tm  Tm5  1  0.007673  0.666676  0.333347  1
  Tm  Tm6  1  0.007673  0.333330  0.666653  1
  Tm  Tm7  1  0.250002  0.762301  0.000000  1
  Tm  Tm8  1  0.249993  0.237922  0.237822  1
  Tm  Tm9  1  0.249993  0.000100  0.762178  1
  In  In10  1  0.250002  0.393607  0.000000  1
  In  In11  1  0.250006  0.606513  0.606492  1
  In  In12  1  0.250006  0.000020  0.393508  1
  Bi  Bi13  1  0.750003  0.603608  0.000000  1
  Bi  Bi14  1  0.749998  0.396227  0.396250  1
  Bi  Bi15  1  0.749998  0.999979  0.603750  1
