# generated using pymatgen
data_Ho4Tm4Sc12Si15Bi
_symmetry_space_group_name_H-M   'P 1'
_cell_length_a   7.13803594
_cell_length_b   7.38389106
_cell_length_c   14.01286160
_cell_angle_alpha   90.08491302
_cell_angle_beta   88.69099750
_cell_angle_gamma   90.20499090
_symmetry_Int_Tables_number   1
_chemical_formula_structural   Ho4Tm4Sc12Si15Bi
_chemical_formula_sum   'Ho4 Tm4 Sc12 Si15 Bi1'
_cell_volume   738.37041350
_cell_formula_units_Z   1
loop_
 _symmetry_equiv_pos_site_id
 _symmetry_equiv_pos_as_xyz
  1  'x, y, z'
loop_
 _atom_site_type_symbol
 _atom_site_label
 _atom_site_symmetry_multiplicity
 _atom_site_fract_x
 _atom_site_fract_y
 _atom_site_fract_z
 _atom_site_occupancy
  Ho  Ho0  1  0.012469  0.177335  0.096360  1
  Ho  Ho1  1  0.987751  0.824230  0.904512  1
  Ho  Ho2  1  0.488787  0.675935  0.904625  1
  Ho  Ho3  1  0.992308  0.831196  0.597972  1
  Tm  Tm4  1  0.511878  0.323592  0.097417  1
  Tm  Tm5  1  0.999521  0.170249  0.398806  1
  Tm  Tm6  1  0.512143  0.316216  0.397570  1
  Tm  Tm7  1  0.512553  0.687372  0.601088  1
  Sc  Sc8  1  0.164170  0.501106  0.756030  1
  Sc  Sc9  1  0.834776  0.498013  0.251604  1
  Sc  Sc10  1  0.335144  0.002633  0.250267  1
  Sc  Sc11  1  0.666574  0.998353  0.751215  1
  Sc  Sc12  1  0.348777  0.155944  0.631826  1
  Sc  Sc13  1  0.658976  0.827059  0.372421  1
  Sc  Sc14  1  0.154436  0.683517  0.368870  1
  Sc  Sc15  1  0.667429  0.822475  0.123978  1
  Sc  Sc16  1  0.826572  0.326230  0.625699  1
  Sc  Sc17  1  0.330808  0.175917  0.875480  1
  Sc  Sc18  1  0.830972  0.323602  0.875783  1
  Sc  Sc19  1  0.168857  0.676392  0.124970  1
  Si  Si20  1  0.036066  0.118132  0.751299  1
  Si  Si21  1  0.961413  0.886720  0.246043  1
  Si  Si22  1  0.461766  0.614353  0.247536  1
  Si  Si23  1  0.535340  0.386087  0.752731  1
  Si  Si24  1  0.289121  0.866082  0.752849  1
  Si  Si25  1  0.711101  0.128321  0.246563  1
  Si  Si26  1  0.210542  0.371697  0.249098  1
  Si  Si27  1  0.792524  0.629600  0.751579  1
  Si  Si28  1  0.810843  0.539998  0.456726  1
  Si  Si29  1  0.329384  0.964394  0.459791  1
  Si  Si30  1  0.842463  0.533641  0.039982  1
  Si  Si31  1  0.671404  0.038530  0.538169  1
  Si  Si32  1  0.156030  0.465572  0.961509  1
  Si  Si33  1  0.655670  0.034837  0.960532  1
  Si  Si34  1  0.343035  0.966883  0.040257  1
  Bi  Bi35  1  0.188391  0.457784  0.538841  1
