# generated using pymatgen
data_Ba3AlGaCl2O5
_symmetry_space_group_name_H-M   'P 1'
_cell_length_a   8.58064781
_cell_length_b   8.65020246
_cell_length_c   8.58065381
_cell_angle_alpha   109.48865470
_cell_angle_beta   109.13228769
_cell_angle_gamma   109.46467255
_symmetry_Int_Tables_number   1
_chemical_formula_structural   Ba3AlGaCl2O5
_chemical_formula_sum   'Ba6 Al2 Ga2 Cl4 O10'
_cell_volume   492.25119874
_cell_formula_units_Z   2
loop_
 _symmetry_equiv_pos_site_id
 _symmetry_equiv_pos_as_xyz
  1  'x, y, z'
loop_
 _atom_site_type_symbol
 _atom_site_label
 _atom_site_symmetry_multiplicity
 _atom_site_fract_x
 _atom_site_fract_y
 _atom_site_fract_z
 _atom_site_occupancy
  Ba  Ba0  1  0.657715  0.405737  0.251763  1
  Ba  Ba1  1  0.249151  0.655399  0.405257  1
  Ba  Ba2  1  0.846026  0.094263  0.751978  1
  Ba  Ba3  1  0.404075  0.249999  0.654077  1
  Ba  Ba4  1  0.092472  0.750000  0.842472  1
  Ba  Ba5  1  0.749858  0.844600  0.093751  1
  Al  Al6  1  0.001288  0.309921  0.497435  1
  Al  Al7  1  0.187516  0.190080  0.191368  1
  Ga  Ga8  1  0.501463  0.003847  0.311889  1
  Ga  Ga9  1  0.308043  0.496153  0.997616  1
  Cl  Cl10  1  0.000167  0.883087  0.499498  1
  Cl  Cl11  1  0.616410  0.616911  0.617080  1
  Cl  Cl12  1  0.885616  0.499149  0.999453  1
  Cl  Cl13  1  0.500304  0.000851  0.886467  1
  O  O14  1  0.987274  0.987411  0.988463  1
  O  O15  1  0.001053  0.512590  0.499864  1
  O  O16  1  0.522102  0.499086  0.000147  1
  O  O17  1  0.501061  0.000915  0.523016  1
  O  O18  1  0.112338  0.358669  0.739881  1
  O  O19  1  0.757654  0.121126  0.367181  1
  O  O20  1  0.130434  0.250000  0.380434  1
  O  O21  1  0.246056  0.378874  0.136528  1
  O  O22  1  0.381211  0.141330  0.253668  1
  O  O23  1  0.360712  0.750000  0.110711  1
