# generated using pymatgen
data_Zr10Tl2Zn2BiPb3
_symmetry_space_group_name_H-M   'P 1'
_cell_length_a   8.83362300
_cell_length_b   8.83107299
_cell_length_c   5.95844400
_cell_angle_alpha   90.00000000
_cell_angle_beta   90.00000000
_cell_angle_gamma   120.00955611
_symmetry_Int_Tables_number   1
_chemical_formula_structural   Zr10Tl2Zn2BiPb3
_chemical_formula_sum   'Zr10 Tl2 Zn2 Bi1 Pb3'
_cell_volume   402.50752200
_cell_formula_units_Z   1
loop_
 _symmetry_equiv_pos_site_id
 _symmetry_equiv_pos_as_xyz
  1  'x, y, z'
loop_
 _atom_site_type_symbol
 _atom_site_label
 _atom_site_symmetry_multiplicity
 _atom_site_fract_x
 _atom_site_fract_y
 _atom_site_fract_z
 _atom_site_occupancy
  Zr  Zr0  1  0.333128  0.665860  0.998390  1
  Zr  Zr1  1  0.667269  0.334140  0.501610  1
  Zr  Zr2  1  0.667269  0.334140  0.998390  1
  Zr  Zr3  1  0.333128  0.665860  0.501610  1
  Zr  Zr4  1  0.262552  0.000000  0.250000  1
  Zr  Zr5  1  0.263128  0.264360  0.750000  1
  Zr  Zr6  1  0.998768  0.735640  0.750000  1
  Zr  Zr7  1  0.000480  0.262924  0.250000  1
  Zr  Zr8  1  0.737556  0.737076  0.250000  1
  Zr  Zr9  1  0.736916  0.000000  0.750000  1
  Tl  Tl10  1  0.615753  0.615766  0.750000  1
  Tl  Tl11  1  0.999986  0.384234  0.750000  1
  Zn  Zn12  1  0.000096  0.000000  0.997698  1
  Zn  Zn13  1  0.000096  0.000000  0.502302  1
  Bi  Bi14  1  0.615376  0.000000  0.250000  1
  Pb  Pb15  1  0.999748  0.614616  0.250000  1
  Pb  Pb16  1  0.385132  0.385384  0.250000  1
  Pb  Pb17  1  0.383620  0.000000  0.750000  1
