# generated using pymatgen
data_Ho2Th(InIr)3
_symmetry_space_group_name_H-M   'P 1'
_cell_length_a   7.56703440
_cell_length_b   7.56703476
_cell_length_c   3.92510300
_cell_angle_alpha   90.00000000
_cell_angle_beta   90.00000000
_cell_angle_gamma   118.47234440
_symmetry_Int_Tables_number   1
_chemical_formula_structural   Ho2Th(InIr)3
_chemical_formula_sum   'Ho2 Th1 In3 Ir3'
_cell_volume   197.56715793
_cell_formula_units_Z   1
loop_
 _symmetry_equiv_pos_site_id
 _symmetry_equiv_pos_as_xyz
  1  'x, y, z'
loop_
 _atom_site_type_symbol
 _atom_site_label
 _atom_site_symmetry_multiplicity
 _atom_site_fract_x
 _atom_site_fract_y
 _atom_site_fract_z
 _atom_site_occupancy
  Ho  Ho0  1  0.405582  0.001541  0.000000  1
  Ho  Ho1  1  0.001541  0.405582  0.000000  1
  Th  Th2  1  0.584112  0.584112  0.000000  1
  In  In3  1  0.009750  0.743102  0.500000  1
  In  In4  1  0.245550  0.245550  0.500000  1
  In  In5  1  0.743102  0.009750  0.500000  1
  Ir  Ir6  1  0.996149  0.996149  0.000000  1
  Ir  Ir7  1  0.667716  0.346498  0.500000  1
  Ir  Ir8  1  0.346498  0.667716  0.500000  1
