# generated using pymatgen
data_HoTm4Bi3C
_symmetry_space_group_name_H-M   'P 1'
_cell_length_a   6.41730600
_cell_length_b   9.07348510
_cell_length_c   9.07488009
_cell_angle_alpha   119.99490639
_cell_angle_beta   89.99909649
_cell_angle_gamma   90.00181110
_symmetry_Int_Tables_number   1
_chemical_formula_structural   HoTm4Bi3C
_chemical_formula_sum   'Ho2 Tm8 Bi6 C2'
_cell_volume   457.63654065
_cell_formula_units_Z   2
loop_
 _symmetry_equiv_pos_site_id
 _symmetry_equiv_pos_as_xyz
  1  'x, y, z'
loop_
 _atom_site_type_symbol
 _atom_site_label
 _atom_site_symmetry_multiplicity
 _atom_site_fract_x
 _atom_site_fract_y
 _atom_site_fract_z
 _atom_site_occupancy
  Ho  Ho0  1  0.999999  0.666653  0.333306  1
  Ho  Ho1  1  0.999999  0.333347  0.666694  1
  Tm  Tm2  1  0.499998  0.333346  0.666704  1
  Tm  Tm3  1  0.499998  0.666642  0.333296  1
  Tm  Tm4  1  0.749897  0.205376  0.000000  1
  Tm  Tm5  1  0.749883  0.794653  0.794685  1
  Tm  Tm6  1  0.749883  0.999968  0.205315  1
  Tm  Tm7  1  0.250093  0.794646  0.000000  1
  Tm  Tm8  1  0.250123  0.205361  0.205323  1
  Tm  Tm9  1  0.250123  0.000037  0.794677  1
  Bi  Bi10  1  0.749221  0.599180  0.000000  1
  Bi  Bi11  1  0.749230  0.400770  0.400772  1
  Bi  Bi12  1  0.749230  0.999998  0.599228  1
  Bi  Bi13  1  0.250781  0.400800  0.000000  1
  Bi  Bi14  1  0.250769  0.599220  0.599224  1
  Bi  Bi15  1  0.250769  0.999997  0.400776  1
  C  C16  1  0.500004  0.000003  0.000000  1
  C  C17  1  0.000000  0.000003  0.000000  1
