# generated using pymatgen
data_Rb4TaNb5Cl18
_symmetry_space_group_name_H-M   'P 1'
_cell_length_a   10.09230219
_cell_length_b   10.09230457
_cell_length_c   10.00232600
_cell_angle_alpha   76.67203783
_cell_angle_beta   76.67198796
_cell_angle_gamma   116.35339233
_symmetry_Int_Tables_number   1
_chemical_formula_structural   Rb4TaNb5Cl18
_chemical_formula_sum   'Rb4 Ta1 Nb5 Cl18'
_cell_volume   821.04254164
_cell_formula_units_Z   1
loop_
 _symmetry_equiv_pos_site_id
 _symmetry_equiv_pos_as_xyz
  1  'x, y, z'
loop_
 _atom_site_type_symbol
 _atom_site_label
 _atom_site_symmetry_multiplicity
 _atom_site_fract_x
 _atom_site_fract_y
 _atom_site_fract_z
 _atom_site_occupancy
  Rb  Rb0  1  0.732665  0.051929  0.326754  1
  Rb  Rb1  1  0.267772  0.948371  0.673444  1
  Rb  Rb2  1  0.948372  0.267773  0.673444  1
  Rb  Rb3  1  0.051930  0.732666  0.326754  1
  Ta  Ta4  1  0.612904  0.612904  0.125118  1
  Nb  Nb5  1  0.386412  0.386411  0.874230  1
  Nb  Nb6  1  0.454824  0.283689  0.137293  1
  Nb  Nb7  1  0.544945  0.716113  0.862417  1
  Nb  Nb8  1  0.716113  0.544945  0.862418  1
  Nb  Nb9  1  0.283689  0.454824  0.137292  1
  Cl  Cl10  1  0.702835  0.297172  0.999988  1
  Cl  Cl11  1  0.297172  0.702835  0.999988  1
  Cl  Cl12  1  0.395334  0.006908  0.315580  1
  Cl  Cl13  1  0.605328  0.993609  0.685060  1
  Cl  Cl14  1  0.993609  0.605328  0.685060  1
  Cl  Cl15  1  0.006908  0.395333  0.315580  1
  Cl  Cl16  1  0.314515  0.110789  0.014409  1
  Cl  Cl17  1  0.685217  0.887141  0.987477  1
  Cl  Cl18  1  0.887141  0.685216  0.987477  1
  Cl  Cl19  1  0.110789  0.314516  0.014408  1
  Cl  Cl20  1  0.753904  0.753904  0.279540  1
  Cl  Cl21  1  0.244185  0.244185  0.718441  1
  Cl  Cl22  1  0.810229  0.810229  0.674828  1
  Cl  Cl23  1  0.189760  0.189760  0.325124  1
  Cl  Cl24  1  0.580330  0.380230  0.308043  1
  Cl  Cl25  1  0.420413  0.622477  0.690897  1
  Cl  Cl26  1  0.622478  0.420414  0.690897  1
  Cl  Cl27  1  0.380229  0.580330  0.308043  1
