# generated using pymatgen
data_Ca12Np3Ga12Sn5O48
_symmetry_space_group_name_H-M   'P 1'
_cell_length_a   11.12766905
_cell_length_b   11.10736098
_cell_length_c   11.10736132
_cell_angle_alpha   109.43415901
_cell_angle_beta   109.50826273
_cell_angle_gamma   109.50825593
_symmetry_Int_Tables_number   1
_chemical_formula_structural   Ca12Np3Ga12Sn5O48
_chemical_formula_sum   'Ca12 Np3 Ga12 Sn5 O48'
_cell_volume   1056.34397437
_cell_formula_units_Z   1
loop_
 _symmetry_equiv_pos_site_id
 _symmetry_equiv_pos_as_xyz
  1  'x, y, z'
loop_
 _atom_site_type_symbol
 _atom_site_label
 _atom_site_symmetry_multiplicity
 _atom_site_fract_x
 _atom_site_fract_y
 _atom_site_fract_z
 _atom_site_occupancy
  Ca  Ca0  1  0.256208  0.382198  0.126825  1
  Ca  Ca1  1  0.743792  0.617802  0.873175  1
  Ca  Ca2  1  0.750525  0.122334  0.371701  1
  Ca  Ca3  1  0.128191  0.249367  0.377666  1
  Ca  Ca4  1  0.374010  0.744628  0.117802  1
  Ca  Ca5  1  0.249475  0.877666  0.628299  1
  Ca  Ca6  1  0.871809  0.750633  0.622334  1
  Ca  Ca7  1  0.625990  0.255372  0.882198  1
  Ca  Ca8  1  0.378824  0.128299  0.250633  1
  Ca  Ca9  1  0.621176  0.871701  0.749367  1
  Ca  Ca10  1  0.129382  0.373175  0.755372  1
  Ca  Ca11  1  0.870618  0.626825  0.244628  1
  Np  Np12  1  0.000000  0.000000  0.000000  1
  Np  Np13  1  0.500000  0.000000  0.500000  1
  Np  Np14  1  0.000000  0.500000  0.500000  1
  Ga  Ga15  1  0.249954  0.619925  0.370777  1
  Ga  Ga16  1  0.750046  0.380075  0.629223  1
  Ga  Ga17  1  0.746076  0.872102  0.128558  1
  Ga  Ga18  1  0.373973  0.256456  0.627898  1
  Ga  Ga19  1  0.626027  0.743544  0.372102  1
  Ga  Ga20  1  0.253924  0.127898  0.871442  1
  Ga  Ga21  1  0.130029  0.750852  0.880075  1
  Ga  Ga22  1  0.869971  0.249148  0.119925  1
  Ga  Ga23  1  0.617518  0.371442  0.243544  1
  Ga  Ga24  1  0.382482  0.628558  0.756456  1
  Ga  Ga25  1  0.879176  0.129223  0.749148  1
  Ga  Ga26  1  0.120824  0.870777  0.250852  1
  Sn  Sn27  1  0.500000  0.000000  0.000000  1
  Sn  Sn28  1  0.500000  0.500000  0.000000  1
  Sn  Sn29  1  0.500000  0.500000  0.500000  1
  Sn  Sn30  1  0.000000  0.000000  0.500000  1
  Sn  Sn31  1  0.000000  0.500000  0.000000  1
  O  O32  1  0.474946  0.376419  0.294111  1
  O  O33  1  0.525054  0.623581  0.705889  1
  O  O34  1  0.583165  0.182279  0.204568  1
  O  O35  1  0.917061  0.122993  0.597328  1
  O  O36  1  0.294068  0.474335  0.377007  1
  O  O37  1  0.315222  0.917243  0.294941  1
  O  O38  1  0.416835  0.817721  0.795432  1
  O  O39  1  0.082939  0.877007  0.402672  1
  O  O40  1  0.705932  0.525665  0.622993  1
  O  O41  1  0.684778  0.082757  0.705059  1
  O  O42  1  0.024278  0.318656  0.902200  1
  O  O43  1  0.205622  0.583544  0.181344  1
  O  O44  1  0.123946  0.021521  0.206487  1
  O  O45  1  0.975722  0.681344  0.097800  1
  O  O46  1  0.794378  0.416456  0.818656  1
  O  O47  1  0.876054  0.978479  0.793513  1
  O  O48  1  0.598526  0.917692  0.123581  1
  O  O49  1  0.184403  0.481771  0.601791  1
  O  O50  1  0.401474  0.082308  0.876419  1
  O  O51  1  0.815597  0.518229  0.398209  1
  O  O52  1  0.900886  0.022289  0.317721  1
  O  O53  1  0.376716  0.580422  0.899915  1
  O  O54  1  0.099114  0.977711  0.682279  1
  O  O55  1  0.623284  0.419578  0.100085  1
  O  O56  1  0.378597  0.295432  0.477711  1
  O  O57  1  0.582612  0.898209  0.379980  1
  O  O58  1  0.621403  0.704568  0.522289  1
  O  O59  1  0.417388  0.101791  0.620020  1
  O  O60  1  0.122078  0.597800  0.916456  1
  O  O61  1  0.020281  0.205059  0.122301  1
  O  O62  1  0.877922  0.402200  0.083544  1
  O  O63  1  0.979719  0.794941  0.877699  1
  O  O64  1  0.319733  0.902672  0.025665  1
  O  O65  1  0.917459  0.293513  0.315034  1
  O  O66  1  0.680267  0.097328  0.974335  1
  O  O67  1  0.082541  0.706487  0.684966  1
  O  O68  1  0.180835  0.205889  0.582308  1
  O  O69  1  0.476801  0.600085  0.180508  1
  O  O70  1  0.819165  0.794111  0.417692  1
  O  O71  1  0.523199  0.399915  0.819492  1
  O  O72  1  0.296293  0.319492  0.919578  1
  O  O73  1  0.703707  0.680508  0.080422  1
  O  O74  1  0.202632  0.120020  0.018229  1
  O  O75  1  0.797368  0.879980  0.981771  1
  O  O76  1  0.897979  0.377699  0.582757  1
  O  O77  1  0.102021  0.622301  0.417243  1
  O  O78  1  0.602425  0.184966  0.478479  1
  O  O79  1  0.397575  0.815034  0.521521  1
