# generated using pymatgen
data_Ho20Ir3Ru5Pt4
_symmetry_space_group_name_H-M   'P 1'
_cell_length_a   10.85537597
_cell_length_b   10.85537532
_cell_length_c   6.42418820
_cell_angle_alpha   90.01742594
_cell_angle_beta   90.01742384
_cell_angle_gamma   90.66438918
_symmetry_Int_Tables_number   1
_chemical_formula_structural   Ho20Ir3Ru5Pt4
_chemical_formula_sum   'Ho20 Ir3 Ru5 Pt4'
_cell_volume   756.97010635
_cell_formula_units_Z   1
loop_
 _symmetry_equiv_pos_site_id
 _symmetry_equiv_pos_as_xyz
  1  'x, y, z'
loop_
 _atom_site_type_symbol
 _atom_site_label
 _atom_site_symmetry_multiplicity
 _atom_site_fract_x
 _atom_site_fract_y
 _atom_site_fract_z
 _atom_site_occupancy
  Ho  Ho0  1  0.296266  0.082341  0.373003  1
  Ho  Ho1  1  0.293227  0.910051  0.880356  1
  Ho  Ho2  1  0.707230  0.090377  0.880276  1
  Ho  Ho3  1  0.704518  0.918440  0.372091  1
  Ho  Ho4  1  0.582006  0.796092  0.872974  1
  Ho  Ho5  1  0.591140  0.206622  0.380285  1
  Ho  Ho6  1  0.409882  0.793996  0.379867  1
  Ho  Ho7  1  0.418300  0.203881  0.872806  1
  Ho  Ho8  1  0.203908  0.417994  0.627026  1
  Ho  Ho9  1  0.206004  0.590118  0.120133  1
  Ho  Ho10  1  0.793378  0.408860  0.119715  1
  Ho  Ho11  1  0.796119  0.581700  0.627194  1
  Ho  Ho12  1  0.917659  0.703734  0.126997  1
  Ho  Ho13  1  0.909623  0.292770  0.619724  1
  Ho  Ho14  1  0.089949  0.706773  0.619644  1
  Ho  Ho15  1  0.081560  0.295482  0.127909  1
  Ho  Ho16  1  0.999642  0.001339  0.497990  1
  Ho  Ho17  1  0.998661  0.000358  0.002010  1
  Ho  Ho18  1  0.499949  0.500019  0.998901  1
  Ho  Ho19  1  0.499981  0.500051  0.501099  1
  Ir  Ir20  1  0.151008  0.848992  0.250000  1
  Ir  Ir21  1  0.649958  0.350042  0.750000  1
  Ir  Ir22  1  0.349339  0.650661  0.750000  1
  Ru  Ru23  1  0.850212  0.149788  0.250000  1
  Ru  Ru24  1  0.500154  0.000279  0.124033  1
  Ru  Ru25  1  0.499821  0.000085  0.624409  1
  Ru  Ru26  1  0.999915  0.500179  0.875591  1
  Ru  Ru27  1  0.999721  0.499846  0.375967  1
  Pt  Pt28  1  0.845335  0.844945  0.749483  1
  Pt  Pt29  1  0.155055  0.154665  0.750517  1
  Pt  Pt30  1  0.654651  0.654172  0.249740  1
  Pt  Pt31  1  0.345828  0.345349  0.250260  1
