# generated using pymatgen
data_Ca2PrPa(AsPd)4
_symmetry_space_group_name_H-M   'P 1'
_cell_length_a   4.39139800
_cell_length_b   7.65956647
_cell_length_c   7.51649369
_cell_angle_alpha   89.87907525
_cell_angle_beta   90.00000000
_cell_angle_gamma   90.00000000
_symmetry_Int_Tables_number   1
_chemical_formula_structural   Ca2PrPa(AsPd)4
_chemical_formula_sum   'Ca2 Pr1 Pa1 As4 Pd4'
_cell_volume   252.82575856
_cell_formula_units_Z   1
loop_
 _symmetry_equiv_pos_site_id
 _symmetry_equiv_pos_as_xyz
  1  'x, y, z'
loop_
 _atom_site_type_symbol
 _atom_site_label
 _atom_site_symmetry_multiplicity
 _atom_site_fract_x
 _atom_site_fract_y
 _atom_site_fract_z
 _atom_site_occupancy
  Ca  Ca0  1  0.250000  0.999656  0.233058  1
  Ca  Ca1  1  0.750000  0.498201  0.744922  1
  Pr  Pr2  1  0.250000  0.498127  0.258700  1
  Pa  Pa3  1  0.750000  0.998691  0.766032  1
  As  As4  1  0.250000  0.257572  0.913682  1
  As  As5  1  0.250000  0.805387  0.584253  1
  As  As6  1  0.750000  0.757114  0.081536  1
  As  As7  1  0.750000  0.263754  0.419953  1
  Pd  Pd8  1  0.250000  0.734754  0.911712  1
  Pd  Pd9  1  0.250000  0.198145  0.584256  1
  Pd  Pd10  1  0.750000  0.233370  0.076664  1
  Pd  Pd11  1  0.750000  0.755227  0.425233  1
