# generated using pymatgen
data_Y(ErCu6)2
_symmetry_space_group_name_H-M   'P 1'
_cell_length_a   5.01226587
_cell_length_b   5.01226531
_cell_length_c   10.55201250
_cell_angle_alpha   94.85887285
_cell_angle_beta   94.85887323
_cell_angle_gamma   119.83405846
_symmetry_Int_Tables_number   1
_chemical_formula_structural   Y(ErCu6)2
_chemical_formula_sum   'Y1 Er2 Cu12'
_cell_volume   226.65596211
_cell_formula_units_Z   1
loop_
 _symmetry_equiv_pos_site_id
 _symmetry_equiv_pos_as_xyz
  1  'x, y, z'
loop_
 _atom_site_type_symbol
 _atom_site_label
 _atom_site_symmetry_multiplicity
 _atom_site_fract_x
 _atom_site_fract_y
 _atom_site_fract_z
 _atom_site_occupancy
  Y  Y0  1  0.000000  0.000000  0.000000  1
  Er  Er1  1  0.133831  0.133831  0.357793  1
  Er  Er2  1  0.866169  0.866169  0.642207  1
  Cu  Cu3  1  0.663271  0.336730  0.000000  1
  Cu  Cu4  1  0.336730  0.663271  0.000000  1
  Cu  Cu5  1  0.569814  0.068469  0.196863  1
  Cu  Cu6  1  0.068469  0.569814  0.196863  1
  Cu  Cu7  1  0.571678  0.571678  0.202707  1
  Cu  Cu8  1  0.808675  0.472650  0.406276  1
  Cu  Cu9  1  0.472650  0.808675  0.406276  1
  Cu  Cu10  1  0.527352  0.191326  0.593724  1
  Cu  Cu11  1  0.191326  0.527352  0.593724  1
  Cu  Cu12  1  0.428321  0.428321  0.797293  1
  Cu  Cu13  1  0.931530  0.430185  0.803138  1
  Cu  Cu14  1  0.430185  0.931530  0.803138  1
