# generated using pymatgen
data_SrLa6Ho3Si8O3
_symmetry_space_group_name_H-M   'P 1'
_cell_length_a   10.78131415
_cell_length_b   10.78131300
_cell_length_c   4.55275700
_cell_angle_alpha   90.00000000
_cell_angle_beta   90.00000000
_cell_angle_gamma   120.05281896
_symmetry_Int_Tables_number   1
_chemical_formula_structural   SrLa6Ho3Si8O3
_chemical_formula_sum   'Sr1 La6 Ho3 Si8 O3'
_cell_volume   458.05440429
_cell_formula_units_Z   1
loop_
 _symmetry_equiv_pos_site_id
 _symmetry_equiv_pos_as_xyz
  1  'x, y, z'
loop_
 _atom_site_type_symbol
 _atom_site_label
 _atom_site_symmetry_multiplicity
 _atom_site_fract_x
 _atom_site_fract_y
 _atom_site_fract_z
 _atom_site_occupancy
  Sr  Sr0  1  0.212449  0.787551  0.000000  1
  La  La1  1  0.576365  0.788898  0.000000  1
  La  La2  1  0.788532  0.576436  0.000000  1
  La  La3  1  0.000232  0.999768  0.000000  1
  La  La4  1  0.211102  0.423635  0.000000  1
  La  La5  1  0.423564  0.211468  0.000000  1
  La  La6  1  0.787899  0.212101  0.000000  1
  Ho  Ho7  1  0.001600  0.501006  0.500000  1
  Ho  Ho8  1  0.500350  0.499650  0.500000  1
  Ho  Ho9  1  0.498994  0.998400  0.500000  1
  Si  Si10  1  0.996852  0.779051  0.500000  1
  Si  Si11  1  0.999612  0.223109  0.500000  1
  Si  Si12  1  0.223166  0.224658  0.500000  1
  Si  Si13  1  0.776891  0.000388  0.500000  1
  Si  Si14  1  0.336857  0.663143  0.500000  1
  Si  Si15  1  0.220949  0.003148  0.500000  1
  Si  Si16  1  0.667272  0.332728  0.500000  1
  Si  Si17  1  0.775342  0.776834  0.500000  1
  O  O18  1  0.995780  0.494448  0.000000  1
  O  O19  1  0.500642  0.499358  0.000000  1
  O  O20  1  0.505552  0.004220  0.000000  1
