# generated using pymatgen
data_Rb4MnNi3F12
_symmetry_space_group_name_H-M   'P 1'
_cell_length_a   10.51705743
_cell_length_b   10.51705766
_cell_length_c   10.51705805
_cell_angle_alpha   33.35004074
_cell_angle_beta   33.35004120
_cell_angle_gamma   33.35004237
_symmetry_Int_Tables_number   1
_chemical_formula_structural   Rb4MnNi3F12
_chemical_formula_sum   'Rb4 Mn1 Ni3 F12'
_cell_volume   313.04924707
_cell_formula_units_Z   1
loop_
 _symmetry_equiv_pos_site_id
 _symmetry_equiv_pos_as_xyz
  1  'x, y, z'
loop_
 _atom_site_type_symbol
 _atom_site_label
 _atom_site_symmetry_multiplicity
 _atom_site_fract_x
 _atom_site_fract_y
 _atom_site_fract_z
 _atom_site_occupancy
  Rb  Rb0  1  0.714725  0.714725  0.714725  1
  Rb  Rb1  1  0.870122  0.870122  0.870122  1
  Rb  Rb2  1  0.285275  0.285275  0.285275  1
  Rb  Rb3  1  0.129878  0.129878  0.129878  1
  Mn  Mn4  1  0.000000  0.000000  0.000000  1
  Ni  Ni5  1  0.409566  0.409566  0.409566  1
  Ni  Ni6  1  0.590434  0.590434  0.590434  1
  Ni  Ni7  1  0.500000  0.500000  0.500000  1
  F  F8  1  0.159662  0.604328  0.604328  1
  F  F9  1  0.604328  0.604328  0.159662  1
  F  F10  1  0.701260  0.210430  0.210430  1
  F  F11  1  0.298740  0.789570  0.789570  1
  F  F12  1  0.210430  0.210430  0.701260  1
  F  F13  1  0.840338  0.395672  0.395672  1
  F  F14  1  0.789570  0.789570  0.298740  1
  F  F15  1  0.395672  0.395672  0.840338  1
  F  F16  1  0.395672  0.840338  0.395672  1
  F  F17  1  0.210430  0.701260  0.210430  1
  F  F18  1  0.789570  0.298740  0.789570  1
  F  F19  1  0.604328  0.159662  0.604328  1
