# generated using pymatgen
data_Na2Ga2Te3
_symmetry_space_group_name_H-M   'P 1'
_cell_length_a   7.54582626
_cell_length_b   7.54582543
_cell_length_c   9.14789721
_cell_angle_alpha   82.11955584
_cell_angle_beta   82.11955762
_cell_angle_gamma   120.15505866
_symmetry_Int_Tables_number   1
_chemical_formula_structural   Na2Ga2Te3
_chemical_formula_sum   'Na4 Ga4 Te6'
_cell_volume   433.03927732
_cell_formula_units_Z   2
loop_
 _symmetry_equiv_pos_site_id
 _symmetry_equiv_pos_as_xyz
  1  'x, y, z'
loop_
 _atom_site_type_symbol
 _atom_site_label
 _atom_site_symmetry_multiplicity
 _atom_site_fract_x
 _atom_site_fract_y
 _atom_site_fract_z
 _atom_site_occupancy
  Na  Na0  1  0.666986  0.333014  0.000000  1
  Na  Na1  1  0.333014  0.666986  0.000000  1
  Na  Na2  1  0.000000  0.000000  0.000000  1
  Na  Na3  1  0.500000  0.500000  0.500000  1
  Ga  Ga4  1  0.879655  0.212442  0.360208  1
  Ga  Ga5  1  0.787558  0.120345  0.639792  1
  Ga  Ga6  1  0.212442  0.879655  0.360208  1
  Ga  Ga7  1  0.120345  0.787558  0.639792  1
  Te  Te8  1  0.415024  0.075142  0.758689  1
  Te  Te9  1  0.075142  0.415024  0.758689  1
  Te  Te10  1  0.924858  0.584976  0.241311  1
  Te  Te11  1  0.752264  0.752264  0.759138  1
  Te  Te12  1  0.584976  0.924858  0.241311  1
  Te  Te13  1  0.247736  0.247736  0.240862  1
