# generated using pymatgen
data_Dy2YHf(Al3Rh)6
_symmetry_space_group_name_H-M   'P 1'
_cell_length_a   7.53654981
_cell_length_b   7.52001184
_cell_length_c   9.40825700
_cell_angle_alpha   90.00000000
_cell_angle_beta   90.00000000
_cell_angle_gamma   119.50911513
_symmetry_Int_Tables_number   1
_chemical_formula_structural   Dy2YHf(Al3Rh)6
_chemical_formula_sum   'Dy2 Y1 Hf1 Al18 Rh6'
_cell_volume   464.04270396
_cell_formula_units_Z   1
loop_
 _symmetry_equiv_pos_site_id
 _symmetry_equiv_pos_as_xyz
  1  'x, y, z'
loop_
 _atom_site_type_symbol
 _atom_site_label
 _atom_site_symmetry_multiplicity
 _atom_site_fract_x
 _atom_site_fract_y
 _atom_site_fract_z
 _atom_site_occupancy
  Dy  Dy0  1  0.671132  0.993707  0.750000  1
  Dy  Dy1  1  0.328249  0.004738  0.250000  1
  Y  Y2  1  0.993915  0.672049  0.750000  1
  Hf  Hf3  1  0.004274  0.327589  0.250000  1
  Al  Al4  1  0.128375  0.130120  0.750000  1
  Al  Al5  1  0.874904  0.877548  0.250000  1
  Al  Al6  1  0.000333  0.334989  0.570853  1
  Al  Al7  1  0.999996  0.661033  0.419971  1
  Al  Al8  1  0.999996  0.661033  0.080029  1
  Al  Al9  1  0.335592  0.001708  0.925099  1
  Al  Al10  1  0.000333  0.334989  0.929147  1
  Al  Al11  1  0.668010  0.002710  0.080017  1
  Al  Al12  1  0.668010  0.002710  0.419983  1
  Al  Al13  1  0.335592  0.001708  0.574901  1
  Al  Al14  1  0.330270  0.332925  0.056611  1
  Al  Al15  1  0.666340  0.666408  0.951750  1
  Al  Al16  1  0.666340  0.666408  0.548250  1
  Al  Al17  1  0.330270  0.332925  0.443389  1
  Al  Al18  1  0.339016  0.548844  0.750000  1
  Al  Al19  1  0.664700  0.448996  0.250000  1
  Al  Al20  1  0.550005  0.340446  0.750000  1
  Al  Al21  1  0.443465  0.655025  0.250000  1
  Rh  Rh22  1  0.672351  0.327395  0.497760  1
  Rh  Rh23  1  0.327141  0.671540  0.498260  1
  Rh  Rh24  1  0.327141  0.671540  0.001740  1
  Rh  Rh25  1  0.672351  0.327395  0.002240  1
  Rh  Rh26  1  0.000950  0.001760  0.498064  1
  Rh  Rh27  1  0.000950  0.001760  0.001936  1
