# generated using pymatgen
data_NaPPtS4
_symmetry_space_group_name_H-M   'P 1'
_cell_length_a   8.18174067
_cell_length_b   8.18174074
_cell_length_c   8.18174092
_cell_angle_alpha   125.82678319
_cell_angle_beta   125.82678320
_cell_angle_gamma   80.17302137
_symmetry_Int_Tables_number   1
_chemical_formula_structural   NaPPtS4
_chemical_formula_sum   'Na2 P2 Pt2 S8'
_cell_volume   347.50862227
_cell_formula_units_Z   2
loop_
 _symmetry_equiv_pos_site_id
 _symmetry_equiv_pos_as_xyz
  1  'x, y, z'
loop_
 _atom_site_type_symbol
 _atom_site_label
 _atom_site_symmetry_multiplicity
 _atom_site_fract_x
 _atom_site_fract_y
 _atom_site_fract_z
 _atom_site_occupancy
  Na  Na0  1  0.250000  0.250000  0.000000  1
  Na  Na1  1  0.750000  0.750000  0.000000  1
  P  P2  1  0.250000  0.750000  0.500000  1
  P  P3  1  0.750000  0.250000  0.500000  1
  Pt  Pt4  1  0.500000  0.000000  0.500000  1
  Pt  Pt5  1  0.000000  0.500000  0.500000  1
  S  S6  1  0.712378  0.212378  0.205588  1
  S  S7  1  0.993210  0.493210  0.205588  1
  S  S8  1  0.506790  0.712378  0.500000  1
  S  S9  1  0.212378  0.006790  0.500000  1
  S  S10  1  0.287622  0.787622  0.794412  1
  S  S11  1  0.493210  0.287622  0.500000  1
  S  S12  1  0.787622  0.993210  0.500000  1
  S  S13  1  0.006790  0.506790  0.794412  1
