# generated using pymatgen
data_LuTc3P4RuRh2
_symmetry_space_group_name_H-M   'P 1'
_cell_length_a   6.94239000
_cell_length_b   7.01267588
_cell_length_c   3.74902500
_cell_angle_alpha   90.00000000
_cell_angle_beta   90.00000000
_cell_angle_gamma   120.33546238
_symmetry_Int_Tables_number   1
_chemical_formula_structural   LuTc3P4RuRh2
_chemical_formula_sum   'Lu1 Tc3 P4 Ru1 Rh2'
_cell_volume   157.53016597
_cell_formula_units_Z   1
loop_
 _symmetry_equiv_pos_site_id
 _symmetry_equiv_pos_as_xyz
  1  'x, y, z'
loop_
 _atom_site_type_symbol
 _atom_site_label
 _atom_site_symmetry_multiplicity
 _atom_site_fract_x
 _atom_site_fract_y
 _atom_site_fract_z
 _atom_site_occupancy
  Lu  Lu0  1  0.331839  0.665920  0.000000  1
  Tc  Tc1  1  0.264443  0.132222  0.000000  1
  Tc  Tc2  1  0.869839  0.738565  0.000000  1
  Tc  Tc3  1  0.869839  0.131274  0.000000  1
  P  P4  1  0.676095  0.338047  0.000000  1
  P  P5  1  0.717192  0.858597  0.500000  1
  P  P6  1  0.139317  0.286963  0.500000  1
  P  P7  1  0.139317  0.852355  0.500000  1
  Ru  Ru8  1  0.937471  0.468735  0.500000  1
  Rh  Rh9  1  0.527323  0.053511  0.500000  1
  Rh  Rh10  1  0.527323  0.473812  0.500000  1
