# generated using pymatgen
data_TbEr2Hf(Al3Ir)6
_symmetry_space_group_name_H-M   'P 1'
_cell_length_a   7.53666100
_cell_length_b   7.52690911
_cell_length_c   9.40344800
_cell_angle_alpha   90.00000000
_cell_angle_beta   90.00000000
_cell_angle_gamma   119.59506381
_symmetry_Int_Tables_number   1
_chemical_formula_structural   TbEr2Hf(Al3Ir)6
_chemical_formula_sum   'Tb1 Er2 Hf1 Al18 Ir6'
_cell_volume   463.84308526
_cell_formula_units_Z   1
loop_
 _symmetry_equiv_pos_site_id
 _symmetry_equiv_pos_as_xyz
  1  'x, y, z'
loop_
 _atom_site_type_symbol
 _atom_site_label
 _atom_site_symmetry_multiplicity
 _atom_site_fract_x
 _atom_site_fract_y
 _atom_site_fract_z
 _atom_site_occupancy
  Tb  Tb0  1  0.329226  0.006373  0.750000  1
  Er  Er1  1  0.005447  0.327465  0.750000  1
  Er  Er2  1  0.671145  0.995779  0.250000  1
  Hf  Hf3  1  0.997476  0.673188  0.250000  1
  Al  Al4  1  0.125965  0.123642  0.250000  1
  Al  Al5  1  0.870780  0.869686  0.750000  1
  Al  Al6  1  0.999981  0.337769  0.079159  1
  Al  Al7  1  0.999044  0.664568  0.929334  1
  Al  Al8  1  0.999044  0.664568  0.570666  1
  Al  Al9  1  0.332756  0.998206  0.420422  1
  Al  Al10  1  0.999981  0.337769  0.420841  1
  Al  Al11  1  0.664998  0.998396  0.574290  1
  Al  Al12  1  0.664998  0.998396  0.925710  1
  Al  Al13  1  0.332756  0.998206  0.079578  1
  Al  Al14  1  0.333469  0.333906  0.550273  1
  Al  Al15  1  0.668859  0.666941  0.443116  1
  Al  Al16  1  0.668859  0.666941  0.056884  1
  Al  Al17  1  0.333469  0.333906  0.949727  1
  Al  Al18  1  0.336101  0.549251  0.250000  1
  Al  Al19  1  0.661141  0.452623  0.750000  1
  Al  Al20  1  0.554944  0.344531  0.250000  1
  Al  Al21  1  0.450803  0.659143  0.750000  1
  Ir  Ir22  1  0.672823  0.328395  0.001275  1
  Ir  Ir23  1  0.327496  0.672201  0.001989  1
  Ir  Ir24  1  0.327496  0.672201  0.498011  1
  Ir  Ir25  1  0.672823  0.328395  0.498725  1
  Ir  Ir26  1  0.999059  0.998776  0.001520  1
  Ir  Ir27  1  0.999059  0.998776  0.498480  1
