# generated using pymatgen
data_KY(ReH9)2
_symmetry_space_group_name_H-M   'P 1'
_cell_length_a   5.21967171
_cell_length_b   5.21979424
_cell_length_c   9.49068100
_cell_angle_alpha   93.35538956
_cell_angle_beta   86.63849491
_cell_angle_gamma   125.33348048
_symmetry_Int_Tables_number   1
_chemical_formula_structural   KY(ReH9)2
_chemical_formula_sum   'K1 Y1 Re2 H18'
_cell_volume   210.48984637
_cell_formula_units_Z   1
loop_
 _symmetry_equiv_pos_site_id
 _symmetry_equiv_pos_as_xyz
  1  'x, y, z'
loop_
 _atom_site_type_symbol
 _atom_site_label
 _atom_site_symmetry_multiplicity
 _atom_site_fract_x
 _atom_site_fract_y
 _atom_site_fract_z
 _atom_site_occupancy
  K  K0  1  0.000000  0.000000  0.000000  1
  Y  Y1  1  0.000000  0.000000  0.500000  1
  Re  Re2  1  0.335250  0.664595  0.704837  1
  Re  Re3  1  0.664750  0.335405  0.295163  1
  H  H4  1  0.386705  0.613116  0.527600  1
  H  H5  1  0.613295  0.386884  0.472400  1
  H  H6  1  0.415921  0.583930  0.857183  1
  H  H7  1  0.584079  0.416070  0.142817  1
  H  H8  1  0.467970  0.963760  0.825516  1
  H  H9  1  0.963974  0.468187  0.174479  1
  H  H10  1  0.595543  0.021107  0.637702  1
  H  H11  1  0.021286  0.595686  0.362252  1
  H  H12  1  0.532030  0.036240  0.174484  1
  H  H13  1  0.036026  0.531813  0.825521  1
  H  H14  1  0.404457  0.978893  0.362298  1
  H  H15  1  0.978714  0.404314  0.637748  1
  H  H16  1  0.699130  0.730426  0.700220  1
  H  H17  1  0.730613  0.699285  0.299751  1
  H  H18  1  0.300870  0.269574  0.299780  1
  H  H19  1  0.269387  0.300715  0.700249  1
  H  H20  1  0.154017  0.845733  0.679417  1
  H  H21  1  0.845983  0.154267  0.320583  1
