# generated using pymatgen
data_Zr3Ga2SbRu6
_symmetry_space_group_name_H-M   'P 1'
_cell_length_a   4.51755100
_cell_length_b   6.36990000
_cell_length_c   13.48391800
_cell_angle_alpha   90.00000000
_cell_angle_beta   90.00000425
_cell_angle_gamma   90.00000000
_symmetry_Int_Tables_number   1
_chemical_formula_structural   Zr3Ga2SbRu6
_chemical_formula_sum   'Zr6 Ga4 Sb2 Ru12'
_cell_volume   388.01791832
_cell_formula_units_Z   2
loop_
 _symmetry_equiv_pos_site_id
 _symmetry_equiv_pos_as_xyz
  1  'x, y, z'
loop_
 _atom_site_type_symbol
 _atom_site_label
 _atom_site_symmetry_multiplicity
 _atom_site_fract_x
 _atom_site_fract_y
 _atom_site_fract_z
 _atom_site_occupancy
  Zr  Zr0  1  0.000003  0.500000  0.994154  1
  Zr  Zr1  1  0.500000  0.000000  0.172523  1
  Zr  Zr2  1  0.999993  0.500000  0.341160  1
  Zr  Zr3  1  0.499998  0.000000  0.502709  1
  Zr  Zr4  1  0.000001  0.500000  0.663947  1
  Zr  Zr5  1  0.500004  0.000000  0.825508  1
  Ga  Ga6  1  0.999996  0.000000  0.335538  1
  Ga  Ga7  1  0.500000  0.500000  0.500561  1
  Ga  Ga8  1  0.000002  0.000000  0.666095  1
  Ga  Ga9  1  0.500002  0.500000  0.831082  1
  Sb  Sb10  1  0.000001  0.000000  0.997734  1
  Sb  Sb11  1  0.499998  0.500000  0.168999  1
  Ru  Ru12  1  0.500001  0.251176  0.999274  1
  Ru  Ru13  1  0.500001  0.748824  0.999274  1
  Ru  Ru14  1  0.999998  0.248840  0.167438  1
  Ru  Ru15  1  0.999998  0.751160  0.167438  1
  Ru  Ru16  1  0.499998  0.248229  0.335034  1
  Ru  Ru17  1  0.499998  0.751771  0.335034  1
  Ru  Ru18  1  0.000000  0.247408  0.500304  1
  Ru  Ru19  1  0.000000  0.752592  0.500304  1
  Ru  Ru20  1  0.500004  0.252612  0.666336  1
  Ru  Ru21  1  0.500004  0.747388  0.666336  1
  Ru  Ru22  1  0.000003  0.251783  0.831608  1
  Ru  Ru23  1  0.000003  0.748217  0.831608  1
