# generated using pymatgen
data_Ho4ErPt14Au
_symmetry_space_group_name_H-M   'P 1'
_cell_length_a   4.12522900
_cell_length_b   4.09951400
_cell_length_c   20.55218300
_cell_angle_alpha   90.00000000
_cell_angle_beta   90.00000000
_cell_angle_gamma   90.00000000
_symmetry_Int_Tables_number   1
_chemical_formula_structural   Ho4ErPt14Au
_chemical_formula_sum   'Ho4 Er1 Pt14 Au1'
_cell_volume   347.56688716
_cell_formula_units_Z   1
loop_
 _symmetry_equiv_pos_site_id
 _symmetry_equiv_pos_as_xyz
  1  'x, y, z'
loop_
 _atom_site_type_symbol
 _atom_site_label
 _atom_site_symmetry_multiplicity
 _atom_site_fract_x
 _atom_site_fract_y
 _atom_site_fract_z
 _atom_site_occupancy
  Ho  Ho0  1  0.000000  0.000000  0.197589  1
  Ho  Ho1  1  0.000000  0.000000  0.395677  1
  Ho  Ho2  1  0.000000  0.000000  0.604323  1
  Ho  Ho3  1  0.000000  0.000000  0.802411  1
  Er  Er4  1  0.000000  0.000000  0.000000  1
  Pt  Pt5  1  0.500000  0.500000  0.000000  1
  Pt  Pt6  1  0.500000  0.500000  0.197371  1
  Pt  Pt7  1  0.500000  0.500000  0.397838  1
  Pt  Pt8  1  0.500000  0.500000  0.602162  1
  Pt  Pt9  1  0.500000  0.500000  0.802629  1
  Pt  Pt10  1  0.500000  0.000000  0.098157  1
  Pt  Pt11  1  0.500000  0.000000  0.297321  1
  Pt  Pt12  1  0.500000  0.000000  0.702679  1
  Pt  Pt13  1  0.500000  0.000000  0.901843  1
  Pt  Pt14  1  0.000000  0.500000  0.098191  1
  Pt  Pt15  1  0.000000  0.500000  0.297739  1
  Pt  Pt16  1  0.000000  0.500000  0.500000  1
  Pt  Pt17  1  0.000000  0.500000  0.702261  1
  Pt  Pt18  1  0.000000  0.500000  0.901809  1
  Au  Au19  1  0.500000  0.000000  0.500000  1
