# generated using pymatgen
data_Ca2Co17Si8Os
_symmetry_space_group_name_H-M   'P 1'
_cell_length_a   7.96289961
_cell_length_b   8.00465489
_cell_length_c   7.97239457
_cell_angle_alpha   121.93572400
_cell_angle_beta   121.76859049
_cell_angle_gamma   86.90723409
_symmetry_Int_Tables_number   1
_chemical_formula_structural   Ca2Co17Si8Os
_chemical_formula_sum   'Ca2 Co17 Si8 Os1'
_cell_volume   348.43135568
_cell_formula_units_Z   1
loop_
 _symmetry_equiv_pos_site_id
 _symmetry_equiv_pos_as_xyz
  1  'x, y, z'
loop_
 _atom_site_type_symbol
 _atom_site_label
 _atom_site_symmetry_multiplicity
 _atom_site_fract_x
 _atom_site_fract_y
 _atom_site_fract_z
 _atom_site_occupancy
  Ca  Ca0  1  0.750190  0.750682  0.001718  1
  Ca  Ca1  1  0.248472  0.248964  0.998282  1
  Co  Co2  1  0.448308  0.950482  0.758354  1
  Co  Co3  1  0.189954  0.692127  0.241646  1
  Co  Co4  1  0.546675  0.043390  0.236563  1
  Co  Co5  1  0.949291  0.190918  0.500000  1
  Co  Co6  1  0.196623  0.927501  0.126736  1
  Co  Co7  1  0.800985  0.070183  0.871459  1
  Co  Co8  1  0.429526  0.698723  0.128541  1
  Co  Co9  1  0.569886  0.300765  0.873264  1
  Co  Co10  1  0.700182  0.574313  0.263933  1
  Co  Co11  1  0.301439  0.429209  0.732396  1
  Co  Co12  1  0.936248  0.810379  0.736067  1
  Co  Co13  1  0.312510  0.548453  0.500000  1
  Co  Co14  1  0.810112  0.306827  0.763437  1
  Co  Co15  1  0.003274  0.502467  0.500000  1
  Co  Co16  1  0.499528  0.000746  0.500000  1
  Co  Co17  1  0.069044  0.196813  0.267604  1
  Co  Co18  1  0.050924  0.810979  0.500000  1
  Si  Si19  1  0.291937  0.789315  0.833204  1
  Si  Si20  1  0.050339  0.543196  0.840409  1
  Si  Si21  1  0.539362  0.716106  0.500000  1
  Si  Si22  1  0.791610  0.956055  0.500000  1
  Si  Si23  1  0.446950  0.285555  0.500000  1
  Si  Si24  1  0.958731  0.456110  0.166796  1
  Si  Si25  1  0.709930  0.202787  0.159591  1
  Si  Si26  1  0.208520  0.045404  0.500000  1
  Os  Os27  1  0.689450  0.451554  0.500000  1
