# generated using pymatgen
data_Eu2GaSi4Pt3
_symmetry_space_group_name_H-M   'P 1'
_cell_length_a   8.42223743
_cell_length_b   8.42223762
_cell_length_c   8.42223707
_cell_angle_alpha   137.58994329
_cell_angle_beta   105.18452222
_cell_angle_gamma   89.98478375
_symmetry_Int_Tables_number   1
_chemical_formula_structural   Eu2GaSi4Pt3
_chemical_formula_sum   'Eu4 Ga2 Si8 Pt6'
_cell_volume   371.34321571
_cell_formula_units_Z   2
loop_
 _symmetry_equiv_pos_site_id
 _symmetry_equiv_pos_as_xyz
  1  'x, y, z'
loop_
 _atom_site_type_symbol
 _atom_site_label
 _atom_site_symmetry_multiplicity
 _atom_site_fract_x
 _atom_site_fract_y
 _atom_site_fract_z
 _atom_site_occupancy
  Eu  Eu0  1  0.106035  0.871061  0.234974  1
  Eu  Eu1  1  0.893965  0.128939  0.765026  1
  Eu  Eu2  1  0.636086  0.371061  0.265026  1
  Eu  Eu3  1  0.363914  0.628939  0.734974  1
  Ga  Ga4  1  0.000000  0.750000  0.750000  1
  Ga  Ga5  1  0.000000  0.250000  0.250000  1
  Si  Si6  1  0.270339  0.020339  0.750000  1
  Si  Si7  1  0.729661  0.479661  0.750000  1
  Si  Si8  1  0.729661  0.979661  0.250000  1
  Si  Si9  1  0.270339  0.520339  0.250000  1
  Si  Si10  1  0.758966  0.611039  0.147927  1
  Si  Si11  1  0.241034  0.388961  0.852073  1
  Si  Si12  1  0.463112  0.111039  0.352073  1
  Si  Si13  1  0.536888  0.888961  0.647927  1
  Pt  Pt14  1  0.500000  0.750000  0.250000  1
  Pt  Pt15  1  0.500000  0.250000  0.750000  1
  Pt  Pt16  1  0.025359  0.643934  0.381425  1
  Pt  Pt17  1  0.974641  0.356066  0.618575  1
  Pt  Pt18  1  0.262509  0.143934  0.118575  1
  Pt  Pt19  1  0.737491  0.856066  0.881425  1
