# generated using pymatgen
data_Dy4ErPb3
_symmetry_space_group_name_H-M   'P 1'
_cell_length_a   9.05679000
_cell_length_b   9.05679086
_cell_length_c   6.63562400
_cell_angle_alpha   90.00035568
_cell_angle_beta   90.00035847
_cell_angle_gamma   119.99672882
_symmetry_Int_Tables_number   1
_chemical_formula_structural   Dy4ErPb3
_chemical_formula_sum   'Dy8 Er2 Pb6'
_cell_volume   471.38455940
_cell_formula_units_Z   2
loop_
 _symmetry_equiv_pos_site_id
 _symmetry_equiv_pos_as_xyz
  1  'x, y, z'
loop_
 _atom_site_type_symbol
 _atom_site_label
 _atom_site_symmetry_multiplicity
 _atom_site_fract_x
 _atom_site_fract_y
 _atom_site_fract_z
 _atom_site_occupancy
  Dy  Dy0  1  0.762445  0.762444  0.249859  1
  Dy  Dy1  1  0.237555  0.000002  0.249857  1
  Dy  Dy2  1  0.000002  0.237555  0.249857  1
  Dy  Dy3  1  0.666675  0.333353  0.499998  1
  Dy  Dy4  1  0.333352  0.666675  0.499998  1
  Dy  Dy5  1  0.237553  0.237552  0.750136  1
  Dy  Dy6  1  0.762444  0.000001  0.750145  1
  Dy  Dy7  1  0.000001  0.762444  0.750145  1
  Er  Er8  1  0.666652  0.333322  0.999998  1
  Er  Er9  1  0.333321  0.666651  0.999998  1
  Pb  Pb10  1  0.605223  0.000014  0.249605  1
  Pb  Pb11  1  0.000014  0.605222  0.249605  1
  Pb  Pb12  1  0.394769  0.394768  0.249620  1
  Pb  Pb13  1  0.394779  0.999986  0.750391  1
  Pb  Pb14  1  0.999985  0.394778  0.750391  1
  Pb  Pb15  1  0.605233  0.605232  0.750396  1
