# generated using pymatgen
data_Yb8Si16(Tc3Ru)3
_symmetry_space_group_name_H-M   'P 1'
_cell_length_a   6.76102998
_cell_length_b   6.76102915
_cell_length_c   12.63115100
_cell_angle_alpha   89.96916160
_cell_angle_beta   90.03083840
_cell_angle_gamma   90.03378715
_symmetry_Int_Tables_number   1
_chemical_formula_structural   Yb8Si16(Tc3Ru)3
_chemical_formula_sum   'Yb8 Si16 Tc9 Ru3'
_cell_volume   577.38885410
_cell_formula_units_Z   1
loop_
 _symmetry_equiv_pos_site_id
 _symmetry_equiv_pos_as_xyz
  1  'x, y, z'
loop_
 _atom_site_type_symbol
 _atom_site_label
 _atom_site_symmetry_multiplicity
 _atom_site_fract_x
 _atom_site_fract_y
 _atom_site_fract_z
 _atom_site_occupancy
  Yb  Yb0  1  0.994007  0.667597  0.028237  1
  Yb  Yb1  1  0.006506  0.331688  0.528434  1
  Yb  Yb2  1  0.331688  0.006506  0.471566  1
  Yb  Yb3  1  0.167046  0.506205  0.778279  1
  Yb  Yb4  1  0.832973  0.493402  0.277716  1
  Yb  Yb5  1  0.506205  0.167046  0.221721  1
  Yb  Yb6  1  0.493402  0.832973  0.722284  1
  Yb  Yb7  1  0.667597  0.994007  0.971763  1
  Si  Si8  1  0.025821  0.713541  0.432984  1
  Si  Si9  1  0.623645  0.306768  0.441217  1
  Si  Si10  1  0.378133  0.692210  0.941382  1
  Si  Si11  1  0.193336  0.121911  0.691403  1
  Si  Si12  1  0.306768  0.623645  0.558783  1
  Si  Si13  1  0.692210  0.378133  0.058618  1
  Si  Si14  1  0.807455  0.878270  0.191312  1
  Si  Si15  1  0.121911  0.193336  0.308597  1
  Si  Si16  1  0.974334  0.284780  0.933622  1
  Si  Si17  1  0.713541  0.025821  0.567016  1
  Si  Si18  1  0.217229  0.474319  0.183377  1
  Si  Si19  1  0.783427  0.526278  0.683294  1
  Si  Si20  1  0.474319  0.217229  0.816623  1
  Si  Si21  1  0.526278  0.783427  0.316706  1
  Si  Si22  1  0.284780  0.974334  0.066378  1
  Si  Si23  1  0.878270  0.807455  0.808688  1
  Tc  Tc24  1  0.667740  0.667740  0.500000  1
  Tc  Tc25  1  0.010674  0.829963  0.625819  1
  Tc  Tc26  1  0.988626  0.169906  0.125221  1
  Tc  Tc27  1  0.829963  0.010674  0.374181  1
  Tc  Tc28  1  0.329227  0.487998  0.374927  1
  Tc  Tc29  1  0.670905  0.512662  0.875901  1
  Tc  Tc30  1  0.487998  0.329227  0.625073  1
  Tc  Tc31  1  0.512662  0.670905  0.124099  1
  Tc  Tc32  1  0.169906  0.988626  0.874779  1
  Ru  Ru33  1  0.167846  0.831452  0.250110  1
  Ru  Ru34  1  0.332120  0.332120  0.000000  1
  Ru  Ru35  1  0.831452  0.167846  0.749890  1
