# generated using pymatgen
data_Nd3In2HgPd3
_symmetry_space_group_name_H-M   'P 1'
_cell_length_a   7.89411386
_cell_length_b   7.89411304
_cell_length_c   3.92007700
_cell_angle_alpha   90.00000000
_cell_angle_beta   90.00000000
_cell_angle_gamma   119.49431439
_symmetry_Int_Tables_number   1
_chemical_formula_structural   Nd3In2HgPd3
_chemical_formula_sum   'Nd3 In2 Hg1 Pd3'
_cell_volume   212.62899229
_cell_formula_units_Z   1
loop_
 _symmetry_equiv_pos_site_id
 _symmetry_equiv_pos_as_xyz
  1  'x, y, z'
loop_
 _atom_site_type_symbol
 _atom_site_label
 _atom_site_symmetry_multiplicity
 _atom_site_fract_x
 _atom_site_fract_y
 _atom_site_fract_z
 _atom_site_occupancy
  Nd  Nd0  1  0.995882  0.595389  0.000000  1
  Nd  Nd1  1  0.410449  0.410449  0.000000  1
  Nd  Nd2  1  0.595389  0.995882  0.000000  1
  In  In3  1  0.002144  0.259224  0.500000  1
  In  In4  1  0.259224  0.002144  0.500000  1
  Hg  Hg5  1  0.737108  0.737108  0.500000  1
  Pd  Pd6  1  0.322566  0.665366  0.500000  1
  Pd  Pd7  1  0.011872  0.011872  0.000000  1
  Pd  Pd8  1  0.665366  0.322566  0.500000  1
