# generated using pymatgen
data_Tm7Lu3Zn3NiSb2
_symmetry_space_group_name_H-M   'P 1'
_cell_length_a   8.38371774
_cell_length_b   8.38425116
_cell_length_c   8.44495805
_cell_angle_alpha   124.07714325
_cell_angle_beta   124.07097903
_cell_angle_gamma   82.60359181
_symmetry_Int_Tables_number   1
_chemical_formula_structural   Tm7Lu3Zn3NiSb2
_chemical_formula_sum   'Tm7 Lu3 Zn3 Ni1 Sb2'
_cell_volume   392.16387322
_cell_formula_units_Z   1
loop_
 _symmetry_equiv_pos_site_id
 _symmetry_equiv_pos_as_xyz
  1  'x, y, z'
loop_
 _atom_site_type_symbol
 _atom_site_label
 _atom_site_symmetry_multiplicity
 _atom_site_fract_x
 _atom_site_fract_y
 _atom_site_fract_z
 _atom_site_occupancy
  Tm  Tm0  1  0.202235  0.712899  0.199301  1
  Tm  Tm1  1  0.486659  0.997296  0.200005  1
  Tm  Tm2  1  0.305295  0.472976  0.500024  1
  Tm  Tm3  1  0.026891  0.194799  0.500095  1
  Tm  Tm4  1  0.502998  0.013605  0.800453  1
  Tm  Tm5  1  0.702245  0.514499  0.500175  1
  Tm  Tm6  1  0.985432  0.797811  0.499980  1
  Lu  Lu7  1  0.004456  0.001500  0.005854  1
  Lu  Lu8  1  0.498845  0.495356  0.993997  1
  Lu  Lu9  1  0.786297  0.297082  0.799978  1
  Zn  Zn10  1  0.136891  0.637474  0.774308  1
  Zn  Zn11  1  0.862465  0.363090  0.225361  1
  Zn  Zn12  1  0.633810  0.866953  0.500357  1
  Ni  Ni13  1  0.372745  0.127415  0.500046  1
  Sb  Sb14  1  0.246239  0.253758  0.000033  1
  Sb  Sb15  1  0.746496  0.753488  0.000034  1
