# generated using pymatgen
data_Yb5Ho3SiPd24
_symmetry_space_group_name_H-M   'P 1'
_cell_length_a   8.29651634
_cell_length_b   8.29651634
_cell_length_c   8.28959271
_cell_angle_alpha   89.96656752
_cell_angle_beta   90.03343248
_cell_angle_gamma   90.09722761
_symmetry_Int_Tables_number   1
_chemical_formula_structural   Yb5Ho3SiPd24
_chemical_formula_sum   'Yb5 Ho3 Si1 Pd24'
_cell_volume   570.58974957
_cell_formula_units_Z   1
loop_
 _symmetry_equiv_pos_site_id
 _symmetry_equiv_pos_as_xyz
  1  'x, y, z'
loop_
 _atom_site_type_symbol
 _atom_site_label
 _atom_site_symmetry_multiplicity
 _atom_site_fract_x
 _atom_site_fract_y
 _atom_site_fract_z
 _atom_site_occupancy
  Yb  Yb0  1  0.252491  0.252393  0.252445  1
  Yb  Yb1  1  0.747571  0.747510  0.747595  1
  Yb  Yb2  1  0.747607  0.747509  0.252445  1
  Yb  Yb3  1  0.747487  0.252513  0.747452  1
  Yb  Yb4  1  0.252490  0.252429  0.747595  1
  Ho  Ho5  1  0.252928  0.747072  0.252990  1
  Ho  Ho6  1  0.253121  0.746879  0.747006  1
  Ho  Ho7  1  0.746981  0.253019  0.253174  1
  Si  Si8  1  0.999612  0.000388  0.999666  1
  Pd  Pd9  1  0.257369  0.500098  0.000148  1
  Pd  Pd10  1  0.742575  0.499883  0.000180  1
  Pd  Pd11  1  0.999999  0.257416  0.499884  1
  Pd  Pd12  1  0.500117  0.257425  0.000180  1
  Pd  Pd13  1  0.000162  0.742637  0.499947  1
  Pd  Pd14  1  0.499902  0.742631  0.000148  1
  Pd  Pd15  1  0.499987  0.999883  0.257401  1
  Pd  Pd16  1  0.257363  0.999838  0.499947  1
  Pd  Pd17  1  0.499926  0.999852  0.742564  1
  Pd  Pd18  1  0.742584  0.000001  0.499884  1
  Pd  Pd19  1  0.000117  0.500013  0.257401  1
  Pd  Pd20  1  0.000148  0.500074  0.742564  1
  Pd  Pd21  1  0.252074  0.499828  0.499865  1
  Pd  Pd22  1  0.747974  0.500143  0.499976  1
  Pd  Pd23  1  0.499857  0.252026  0.499976  1
  Pd  Pd24  1  0.500172  0.747926  0.499865  1
  Pd  Pd25  1  0.499894  0.500106  0.252053  1
  Pd  Pd26  1  0.500009  0.499991  0.747980  1
  Pd  Pd27  1  0.280396  0.000311  0.999979  1
  Pd  Pd28  1  0.719538  0.999948  0.999858  1
  Pd  Pd29  1  0.000052  0.280462  0.999858  1
  Pd  Pd30  1  0.999689  0.719604  0.999979  1
  Pd  Pd31  1  0.999963  0.000037  0.280478  1
  Pd  Pd32  1  0.999843  0.000157  0.719519  1
