# generated using pymatgen
data_CaLa2(PrSi2)2
_symmetry_space_group_name_H-M   'P 1'
_cell_length_a   8.00401000
_cell_length_b   8.00401000
_cell_length_c   15.07522800
_cell_angle_alpha   90.00000000
_cell_angle_beta   90.00000000
_cell_angle_gamma   90.00000000
_symmetry_Int_Tables_number   1
_chemical_formula_structural   CaLa2(PrSi2)2
_chemical_formula_sum   'Ca4 La8 Pr8 Si16'
_cell_volume   965.78206104
_cell_formula_units_Z   4
loop_
 _symmetry_equiv_pos_site_id
 _symmetry_equiv_pos_as_xyz
  1  'x, y, z'
loop_
 _atom_site_type_symbol
 _atom_site_label
 _atom_site_symmetry_multiplicity
 _atom_site_fract_x
 _atom_site_fract_y
 _atom_site_fract_z
 _atom_site_occupancy
  Ca  Ca0  1  0.689579  0.689579  0.500000  1
  Ca  Ca1  1  0.810421  0.189579  0.750000  1
  Ca  Ca2  1  0.189579  0.810421  0.250000  1
  Ca  Ca3  1  0.310421  0.310421  0.000000  1
  La  La4  1  0.989256  0.624186  0.048961  1
  La  La5  1  0.010744  0.375814  0.548961  1
  La  La6  1  0.624186  0.989256  0.951039  1
  La  La7  1  0.124186  0.510744  0.798961  1
  La  La8  1  0.875814  0.489256  0.298961  1
  La  La9  1  0.510744  0.124186  0.201039  1
  La  La10  1  0.489256  0.875814  0.701039  1
  La  La11  1  0.375814  0.010744  0.451039  1
  Pr  Pr12  1  0.374200  0.487797  0.374483  1
  Pr  Pr13  1  0.874200  0.012203  0.375517  1
  Pr  Pr14  1  0.987797  0.125800  0.124483  1
  Pr  Pr15  1  0.012203  0.874200  0.624483  1
  Pr  Pr16  1  0.625800  0.512203  0.874483  1
  Pr  Pr17  1  0.487797  0.374200  0.625517  1
  Pr  Pr18  1  0.512203  0.625800  0.125517  1
  Pr  Pr19  1  0.125800  0.987797  0.875517  1
  Si  Si20  1  0.081776  0.711661  0.440928  1
  Si  Si21  1  0.918224  0.288339  0.940928  1
  Si  Si22  1  0.711661  0.081776  0.559072  1
  Si  Si23  1  0.211662  0.418224  0.190928  1
  Si  Si24  1  0.788339  0.581776  0.690928  1
  Si  Si25  1  0.418224  0.211662  0.809072  1
  Si  Si26  1  0.581776  0.788339  0.309072  1
  Si  Si27  1  0.288339  0.918224  0.059072  1
  Si  Si28  1  0.832862  0.797284  0.803164  1
  Si  Si29  1  0.167138  0.202716  0.303164  1
  Si  Si30  1  0.797284  0.832862  0.196836  1
  Si  Si31  1  0.297284  0.667138  0.553164  1
  Si  Si32  1  0.702716  0.332862  0.053164  1
  Si  Si33  1  0.667138  0.297284  0.446836  1
  Si  Si34  1  0.332862  0.702716  0.946836  1
  Si  Si35  1  0.202716  0.167138  0.696836  1
