# generated using pymatgen
data_DyY19Ir11Ru
_symmetry_space_group_name_H-M   'P 1'
_cell_length_a   10.90955800
_cell_length_b   10.90977500
_cell_length_c   6.41409600
_cell_angle_alpha   90.00000000
_cell_angle_beta   90.00000000
_cell_angle_gamma   89.99919647
_symmetry_Int_Tables_number   1
_chemical_formula_structural   DyY19Ir11Ru
_chemical_formula_sum   'Dy1 Y19 Ir11 Ru1'
_cell_volume   763.41098551
_cell_formula_units_Z   1
loop_
 _symmetry_equiv_pos_site_id
 _symmetry_equiv_pos_as_xyz
  1  'x, y, z'
loop_
 _atom_site_type_symbol
 _atom_site_label
 _atom_site_symmetry_multiplicity
 _atom_site_fract_x
 _atom_site_fract_y
 _atom_site_fract_z
 _atom_site_occupancy
  Dy  Dy0  1  0.500000  0.500000  0.499175  1
  Y  Y1  1  0.292474  0.087226  0.377731  1
  Y  Y2  1  0.292847  0.912538  0.880327  1
  Y  Y3  1  0.707153  0.087462  0.880327  1
  Y  Y4  1  0.707526  0.912774  0.377731  1
  Y  Y5  1  0.587431  0.792883  0.880417  1
  Y  Y6  1  0.587194  0.207575  0.377691  1
  Y  Y7  1  0.412806  0.792425  0.377691  1
  Y  Y8  1  0.412569  0.207117  0.880417  1
  Y  Y9  1  0.208904  0.411633  0.621308  1
  Y  Y10  1  0.208820  0.588353  0.120881  1
  Y  Y11  1  0.791180  0.411647  0.120881  1
  Y  Y12  1  0.791096  0.588367  0.621308  1
  Y  Y13  1  0.911607  0.708870  0.121004  1
  Y  Y14  1  0.911603  0.291137  0.621276  1
  Y  Y15  1  0.088397  0.708863  0.621276  1
  Y  Y16  1  0.088393  0.291130  0.121004  1
  Y  Y17  1  0.000000  0.000000  0.499131  1
  Y  Y18  1  0.000000  0.000000  0.999121  1
  Y  Y19  1  0.500000  0.500000  0.999132  1
  Ir  Ir20  1  0.847019  0.153804  0.249956  1
  Ir  Ir21  1  0.847042  0.846593  0.749639  1
  Ir  Ir22  1  0.152958  0.153407  0.749639  1
  Ir  Ir23  1  0.152981  0.846196  0.249956  1
  Ir  Ir24  1  0.652994  0.347525  0.748788  1
  Ir  Ir25  1  0.653308  0.652573  0.250833  1
  Ir  Ir26  1  0.346692  0.347427  0.250833  1
  Ir  Ir27  1  0.347006  0.652475  0.748788  1
  Ir  Ir28  1  0.500000  0.000000  0.624950  1
  Ir  Ir29  1  0.000000  0.500000  0.876427  1
  Ir  Ir30  1  0.000000  0.500000  0.376450  1
  Ru  Ru31  1  0.500000  0.000000  0.125919  1
