# generated using pymatgen
data_Np2Co2SiGeH2
_symmetry_space_group_name_H-M   'P 1'
_cell_length_a   3.89356800
_cell_length_b   3.89356800
_cell_length_c   7.20012800
_cell_angle_alpha   90.00000000
_cell_angle_beta   90.00000000
_cell_angle_gamma   90.00000000
_symmetry_Int_Tables_number   1
_chemical_formula_structural   Np2Co2SiGeH2
_chemical_formula_sum   'Np2 Co2 Si1 Ge1 H2'
_cell_volume   109.15301721
_cell_formula_units_Z   1
loop_
 _symmetry_equiv_pos_site_id
 _symmetry_equiv_pos_as_xyz
  1  'x, y, z'
loop_
 _atom_site_type_symbol
 _atom_site_label
 _atom_site_symmetry_multiplicity
 _atom_site_fract_x
 _atom_site_fract_y
 _atom_site_fract_z
 _atom_site_occupancy
  Np  Np0  1  0.500000  0.000000  0.339880  1
  Np  Np1  1  0.000000  0.500000  0.666379  1
  Co  Co2  1  0.500000  0.500000  0.991520  1
  Co  Co3  1  0.000000  0.000000  0.991520  1
  Si  Si4  1  0.500000  0.000000  0.825664  1
  Ge  Ge5  1  0.000000  0.500000  0.180469  1
  H  H6  1  0.000000  0.000000  0.502283  1
  H  H7  1  0.500000  0.500000  0.502283  1
