# generated using pymatgen
data_CaEr(MgAl4)2
_symmetry_space_group_name_H-M   'P 1'
_cell_length_a   9.43474373
_cell_length_b   9.43474321
_cell_length_c   9.43474280
_cell_angle_alpha   34.20628649
_cell_angle_beta   34.20628321
_cell_angle_gamma   34.20627915
_symmetry_Int_Tables_number   1
_chemical_formula_structural   CaEr(MgAl4)2
_chemical_formula_sum   'Ca1 Er1 Mg2 Al8'
_cell_volume   236.66955190
_cell_formula_units_Z   1
loop_
 _symmetry_equiv_pos_site_id
 _symmetry_equiv_pos_as_xyz
  1  'x, y, z'
loop_
 _atom_site_type_symbol
 _atom_site_label
 _atom_site_symmetry_multiplicity
 _atom_site_fract_x
 _atom_site_fract_y
 _atom_site_fract_z
 _atom_site_occupancy
  Ca  Ca0  1  0.064416  0.064416  0.064416  1
  Er  Er1  1  0.935930  0.935930  0.935930  1
  Mg  Mg2  1  0.560429  0.560429  0.560429  1
  Mg  Mg3  1  0.440610  0.440610  0.440610  1
  Al  Al4  1  0.750281  0.750281  0.750281  1
  Al  Al5  1  0.249921  0.249921  0.249921  1
  Al  Al6  1  0.996877  0.499297  0.499297  1
  Al  Al7  1  0.502671  0.000134  0.000134  1
  Al  Al8  1  0.499297  0.996877  0.499297  1
  Al  Al9  1  0.000134  0.502671  0.000134  1
  Al  Al10  1  0.499297  0.499297  0.996877  1
  Al  Al11  1  0.000134  0.000134  0.502671  1
