# generated using pymatgen
data_TbSm(SiTc2)4
_symmetry_space_group_name_H-M   'P 1'
_cell_length_a   7.39355660
_cell_length_b   7.39355635
_cell_length_c   4.13576300
_cell_angle_alpha   90.00000000
_cell_angle_beta   90.00000000
_cell_angle_gamma   91.02555517
_symmetry_Int_Tables_number   1
_chemical_formula_structural   TbSm(SiTc2)4
_chemical_formula_sum   'Tb1 Sm1 Si4 Tc8'
_cell_volume   226.04393469
_cell_formula_units_Z   1
loop_
 _symmetry_equiv_pos_site_id
 _symmetry_equiv_pos_as_xyz
  1  'x, y, z'
loop_
 _atom_site_type_symbol
 _atom_site_label
 _atom_site_symmetry_multiplicity
 _atom_site_fract_x
 _atom_site_fract_y
 _atom_site_fract_z
 _atom_site_occupancy
  Tb  Tb0  1  0.500000  0.500000  0.000000  1
  Sm  Sm1  1  0.000000  0.000000  0.500000  1
  Si  Si2  1  0.707456  0.707456  0.500000  1
  Si  Si3  1  0.292544  0.292544  0.500000  1
  Si  Si4  1  0.211730  0.788270  0.000000  1
  Si  Si5  1  0.788270  0.211730  0.000000  1
  Tc  Tc6  1  0.589300  0.159675  0.500000  1
  Tc  Tc7  1  0.410700  0.840325  0.500000  1
  Tc  Tc8  1  0.096228  0.348476  0.000000  1
  Tc  Tc9  1  0.903772  0.651524  0.000000  1
  Tc  Tc10  1  0.159675  0.589300  0.500000  1
  Tc  Tc11  1  0.840325  0.410700  0.500000  1
  Tc  Tc12  1  0.348476  0.096228  0.000000  1
  Tc  Tc13  1  0.651524  0.903772  0.000000  1
