# generated using pymatgen
data_Rb2LiDyBi2
_symmetry_space_group_name_H-M   'P 1'
_cell_length_a   11.39801676
_cell_length_b   11.39801754
_cell_length_c   7.37598500
_cell_angle_alpha   90.00000000
_cell_angle_beta   90.00000000
_cell_angle_gamma   99.35375062
_symmetry_Int_Tables_number   1
_chemical_formula_structural   Rb2LiDyBi2
_chemical_formula_sum   'Rb8 Li4 Dy4 Bi8'
_cell_volume   945.50838402
_cell_formula_units_Z   4
loop_
 _symmetry_equiv_pos_site_id
 _symmetry_equiv_pos_as_xyz
  1  'x, y, z'
loop_
 _atom_site_type_symbol
 _atom_site_label
 _atom_site_symmetry_multiplicity
 _atom_site_fract_x
 _atom_site_fract_y
 _atom_site_fract_z
 _atom_site_occupancy
  Rb  Rb0  1  0.571015  0.928985  0.750000  1
  Rb  Rb1  1  0.928985  0.571015  0.250000  1
  Rb  Rb2  1  0.428985  0.071015  0.250000  1
  Rb  Rb3  1  0.071015  0.428985  0.750000  1
  Rb  Rb4  1  0.675673  0.324327  0.785877  1
  Rb  Rb5  1  0.824327  0.175673  0.285877  1
  Rb  Rb6  1  0.324327  0.675673  0.214123  1
  Rb  Rb7  1  0.175673  0.824327  0.714123  1
  Li  Li8  1  0.621032  0.621032  0.000000  1
  Li  Li9  1  0.878968  0.878968  0.500000  1
  Li  Li10  1  0.378968  0.378968  0.000000  1
  Li  Li11  1  0.121032  0.121032  0.500000  1
  Dy  Dy12  1  0.869535  0.869535  0.000000  1
  Dy  Dy13  1  0.630465  0.630465  0.500000  1
  Dy  Dy14  1  0.130465  0.130465  0.000000  1
  Dy  Dy15  1  0.369535  0.369535  0.500000  1
  Bi  Bi16  1  0.348154  0.151846  0.750000  1
  Bi  Bi17  1  0.151846  0.348154  0.250000  1
  Bi  Bi18  1  0.651846  0.848154  0.250000  1
  Bi  Bi19  1  0.848154  0.651846  0.750000  1
  Bi  Bi20  1  0.904182  0.095818  0.759038  1
  Bi  Bi21  1  0.595818  0.404182  0.259038  1
  Bi  Bi22  1  0.095818  0.904182  0.240962  1
  Bi  Bi23  1  0.404182  0.595818  0.740962  1
