# generated using pymatgen
data_LaU9S20
_symmetry_space_group_name_H-M   'P 1'
_cell_length_a   10.17921152
_cell_length_b   10.17573663
_cell_length_c   6.30198900
_cell_angle_alpha   89.86770830
_cell_angle_beta   89.83833775
_cell_angle_gamma   89.85932318
_symmetry_Int_Tables_number   1
_chemical_formula_structural   LaU9S20
_chemical_formula_sum   'La1 U9 S20'
_cell_volume   652.75987304
_cell_formula_units_Z   1
loop_
 _symmetry_equiv_pos_site_id
 _symmetry_equiv_pos_as_xyz
  1  'x, y, z'
loop_
 _atom_site_type_symbol
 _atom_site_label
 _atom_site_symmetry_multiplicity
 _atom_site_fract_x
 _atom_site_fract_y
 _atom_site_fract_z
 _atom_site_occupancy
  La  La0  1  0.839385  0.149508  0.248492  1
  U  U1  1  0.651472  0.657922  0.252423  1
  U  U2  1  0.349389  0.339491  0.248348  1
  U  U3  1  0.159693  0.847107  0.250203  1
  U  U4  1  0.496796  0.998793  0.857886  1
  U  U5  1  0.340479  0.651007  0.751330  1
  U  U6  1  0.152247  0.160754  0.748872  1
  U  U7  1  0.848881  0.837941  0.751844  1
  U  U8  1  0.659135  0.350393  0.750003  1
  U  U9  1  0.001247  0.501892  0.140898  1
  S  S10  1  0.708099  0.088096  0.644120  1
  S  S11  1  0.589969  0.789163  0.619057  1
  S  S12  1  0.408873  0.207330  0.617434  1
  S  S13  1  0.294148  0.908517  0.617239  1
  S  S14  1  0.703252  0.903464  0.100219  1
  S  S15  1  0.577307  0.210899  0.102677  1
  S  S16  1  0.409570  0.790813  0.108332  1
  S  S17  1  0.288425  0.089010  0.108230  1
  S  S18  1  0.500974  0.502526  0.000403  1
  S  S19  1  0.006118  0.995035  0.993132  1
  S  S20  1  0.211636  0.411533  0.893743  1
  S  S21  1  0.089197  0.707153  0.890945  1
  S  S22  1  0.915288  0.298842  0.876132  1
  S  S23  1  0.791014  0.589530  0.894909  1
  S  S24  1  0.497868  0.498095  0.500092  1
  S  S25  1  0.006195  0.994054  0.507099  1
  S  S26  1  0.208649  0.591911  0.381420  1
  S  S27  1  0.094314  0.296455  0.384836  1
  S  S28  1  0.910438  0.711402  0.377274  1
  S  S29  1  0.789943  0.421362  0.382403  1
