# generated using pymatgen
data_Cr2SbOsO8
_symmetry_space_group_name_H-M   'P 1'
_cell_length_a   4.60938980
_cell_length_b   6.27805629
_cell_length_c   9.74887062
_cell_angle_alpha   71.21676109
_cell_angle_beta   91.21097597
_cell_angle_gamma   89.99999841
_symmetry_Int_Tables_number   1
_chemical_formula_structural   Cr2SbOsO8
_chemical_formula_sum   'Cr4 Sb2 Os2 O16'
_cell_volume   267.02200040
_cell_formula_units_Z   2
loop_
 _symmetry_equiv_pos_site_id
 _symmetry_equiv_pos_as_xyz
  1  'x, y, z'
loop_
 _atom_site_type_symbol
 _atom_site_label
 _atom_site_symmetry_multiplicity
 _atom_site_fract_x
 _atom_site_fract_y
 _atom_site_fract_z
 _atom_site_occupancy
  Cr  Cr0  1  0.500000  0.125000  0.250000  1
  Cr  Cr1  1  0.500000  0.875652  0.750000  1
  Cr  Cr2  1  0.500000  0.374348  0.750000  1
  Cr  Cr3  1  0.500000  0.625000  0.250000  1
  Sb  Sb4  1  0.997863  0.249964  0.500072  1
  Sb  Sb5  1  0.002137  0.000036  0.999928  1
  Os  Os6  1  0.001301  0.749879  0.500242  1
  Os  Os7  1  0.998699  0.500121  0.999758  1
  O  O8  1  0.704408  0.573744  0.852512  1
  O  O9  1  0.687322  0.326889  0.346222  1
  O  O10  1  0.691926  0.077224  0.845551  1
  O  O11  1  0.708352  0.823757  0.352485  1
  O  O12  1  0.295592  0.676256  0.647488  1
  O  O13  1  0.291648  0.426243  0.147515  1
  O  O14  1  0.308074  0.172776  0.654449  1
  O  O15  1  0.312678  0.923111  0.153778  1
  O  O16  1  0.192782  0.302911  0.903580  1
  O  O17  1  0.192258  0.044962  0.403684  1
  O  O18  1  0.192782  0.793508  0.903580  1
  O  O19  1  0.192258  0.551353  0.403684  1
  O  O20  1  0.807218  0.456492  0.596420  1
  O  O21  1  0.807742  0.205038  0.096316  1
  O  O22  1  0.807218  0.947089  0.596420  1
  O  O23  1  0.807742  0.698647  0.096316  1
