# generated using pymatgen
data_Nb2GaH
_symmetry_space_group_name_H-M   'P 1'
_cell_length_a   5.23763260
_cell_length_b   5.23763331
_cell_length_c   5.23763249
_cell_angle_alpha   105.13184878
_cell_angle_beta   105.13183975
_cell_angle_gamma   118.54948988
_symmetry_Int_Tables_number   1
_chemical_formula_structural   Nb2GaH
_chemical_formula_sum   'Nb4 Ga2 H2'
_cell_volume   108.49505466
_cell_formula_units_Z   2
loop_
 _symmetry_equiv_pos_site_id
 _symmetry_equiv_pos_as_xyz
  1  'x, y, z'
loop_
 _atom_site_type_symbol
 _atom_site_label
 _atom_site_symmetry_multiplicity
 _atom_site_fract_x
 _atom_site_fract_y
 _atom_site_fract_z
 _atom_site_occupancy
  Nb  Nb0  1  0.163623  0.663623  0.827246  1
  Nb  Nb1  1  0.836377  0.336377  0.172754  1
  Nb  Nb2  1  0.336377  0.163623  0.500000  1
  Nb  Nb3  1  0.663623  0.836377  0.500000  1
  Ga  Ga4  1  0.250000  0.250000  0.000000  1
  Ga  Ga5  1  0.750000  0.750000  0.000000  1
  H  H6  1  0.750000  0.250000  0.500000  1
  H  H7  1  0.250000  0.750000  0.500000  1
