# generated using pymatgen
data_ErBi3(MoO4)6
_symmetry_space_group_name_H-M   'P 1'
_cell_length_a   7.56370573
_cell_length_b   7.56370521
_cell_length_c   10.86311735
_cell_angle_alpha   89.78700285
_cell_angle_beta   90.21299610
_cell_angle_gamma   89.81796675
_symmetry_Int_Tables_number   1
_chemical_formula_structural   ErBi3(MoO4)6
_chemical_formula_sum   'Er1 Bi3 Mo6 O24'
_cell_volume   621.46328476
_cell_formula_units_Z   1
loop_
 _symmetry_equiv_pos_site_id
 _symmetry_equiv_pos_as_xyz
  1  'x, y, z'
loop_
 _atom_site_type_symbol
 _atom_site_label
 _atom_site_symmetry_multiplicity
 _atom_site_fract_x
 _atom_site_fract_y
 _atom_site_fract_z
 _atom_site_occupancy
  Er  Er0  1  0.309590  0.190410  0.265222  1
  Bi  Bi1  1  0.191733  0.690773  0.739227  1
  Bi  Bi2  1  0.809227  0.308267  0.739227  1
  Bi  Bi3  1  0.688693  0.811307  0.258424  1
  Mo  Mo4  1  0.208345  0.706287  0.352144  1
  Mo  Mo5  1  0.793713  0.291655  0.352144  1
  Mo  Mo6  1  0.706495  0.793505  0.647709  1
  Mo  Mo7  1  0.292814  0.207186  0.638428  1
  Mo  Mo8  1  0.005570  0.004417  0.003544  1
  Mo  Mo9  1  0.495583  0.494430  0.003544  1
  O  O10  1  0.005547  0.221225  0.297429  1
  O  O11  1  0.996917  0.768180  0.291515  1
  O  O12  1  0.225666  0.998538  0.699624  1
  O  O13  1  0.498398  0.724885  0.709116  1
  O  O14  1  0.775115  0.001602  0.709116  1
  O  O15  1  0.501462  0.274334  0.699624  1
  O  O16  1  0.278775  0.494453  0.297429  1
  O  O17  1  0.731820  0.503083  0.291515  1
  O  O18  1  0.187102  0.052979  0.103570  1
  O  O19  1  0.811210  0.957960  0.092714  1
  O  O20  1  0.057735  0.816032  0.910286  1
  O  O21  1  0.307876  0.535867  0.906231  1
  O  O22  1  0.964133  0.192124  0.906231  1
  O  O23  1  0.683968  0.442265  0.910286  1
  O  O24  1  0.447021  0.312898  0.103570  1
  O  O25  1  0.542040  0.688790  0.092714  1
  O  O26  1  0.620786  0.135071  0.305893  1
  O  O27  1  0.364929  0.879214  0.305893  1
  O  O28  1  0.128644  0.371356  0.684035  1
  O  O29  1  0.871607  0.628393  0.693264  1
  O  O30  1  0.197306  0.698154  0.515505  1
  O  O31  1  0.801846  0.302694  0.515505  1
  O  O32  1  0.693278  0.806722  0.484769  1
  O  O33  1  0.305057  0.194943  0.474556  1
