# generated using pymatgen
data_Li6GdNp2N6
_symmetry_space_group_name_H-M   'P 1'
_cell_length_a   6.03212800
_cell_length_b   6.03212879
_cell_length_c   5.48335700
_cell_angle_alpha   90.00000000
_cell_angle_beta   90.00000000
_cell_angle_gamma   119.99999566
_symmetry_Int_Tables_number   1
_chemical_formula_structural   Li6GdNp2N6
_chemical_formula_sum   'Li6 Gd1 Np2 N6'
_cell_volume   172.78988944
_cell_formula_units_Z   1
loop_
 _symmetry_equiv_pos_site_id
 _symmetry_equiv_pos_as_xyz
  1  'x, y, z'
loop_
 _atom_site_type_symbol
 _atom_site_label
 _atom_site_symmetry_multiplicity
 _atom_site_fract_x
 _atom_site_fract_y
 _atom_site_fract_z
 _atom_site_occupancy
  Li  Li0  1  0.986227  0.659550  0.606644  1
  Li  Li1  1  0.340450  0.326677  0.606644  1
  Li  Li2  1  0.673323  0.013773  0.606644  1
  Li  Li3  1  0.013773  0.340450  0.393356  1
  Li  Li4  1  0.659550  0.673323  0.393356  1
  Li  Li5  1  0.326677  0.986227  0.393356  1
  Gd  Gd6  1  0.000000  0.000000  0.000000  1
  Np  Np7  1  0.333333  0.666667  0.994965  1
  Np  Np8  1  0.666667  0.333333  0.005035  1
  N  N9  1  0.000817  0.650883  0.225588  1
  N  N10  1  0.349117  0.349934  0.225588  1
  N  N11  1  0.650066  0.999183  0.225588  1
  N  N12  1  0.999183  0.349117  0.774412  1
  N  N13  1  0.650883  0.650066  0.774412  1
  N  N14  1  0.349934  0.000817  0.774412  1
