# generated using pymatgen
data_Dy5Si6P6Ir18Rh
_symmetry_space_group_name_H-M   'P 1'
_cell_length_a   12.81491844
_cell_length_b   12.80777117
_cell_length_c   3.95386400
_cell_angle_alpha   90.00000000
_cell_angle_beta   90.00000000
_cell_angle_gamma   119.98843255
_symmetry_Int_Tables_number   1
_chemical_formula_structural   Dy5Si6P6Ir18Rh
_chemical_formula_sum   'Dy5 Si6 P6 Ir18 Rh1'
_cell_volume   562.07254858
_cell_formula_units_Z   1
loop_
 _symmetry_equiv_pos_site_id
 _symmetry_equiv_pos_as_xyz
  1  'x, y, z'
loop_
 _atom_site_type_symbol
 _atom_site_label
 _atom_site_symmetry_multiplicity
 _atom_site_fract_x
 _atom_site_fract_y
 _atom_site_fract_z
 _atom_site_occupancy
  Dy  Dy0  1  0.333404  0.666703  0.500000  1
  Dy  Dy1  1  0.666802  0.333310  0.500000  1
  Dy  Dy2  1  0.001627  0.815968  0.000000  1
  Dy  Dy3  1  0.183867  0.185341  0.000000  1
  Dy  Dy4  1  0.814438  0.998322  0.000000  1
  Si  Si5  1  0.000771  0.634961  0.500000  1
  Si  Si6  1  0.364163  0.365088  0.500000  1
  Si  Si7  1  0.635136  0.999406  0.500000  1
  Si  Si8  1  0.519501  0.682171  0.000000  1
  Si  Si9  1  0.317805  0.837227  0.000000  1
  Si  Si10  1  0.162683  0.480373  0.000000  1
  P  P11  1  0.483836  0.177742  0.000000  1
  P  P12  1  0.694063  0.516175  0.000000  1
  P  P13  1  0.822991  0.306601  0.000000  1
  P  P14  1  0.996181  0.177207  0.500000  1
  P  P15  1  0.823463  0.819865  0.500000  1
  P  P16  1  0.180239  0.003730  0.500000  1
  Ir  Ir17  1  0.515560  0.869090  0.000000  1
  Ir  Ir18  1  0.130869  0.646553  0.000000  1
  Ir  Ir19  1  0.353821  0.484316  0.000000  1
  Ir  Ir20  1  0.494483  0.368508  0.000000  1
  Ir  Ir21  1  0.873771  0.506178  0.000000  1
  Ir  Ir22  1  0.631524  0.125832  0.000000  1
  Ir  Ir23  1  0.542550  0.557132  0.500000  1
  Ir  Ir24  1  0.442878  0.985211  0.500000  1
  Ir  Ir25  1  0.993718  0.276840  0.000000  1
  Ir  Ir26  1  0.721993  0.715766  0.000000  1
  Ir  Ir27  1  0.284379  0.006539  0.000000  1
  Ir  Ir28  1  0.632639  0.808784  0.500000  1
  Ir  Ir29  1  0.191128  0.824089  0.500000  1
  Ir  Ir30  1  0.176313  0.367729  0.500000  1
  Ir  Ir31  1  0.381841  0.182752  0.500000  1
  Ir  Ir32  1  0.800611  0.618417  0.500000  1
  Ir  Ir33  1  0.816648  0.198314  0.500000  1
  Ir  Ir34  1  0.000085  0.000339  0.500000  1
  Rh  Rh35  1  0.014217  0.457427  0.500000  1
