# generated using pymatgen
data_YbTm3(Si5Os3)2
_symmetry_space_group_name_H-M   'P 1'
_cell_length_a   8.11364157
_cell_length_b   8.14760507
_cell_length_c   5.74728153
_cell_angle_alpha   70.56969285
_cell_angle_beta   70.56237478
_cell_angle_gamma   94.24868288
_symmetry_Int_Tables_number   1
_chemical_formula_structural   YbTm3(Si5Os3)2
_chemical_formula_sum   'Yb1 Tm3 Si10 Os6'
_cell_volume   330.49960720
_cell_formula_units_Z   1
loop_
 _symmetry_equiv_pos_site_id
 _symmetry_equiv_pos_as_xyz
  1  'x, y, z'
loop_
 _atom_site_type_symbol
 _atom_site_label
 _atom_site_symmetry_multiplicity
 _atom_site_fract_x
 _atom_site_fract_y
 _atom_site_fract_z
 _atom_site_occupancy
  Yb  Yb0  1  0.600517  0.868939  0.257615  1
  Tm  Tm1  1  0.867371  0.602623  0.752360  1
  Tm  Tm2  1  0.400664  0.131297  0.745346  1
  Tm  Tm3  1  0.131464  0.397124  0.247862  1
  Si  Si4  1  0.068240  0.260581  0.834518  1
  Si  Si5  1  0.735316  0.931712  0.670745  1
  Si  Si6  1  0.931332  0.739745  0.164386  1
  Si  Si7  1  0.263989  0.068796  0.331972  1
  Si  Si8  1  0.207359  0.794156  0.746421  1
  Si  Si9  1  0.791880  0.204537  0.254460  1
  Si  Si10  1  0.512577  0.489101  0.745699  1
  Si  Si11  1  0.490144  0.512526  0.250209  1
  Si  Si12  1  0.774805  0.222836  0.750284  1
  Si  Si13  1  0.223485  0.775954  0.249494  1
  Os  Os14  1  0.252999  0.542627  0.629711  1
  Os  Os15  1  0.453136  0.741319  0.874157  1
  Os  Os16  1  0.747201  0.456571  0.368236  1
  Os  Os17  1  0.544548  0.257939  0.128491  1
  Os  Os18  1  0.003651  0.999157  0.747865  1
  Os  Os19  1  0.999322  0.002460  0.250169  1
