# generated using pymatgen
data_SbBr(ClF3)2
_symmetry_space_group_name_H-M   'P 1'
_cell_length_a   6.54277200
_cell_length_b   8.58284400
_cell_length_c   7.62066900
_cell_angle_alpha   90.00000000
_cell_angle_beta   90.00000000
_cell_angle_gamma   90.00000000
_symmetry_Int_Tables_number   1
_chemical_formula_structural   SbBr(ClF3)2
_chemical_formula_sum   'Sb2 Br2 Cl4 F12'
_cell_volume   427.94317459
_cell_formula_units_Z   2
loop_
 _symmetry_equiv_pos_site_id
 _symmetry_equiv_pos_as_xyz
  1  'x, y, z'
loop_
 _atom_site_type_symbol
 _atom_site_label
 _atom_site_symmetry_multiplicity
 _atom_site_fract_x
 _atom_site_fract_y
 _atom_site_fract_z
 _atom_site_occupancy
  Sb  Sb0  1  0.966969  0.000000  0.500000  1
  Sb  Sb1  1  0.033031  0.500000  0.000000  1
  Br  Br2  1  0.679948  0.000000  0.000000  1
  Br  Br3  1  0.320052  0.500000  0.500000  1
  Cl  Cl4  1  0.531009  0.500000  0.714790  1
  Cl  Cl5  1  0.468991  0.000000  0.214790  1
  Cl  Cl6  1  0.468991  0.000000  0.785210  1
  Cl  Cl7  1  0.531009  0.500000  0.285210  1
  F  F8  1  0.766568  0.161332  0.500000  1
  F  F9  1  0.182423  0.152261  0.500000  1
  F  F10  1  0.035703  0.500000  0.744278  1
  F  F11  1  0.766568  0.838668  0.500000  1
  F  F12  1  0.964297  0.000000  0.244278  1
  F  F13  1  0.817577  0.347739  0.000000  1
  F  F14  1  0.964297  0.000000  0.755722  1
  F  F15  1  0.182423  0.847739  0.500000  1
  F  F16  1  0.035703  0.500000  0.255722  1
  F  F17  1  0.817577  0.652261  0.000000  1
  F  F18  1  0.233432  0.338668  0.000000  1
  F  F19  1  0.233432  0.661332  0.000000  1
