# generated using pymatgen
data_Cs2Ca(NbBr3)6
_symmetry_space_group_name_H-M   'P 1'
_cell_length_a   10.96418488
_cell_length_b   10.96418516
_cell_length_c   10.96418419
_cell_angle_alpha   55.05749290
_cell_angle_beta   55.05748262
_cell_angle_gamma   55.05748641
_symmetry_Int_Tables_number   1
_chemical_formula_structural   Cs2Ca(NbBr3)6
_chemical_formula_sum   'Cs2 Ca1 Nb6 Br18'
_cell_volume   824.84415088
_cell_formula_units_Z   1
loop_
 _symmetry_equiv_pos_site_id
 _symmetry_equiv_pos_as_xyz
  1  'x, y, z'
loop_
 _atom_site_type_symbol
 _atom_site_label
 _atom_site_symmetry_multiplicity
 _atom_site_fract_x
 _atom_site_fract_y
 _atom_site_fract_z
 _atom_site_occupancy
  Cs  Cs0  1  0.722775  0.722775  0.722775  1
  Cs  Cs1  1  0.277225  0.277225  0.277225  1
  Ca  Ca2  1  0.000000  0.000000  0.000000  1
  Nb  Nb3  1  0.578950  0.358862  0.692842  1
  Nb  Nb4  1  0.358862  0.692842  0.578950  1
  Nb  Nb5  1  0.692842  0.578950  0.358862  1
  Nb  Nb6  1  0.641138  0.307158  0.421050  1
  Nb  Nb7  1  0.421050  0.641138  0.307158  1
  Nb  Nb8  1  0.307158  0.421050  0.641138  1
  Br  Br9  1  0.908006  0.361214  0.229621  1
  Br  Br10  1  0.833591  0.423272  0.563804  1
  Br  Br11  1  0.770379  0.091994  0.638786  1
  Br  Br12  1  0.091994  0.638786  0.770379  1
  Br  Br13  1  0.684859  0.169557  0.960223  1
  Br  Br14  1  0.229621  0.908006  0.361214  1
  Br  Br15  1  0.436196  0.166409  0.576728  1
  Br  Br16  1  0.638786  0.770379  0.091994  1
  Br  Br17  1  0.576728  0.436196  0.166409  1
  Br  Br18  1  0.039777  0.315141  0.830443  1
  Br  Br19  1  0.563804  0.833591  0.423272  1
  Br  Br20  1  0.361214  0.229621  0.908006  1
  Br  Br21  1  0.960223  0.684859  0.169557  1
  Br  Br22  1  0.166409  0.576728  0.436196  1
  Br  Br23  1  0.830443  0.039777  0.315141  1
  Br  Br24  1  0.423272  0.563804  0.833591  1
  Br  Br25  1  0.169557  0.960223  0.684859  1
  Br  Br26  1  0.315141  0.830443  0.039777  1
