# generated using pymatgen
data_Nb9SiB4PW
_symmetry_space_group_name_H-M   'P 1'
_cell_length_a   7.29430296
_cell_length_b   7.29430356
_cell_length_c   7.29430365
_cell_angle_alpha   129.52864419
_cell_angle_beta   129.52865126
_cell_angle_gamma   74.16142335
_symmetry_Int_Tables_number   1
_chemical_formula_structural   Nb9SiB4PW
_chemical_formula_sum   'Nb9 Si1 B4 P1 W1'
_cell_volume   225.12093059
_cell_formula_units_Z   1
loop_
 _symmetry_equiv_pos_site_id
 _symmetry_equiv_pos_as_xyz
  1  'x, y, z'
loop_
 _atom_site_type_symbol
 _atom_site_label
 _atom_site_symmetry_multiplicity
 _atom_site_fract_x
 _atom_site_fract_y
 _atom_site_fract_z
 _atom_site_occupancy
  Nb  Nb0  1  0.500762  0.500762  0.000000  1
  Nb  Nb1  1  0.810285  0.305374  0.837365  1
  Nb  Nb2  1  0.192748  0.691840  0.162880  1
  Nb  Nb3  1  0.468010  0.972921  0.162635  1
  Nb  Nb4  1  0.305374  0.468010  0.495089  1
  Nb  Nb5  1  0.029868  0.192748  0.500908  1
  Nb  Nb6  1  0.528959  0.029868  0.837120  1
  Nb  Nb7  1  0.691840  0.528959  0.499092  1
  Nb  Nb8  1  0.972921  0.810285  0.504911  1
  Si  Si9  1  0.749170  0.749170  0.000000  1
  B  B10  1  0.113266  0.616350  0.729625  1
  B  B11  1  0.886725  0.383641  0.270375  1
  B  B12  1  0.616350  0.886725  0.503084  1
  B  B13  1  0.383641  0.113266  0.496916  1
  P  P14  1  0.252011  0.252011  0.000000  1
  W  W15  1  0.998068  0.998068  0.000000  1
