# generated using pymatgen
data_Pa8Ti5Si16Mo3W4
_symmetry_space_group_name_H-M   'P 1'
_cell_length_a   6.94498426
_cell_length_b   6.93856713
_cell_length_c   13.01070478
_cell_angle_alpha   89.90280839
_cell_angle_beta   90.03964669
_cell_angle_gamma   90.10463376
_symmetry_Int_Tables_number   1
_chemical_formula_structural   Pa8Ti5Si16Mo3W4
_chemical_formula_sum   'Pa8 Ti5 Si16 Mo3 W4'
_cell_volume   626.96086207
_cell_formula_units_Z   1
loop_
 _symmetry_equiv_pos_site_id
 _symmetry_equiv_pos_as_xyz
  1  'x, y, z'
loop_
 _atom_site_type_symbol
 _atom_site_label
 _atom_site_symmetry_multiplicity
 _atom_site_fract_x
 _atom_site_fract_y
 _atom_site_fract_z
 _atom_site_occupancy
  Pa  Pa0  1  0.333914  0.001378  0.470694  1
  Pa  Pa1  1  0.499068  0.833236  0.721405  1
  Pa  Pa2  1  0.499268  0.164995  0.221275  1
  Pa  Pa3  1  0.835155  0.498741  0.278258  1
  Pa  Pa4  1  0.166803  0.497108  0.779169  1
  Pa  Pa5  1  0.664864  0.998972  0.972072  1
  Pa  Pa6  1  0.000047  0.334289  0.529053  1
  Pa  Pa7  1  0.000585  0.665385  0.028454  1
  Ti  Ti8  1  0.334452  0.334818  0.000144  1
  Ti  Ti9  1  0.166916  0.834030  0.250194  1
  Ti  Ti10  1  0.833213  0.168436  0.751540  1
  Ti  Ti11  1  0.664112  0.665613  0.498739  1
  Ti  Ti12  1  0.000298  0.833426  0.624122  1
  Si  Si13  1  0.201608  0.121511  0.682571  1
  Si  Si14  1  0.378686  0.699762  0.932842  1
  Si  Si15  1  0.623033  0.298765  0.433793  1
  Si  Si16  1  0.700194  0.379614  0.066898  1
  Si  Si17  1  0.299242  0.622956  0.566266  1
  Si  Si18  1  0.800380  0.878596  0.184282  1
  Si  Si19  1  0.121057  0.200056  0.316676  1
  Si  Si20  1  0.878520  0.797724  0.816590  1
  Si  Si21  1  0.283221  0.969686  0.064126  1
  Si  Si22  1  0.531853  0.785554  0.314786  1
  Si  Si23  1  0.469280  0.213464  0.814342  1
  Si  Si24  1  0.785885  0.532237  0.685361  1
  Si  Si25  1  0.216440  0.469716  0.184993  1
  Si  Si26  1  0.709936  0.036038  0.566115  1
  Si  Si27  1  0.968941  0.283295  0.936160  1
  Si  Si28  1  0.035713  0.712304  0.434226  1
  Mo  Mo29  1  0.172042  0.994171  0.870935  1
  Mo  Mo30  1  0.506902  0.673891  0.122103  1
  Mo  Mo31  1  0.493481  0.330071  0.621825  1
  W  W32  1  0.671192  0.502174  0.878264  1
  W  W33  1  0.329932  0.491752  0.377041  1
  W  W34  1  0.831013  0.002907  0.375795  1
  W  W35  1  0.992751  0.173332  0.128886  1
