# generated using pymatgen
data_Yb3Dy3(MnC3)4
_symmetry_space_group_name_H-M   'P 1'
_cell_length_a   8.06328119
_cell_length_b   8.06835797
_cell_length_c   4.97214800
_cell_angle_alpha   90.00000000
_cell_angle_beta   90.00000000
_cell_angle_gamma   120.17046563
_symmetry_Int_Tables_number   1
_chemical_formula_structural   Yb3Dy3(MnC3)4
_chemical_formula_sum   'Yb3 Dy3 Mn4 C12'
_cell_volume   279.65531527
_cell_formula_units_Z   1
loop_
 _symmetry_equiv_pos_site_id
 _symmetry_equiv_pos_as_xyz
  1  'x, y, z'
loop_
 _atom_site_type_symbol
 _atom_site_label
 _atom_site_symmetry_multiplicity
 _atom_site_fract_x
 _atom_site_fract_y
 _atom_site_fract_z
 _atom_site_occupancy
  Yb  Yb0  1  0.613470  0.685799  0.750000  1
  Yb  Yb1  1  0.926822  0.614903  0.250000  1
  Yb  Yb2  1  0.682296  0.071272  0.250000  1
  Dy  Dy3  1  0.311590  0.932840  0.750000  1
  Dy  Dy4  1  0.067680  0.383661  0.750000  1
  Dy  Dy5  1  0.382144  0.315041  0.250000  1
  Mn  Mn6  1  0.996456  0.997785  0.501520  1
  Mn  Mn7  1  0.996456  0.997785  0.998480  1
  Mn  Mn8  1  0.667466  0.330673  0.750000  1
  Mn  Mn9  1  0.332642  0.663160  0.250000  1
  C  C10  1  0.958102  0.772227  0.750000  1
  C  C11  1  0.196072  0.964648  0.250000  1
  C  C12  1  0.774825  0.819939  0.250000  1
  C  C13  1  0.229036  0.193822  0.750000  1
  C  C14  1  0.821407  0.043834  0.750000  1
  C  C15  1  0.039694  0.222807  0.250000  1
  C  C16  1  0.859122  0.577973  0.750000  1
  C  C17  1  0.280041  0.854820  0.250000  1
  C  C18  1  0.581600  0.720200  0.250000  1
  C  C19  1  0.424743  0.282268  0.750000  1
  C  C20  1  0.137923  0.417421  0.250000  1
  C  C21  1  0.720410  0.137123  0.750000  1
