# generated using pymatgen
data_Ce2MgCo2Sn
_symmetry_space_group_name_H-M   'P 1'
_cell_length_a   6.17295451
_cell_length_b   6.17295427
_cell_length_c   4.73608600
_cell_angle_alpha   74.83458248
_cell_angle_beta   74.83459268
_cell_angle_gamma   43.78949090
_symmetry_Int_Tables_number   1
_chemical_formula_structural   Ce2MgCo2Sn
_chemical_formula_sum   'Ce2 Mg1 Co2 Sn1'
_cell_volume   119.82084894
_cell_formula_units_Z   1
loop_
 _symmetry_equiv_pos_site_id
 _symmetry_equiv_pos_as_xyz
  1  'x, y, z'
loop_
 _atom_site_type_symbol
 _atom_site_label
 _atom_site_symmetry_multiplicity
 _atom_site_fract_x
 _atom_site_fract_y
 _atom_site_fract_z
 _atom_site_occupancy
  Ce  Ce0  1  0.864470  0.864470  0.334604  1
  Ce  Ce1  1  0.138114  0.138114  0.666589  1
  Mg  Mg2  1  0.416229  0.416229  0.815551  1
  Co  Co3  1  0.194070  0.194070  0.168044  1
  Co  Co4  1  0.805704  0.805704  0.818158  1
  Sn  Sn5  1  0.581416  0.581416  0.197052  1
