# generated using pymatgen
data_Mg2Zn2PdPtO8
_symmetry_space_group_name_H-M   'P 1'
_cell_length_a   6.09045655
_cell_length_b   6.10051982
_cell_length_c   6.10051808
_cell_angle_alpha   121.30710517
_cell_angle_beta   119.21764976
_cell_angle_gamma   89.60120929
_symmetry_Int_Tables_number   1
_chemical_formula_structural   Mg2Zn2PdPtO8
_chemical_formula_sum   'Mg2 Zn2 Pd1 Pt1 O8'
_cell_volume   159.50522065
_cell_formula_units_Z   1
loop_
 _symmetry_equiv_pos_site_id
 _symmetry_equiv_pos_as_xyz
  1  'x, y, z'
loop_
 _atom_site_type_symbol
 _atom_site_label
 _atom_site_symmetry_multiplicity
 _atom_site_fract_x
 _atom_site_fract_y
 _atom_site_fract_z
 _atom_site_occupancy
  Mg  Mg0  1  0.000000  0.000000  0.500000  1
  Mg  Mg1  1  0.000000  0.500000  0.000000  1
  Zn  Zn2  1  0.600118  0.849605  0.750514  1
  Zn  Zn3  1  0.399882  0.150395  0.249486  1
  Pd  Pd4  1  0.500000  0.500000  0.000000  1
  Pt  Pt5  1  0.000000  0.500000  0.500000  1
  O  O6  1  0.785380  0.263531  0.521850  1
  O  O7  1  0.241837  0.263676  0.978159  1
  O  O8  1  0.246852  0.268482  0.522118  1
  O  O9  1  0.246852  0.724733  0.978370  1
  O  O10  1  0.753148  0.275267  0.021630  1
  O  O11  1  0.758163  0.736324  0.021841  1
  O  O12  1  0.753148  0.731518  0.477882  1
  O  O13  1  0.214620  0.736469  0.478150  1
