# generated using pymatgen
data_Th4Mn5Ru7C10
_symmetry_space_group_name_H-M   'P 1'
_cell_length_a   8.84082784
_cell_length_b   8.94283175
_cell_length_c   4.22355800
_cell_angle_alpha   90.00000000
_cell_angle_beta   90.00000000
_cell_angle_gamma   90.43090580
_symmetry_Int_Tables_number   1
_chemical_formula_structural   Th4Mn5Ru7C10
_chemical_formula_sum   'Th4 Mn5 Ru7 C10'
_cell_volume   333.91365056
_cell_formula_units_Z   1
loop_
 _symmetry_equiv_pos_site_id
 _symmetry_equiv_pos_as_xyz
  1  'x, y, z'
loop_
 _atom_site_type_symbol
 _atom_site_label
 _atom_site_symmetry_multiplicity
 _atom_site_fract_x
 _atom_site_fract_y
 _atom_site_fract_z
 _atom_site_occupancy
  Th  Th0  1  0.321351  0.820992  0.500000  1
  Th  Th1  1  0.820527  0.683665  0.500000  1
  Th  Th2  1  0.172699  0.313017  0.500000  1
  Th  Th3  1  0.685209  0.176560  0.500000  1
  Mn  Mn4  1  0.715135  0.435744  0.000000  1
  Mn  Mn5  1  0.441042  0.281212  0.000000  1
  Mn  Mn6  1  0.504648  0.003108  0.000000  1
  Mn  Mn7  1  0.994030  0.499396  0.000000  1
  Mn  Mn8  1  0.780323  0.936740  0.000000  1
  Ru  Ru9  1  0.995043  0.000439  0.500000  1
  Ru  Ru10  1  0.506549  0.492361  0.500000  1
  Ru  Ru11  1  0.930800  0.217913  0.000000  1
  Ru  Ru12  1  0.062945  0.781759  0.000000  1
  Ru  Ru13  1  0.218220  0.064786  0.000000  1
  Ru  Ru14  1  0.566132  0.713521  0.000000  1
  Ru  Ru15  1  0.284838  0.555617  0.000000  1
  C  C16  1  0.503833  0.491120  0.000000  1
  C  C17  1  0.993994  0.997990  0.000000  1
  C  C18  1  0.871636  0.391663  0.671776  1
  C  C19  1  0.115626  0.611349  0.670483  1
  C  C20  1  0.871636  0.391663  0.328224  1
  C  C21  1  0.391925  0.125555  0.327803  1
  C  C22  1  0.622155  0.888464  0.327260  1
  C  C23  1  0.115626  0.611349  0.329517  1
  C  C24  1  0.622155  0.888464  0.672740  1
  C  C25  1  0.391925  0.125555  0.672197  1
