# generated using pymatgen
data_Rb8V4NiPtS16
_symmetry_space_group_name_H-M   'P 1'
_cell_length_a   13.43371034
_cell_length_b   7.48218573
_cell_length_c   9.83798000
_cell_angle_alpha   84.99981901
_cell_angle_beta   90.60598033
_cell_angle_gamma   89.41481536
_symmetry_Int_Tables_number   1
_chemical_formula_structural   Rb8V4NiPtS16
_chemical_formula_sum   'Rb8 V4 Ni1 Pt1 S16'
_cell_volume   984.97017500
_cell_formula_units_Z   1
loop_
 _symmetry_equiv_pos_site_id
 _symmetry_equiv_pos_as_xyz
  1  'x, y, z'
loop_
 _atom_site_type_symbol
 _atom_site_label
 _atom_site_symmetry_multiplicity
 _atom_site_fract_x
 _atom_site_fract_y
 _atom_site_fract_z
 _atom_site_occupancy
  Rb  Rb0  1  0.134590  0.829564  0.672567  1
  Rb  Rb1  1  0.632220  0.171061  0.828583  1
  Rb  Rb2  1  0.865410  0.170436  0.327433  1
  Rb  Rb3  1  0.367780  0.828939  0.171417  1
  Rb  Rb4  1  0.351739  0.277200  0.544026  1
  Rb  Rb5  1  0.849887  0.717296  0.956563  1
  Rb  Rb6  1  0.648261  0.722800  0.455974  1
  Rb  Rb7  1  0.150113  0.282704  0.043437  1
  V  V8  1  0.427900  0.736751  0.779401  1
  V  V9  1  0.926354  0.259990  0.726172  1
  V  V10  1  0.572100  0.263249  0.220599  1
  V  V11  1  0.073646  0.740010  0.273828  1
  Ni  Ni12  1  0.500000  0.500000  0.000000  1
  Pt  Pt13  1  0.000000  0.500000  0.500000  1
  S  S14  1  0.083143  0.301164  0.665830  1
  S  S15  1  0.582143  0.680596  0.846957  1
  S  S16  1  0.916857  0.698836  0.334170  1
  S  S17  1  0.417857  0.319404  0.153043  1
  S  S18  1  0.407230  0.724584  0.564370  1
  S  S19  1  0.906529  0.268304  0.940665  1
  S  S20  1  0.592770  0.275416  0.435630  1
  S  S21  1  0.093471  0.731696  0.059335  1
  S  S22  1  0.154503  0.518105  0.387771  1
  S  S23  1  0.648244  0.480789  0.103600  1
  S  S24  1  0.845497  0.481895  0.612229  1
  S  S25  1  0.351756  0.519211  0.896400  1
  S  S26  1  0.375065  0.992177  0.833519  1
  S  S27  1  0.871743  0.009141  0.669549  1
  S  S28  1  0.624935  0.007823  0.166481  1
  S  S29  1  0.128257  0.990859  0.330451  1
