# generated using pymatgen
data_TaVSe9
_symmetry_space_group_name_H-M   'P 1'
_cell_length_a   8.97281063
_cell_length_b   8.97280956
_cell_length_c   8.38714940
_cell_angle_alpha   82.11128330
_cell_angle_beta   82.11127870
_cell_angle_gamma   99.28447887
_symmetry_Int_Tables_number   1
_chemical_formula_structural   TaVSe9
_chemical_formula_sum   'Ta2 V2 Se18'
_cell_volume   651.27371243
_cell_formula_units_Z   2
loop_
 _symmetry_equiv_pos_site_id
 _symmetry_equiv_pos_as_xyz
  1  'x, y, z'
loop_
 _atom_site_type_symbol
 _atom_site_label
 _atom_site_symmetry_multiplicity
 _atom_site_fract_x
 _atom_site_fract_y
 _atom_site_fract_z
 _atom_site_occupancy
  Ta  Ta0  1  0.406213  0.864770  0.086956  1
  Ta  Ta1  1  0.135230  0.593787  0.413044  1
  V  V2  1  0.597372  0.140484  0.915816  1
  V  V3  1  0.859516  0.402628  0.584184  1
  Se  Se4  1  0.382162  0.674171  0.544877  1
  Se  Se5  1  0.325829  0.617838  0.955123  1
  Se  Se6  1  0.708516  0.119099  0.613994  1
  Se  Se7  1  0.880901  0.291484  0.886006  1
  Se  Se8  1  0.292455  0.885106  0.398094  1
  Se  Se9  1  0.114894  0.707545  0.101906  1
  Se  Se10  1  0.123510  0.316308  0.566477  1
  Se  Se11  1  0.683692  0.876490  0.933523  1
  Se  Se12  1  0.860901  0.672295  0.437988  1
  Se  Se13  1  0.327705  0.139099  0.062012  1
  Se  Se14  1  0.009928  0.332511  0.332060  1
  Se  Se15  1  0.667489  0.990072  0.167940  1
  Se  Se16  1  0.972556  0.653697  0.673135  1
  Se  Se17  1  0.346303  0.027444  0.826865  1
  Se  Se18  1  0.676889  0.378448  0.039844  1
  Se  Se19  1  0.621552  0.323111  0.460156  1
  Se  Se20  1  0.413973  0.586027  0.250000  1
  Se  Se21  1  0.592415  0.407585  0.750000  1
