# generated using pymatgen
data_Tm2RuWC3
_symmetry_space_group_name_H-M   'P 1'
_cell_length_a   6.00210229
_cell_length_b   6.00210158
_cell_length_c   5.64653582
_cell_angle_alpha   68.28044253
_cell_angle_beta   68.28044311
_cell_angle_gamma   32.02719762
_symmetry_Int_Tables_number   1
_chemical_formula_structural   Tm2RuWC3
_chemical_formula_sum   'Tm2 Ru1 W1 C3'
_cell_volume   99.56118014
_cell_formula_units_Z   1
loop_
 _symmetry_equiv_pos_site_id
 _symmetry_equiv_pos_as_xyz
  1  'x, y, z'
loop_
 _atom_site_type_symbol
 _atom_site_label
 _atom_site_symmetry_multiplicity
 _atom_site_fract_x
 _atom_site_fract_y
 _atom_site_fract_z
 _atom_site_occupancy
  Tm  Tm0  1  0.609337  0.609337  0.165882  1
  Tm  Tm1  1  0.390544  0.390544  0.819084  1
  Ru  Ru2  1  0.155894  0.155894  0.681998  1
  W  W3  1  0.841786  0.841786  0.325441  1
  C  C4  1  0.756257  0.756257  0.733013  1
  C  C5  1  0.246003  0.246003  0.267308  1
  C  C6  1  0.000180  0.000180  0.007275  1
