# generated using pymatgen
data_Th4Zn4Si3Ge
_symmetry_space_group_name_H-M   'P 1'
_cell_length_a   4.17852300
_cell_length_b   4.17852306
_cell_length_c   16.87964000
_cell_angle_alpha   90.00000000
_cell_angle_beta   90.00000000
_cell_angle_gamma   119.99997580
_symmetry_Int_Tables_number   1
_chemical_formula_structural   Th4Zn4Si3Ge
_chemical_formula_sum   'Th4 Zn4 Si3 Ge1'
_cell_volume   255.23458228
_cell_formula_units_Z   1
loop_
 _symmetry_equiv_pos_site_id
 _symmetry_equiv_pos_as_xyz
  1  'x, y, z'
loop_
 _atom_site_type_symbol
 _atom_site_label
 _atom_site_symmetry_multiplicity
 _atom_site_fract_x
 _atom_site_fract_y
 _atom_site_fract_z
 _atom_site_occupancy
  Th  Th0  1  0.000000  0.000000  0.250888  1
  Th  Th1  1  0.000000  0.000000  0.747708  1
  Th  Th2  1  0.000000  0.000000  0.002524  1
  Th  Th3  1  0.000000  0.000000  0.499350  1
  Zn  Zn4  1  0.333333  0.666667  0.127854  1
  Zn  Zn5  1  0.666667  0.333333  0.870201  1
  Zn  Zn6  1  0.666667  0.333333  0.625352  1
  Zn  Zn7  1  0.333333  0.666667  0.373679  1
  Si  Si8  1  0.333333  0.666667  0.623053  1
  Si  Si9  1  0.666667  0.333333  0.376018  1
  Si  Si10  1  0.666667  0.333333  0.124931  1
  Ge  Ge11  1  0.333333  0.666667  0.878441  1
