# generated using pymatgen
data_Sc8Nb11Si16Mo
_symmetry_space_group_name_H-M   'P 1'
_cell_length_a   6.70109559
_cell_length_b   6.89374161
_cell_length_c   13.14645900
_cell_angle_alpha   90.00000000
_cell_angle_beta   90.00000000
_cell_angle_gamma   89.95184460
_symmetry_Int_Tables_number   1
_chemical_formula_structural   Sc8Nb11Si16Mo
_chemical_formula_sum   'Sc8 Nb11 Si16 Mo1'
_cell_volume   607.30862959
_cell_formula_units_Z   1
loop_
 _symmetry_equiv_pos_site_id
 _symmetry_equiv_pos_as_xyz
  1  'x, y, z'
loop_
 _atom_site_type_symbol
 _atom_site_label
 _atom_site_symmetry_multiplicity
 _atom_site_fract_x
 _atom_site_fract_y
 _atom_site_fract_z
 _atom_site_occupancy
  Sc  Sc0  1  0.499381  0.674491  0.595195  1
  Sc  Sc1  1  0.999712  0.825127  0.904825  1
  Sc  Sc2  1  0.500086  0.325039  0.094975  1
  Sc  Sc3  1  0.999564  0.174063  0.404509  1
  Sc  Sc4  1  0.500086  0.325039  0.405025  1
  Sc  Sc5  1  0.999564  0.174063  0.095491  1
  Sc  Sc6  1  0.499381  0.674491  0.904805  1
  Sc  Sc7  1  0.999712  0.825127  0.595175  1
  Nb  Nb8  1  0.662166  0.174777  0.625552  1
  Nb  Nb9  1  0.162566  0.326826  0.874253  1
  Nb  Nb10  1  0.337714  0.824743  0.124885  1
  Nb  Nb11  1  0.838540  0.674649  0.375456  1
  Nb  Nb12  1  0.337714  0.824743  0.375115  1
  Nb  Nb13  1  0.838540  0.674649  0.124544  1
  Nb  Nb14  1  0.662166  0.174777  0.874448  1
  Nb  Nb15  1  0.162566  0.326826  0.625747  1
  Nb  Nb16  1  0.335455  0.005075  0.750000  1
  Nb  Nb17  1  0.163759  0.505694  0.250000  1
  Nb  Nb18  1  0.663984  0.995407  0.250000  1
  Si  Si19  1  0.669347  0.967078  0.460856  1
  Si  Si20  1  0.169611  0.532830  0.038879  1
  Si  Si21  1  0.330530  0.032965  0.960656  1
  Si  Si22  1  0.830902  0.466595  0.540555  1
  Si  Si23  1  0.330530  0.032965  0.539344  1
  Si  Si24  1  0.830902  0.466595  0.959445  1
  Si  Si25  1  0.669347  0.967078  0.039144  1
  Si  Si26  1  0.169611  0.532830  0.461121  1
  Si  Si27  1  0.462429  0.388963  0.750000  1
  Si  Si28  1  0.957605  0.114052  0.750000  1
  Si  Si29  1  0.542722  0.613936  0.250000  1
  Si  Si30  1  0.041117  0.887799  0.250000  1
  Si  Si31  1  0.703884  0.857801  0.750000  1
  Si  Si32  1  0.198786  0.637312  0.750000  1
  Si  Si33  1  0.296423  0.138277  0.250000  1
  Si  Si34  1  0.796662  0.362356  0.250000  1
  Mo  Mo35  1  0.836936  0.494961  0.750000  1
