# generated using pymatgen
data_Tb4Th(MnB3)2
_symmetry_space_group_name_H-M   'P 1'
_cell_length_a   5.44700904
_cell_length_b   5.44700928
_cell_length_c   8.28143348
_cell_angle_alpha   70.79986980
_cell_angle_beta   70.79986596
_cell_angle_gamma   60.00001581
_symmetry_Int_Tables_number   1
_chemical_formula_structural   Tb4Th(MnB3)2
_chemical_formula_sum   'Tb4 Th1 Mn2 B6'
_cell_volume   196.85070453
_cell_formula_units_Z   1
loop_
 _symmetry_equiv_pos_site_id
 _symmetry_equiv_pos_as_xyz
  1  'x, y, z'
loop_
 _atom_site_type_symbol
 _atom_site_label
 _atom_site_symmetry_multiplicity
 _atom_site_fract_x
 _atom_site_fract_y
 _atom_site_fract_z
 _atom_site_occupancy
  Tb  Tb0  1  0.250896  0.250896  0.247312  1
  Tb  Tb1  1  0.749104  0.749104  0.752688  1
  Tb  Tb2  1  0.416362  0.416362  0.750914  1
  Tb  Tb3  1  0.583638  0.583638  0.249086  1
  Th  Th4  1  0.000000  0.000000  0.000000  1
  Mn  Mn5  1  0.113345  0.113345  0.659964  1
  Mn  Mn6  1  0.886655  0.886655  0.340036  1
  B  B7  1  0.166078  0.833922  0.500000  1
  B  B8  1  0.833922  0.500000  0.500000  1
  B  B9  1  0.500000  0.166078  0.500000  1
  B  B10  1  0.166078  0.500000  0.500000  1
  B  B11  1  0.500000  0.833922  0.500000  1
  B  B12  1  0.833922  0.166078  0.500000  1
