# generated using pymatgen
data_Tb5Lu3Re2(B12Ir)2
_symmetry_space_group_name_H-M   'P 1'
_cell_length_a   3.65491800
_cell_length_b   9.12186034
_cell_length_c   11.52449247
_cell_angle_alpha   90.32499880
_cell_angle_beta   90.00000000
_cell_angle_gamma   90.00000000
_symmetry_Int_Tables_number   1
_chemical_formula_structural   Tb5Lu3Re2(B12Ir)2
_chemical_formula_sum   'Tb5 Lu3 Re2 B24 Ir2'
_cell_volume   384.21638207
_cell_formula_units_Z   1
loop_
 _symmetry_equiv_pos_site_id
 _symmetry_equiv_pos_as_xyz
  1  'x, y, z'
loop_
 _atom_site_type_symbol
 _atom_site_label
 _atom_site_symmetry_multiplicity
 _atom_site_fract_x
 _atom_site_fract_y
 _atom_site_fract_z
 _atom_site_occupancy
  Tb  Tb0  1  0.000000  0.318057  0.410714  1
  Tb  Tb1  1  0.000000  0.682194  0.590214  1
  Tb  Tb2  1  0.000000  0.825773  0.082284  1
  Tb  Tb3  1  0.000000  0.174768  0.916922  1
  Tb  Tb4  1  0.000000  0.946330  0.372644  1
  Lu  Lu5  1  0.000000  0.053381  0.628773  1
  Lu  Lu6  1  0.000000  0.441723  0.125190  1
  Lu  Lu7  1  0.000000  0.558600  0.874099  1
  Re  Re8  1  0.000000  0.140569  0.179576  1
  Re  Re9  1  0.000000  0.860790  0.819735  1
  B  B10  1  0.500000  0.553604  0.433527  1
  B  B11  1  0.500000  0.444926  0.566992  1
  B  B12  1  0.500000  0.054606  0.066905  1
  B  B13  1  0.500000  0.946142  0.932131  1
  B  B14  1  0.500000  0.748577  0.420837  1
  B  B15  1  0.500000  0.249197  0.580122  1
  B  B16  1  0.500000  0.250371  0.080651  1
  B  B17  1  0.500000  0.750227  0.918799  1
  B  B18  1  0.500000  0.789761  0.265284  1
  B  B19  1  0.500000  0.208443  0.734436  1
  B  B20  1  0.500000  0.293980  0.233665  1
  B  B21  1  0.500000  0.706890  0.765985  1
  B  B22  1  0.500000  0.629870  0.182866  1
  B  B23  1  0.500000  0.369751  0.816750  1
  B  B24  1  0.500000  0.132825  0.314416  1
  B  B25  1  0.500000  0.868828  0.685142  1
  B  B26  1  0.500000  0.984110  0.212368  1
  B  B27  1  0.500000  0.017223  0.786220  1
  B  B28  1  0.500000  0.481919  0.286079  1
  B  B29  1  0.500000  0.517540  0.713753  1
  B  B30  1  0.500000  0.602186  0.028382  1
  B  B31  1  0.500000  0.397980  0.970990  1
  B  B32  1  0.500000  0.106742  0.473093  1
  B  B33  1  0.500000  0.894198  0.530189  1
  Ir  Ir34  1  0.000000  0.635453  0.320771  1
  Ir  Ir35  1  0.000000  0.362463  0.679496  1
