# generated using pymatgen
data_Dy2Co9Tc(AsP2)2
_symmetry_space_group_name_H-M   'P 1'
_cell_length_a   3.72162300
_cell_length_b   10.51677100
_cell_length_c   11.89263700
_cell_angle_alpha   90.00000000
_cell_angle_beta   90.00000000
_cell_angle_gamma   90.00000000
_symmetry_Int_Tables_number   1
_chemical_formula_structural   Dy2Co9Tc(AsP2)2
_chemical_formula_sum   'Dy4 Co18 Tc2 As4 P8'
_cell_volume   465.47135257
_cell_formula_units_Z   2
loop_
 _symmetry_equiv_pos_site_id
 _symmetry_equiv_pos_as_xyz
  1  'x, y, z'
loop_
 _atom_site_type_symbol
 _atom_site_label
 _atom_site_symmetry_multiplicity
 _atom_site_fract_x
 _atom_site_fract_y
 _atom_site_fract_z
 _atom_site_occupancy
  Dy  Dy0  1  0.250000  0.585576  0.702080  1
  Dy  Dy1  1  0.250000  0.914424  0.202080  1
  Dy  Dy2  1  0.750000  0.422610  0.299473  1
  Dy  Dy3  1  0.750000  0.077390  0.799473  1
  Co  Co4  1  0.750000  0.279411  0.011586  1
  Co  Co5  1  0.750000  0.220589  0.511586  1
  Co  Co6  1  0.250000  0.415682  0.491124  1
  Co  Co7  1  0.250000  0.084318  0.991124  1
  Co  Co8  1  0.750000  0.595532  0.511275  1
  Co  Co9  1  0.750000  0.904468  0.011275  1
  Co  Co10  1  0.250000  0.208872  0.173933  1
  Co  Co11  1  0.250000  0.291128  0.673933  1
  Co  Co12  1  0.750000  0.778036  0.823546  1
  Co  Co13  1  0.750000  0.721964  0.323546  1
  Co  Co14  1  0.250000  0.881038  0.702467  1
  Co  Co15  1  0.250000  0.618962  0.202467  1
  Co  Co16  1  0.750000  0.107151  0.297726  1
  Co  Co17  1  0.750000  0.392849  0.797726  1
  Co  Co18  1  0.250000  0.474545  0.928145  1
  Co  Co19  1  0.250000  0.025455  0.428145  1
  Co  Co20  1  0.750000  0.539246  0.066411  1
  Co  Co21  1  0.750000  0.960754  0.566411  1
  Tc  Tc22  1  0.250000  0.711100  0.990084  1
  Tc  Tc23  1  0.250000  0.788900  0.490084  1
  As  As24  1  0.250000  0.413108  0.112709  1
  As  As25  1  0.250000  0.086892  0.612709  1
  As  As26  1  0.250000  0.269085  0.870393  1
  As  As27  1  0.250000  0.230915  0.370393  1
  P  P28  1  0.750000  0.581961  0.885733  1
  P  P29  1  0.750000  0.918039  0.385733  1
  P  P30  1  0.750000  0.729340  0.133929  1
  P  P31  1  0.750000  0.770660  0.633929  1
  P  P32  1  0.250000  0.599788  0.391683  1
  P  P33  1  0.250000  0.900212  0.891683  1
  P  P34  1  0.750000  0.402549  0.607701  1
  P  P35  1  0.750000  0.097451  0.107701  1
