# generated using pymatgen
data_Ho3PaAl17GaIr6
_symmetry_space_group_name_H-M   'P 1'
_cell_length_a   7.56029913
_cell_length_b   7.55320565
_cell_length_c   9.42963800
_cell_angle_alpha   90.00000000
_cell_angle_beta   90.00000000
_cell_angle_gamma   119.48797278
_symmetry_Int_Tables_number   1
_chemical_formula_structural   Ho3PaAl17GaIr6
_chemical_formula_sum   'Ho3 Pa1 Al17 Ga1 Ir6'
_cell_volume   468.72017910
_cell_formula_units_Z   1
loop_
 _symmetry_equiv_pos_site_id
 _symmetry_equiv_pos_as_xyz
  1  'x, y, z'
loop_
 _atom_site_type_symbol
 _atom_site_label
 _atom_site_symmetry_multiplicity
 _atom_site_fract_x
 _atom_site_fract_y
 _atom_site_fract_z
 _atom_site_occupancy
  Ho  Ho0  1  0.004816  0.328687  0.750000  1
  Ho  Ho1  1  0.675515  0.994138  0.250000  1
  Ho  Ho2  1  0.328835  0.004325  0.750000  1
  Pa  Pa3  1  0.994826  0.674124  0.250000  1
  Al  Al4  1  0.871410  0.872976  0.750000  1
  Al  Al5  1  0.001024  0.333023  0.074512  1
  Al  Al6  1  0.998729  0.664016  0.920976  1
  Al  Al7  1  0.998729  0.664016  0.579024  1
  Al  Al8  1  0.339499  0.003824  0.425571  1
  Al  Al9  1  0.001024  0.333023  0.425488  1
  Al  Al10  1  0.664569  0.999736  0.575983  1
  Al  Al11  1  0.664569  0.999736  0.924017  1
  Al  Al12  1  0.339499  0.003824  0.074429  1
  Al  Al13  1  0.332199  0.332327  0.558226  1
  Al  Al14  1  0.662226  0.665053  0.449557  1
  Al  Al15  1  0.662226  0.665053  0.050443  1
  Al  Al16  1  0.332199  0.332327  0.941774  1
  Al  Al17  1  0.338097  0.548498  0.250000  1
  Al  Al18  1  0.659362  0.449417  0.750000  1
  Al  Al19  1  0.548108  0.340102  0.250000  1
  Al  Al20  1  0.450241  0.661061  0.750000  1
  Ga  Ga21  1  0.137273  0.136582  0.250000  1
  Ir  Ir22  1  0.673206  0.329566  0.002148  1
  Ir  Ir23  1  0.325525  0.671293  0.002106  1
  Ir  Ir24  1  0.325525  0.671293  0.497894  1
  Ir  Ir25  1  0.673206  0.329566  0.497852  1
  Ir  Ir26  1  0.998782  0.996205  0.001011  1
  Ir  Ir27  1  0.998782  0.996205  0.498989  1
