# generated using pymatgen
data_K2UCl6
_symmetry_space_group_name_H-M   'P 1'
_cell_length_a   7.82664900
_cell_length_b   7.38738365
_cell_length_c   12.61463080
_cell_angle_alpha   55.30143194
_cell_angle_beta   90.00000000
_cell_angle_gamma   90.00000000
_symmetry_Int_Tables_number   1
_chemical_formula_structural   K2UCl6
_chemical_formula_sum   'K4 U2 Cl12'
_cell_volume   599.64813134
_cell_formula_units_Z   2
loop_
 _symmetry_equiv_pos_site_id
 _symmetry_equiv_pos_as_xyz
  1  'x, y, z'
loop_
 _atom_site_type_symbol
 _atom_site_label
 _atom_site_symmetry_multiplicity
 _atom_site_fract_x
 _atom_site_fract_y
 _atom_site_fract_z
 _atom_site_occupancy
  K  K0  1  0.572690  0.768367  0.249988  1
  K  K1  1  0.927310  0.768367  0.749988  1
  K  K2  1  0.427310  0.231633  0.750012  1
  K  K3  1  0.072690  0.231633  0.250012  1
  U  U4  1  0.000000  0.500000  0.500000  1
  U  U5  1  0.500000  0.500000  0.000000  1
  Cl  Cl6  1  0.819881  0.841657  0.452220  1
  Cl  Cl7  1  0.180119  0.158343  0.547780  1
  Cl  Cl8  1  0.476891  0.349451  0.244216  1
  Cl  Cl9  1  0.319881  0.158343  0.047780  1
  Cl  Cl10  1  0.523109  0.650549  0.755784  1
  Cl  Cl11  1  0.976891  0.650549  0.255784  1
  Cl  Cl12  1  0.212526  0.719170  0.952929  1
  Cl  Cl13  1  0.287474  0.719170  0.452929  1
  Cl  Cl14  1  0.787474  0.280830  0.047071  1
  Cl  Cl15  1  0.712526  0.280830  0.547071  1
  Cl  Cl16  1  0.023109  0.349451  0.744216  1
  Cl  Cl17  1  0.680119  0.841657  0.952220  1
