# generated using pymatgen
data_Li2Y6Cd21Si
_symmetry_space_group_name_H-M   'P 1'
_cell_length_a   9.92194502
_cell_length_b   9.92524166
_cell_length_c   9.92524200
_cell_angle_alpha   60.21516410
_cell_angle_beta   60.01099165
_cell_angle_gamma   60.01098802
_symmetry_Int_Tables_number   1
_chemical_formula_structural   Li2Y6Cd21Si
_chemical_formula_sum   'Li2 Y6 Cd21 Si1'
_cell_volume   692.36898267
_cell_formula_units_Z   1
loop_
 _symmetry_equiv_pos_site_id
 _symmetry_equiv_pos_as_xyz
  1  'x, y, z'
loop_
 _atom_site_type_symbol
 _atom_site_label
 _atom_site_symmetry_multiplicity
 _atom_site_fract_x
 _atom_site_fract_y
 _atom_site_fract_z
 _atom_site_occupancy
  Li  Li0  1  0.000000  0.500000  0.500000  1
  Li  Li1  1  0.500000  0.500000  0.500000  1
  Y  Y2  1  0.794528  0.800592  0.199436  1
  Y  Y3  1  0.205479  0.800572  0.199402  1
  Y  Y4  1  0.797312  0.202641  0.202636  1
  Y  Y5  1  0.205472  0.199408  0.800564  1
  Y  Y6  1  0.794521  0.199428  0.800598  1
  Y  Y7  1  0.202688  0.797359  0.797364  1
  Cd  Cd8  1  0.840115  0.822934  0.496742  1
  Cd  Cd9  1  0.840111  0.496743  0.822936  1
  Cd  Cd10  1  0.495158  0.834388  0.834387  1
  Cd  Cd11  1  0.836088  0.834455  0.834455  1
  Cd  Cd12  1  0.159885  0.177066  0.503258  1
  Cd  Cd13  1  0.159889  0.503257  0.177064  1
  Cd  Cd14  1  0.504842  0.165612  0.165613  1
  Cd  Cd15  1  0.163912  0.165545  0.165545  1
  Cd  Cd16  1  0.617505  0.613745  0.151268  1
  Cd  Cd17  1  0.617502  0.151270  0.613745  1
  Cd  Cd18  1  0.150162  0.612010  0.612007  1
  Cd  Cd19  1  0.625922  0.611910  0.611911  1
  Cd  Cd20  1  0.382495  0.386255  0.848732  1
  Cd  Cd21  1  0.382498  0.848730  0.386255  1
  Cd  Cd22  1  0.849838  0.387990  0.387993  1
  Cd  Cd23  1  0.374078  0.388090  0.388089  1
  Cd  Cd24  1  0.000000  0.000000  0.500000  1
  Cd  Cd25  1  0.500000  0.000000  0.500000  1
  Cd  Cd26  1  0.500000  0.500000  0.000000  1
  Cd  Cd27  1  0.000000  0.500000  0.000000  1
  Cd  Cd28  1  0.500000  0.000000  0.000000  1
  Si  Si29  1  0.000000  0.000000  0.000000  1
