# generated using pymatgen
data_Nd11Sm(CCl3)4
_symmetry_space_group_name_H-M   'P 1'
_cell_length_a   9.65964782
_cell_length_b   9.65072273
_cell_length_c   9.65966913
_cell_angle_alpha   109.49095033
_cell_angle_beta   109.45481109
_cell_angle_gamma   109.49067743
_symmetry_Int_Tables_number   1
_chemical_formula_structural   Nd11Sm(CCl3)4
_chemical_formula_sum   'Nd11 Sm1 C4 Cl12'
_cell_volume   693.00969241
_cell_formula_units_Z   1
loop_
 _symmetry_equiv_pos_site_id
 _symmetry_equiv_pos_as_xyz
  1  'x, y, z'
loop_
 _atom_site_type_symbol
 _atom_site_label
 _atom_site_symmetry_multiplicity
 _atom_site_fract_x
 _atom_site_fract_y
 _atom_site_fract_z
 _atom_site_occupancy
  Nd  Nd0  1  0.482866  0.749999  0.017131  1
  Nd  Nd1  1  0.749336  0.232519  0.267399  1
  Nd  Nd2  1  0.232602  0.267482  0.750662  1
  Nd  Nd3  1  0.465390  0.482136  0.232735  1
  Nd  Nd4  1  0.267263  0.017861  0.034607  1
  Nd  Nd5  1  0.232343  0.465393  0.483012  1
  Nd  Nd6  1  0.016992  0.034609  0.267658  1
  Nd  Nd7  1  0.016906  0.482371  0.749694  1
  Nd  Nd8  1  0.482813  0.232331  0.465333  1
  Nd  Nd9  1  0.750306  0.017628  0.483095  1
  Nd  Nd10  1  0.034667  0.267668  0.017182  1
  Sm  Sm11  1  0.269206  0.750001  0.230796  1
  C  C12  1  0.249875  0.250000  0.250125  1
  C  C13  1  0.999924  0.250003  0.500077  1
  C  C14  1  0.250245  0.502935  0.003083  1
  C  C15  1  0.496921  0.997068  0.249757  1
  Cl  Cl16  1  0.993709  0.987612  0.743893  1
  Cl  Cl17  1  0.755591  0.743746  0.249838  1
  Cl  Cl18  1  0.992435  0.743787  0.998831  1
  Cl  Cl19  1  0.249405  0.990636  0.502222  1
  Cl  Cl20  1  0.744008  0.993912  0.988037  1
  Cl  Cl21  1  0.506183  0.249999  0.993819  1
  Cl  Cl22  1  0.743831  0.249997  0.756164  1
  Cl  Cl23  1  0.501171  0.756216  0.507565  1
  Cl  Cl24  1  0.756103  0.512379  0.506287  1
  Cl  Cl25  1  0.250165  0.756257  0.744409  1
  Cl  Cl26  1  0.511966  0.506090  0.755991  1
  Cl  Cl27  1  0.997778  0.509365  0.250598  1
