# generated using pymatgen
data_B6Se5SBr6
_symmetry_space_group_name_H-M   'P 1'
_cell_length_a   5.07820642
_cell_length_b   15.19992103
_cell_length_c   19.68544691
_cell_angle_alpha   64.83114762
_cell_angle_beta   90.56218257
_cell_angle_gamma   90.25033790
_symmetry_Int_Tables_number   1
_chemical_formula_structural   B6Se5SBr6
_chemical_formula_sum   'B12 Se10 S2 Br12'
_cell_volume   1375.15813072
_cell_formula_units_Z   2
loop_
 _symmetry_equiv_pos_site_id
 _symmetry_equiv_pos_as_xyz
  1  'x, y, z'
loop_
 _atom_site_type_symbol
 _atom_site_label
 _atom_site_symmetry_multiplicity
 _atom_site_fract_x
 _atom_site_fract_y
 _atom_site_fract_z
 _atom_site_occupancy
  B  B0  1  0.262320  0.828195  0.227532  1
  B  B1  1  0.848456  0.246758  0.098316  1
  B  B2  1  0.150988  0.753441  0.902167  1
  B  B3  1  0.340894  0.614139  0.833186  1
  B  B4  1  0.656652  0.391469  0.163562  1
  B  B5  1  0.161455  0.611716  0.338408  1
  B  B6  1  0.240859  0.821792  0.730705  1
  B  B7  1  0.737867  0.172539  0.771830  1
  B  B8  1  0.343745  0.749221  0.400684  1
  B  B9  1  0.762317  0.172331  0.271788  1
  B  B10  1  0.651031  0.246663  0.598051  1
  B  B11  1  0.843685  0.391717  0.663752  1
  Se  Se12  1  0.641450  0.295831  0.267836  1
  Se  Se13  1  0.370435  0.865705  0.306515  1
  Se  Se14  1  0.141585  0.703762  0.232918  1
  Se  Se15  1  0.130681  0.865980  0.805554  1
  Se  Se16  1  0.628902  0.132818  0.693989  1
  Se  Se17  1  0.870704  0.132870  0.194269  1
  Se  Se18  1  0.744948  0.381498  0.571571  1
  Se  Se19  1  0.859294  0.296116  0.768205  1
  Se  Se20  1  0.754423  0.381585  0.071659  1
  Se  Se21  1  0.246082  0.619293  0.927148  1
  S  S22  1  0.254262  0.625064  0.422259  1
  S  S23  1  0.350835  0.705489  0.737392  1
  Br  Br24  1  0.558293  0.221047  0.512697  1
  Br  Br25  1  0.726350  0.068864  0.872138  1
  Br  Br26  1  0.947479  0.520797  0.648725  1
  Br  Br27  1  0.434932  0.771437  0.487656  1
  Br  Br28  1  0.232390  0.923402  0.629497  1
  Br  Br29  1  0.940958  0.221662  0.013203  1
  Br  Br30  1  0.058573  0.778508  0.987208  1
  Br  Br31  1  0.553435  0.520521  0.148563  1
  Br  Br32  1  0.059967  0.481460  0.355654  1
  Br  Br33  1  0.774088  0.068665  0.372038  1
  Br  Br34  1  0.273773  0.931560  0.127341  1
  Br  Br35  1  0.445889  0.486087  0.845986  1
