# generated using pymatgen
data_LiY6Tm10Cd3Pt4
_symmetry_space_group_name_H-M   'P 1'
_cell_length_a   9.61631473
_cell_length_b   9.61631381
_cell_length_c   9.61631485
_cell_angle_alpha   59.82764293
_cell_angle_beta   59.82765339
_cell_angle_gamma   59.82764657
_symmetry_Int_Tables_number   1
_chemical_formula_structural   LiY6Tm10Cd3Pt4
_chemical_formula_sum   'Li1 Y6 Tm10 Cd3 Pt4'
_cell_volume   626.33796256
_cell_formula_units_Z   1
loop_
 _symmetry_equiv_pos_site_id
 _symmetry_equiv_pos_as_xyz
  1  'x, y, z'
loop_
 _atom_site_type_symbol
 _atom_site_label
 _atom_site_symmetry_multiplicity
 _atom_site_fract_x
 _atom_site_fract_y
 _atom_site_fract_z
 _atom_site_occupancy
  Li  Li0  1  0.571378  0.571378  0.571378  1
  Y  Y1  1  0.937041  0.563811  0.563811  1
  Y  Y2  1  0.562239  0.937457  0.937457  1
  Y  Y3  1  0.563811  0.937041  0.563811  1
  Y  Y4  1  0.937457  0.562239  0.937457  1
  Y  Y5  1  0.563811  0.563811  0.937041  1
  Y  Y6  1  0.937457  0.937457  0.562239  1
  Tm  Tm7  1  0.351171  0.351171  0.351171  1
  Tm  Tm8  1  0.351861  0.351861  0.945394  1
  Tm  Tm9  1  0.351861  0.945394  0.351861  1
  Tm  Tm10  1  0.945394  0.351861  0.351861  1
  Tm  Tm11  1  0.810862  0.190757  0.190757  1
  Tm  Tm12  1  0.186778  0.813459  0.813459  1
  Tm  Tm13  1  0.190757  0.810862  0.190757  1
  Tm  Tm14  1  0.813459  0.186778  0.813459  1
  Tm  Tm15  1  0.190757  0.190757  0.810862  1
  Tm  Tm16  1  0.813459  0.813459  0.186778  1
  Cd  Cd17  1  0.581773  0.581773  0.255477  1
  Cd  Cd18  1  0.581773  0.255477  0.581773  1
  Cd  Cd19  1  0.255477  0.581773  0.581773  1
  Pt  Pt20  1  0.143791  0.143791  0.143791  1
  Pt  Pt21  1  0.143127  0.143127  0.571380  1
  Pt  Pt22  1  0.143127  0.571380  0.143127  1
  Pt  Pt23  1  0.571380  0.143127  0.143127  1
