# generated using pymatgen
data_Ac8NdDyIn6
_symmetry_space_group_name_H-M   'P 1'
_cell_length_a   6.69518398
_cell_length_b   9.84968853
_cell_length_c   9.84969000
_cell_angle_alpha   83.21577716
_cell_angle_beta   69.94462697
_cell_angle_gamma   69.94462878
_symmetry_Int_Tables_number   1
_chemical_formula_structural   Ac8NdDyIn6
_chemical_formula_sum   'Ac8 Nd1 Dy1 In6'
_cell_volume   573.15639663
_cell_formula_units_Z   1
loop_
 _symmetry_equiv_pos_site_id
 _symmetry_equiv_pos_as_xyz
  1  'x, y, z'
loop_
 _atom_site_type_symbol
 _atom_site_label
 _atom_site_symmetry_multiplicity
 _atom_site_fract_x
 _atom_site_fract_y
 _atom_site_fract_z
 _atom_site_occupancy
  Ac  Ac0  1  0.721684  0.868528  0.694980  1
  Ac  Ac1  1  0.281479  0.132138  0.305523  1
  Ac  Ac2  1  0.778316  0.305020  0.131472  1
  Ac  Ac3  1  0.218521  0.694477  0.867862  1
  Ac  Ac4  1  0.584241  0.696245  0.133666  1
  Ac  Ac5  1  0.411854  0.303823  0.866522  1
  Ac  Ac6  1  0.088146  0.133478  0.696177  1
  Ac  Ac7  1  0.915759  0.866334  0.303755  1
  Nd  Nd8  1  0.750000  0.500422  0.499578  1
  Dy  Dy9  1  0.250000  0.499597  0.500403  1
  In  In10  1  0.161922  0.499060  0.191163  1
  In  In11  1  0.848842  0.501161  0.808859  1
  In  In12  1  0.338078  0.808837  0.500940  1
  In  In13  1  0.651158  0.191141  0.498839  1
  In  In14  1  0.250000  0.999334  0.000666  1
  In  In15  1  0.750000  0.000405  0.999595  1
