# generated using pymatgen
data_Zr4Ti2VRe5
_symmetry_space_group_name_H-M   'P 1'
_cell_length_a   5.29567075
_cell_length_b   5.30403193
_cell_length_c   8.77590400
_cell_angle_alpha   90.00000000
_cell_angle_beta   90.00000000
_cell_angle_gamma   120.05224814
_symmetry_Int_Tables_number   1
_chemical_formula_structural   Zr4Ti2VRe5
_chemical_formula_sum   'Zr4 Ti2 V1 Re5'
_cell_volume   213.36378652
_cell_formula_units_Z   1
loop_
 _symmetry_equiv_pos_site_id
 _symmetry_equiv_pos_as_xyz
  1  'x, y, z'
loop_
 _atom_site_type_symbol
 _atom_site_label
 _atom_site_symmetry_multiplicity
 _atom_site_fract_x
 _atom_site_fract_y
 _atom_site_fract_z
 _atom_site_occupancy
  Zr  Zr0  1  0.332104  0.666052  0.435555  1
  Zr  Zr1  1  0.666657  0.333328  0.562321  1
  Zr  Zr2  1  0.666657  0.333328  0.937679  1
  Zr  Zr3  1  0.332104  0.666052  0.064445  1
  Ti  Ti4  1  0.999515  0.999758  0.501504  1
  Ti  Ti5  1  0.999515  0.999758  0.998496  1
  V  V6  1  0.662956  0.831478  0.750000  1
  Re  Re7  1  0.829916  0.168086  0.250000  1
  Re  Re8  1  0.829916  0.661830  0.250000  1
  Re  Re9  1  0.337380  0.168690  0.250000  1
  Re  Re10  1  0.171639  0.830991  0.750000  1
  Re  Re11  1  0.171639  0.340647  0.750000  1
