# generated using pymatgen
data_LaYb2Zn6Ni7B2
_symmetry_space_group_name_H-M   'P 1'
_cell_length_a   5.16818745
_cell_length_b   5.16818796
_cell_length_c   11.03281100
_cell_angle_alpha   90.00000000
_cell_angle_beta   90.00000000
_cell_angle_gamma   118.83582897
_symmetry_Int_Tables_number   1
_chemical_formula_structural   LaYb2Zn6Ni7B2
_chemical_formula_sum   'La1 Yb2 Zn6 Ni7 B2'
_cell_volume   258.14840445
_cell_formula_units_Z   1
loop_
 _symmetry_equiv_pos_site_id
 _symmetry_equiv_pos_as_xyz
  1  'x, y, z'
loop_
 _atom_site_type_symbol
 _atom_site_label
 _atom_site_symmetry_multiplicity
 _atom_site_fract_x
 _atom_site_fract_y
 _atom_site_fract_z
 _atom_site_occupancy
  La  La0  1  0.000000  0.000000  0.311427  1
  Yb  Yb1  1  0.000000  0.000000  0.995669  1
  Yb  Yb2  1  0.000000  0.000000  0.692399  1
  Zn  Zn3  1  0.500000  0.000000  0.503941  1
  Zn  Zn4  1  0.000000  0.500000  0.503941  1
  Zn  Zn5  1  0.656742  0.343258  0.692997  1
  Zn  Zn6  1  0.343258  0.656742  0.692997  1
  Zn  Zn7  1  0.339803  0.660197  0.307197  1
  Zn  Zn8  1  0.660197  0.339803  0.307197  1
  Ni  Ni9  1  0.500000  0.500000  0.499600  1
  Ni  Ni10  1  0.500000  0.500000  0.880145  1
  Ni  Ni11  1  0.500000  0.000000  0.877547  1
  Ni  Ni12  1  0.000000  0.500000  0.877547  1
  Ni  Ni13  1  0.500000  0.500000  0.118332  1
  Ni  Ni14  1  0.500000  0.000000  0.120302  1
  Ni  Ni15  1  0.000000  0.500000  0.120302  1
  B  B16  1  0.669104  0.330896  0.999231  1
  B  B17  1  0.330896  0.669104  0.999231  1
