# generated using pymatgen
data_Ac10Si7Rh
_symmetry_space_group_name_H-M   'P 1'
_cell_length_a   8.27185425
_cell_length_b   8.28995284
_cell_length_c   16.27638341
_cell_angle_alpha   90.01455700
_cell_angle_beta   89.88842837
_cell_angle_gamma   89.97664619
_symmetry_Int_Tables_number   1
_chemical_formula_structural   Ac10Si7Rh
_chemical_formula_sum   'Ac20 Si14 Rh2'
_cell_volume   1116.12277857
_cell_formula_units_Z   2
loop_
 _symmetry_equiv_pos_site_id
 _symmetry_equiv_pos_as_xyz
  1  'x, y, z'
loop_
 _atom_site_type_symbol
 _atom_site_label
 _atom_site_symmetry_multiplicity
 _atom_site_fract_x
 _atom_site_fract_y
 _atom_site_fract_z
 _atom_site_occupancy
  Ac  Ac0  1  0.306855  0.314364  0.998902  1
  Ac  Ac1  1  0.196501  0.804344  0.248012  1
  Ac  Ac2  1  0.823910  0.193680  0.752493  1
  Ac  Ac3  1  0.696377  0.687017  0.501262  1
  Ac  Ac4  1  0.377227  0.012623  0.447279  1
  Ac  Ac5  1  0.488471  0.876694  0.696097  1
  Ac  Ac6  1  0.514617  0.124571  0.196533  1
  Ac  Ac7  1  0.877728  0.485857  0.301383  1
  Ac  Ac8  1  0.124722  0.503894  0.802105  1
  Ac  Ac9  1  0.620775  0.985048  0.945050  1
  Ac  Ac10  1  0.007921  0.384179  0.556011  1
  Ac  Ac11  1  0.992678  0.626971  0.048344  1
  Ac  Ac12  1  0.143645  0.964082  0.875169  1
  Ac  Ac13  1  0.524370  0.632065  0.123704  1
  Ac  Ac14  1  0.466990  0.365252  0.630778  1
  Ac  Ac15  1  0.613541  0.531301  0.874997  1
  Ac  Ac16  1  0.374029  0.477100  0.372843  1
  Ac  Ac17  1  0.875178  0.025066  0.377853  1
  Ac  Ac18  1  0.977435  0.123658  0.123206  1
  Ac  Ac19  1  0.029886  0.884709  0.624725  1
  Si  Si20  1  0.666354  0.302194  0.460516  1
  Si  Si21  1  0.698592  0.332154  0.041953  1
  Si  Si22  1  0.304951  0.673218  0.540098  1
  Si  Si23  1  0.806760  0.828902  0.209817  1
  Si  Si24  1  0.169461  0.197458  0.291874  1
  Si  Si25  1  0.828947  0.800479  0.790189  1
  Si  Si26  1  0.293287  0.923443  0.060607  1
  Si  Si27  1  0.581167  0.790873  0.308712  1
  Si  Si28  1  0.422167  0.199724  0.810592  1
  Si  Si29  1  0.781074  0.584435  0.691216  1
  Si  Si30  1  0.209838  0.417623  0.190891  1
  Si  Si31  1  0.703023  0.080028  0.559733  1
  Si  Si32  1  0.914445  0.283825  0.942182  1
  Si  Si33  1  0.082117  0.714749  0.441319  1
  Rh  Rh34  1  0.185030  0.178744  0.707156  1
  Rh  Rh35  1  0.319930  0.689679  0.956399  1
