# generated using pymatgen
data_Dy4Er15MgIr12
_symmetry_space_group_name_H-M   'P 1'
_cell_length_a   10.79595536
_cell_length_b   10.77967236
_cell_length_c   6.28743900
_cell_angle_alpha   90.00000000
_cell_angle_beta   90.00000000
_cell_angle_gamma   89.97042214
_symmetry_Int_Tables_number   1
_chemical_formula_structural   Dy4Er15MgIr12
_chemical_formula_sum   'Dy4 Er15 Mg1 Ir12'
_cell_volume   731.71232070
_cell_formula_units_Z   1
loop_
 _symmetry_equiv_pos_site_id
 _symmetry_equiv_pos_as_xyz
  1  'x, y, z'
loop_
 _atom_site_type_symbol
 _atom_site_label
 _atom_site_symmetry_multiplicity
 _atom_site_fract_x
 _atom_site_fract_y
 _atom_site_fract_z
 _atom_site_occupancy
  Dy  Dy0  1  0.282912  0.085356  0.377306  1
  Dy  Dy1  1  0.289006  0.911134  0.877841  1
  Dy  Dy2  1  0.710994  0.088866  0.877841  1
  Dy  Dy3  1  0.717088  0.914644  0.377306  1
  Er  Er4  1  0.588977  0.791221  0.878433  1
  Er  Er5  1  0.587817  0.208666  0.377374  1
  Er  Er6  1  0.412183  0.791334  0.377374  1
  Er  Er7  1  0.411023  0.208779  0.878433  1
  Er  Er8  1  0.208272  0.412179  0.622839  1
  Er  Er9  1  0.208356  0.588912  0.121646  1
  Er  Er10  1  0.791644  0.411088  0.121646  1
  Er  Er11  1  0.791728  0.587821  0.622839  1
  Er  Er12  1  0.912062  0.709484  0.120996  1
  Er  Er13  1  0.915550  0.284618  0.621568  1
  Er  Er14  1  0.084450  0.715382  0.621568  1
  Er  Er15  1  0.087938  0.290516  0.120996  1
  Er  Er16  1  0.000000  0.000000  0.000902  1
  Er  Er17  1  0.500000  0.500000  0.000290  1
  Er  Er18  1  0.500000  0.500000  0.500381  1
  Mg  Mg19  1  0.000000  0.000000  0.500283  1
  Ir  Ir20  1  0.846446  0.155005  0.248813  1
  Ir  Ir21  1  0.846210  0.844999  0.752727  1
  Ir  Ir22  1  0.153790  0.155001  0.752727  1
  Ir  Ir23  1  0.153554  0.844995  0.248813  1
  Ir  Ir24  1  0.654329  0.346474  0.748274  1
  Ir  Ir25  1  0.653882  0.653948  0.251120  1
  Ir  Ir26  1  0.346118  0.346052  0.251120  1
  Ir  Ir27  1  0.345671  0.653526  0.748274  1
  Ir  Ir28  1  0.500000  0.000000  0.124973  1
  Ir  Ir29  1  0.500000  0.000000  0.621675  1
  Ir  Ir30  1  0.000000  0.500000  0.875164  1
  Ir  Ir31  1  0.000000  0.500000  0.378458  1
