# generated using pymatgen
data_DyHo9Al4(GeC4)2
_symmetry_space_group_name_H-M   'P 1'
_cell_length_a   10.77808822
_cell_length_b   10.77467844
_cell_length_c   3.49649300
_cell_angle_alpha   90.00000000
_cell_angle_beta   90.00000000
_cell_angle_gamma   89.97197977
_symmetry_Int_Tables_number   1
_chemical_formula_structural   DyHo9Al4(GeC4)2
_chemical_formula_sum   'Dy1 Ho9 Al4 Ge2 C8'
_cell_volume   406.04920378
_cell_formula_units_Z   1
loop_
 _symmetry_equiv_pos_site_id
 _symmetry_equiv_pos_as_xyz
  1  'x, y, z'
loop_
 _atom_site_type_symbol
 _atom_site_label
 _atom_site_symmetry_multiplicity
 _atom_site_fract_x
 _atom_site_fract_y
 _atom_site_fract_z
 _atom_site_occupancy
  Dy  Dy0  1  0.771954  0.949912  0.500000  1
  Ho  Ho1  1  0.549636  0.728316  0.500000  1
  Ho  Ho2  1  0.449800  0.271435  0.500000  1
  Ho  Ho3  1  0.050063  0.771381  0.500000  1
  Ho  Ho4  1  0.950092  0.228688  0.500000  1
  Ho  Ho5  1  0.271373  0.549998  0.500000  1
  Ho  Ho6  1  0.728767  0.450029  0.500000  1
  Ho  Ho7  1  0.228773  0.050077  0.500000  1
  Ho  Ho8  1  0.499978  0.999974  0.000000  1
  Ho  Ho9  1  0.000107  0.500063  0.000000  1
  Al  Al10  1  0.703461  0.204097  0.000000  1
  Al  Al11  1  0.296172  0.796468  0.000000  1
  Al  Al12  1  0.203628  0.296212  0.000000  1
  Al  Al13  1  0.796001  0.703272  0.000000  1
  Ge  Ge14  1  0.500049  0.499726  0.000000  1
  Ge  Ge15  1  0.001088  0.000394  0.000000  1
  C  C16  1  0.633111  0.134028  0.500000  1
  C  C17  1  0.366429  0.866457  0.500000  1
  C  C18  1  0.133580  0.366572  0.500000  1
  C  C19  1  0.866497  0.633496  0.500000  1
  C  C20  1  0.162341  0.662367  0.000000  1
  C  C21  1  0.837797  0.337826  0.000000  1
  C  C22  1  0.661604  0.836994  0.000000  1
  C  C23  1  0.337700  0.162225  0.000000  1
