# generated using pymatgen
data_YErThP4Pd7
_symmetry_space_group_name_H-M   'P 1'
_cell_length_a   7.98744439
_cell_length_b   7.98744457
_cell_length_c   9.52125436
_cell_angle_alpha   55.57189492
_cell_angle_beta   55.57189295
_cell_angle_gamma   29.14101773
_symmetry_Int_Tables_number   1
_chemical_formula_structural   YErThP4Pd7
_chemical_formula_sum   'Y1 Er1 Th1 P4 Pd7'
_cell_volume   240.08604532
_cell_formula_units_Z   1
loop_
 _symmetry_equiv_pos_site_id
 _symmetry_equiv_pos_as_xyz
  1  'x, y, z'
loop_
 _atom_site_type_symbol
 _atom_site_label
 _atom_site_symmetry_multiplicity
 _atom_site_fract_x
 _atom_site_fract_y
 _atom_site_fract_z
 _atom_site_occupancy
  Y  Y0  1  0.820393  0.820393  0.176158  1
  Er  Er1  1  0.179176  0.179176  0.824763  1
  Th  Th2  1  0.499934  0.499934  0.500074  1
  P  P3  1  0.393109  0.393109  0.318287  1
  P  P4  1  0.607364  0.607364  0.682081  1
  P  P5  1  0.838803  0.838803  0.754436  1
  P  P6  1  0.160435  0.160435  0.246335  1
  Pd  Pd7  1  0.667892  0.667892  0.073760  1
  Pd  Pd8  1  0.009741  0.009741  0.212809  1
  Pd  Pd9  1  0.990638  0.990638  0.786542  1
  Pd  Pd10  1  0.501056  0.501056  0.999013  1
  Pd  Pd11  1  0.193928  0.193928  0.472499  1
  Pd  Pd12  1  0.805687  0.805687  0.529034  1
  Pd  Pd13  1  0.331845  0.331845  0.924208  1
