# generated using pymatgen
data_Nd5(SiBi)2
_symmetry_space_group_name_H-M   'P 1'
_cell_length_a   8.96600300
_cell_length_b   8.96600316
_cell_length_c   8.21092500
_cell_angle_alpha   90.00000000
_cell_angle_beta   90.00000000
_cell_angle_gamma   125.62045711
_symmetry_Int_Tables_number   1
_chemical_formula_structural   Nd5(SiBi)2
_chemical_formula_sum   'Nd10 Si4 Bi4'
_cell_volume   536.56601827
_cell_formula_units_Z   2
loop_
 _symmetry_equiv_pos_site_id
 _symmetry_equiv_pos_as_xyz
  1  'x, y, z'
loop_
 _atom_site_type_symbol
 _atom_site_label
 _atom_site_symmetry_multiplicity
 _atom_site_fract_x
 _atom_site_fract_y
 _atom_site_fract_z
 _atom_site_occupancy
  Nd  Nd0  1  0.546162  0.796097  0.170255  1
  Nd  Nd1  1  0.296097  0.046162  0.329745  1
  Nd  Nd2  1  0.203903  0.453838  0.829745  1
  Nd  Nd3  1  0.953838  0.703903  0.670255  1
  Nd  Nd4  1  0.703903  0.953838  0.670255  1
  Nd  Nd5  1  0.453838  0.203903  0.829745  1
  Nd  Nd6  1  0.796097  0.546162  0.170255  1
  Nd  Nd7  1  0.046162  0.296097  0.329745  1
  Nd  Nd8  1  0.500000  0.500000  0.500000  1
  Nd  Nd9  1  0.000000  0.000000  0.000000  1
  Si  Si10  1  0.623627  0.623627  0.876873  1
  Si  Si11  1  0.123627  0.123627  0.623127  1
  Si  Si12  1  0.876373  0.876373  0.376873  1
  Si  Si13  1  0.376373  0.376373  0.123127  1
  Bi  Bi14  1  0.291961  0.708039  0.500000  1
  Bi  Bi15  1  0.208039  0.791961  0.000000  1
  Bi  Bi16  1  0.708039  0.291961  0.500000  1
  Bi  Bi17  1  0.791961  0.208039  0.000000  1
