# generated using pymatgen
data_Pr2CoAs4IrRu2
_symmetry_space_group_name_H-M   'P 1'
_cell_length_a   4.31216600
_cell_length_b   4.31216600
_cell_length_c   9.69684900
_cell_angle_alpha   90.00000000
_cell_angle_beta   90.00000000
_cell_angle_gamma   90.00000000
_symmetry_Int_Tables_number   1
_chemical_formula_structural   Pr2CoAs4IrRu2
_chemical_formula_sum   'Pr2 Co1 As4 Ir1 Ru2'
_cell_volume   180.31073129
_cell_formula_units_Z   1
loop_
 _symmetry_equiv_pos_site_id
 _symmetry_equiv_pos_as_xyz
  1  'x, y, z'
loop_
 _atom_site_type_symbol
 _atom_site_label
 _atom_site_symmetry_multiplicity
 _atom_site_fract_x
 _atom_site_fract_y
 _atom_site_fract_z
 _atom_site_occupancy
  Pr  Pr0  1  0.000000  0.500000  0.260753  1
  Pr  Pr1  1  0.500000  0.000000  0.742026  1
  Co  Co2  1  0.000000  0.500000  0.616211  1
  As  As3  1  0.000000  0.000000  0.509807  1
  As  As4  1  0.500000  0.500000  0.509807  1
  As  As5  1  0.000000  0.500000  0.862219  1
  As  As6  1  0.500000  0.000000  0.125305  1
  Ir  Ir7  1  0.500000  0.000000  0.382848  1
  Ru  Ru8  1  0.000000  0.000000  0.995512  1
  Ru  Ru9  1  0.500000  0.500000  0.995512  1
