# generated using pymatgen
data_TbY4Ho7In20
_symmetry_space_group_name_H-M   'P 1'
_cell_length_a   6.50861124
_cell_length_b   10.41946344
_cell_length_c   12.26770730
_cell_angle_alpha   89.92993765
_cell_angle_beta   89.97570191
_cell_angle_gamma   89.99756683
_symmetry_Int_Tables_number   1
_chemical_formula_structural   TbY4Ho7In20
_chemical_formula_sum   'Tb1 Y4 Ho7 In20'
_cell_volume   831.94904680
_cell_formula_units_Z   1
loop_
 _symmetry_equiv_pos_site_id
 _symmetry_equiv_pos_as_xyz
  1  'x, y, z'
loop_
 _atom_site_type_symbol
 _atom_site_label
 _atom_site_symmetry_multiplicity
 _atom_site_fract_x
 _atom_site_fract_y
 _atom_site_fract_z
 _atom_site_occupancy
  Tb  Tb0  1  0.390082  0.506978  0.357943  1
  Y  Y1  1  0.109766  0.507168  0.858017  1
  Y  Y2  1  0.390316  0.992956  0.358265  1
  Y  Y3  1  0.890023  0.007141  0.141692  1
  Y  Y4  1  0.610006  0.492841  0.642437  1
  Ho  Ho5  1  0.350334  0.750233  0.055739  1
  Ho  Ho6  1  0.149688  0.749624  0.555802  1
  Ho  Ho7  1  0.649872  0.250535  0.944256  1
  Ho  Ho8  1  0.850790  0.249718  0.444343  1
  Ho  Ho9  1  0.890547  0.493079  0.141700  1
  Ho  Ho10  1  0.609393  0.006884  0.641539  1
  Ho  Ho11  1  0.109386  0.992950  0.858504  1
  In  In12  1  0.616251  0.750362  0.505539  1
  In  In13  1  0.884209  0.749852  0.005359  1
  In  In14  1  0.384420  0.249700  0.495313  1
  In  In15  1  0.115855  0.249633  0.994469  1
  In  In16  1  0.651656  0.749540  0.245243  1
  In  In17  1  0.848503  0.751287  0.745406  1
  In  In18  1  0.348493  0.248745  0.754676  1
  In  In19  1  0.150897  0.250318  0.254249  1
  In  In20  1  0.124814  0.749966  0.283814  1
  In  In21  1  0.374380  0.751109  0.784023  1
  In  In22  1  0.874272  0.248844  0.715952  1
  In  In23  1  0.625587  0.250633  0.215986  1
  In  In24  1  0.875457  0.543744  0.400729  1
  In  In25  1  0.624829  0.956530  0.900386  1
  In  In26  1  0.124692  0.043454  0.599676  1
  In  In27  1  0.374994  0.456105  0.098685  1
  In  In28  1  0.124662  0.455680  0.598760  1
  In  In29  1  0.375458  0.044037  0.098570  1
  In  In30  1  0.875583  0.956038  0.401428  1
  In  In31  1  0.624786  0.544314  0.901500  1
