# generated using pymatgen
data_Ac2Zn3Ga5
_symmetry_space_group_name_H-M   'P 1'
_cell_length_a   4.43239100
_cell_length_b   4.43239100
_cell_length_c   10.86585700
_cell_angle_alpha   90.00000000
_cell_angle_beta   90.00000000
_cell_angle_gamma   90.00000000
_symmetry_Int_Tables_number   1
_chemical_formula_structural   Ac2Zn3Ga5
_chemical_formula_sum   'Ac2 Zn3 Ga5'
_cell_volume   213.47160430
_cell_formula_units_Z   1
loop_
 _symmetry_equiv_pos_site_id
 _symmetry_equiv_pos_as_xyz
  1  'x, y, z'
loop_
 _atom_site_type_symbol
 _atom_site_label
 _atom_site_symmetry_multiplicity
 _atom_site_fract_x
 _atom_site_fract_y
 _atom_site_fract_z
 _atom_site_occupancy
  Ac  Ac0  1  0.000000  0.500000  0.249340  1
  Ac  Ac1  1  0.500000  0.000000  0.750660  1
  Zn  Zn2  1  0.000000  0.500000  0.869448  1
  Zn  Zn3  1  0.500000  0.000000  0.130552  1
  Zn  Zn4  1  0.500000  0.500000  0.500000  1
  Ga  Ga5  1  0.500000  0.500000  0.000000  1
  Ga  Ga6  1  0.000000  0.000000  0.000000  1
  Ga  Ga7  1  0.000000  0.500000  0.633836  1
  Ga  Ga8  1  0.500000  0.000000  0.366164  1
  Ga  Ga9  1  0.000000  0.000000  0.500000  1
