# generated using pymatgen
data_Ti8Al15Os4PtRh2
_symmetry_space_group_name_H-M   'P 1'
_cell_length_a   8.69023974
_cell_length_b   8.66896965
_cell_length_c   8.66549361
_cell_angle_alpha   119.89663570
_cell_angle_beta   119.76437047
_cell_angle_gamma   90.40476344
_symmetry_Int_Tables_number   1
_chemical_formula_structural   Ti8Al15Os4PtRh2
_chemical_formula_sum   'Ti8 Al15 Os4 Pt1 Rh2'
_cell_volume   462.33564294
_cell_formula_units_Z   1
loop_
 _symmetry_equiv_pos_site_id
 _symmetry_equiv_pos_as_xyz
  1  'x, y, z'
loop_
 _atom_site_type_symbol
 _atom_site_label
 _atom_site_symmetry_multiplicity
 _atom_site_fract_x
 _atom_site_fract_y
 _atom_site_fract_z
 _atom_site_occupancy
  Ti  Ti0  1  0.789070  0.292564  0.070665  1
  Ti  Ti1  1  0.224007  0.293575  0.503855  1
  Ti  Ti2  1  0.214957  0.707386  0.501101  1
  Ti  Ti3  1  0.222705  0.716938  0.928355  1
  Ti  Ti4  1  0.782071  0.712403  0.495907  1
  Ti  Ti5  1  0.775819  0.284371  0.499376  1
  Ti  Ti6  1  0.386732  0.125551  0.752454  1
  Ti  Ti7  1  0.376084  0.630925  0.253904  1
  Al  Al8  1  0.996633  0.496483  0.500159  1
  Al  Al9  1  0.154010  0.341948  0.187968  1
  Al  Al10  1  0.152008  0.961152  0.809399  1
  Al  Al11  1  0.150459  0.347697  0.804794  1
  Al  Al12  1  0.538048  0.344665  0.192289  1
  Al  Al13  1  0.848724  0.654841  0.808955  1
  Al  Al14  1  0.846605  0.044544  0.193662  1
  Al  Al15  1  0.842943  0.655098  0.187991  1
  Al  Al16  1  0.471613  0.656886  0.814202  1
  Al  Al17  1  0.378646  0.120991  0.257527  1
  Al  Al18  1  0.860575  0.121691  0.742675  1
  Al  Al19  1  0.618258  0.875848  0.253897  1
  Al  Al20  1  0.620565  0.366601  0.744999  1
  Al  Al21  1  0.618972  0.877119  0.741908  1
  Al  Al22  1  0.137852  0.876024  0.254784  1
  Os  Os23  1  0.496833  0.999135  0.998278  1
  Os  Os24  1  0.497675  0.498323  0.000325  1
  Os  Os25  1  0.498655  0.499038  0.498252  1
  Os  Os26  1  0.999623  0.498494  0.001480  1
  Pt  Pt27  1  0.001422  0.000099  0.500775  1
  Rh  Rh28  1  0.998665  0.999783  0.999658  1
  Rh  Rh29  1  0.499772  0.999821  0.500405  1
