# generated using pymatgen
data_Nd7Er(LuIn5)4
_symmetry_space_group_name_H-M   'P 1'
_cell_length_a   6.63578590
_cell_length_b   10.44781306
_cell_length_c   12.35871300
_cell_angle_alpha   90.05409964
_cell_angle_beta   90.05357623
_cell_angle_gamma   90.08079998
_symmetry_Int_Tables_number   1
_chemical_formula_structural   Nd7Er(LuIn5)4
_chemical_formula_sum   'Nd7 Er1 Lu4 In20'
_cell_volume   856.82117276
_cell_formula_units_Z   1
loop_
 _symmetry_equiv_pos_site_id
 _symmetry_equiv_pos_as_xyz
  1  'x, y, z'
loop_
 _atom_site_type_symbol
 _atom_site_label
 _atom_site_symmetry_multiplicity
 _atom_site_fract_x
 _atom_site_fract_y
 _atom_site_fract_z
 _atom_site_occupancy
  Nd  Nd0  1  0.886233  0.488046  0.142510  1
  Nd  Nd1  1  0.613381  0.011724  0.642650  1
  Nd  Nd2  1  0.113213  0.988183  0.856972  1
  Nd  Nd3  1  0.387046  0.511728  0.358317  1
  Nd  Nd4  1  0.113043  0.511902  0.857226  1
  Nd  Nd5  1  0.387189  0.988113  0.357851  1
  Nd  Nd6  1  0.886367  0.011669  0.142502  1
  Er  Er7  1  0.612889  0.487694  0.642187  1
  Lu  Lu8  1  0.353167  0.749841  0.053343  1
  Lu  Lu9  1  0.148171  0.750689  0.553680  1
  Lu  Lu10  1  0.647380  0.249642  0.946417  1
  Lu  Lu11  1  0.852615  0.250638  0.447060  1
  In  In12  1  0.613073  0.746639  0.506958  1
  In  In13  1  0.886629  0.749592  0.002362  1
  In  In14  1  0.389391  0.251238  0.497574  1
  In  In15  1  0.113270  0.249813  0.996804  1
  In  In16  1  0.650756  0.749648  0.241278  1
  In  In17  1  0.847733  0.747409  0.739260  1
  In  In18  1  0.350882  0.252392  0.758219  1
  In  In19  1  0.149916  0.250175  0.259665  1
  In  In20  1  0.110534  0.749677  0.276951  1
  In  In21  1  0.389946  0.749114  0.776389  1
  In  In22  1  0.885226  0.253872  0.721676  1
  In  In23  1  0.609994  0.250082  0.223026  1
  In  In24  1  0.873469  0.543323  0.403996  1
  In  In25  1  0.626116  0.955678  0.902853  1
  In  In26  1  0.126339  0.045149  0.597288  1
  In  In27  1  0.374055  0.456496  0.096707  1
  In  In28  1  0.129177  0.457549  0.598111  1
  In  In29  1  0.373852  0.044053  0.097050  1
  In  In30  1  0.873159  0.955779  0.403304  1
  In  In31  1  0.625788  0.542450  0.899818  1
