# generated using pymatgen
data_Ca2SmHoV4O12
_symmetry_space_group_name_H-M   'P 1'
_cell_length_a   5.37988754
_cell_length_b   7.72493229
_cell_length_c   5.57565464
_cell_angle_alpha   90.31664841
_cell_angle_beta   90.12577932
_cell_angle_gamma   90.13988428
_symmetry_Int_Tables_number   1
_chemical_formula_structural   Ca2SmHoV4O12
_chemical_formula_sum   'Ca2 Sm1 Ho1 V4 O12'
_cell_volume   231.71532540
_cell_formula_units_Z   1
loop_
 _symmetry_equiv_pos_site_id
 _symmetry_equiv_pos_as_xyz
  1  'x, y, z'
loop_
 _atom_site_type_symbol
 _atom_site_label
 _atom_site_symmetry_multiplicity
 _atom_site_fract_x
 _atom_site_fract_y
 _atom_site_fract_z
 _atom_site_occupancy
  Ca  Ca0  1  0.511842  0.250782  0.552738  1
  Ca  Ca1  1  0.992399  0.249557  0.048794  1
  Sm  Sm2  1  0.483321  0.751755  0.441171  1
  Ho  Ho3  1  0.012389  0.747984  0.936164  1
  V  V4  1  0.502355  0.496120  0.996707  1
  V  V5  1  0.993753  0.495785  0.497583  1
  V  V6  1  0.993704  0.005368  0.501653  1
  V  V7  1  0.501398  0.004287  0.000628  1
  O  O8  1  0.902431  0.749475  0.536636  1
  O  O9  1  0.602992  0.750859  0.026123  1
  O  O10  1  0.091349  0.249458  0.467844  1
  O  O11  1  0.416808  0.250058  0.970768  1
  O  O12  1  0.809940  0.459577  0.800529  1
  O  O13  1  0.696542  0.042315  0.303884  1
  O  O14  1  0.281824  0.552573  0.694711  1
  O  O15  1  0.185645  0.942738  0.215101  1
  O  O16  1  0.201338  0.558784  0.200754  1
  O  O17  1  0.291183  0.942145  0.709779  1
  O  O18  1  0.712267  0.461084  0.310246  1
  O  O19  1  0.816516  0.039305  0.788191  1
