# generated using pymatgen
data_Dy14Tm6Co3Bi8Ru
_symmetry_space_group_name_H-M   'P 1'
_cell_length_a   7.95474965
_cell_length_b   8.92523954
_cell_length_c   12.42574541
_cell_angle_alpha   89.93856805
_cell_angle_beta   90.24712637
_cell_angle_gamma   90.06157912
_symmetry_Int_Tables_number   1
_chemical_formula_structural   Dy14Tm6Co3Bi8Ru
_chemical_formula_sum   'Dy14 Tm6 Co3 Bi8 Ru1'
_cell_volume   882.19442757
_cell_formula_units_Z   1
loop_
 _symmetry_equiv_pos_site_id
 _symmetry_equiv_pos_as_xyz
  1  'x, y, z'
loop_
 _atom_site_type_symbol
 _atom_site_label
 _atom_site_symmetry_multiplicity
 _atom_site_fract_x
 _atom_site_fract_y
 _atom_site_fract_z
 _atom_site_occupancy
  Dy  Dy0  1  0.847485  0.750440  0.799805  1
  Dy  Dy1  1  0.151624  0.249487  0.198860  1
  Dy  Dy2  1  0.349034  0.249830  0.698722  1
  Dy  Dy3  1  0.652705  0.750127  0.296368  1
  Dy  Dy4  1  0.379614  0.750023  0.691606  1
  Dy  Dy5  1  0.617597  0.250057  0.312000  1
  Dy  Dy6  1  0.881437  0.248985  0.811439  1
  Dy  Dy7  1  0.117873  0.750966  0.186771  1
  Dy  Dy8  1  0.948621  0.750073  0.503947  1
  Dy  Dy9  1  0.051667  0.249895  0.496722  1
  Dy  Dy10  1  0.449922  0.249156  0.997255  1
  Dy  Dy11  1  0.550107  0.750837  0.002498  1
  Dy  Dy12  1  0.822925  0.463317  0.063349  1
  Dy  Dy13  1  0.176021  0.534859  0.936769  1
  Tm  Tm14  1  0.674323  0.042909  0.564431  1
  Tm  Tm15  1  0.326684  0.965304  0.436758  1
  Tm  Tm16  1  0.172591  0.964796  0.937162  1
  Tm  Tm17  1  0.326554  0.534655  0.436869  1
  Tm  Tm18  1  0.826360  0.037072  0.062851  1
  Tm  Tm19  1  0.674335  0.457127  0.564344  1
  Co  Co20  1  0.434810  0.249985  0.491588  1
  Co  Co21  1  0.061237  0.248357  0.992320  1
  Co  Co22  1  0.936967  0.751729  0.006945  1
  Bi  Bi23  1  0.571318  0.491746  0.826658  1
  Bi  Bi24  1  0.428011  0.507972  0.173536  1
  Bi  Bi25  1  0.070102  0.507514  0.673917  1
  Bi  Bi26  1  0.429461  0.992221  0.173308  1
  Bi  Bi27  1  0.931551  0.492599  0.326413  1
  Bi  Bi28  1  0.569878  0.008099  0.826935  1
  Bi  Bi29  1  0.931300  0.007499  0.326152  1
  Bi  Bi30  1  0.070384  0.992338  0.674263  1
  Ru  Ru31  1  0.567501  0.750026  0.509439  1
