# generated using pymatgen
data_Ta3Tl(TeO6)2
_symmetry_space_group_name_H-M   'P 1'
_cell_length_a   3.98979900
_cell_length_b   15.21514400
_cell_length_c   17.76537100
_cell_angle_alpha   90.00000000
_cell_angle_beta   90.00000000
_cell_angle_gamma   90.00000000
_symmetry_Int_Tables_number   1
_chemical_formula_structural   Ta3Tl(TeO6)2
_chemical_formula_sum   'Ta12 Tl4 Te8 O48'
_cell_volume   1078.45335430
_cell_formula_units_Z   4
loop_
 _symmetry_equiv_pos_site_id
 _symmetry_equiv_pos_as_xyz
  1  'x, y, z'
loop_
 _atom_site_type_symbol
 _atom_site_label
 _atom_site_symmetry_multiplicity
 _atom_site_fract_x
 _atom_site_fract_y
 _atom_site_fract_z
 _atom_site_occupancy
  Ta  Ta0  1  0.259818  0.793462  0.750000  1
  Ta  Ta1  1  0.740182  0.206538  0.250000  1
  Ta  Ta2  1  0.259818  0.706538  0.250000  1
  Ta  Ta3  1  0.740182  0.293462  0.750000  1
  Ta  Ta4  1  0.746461  0.150952  0.569310  1
  Ta  Ta5  1  0.253539  0.849048  0.069310  1
  Ta  Ta6  1  0.746461  0.349048  0.430690  1
  Ta  Ta7  1  0.253539  0.650952  0.930690  1
  Ta  Ta8  1  0.253539  0.849048  0.430690  1
  Ta  Ta9  1  0.746461  0.150952  0.930690  1
  Ta  Ta10  1  0.253539  0.650952  0.569310  1
  Ta  Ta11  1  0.746461  0.349048  0.069310  1
  Tl  Tl12  1  0.219210  0.072029  0.750000  1
  Tl  Tl13  1  0.780790  0.927971  0.250000  1
  Tl  Tl14  1  0.219210  0.427971  0.250000  1
  Tl  Tl15  1  0.780790  0.572029  0.750000  1
  Te  Te16  1  0.625170  0.913636  0.597091  1
  Te  Te17  1  0.374830  0.086364  0.097091  1
  Te  Te18  1  0.625170  0.586364  0.402909  1
  Te  Te19  1  0.374830  0.413636  0.902909  1
  Te  Te20  1  0.374830  0.086364  0.402909  1
  Te  Te21  1  0.625170  0.913636  0.902909  1
  Te  Te22  1  0.374830  0.413636  0.597091  1
  Te  Te23  1  0.625170  0.586364  0.097091  1
  O  O24  1  0.282068  0.931245  0.523798  1
  O  O25  1  0.717932  0.068755  0.023798  1
  O  O26  1  0.282068  0.568755  0.476202  1
  O  O27  1  0.717932  0.431245  0.976202  1
  O  O28  1  0.717932  0.068755  0.476202  1
  O  O29  1  0.282068  0.931245  0.976202  1
  O  O30  1  0.717932  0.431245  0.523798  1
  O  O31  1  0.282068  0.568755  0.023798  1
  O  O32  1  0.699951  0.031877  0.627415  1
  O  O33  1  0.300049  0.968123  0.127415  1
  O  O34  1  0.699951  0.468123  0.372585  1
  O  O35  1  0.300049  0.531877  0.872585  1
  O  O36  1  0.300049  0.968123  0.372585  1
  O  O37  1  0.699951  0.031877  0.872585  1
  O  O38  1  0.300049  0.531877  0.627415  1
  O  O39  1  0.699951  0.468123  0.127415  1
  O  O40  1  0.293281  0.895299  0.673574  1
  O  O41  1  0.706719  0.104701  0.173574  1
  O  O42  1  0.293281  0.604701  0.326426  1
  O  O43  1  0.706719  0.395299  0.826426  1
  O  O44  1  0.706719  0.104701  0.326426  1
  O  O45  1  0.293281  0.895299  0.826426  1
  O  O46  1  0.706719  0.395299  0.673574  1
  O  O47  1  0.293281  0.604701  0.173574  1
  O  O48  1  0.292207  0.709351  0.666945  1
  O  O49  1  0.707793  0.290649  0.166945  1
  O  O50  1  0.292207  0.790649  0.333055  1
  O  O51  1  0.707793  0.209351  0.833055  1
  O  O52  1  0.707793  0.290649  0.333055  1
  O  O53  1  0.292207  0.709351  0.833055  1
  O  O54  1  0.707793  0.209351  0.666945  1
  O  O55  1  0.292207  0.790649  0.166945  1
  O  O56  1  0.789427  0.801293  0.750000  1
  O  O57  1  0.210573  0.198707  0.250000  1
  O  O58  1  0.789427  0.698707  0.250000  1
  O  O59  1  0.210573  0.301293  0.750000  1
  O  O60  1  0.706854  0.250000  0.500000  1
  O  O61  1  0.293146  0.750000  0.000000  1
  O  O62  1  0.293146  0.750000  0.500000  1
  O  O63  1  0.706854  0.250000  0.000000  1
  O  O64  1  0.215073  0.146600  0.566569  1
  O  O65  1  0.784927  0.853400  0.066569  1
  O  O66  1  0.215073  0.353400  0.433431  1
  O  O67  1  0.784927  0.646600  0.933431  1
  O  O68  1  0.784927  0.853400  0.433431  1
  O  O69  1  0.215073  0.146600  0.933431  1
  O  O70  1  0.784927  0.646600  0.566569  1
  O  O71  1  0.215073  0.353400  0.066569  1
