# generated using pymatgen
data_TbTh3(Pd2Pt)4
_symmetry_space_group_name_H-M   'P 1'
_cell_length_a   5.92908790
_cell_length_b   5.92484016
_cell_length_c   9.77679064
_cell_angle_alpha   90.07341246
_cell_angle_beta   89.92745784
_cell_angle_gamma   119.93659162
_symmetry_Int_Tables_number   1
_chemical_formula_structural   TbTh3(Pd2Pt)4
_chemical_formula_sum   'Tb1 Th3 Pd8 Pt4'
_cell_volume   297.62413079
_cell_formula_units_Z   1
loop_
 _symmetry_equiv_pos_site_id
 _symmetry_equiv_pos_as_xyz
  1  'x, y, z'
loop_
 _atom_site_type_symbol
 _atom_site_label
 _atom_site_symmetry_multiplicity
 _atom_site_fract_x
 _atom_site_fract_y
 _atom_site_fract_z
 _atom_site_occupancy
  Tb  Tb0  1  0.999655  0.999299  0.499407  1
  Th  Th1  1  0.999832  0.999586  0.000419  1
  Th  Th2  1  0.334126  0.668036  0.253876  1
  Th  Th3  1  0.666045  0.332586  0.746055  1
  Pd  Pd4  1  0.500229  0.499943  0.500287  1
  Pd  Pd5  1  0.999737  0.500004  0.500274  1
  Pd  Pd6  1  0.999743  0.499742  0.999693  1
  Pd  Pd7  1  0.349081  0.174660  0.250710  1
  Pd  Pd8  1  0.826217  0.174522  0.250988  1
  Pd  Pd9  1  0.174103  0.348674  0.749562  1
  Pd  Pd10  1  0.650797  0.825112  0.749355  1
  Pd  Pd11  1  0.173614  0.825279  0.749016  1
  Pt  Pt12  1  0.499947  0.999876  0.500793  1
  Pt  Pt13  1  0.500031  0.499675  0.999592  1
  Pt  Pt14  1  0.500024  0.999960  0.999341  1
  Pt  Pt15  1  0.826818  0.653045  0.250632  1
