# generated using pymatgen
data_In2SiF6
_symmetry_space_group_name_H-M   'P 1'
_cell_length_a   6.12568404
_cell_length_b   6.12568407
_cell_length_c   6.12568400
_cell_angle_alpha   60.00000036
_cell_angle_beta   60.00000019
_cell_angle_gamma   59.99999718
_symmetry_Int_Tables_number   1
_chemical_formula_structural   In2SiF6
_chemical_formula_sum   'In2 Si1 F6'
_cell_volume   162.53570163
_cell_formula_units_Z   1
loop_
 _symmetry_equiv_pos_site_id
 _symmetry_equiv_pos_as_xyz
  1  'x, y, z'
loop_
 _atom_site_type_symbol
 _atom_site_label
 _atom_site_symmetry_multiplicity
 _atom_site_fract_x
 _atom_site_fract_y
 _atom_site_fract_z
 _atom_site_occupancy
  In  In0  1  0.750000  0.750000  0.750000  1
  In  In1  1  0.250000  0.250000  0.250000  1
  Si  Si2  1  0.000000  0.000000  0.000000  1
  F  F3  1  0.199071  0.800929  0.800929  1
  F  F4  1  0.199071  0.800929  0.199071  1
  F  F5  1  0.800929  0.199071  0.800929  1
  F  F6  1  0.800929  0.199071  0.199071  1
  F  F7  1  0.800929  0.800929  0.199071  1
  F  F8  1  0.199071  0.199071  0.800929  1
