# generated using pymatgen
data_Br7ClO16
_symmetry_space_group_name_H-M   'P 1'
_cell_length_a   6.01760971
_cell_length_b   6.80268268
_cell_length_c   11.06538211
_cell_angle_alpha   89.86097663
_cell_angle_beta   90.24082041
_cell_angle_gamma   90.03903632
_symmetry_Int_Tables_number   1
_chemical_formula_structural   Br7ClO16
_chemical_formula_sum   'Br7 Cl1 O16'
_cell_volume   452.96582099
_cell_formula_units_Z   1
loop_
 _symmetry_equiv_pos_site_id
 _symmetry_equiv_pos_as_xyz
  1  'x, y, z'
loop_
 _atom_site_type_symbol
 _atom_site_label
 _atom_site_symmetry_multiplicity
 _atom_site_fract_x
 _atom_site_fract_y
 _atom_site_fract_z
 _atom_site_occupancy
  Br  Br0  1  0.837154  0.996859  0.616073  1
  Br  Br1  1  0.340235  0.009217  0.881298  1
  Br  Br2  1  0.667601  0.495314  0.381026  1
  Br  Br3  1  0.161808  0.502996  0.118524  1
  Br  Br4  1  0.165912  0.003259  0.380858  1
  Br  Br5  1  0.660657  0.997971  0.120541  1
  Br  Br6  1  0.343628  0.502808  0.617932  1
  Cl  Cl7  1  0.844239  0.505100  0.888143  1
  O  O8  1  0.807936  0.113469  0.481911  1
  O  O9  1  0.300219  0.893699  0.014680  1
  O  O10  1  0.700479  0.610322  0.515244  1
  O  O11  1  0.182141  0.393294  0.981527  1
  O  O12  1  0.194993  0.887275  0.515393  1
  O  O13  1  0.695031  0.110539  0.985753  1
  O  O14  1  0.308751  0.388754  0.483591  1
  O  O15  1  0.791605  0.603704  0.005048  1
  O  O16  1  0.929468  0.636585  0.792054  1
  O  O17  1  0.444166  0.348576  0.722037  1
  O  O18  1  0.557267  0.152915  0.222864  1
  O  O19  1  0.063406  0.850307  0.276709  1
  O  O20  1  0.059052  0.348050  0.222066  1
  O  O21  1  0.565730  0.649599  0.277129  1
  O  O22  1  0.438129  0.853019  0.778180  1
  O  O23  1  0.940391  0.146367  0.721420  1
