# generated using pymatgen
data_Gd2HoTh(NiAs)4
_symmetry_space_group_name_H-M   'P 1'
_cell_length_a   4.08256900
_cell_length_b   4.08256971
_cell_length_c   15.68735000
_cell_angle_alpha   90.00000000
_cell_angle_beta   90.00000000
_cell_angle_gamma   120.00000233
_symmetry_Int_Tables_number   1
_chemical_formula_structural   Gd2HoTh(NiAs)4
_chemical_formula_sum   'Gd2 Ho1 Th1 Ni4 As4'
_cell_volume   226.43697813
_cell_formula_units_Z   1
loop_
 _symmetry_equiv_pos_site_id
 _symmetry_equiv_pos_as_xyz
  1  'x, y, z'
loop_
 _atom_site_type_symbol
 _atom_site_label
 _atom_site_symmetry_multiplicity
 _atom_site_fract_x
 _atom_site_fract_y
 _atom_site_fract_z
 _atom_site_occupancy
  Gd  Gd0  1  0.000000  0.000000  0.256597  1
  Gd  Gd1  1  0.000000  0.000000  0.743403  1
  Ho  Ho2  1  0.000000  0.000000  0.500000  1
  Th  Th3  1  0.000000  0.000000  0.000000  1
  Ni  Ni4  1  0.333333  0.666667  0.123550  1
  Ni  Ni5  1  0.666667  0.333333  0.876450  1
  Ni  Ni6  1  0.666667  0.333333  0.627577  1
  Ni  Ni7  1  0.333333  0.666667  0.372423  1
  As  As8  1  0.333333  0.666667  0.616869  1
  As  As9  1  0.666667  0.333333  0.383131  1
  As  As10  1  0.666667  0.333333  0.131636  1
  As  As11  1  0.333333  0.666667  0.868364  1
