# generated using pymatgen
data_Ac4Ir2Pt
_symmetry_space_group_name_H-M   'P 1'
_cell_length_a   8.13385870
_cell_length_b   8.11944286
_cell_length_c   8.13188403
_cell_angle_alpha   109.23640275
_cell_angle_beta   109.59913242
_cell_angle_gamma   109.53728826
_symmetry_Int_Tables_number   1
_chemical_formula_structural   Ac4Ir2Pt
_chemical_formula_sum   'Ac8 Ir4 Pt2'
_cell_volume   413.62530225
_cell_formula_units_Z   2
loop_
 _symmetry_equiv_pos_site_id
 _symmetry_equiv_pos_as_xyz
  1  'x, y, z'
loop_
 _atom_site_type_symbol
 _atom_site_label
 _atom_site_symmetry_multiplicity
 _atom_site_fract_x
 _atom_site_fract_y
 _atom_site_fract_z
 _atom_site_occupancy
  Ac  Ac0  1  0.119946  0.497440  0.994693  1
  Ac  Ac1  1  0.502853  0.000942  0.617486  1
  Ac  Ac2  1  0.389527  0.388891  0.387693  1
  Ac  Ac3  1  0.997632  0.116692  0.504273  1
  Ac  Ac4  1  0.880054  0.877495  0.874747  1
  Ac  Ac5  1  0.002368  0.619059  0.506641  1
  Ac  Ac6  1  0.610473  0.499363  0.998166  1
  Ac  Ac7  1  0.497147  0.998089  0.114633  1
  Ir  Ir8  1  0.376147  0.628479  0.751190  1
  Ir  Ir9  1  0.246727  0.123064  0.874614  1
  Ir  Ir10  1  0.753273  0.376337  0.627888  1
  Ir  Ir11  1  0.623853  0.752332  0.375042  1
  Pt  Pt12  1  0.877138  0.249479  0.125036  1
  Pt  Pt13  1  0.122862  0.872340  0.247899  1
