# generated using pymatgen
data_Li8HoEr7(Sn3Bi)2
_symmetry_space_group_name_H-M   'P 1'
_cell_length_a   9.41237853
_cell_length_b   9.41305779
_cell_length_c   7.18598700
_cell_angle_alpha   89.99957950
_cell_angle_beta   90.10563138
_cell_angle_gamma   120.00239451
_symmetry_Int_Tables_number   1
_chemical_formula_structural   Li8HoEr7(Sn3Bi)2
_chemical_formula_sum   'Li8 Ho1 Er7 Sn6 Bi2'
_cell_volume   551.36057541
_cell_formula_units_Z   1
loop_
 _symmetry_equiv_pos_site_id
 _symmetry_equiv_pos_as_xyz
  1  'x, y, z'
loop_
 _atom_site_type_symbol
 _atom_site_label
 _atom_site_symmetry_multiplicity
 _atom_site_fract_x
 _atom_site_fract_y
 _atom_site_fract_z
 _atom_site_occupancy
  Li  Li0  1  0.167781  0.334106  0.283026  1
  Li  Li1  1  0.167765  0.833670  0.283032  1
  Li  Li2  1  0.664955  0.832482  0.286494  1
  Li  Li3  1  0.829005  0.664227  0.787289  1
  Li  Li4  1  0.828997  0.164776  0.787290  1
  Li  Li5  1  0.338240  0.169123  0.791610  1
  Li  Li6  1  0.337976  0.668993  0.669301  1
  Li  Li7  1  0.665396  0.332698  0.173360  1
  Ho  Ho8  1  0.995348  0.997674  0.005286  1
  Er  Er9  1  0.517014  0.026697  0.490848  1
  Er  Er10  1  0.517039  0.490370  0.490814  1
  Er  Er11  1  0.971946  0.485956  0.488574  1
  Er  Er12  1  0.493141  0.978299  0.997234  1
  Er  Er13  1  0.493141  0.514838  0.997231  1
  Er  Er14  1  0.017454  0.508725  0.999872  1
  Er  Er15  1  0.994617  0.997311  0.494819  1
  Sn  Sn16  1  0.667161  0.833514  0.732803  1
  Sn  Sn17  1  0.833727  0.666195  0.232096  1
  Sn  Sn18  1  0.833749  0.167550  0.232114  1
  Sn  Sn19  1  0.333170  0.166574  0.232041  1
  Sn  Sn20  1  0.332242  0.666117  0.260184  1
  Sn  Sn21  1  0.667598  0.333828  0.759271  1
  Bi  Bi22  1  0.166270  0.333611  0.733690  1
  Bi  Bi23  1  0.166269  0.832664  0.733693  1
