# generated using pymatgen
data_YTm15In6OsPd
_symmetry_space_group_name_H-M   'P 1'
_cell_length_a   10.33299502
_cell_length_b   10.33295232
_cell_length_c   6.96627801
_cell_angle_alpha   90.00091036
_cell_angle_beta   89.99918210
_cell_angle_gamma   120.00165435
_symmetry_Int_Tables_number   1
_chemical_formula_structural   YTm15In6OsPd
_chemical_formula_sum   'Y1 Tm15 In6 Os1 Pd1'
_cell_volume   644.13194659
_cell_formula_units_Z   1
loop_
 _symmetry_equiv_pos_site_id
 _symmetry_equiv_pos_as_xyz
  1  'x, y, z'
loop_
 _atom_site_type_symbol
 _atom_site_label
 _atom_site_symmetry_multiplicity
 _atom_site_fract_x
 _atom_site_fract_y
 _atom_site_fract_z
 _atom_site_occupancy
  Y  Y0  1  0.999999  0.999999  0.997430  1
  Tm  Tm1  1  0.466048  0.533951  0.481000  1
  Tm  Tm2  1  0.067902  0.533948  0.480996  1
  Tm  Tm3  1  0.466051  0.932098  0.480997  1
  Tm  Tm4  1  0.529286  0.470713  0.977525  1
  Tm  Tm5  1  0.941421  0.470713  0.977522  1
  Tm  Tm6  1  0.529287  0.058579  0.977523  1
  Tm  Tm7  1  0.824418  0.175583  0.275822  1
  Tm  Tm8  1  0.351165  0.175579  0.275824  1
  Tm  Tm9  1  0.824421  0.648835  0.275823  1
  Tm  Tm10  1  0.176990  0.823008  0.773433  1
  Tm  Tm11  1  0.646016  0.823011  0.773437  1
  Tm  Tm12  1  0.176989  0.353985  0.773436  1
  Tm  Tm13  1  0.333333  0.666664  0.103851  1
  Tm  Tm14  1  0.666667  0.333334  0.604538  1
  Tm  Tm15  1  0.999998  0.000001  0.494950  1
  In  In16  1  0.162528  0.837486  0.235300  1
  In  In17  1  0.674948  0.837452  0.235292  1
  In  In18  1  0.162546  0.325047  0.235294  1
  In  In19  1  0.836333  0.163666  0.733418  1
  In  In20  1  0.327322  0.163663  0.733399  1
  In  In21  1  0.836331  0.672686  0.733404  1
  Os  Os22  1  0.333330  0.666670  0.708028  1
  Pd  Pd23  1  0.666671  0.333331  0.206310  1
