# generated using pymatgen
data_Nb5(ReTc)12
_symmetry_space_group_name_H-M   'P 1'
_cell_length_a   8.39094678
_cell_length_b   8.39090389
_cell_length_c   8.39045636
_cell_angle_alpha   109.47381153
_cell_angle_beta   109.49695589
_cell_angle_gamma   109.44378120
_symmetry_Int_Tables_number   1
_chemical_formula_structural   Nb5(ReTc)12
_chemical_formula_sum   'Nb5 Re12 Tc12'
_cell_volume   454.75615077
_cell_formula_units_Z   1
loop_
 _symmetry_equiv_pos_site_id
 _symmetry_equiv_pos_as_xyz
  1  'x, y, z'
loop_
 _atom_site_type_symbol
 _atom_site_label
 _atom_site_symmetry_multiplicity
 _atom_site_fract_x
 _atom_site_fract_y
 _atom_site_fract_z
 _atom_site_occupancy
  Nb  Nb0  1  0.000044  0.000086  0.000026  1
  Nb  Nb1  1  0.633841  0.000089  0.999993  1
  Nb  Nb2  1  0.000071  0.633901  0.999975  1
  Nb  Nb3  1  0.999975  0.999990  0.633659  1
  Nb  Nb4  1  0.366322  0.366329  0.366246  1
  Re  Re5  1  0.377641  0.194718  0.999893  1
  Re  Re6  1  0.183191  0.805294  0.805197  1
  Re  Re7  1  0.377755  0.999951  0.194724  1
  Re  Re8  1  0.194825  0.377718  0.000074  1
  Re  Re9  1  0.000086  0.377938  0.194733  1
  Re  Re10  1  0.805208  0.183054  0.805253  1
  Re  Re11  1  0.805196  0.805217  0.182905  1
  Re  Re12  1  0.000031  0.194716  0.377850  1
  Re  Re13  1  0.194787  0.000052  0.377891  1
  Re  Re14  1  0.622206  0.622196  0.817028  1
  Re  Re15  1  0.816879  0.622122  0.622217  1
  Re  Re16  1  0.622172  0.816967  0.622251  1
  Tc  Tc17  1  0.400006  0.682881  0.000049  1
  Tc  Tc18  1  0.717293  0.316893  0.317081  1
  Tc  Tc19  1  0.400134  0.999782  0.682894  1
  Tc  Tc20  1  0.682809  0.399924  0.999889  1
  Tc  Tc21  1  0.999899  0.400175  0.683001  1
  Tc  Tc22  1  0.316905  0.717318  0.317218  1
  Tc  Tc23  1  0.317124  0.317018  0.717053  1
  Tc  Tc24  1  0.000158  0.683133  0.400272  1
  Tc  Tc25  1  0.683023  0.000072  0.400264  1
  Tc  Tc26  1  0.599981  0.600051  0.282938  1
  Tc  Tc27  1  0.282754  0.599721  0.599699  1
  Tc  Tc28  1  0.599681  0.282691  0.599729  1
