# generated using pymatgen
data_Mg4InAsPd10
_symmetry_space_group_name_H-M   'P 1'
_cell_length_a   4.14977200
_cell_length_b   5.59933193
_cell_length_c   10.98385748
_cell_angle_alpha   90.79236005
_cell_angle_beta   90.00000000
_cell_angle_gamma   90.00000000
_symmetry_Int_Tables_number   1
_chemical_formula_structural   Mg4InAsPd10
_chemical_formula_sum   'Mg4 In1 As1 Pd10'
_cell_volume   255.19596786
_cell_formula_units_Z   1
loop_
 _symmetry_equiv_pos_site_id
 _symmetry_equiv_pos_as_xyz
  1  'x, y, z'
loop_
 _atom_site_type_symbol
 _atom_site_label
 _atom_site_symmetry_multiplicity
 _atom_site_fract_x
 _atom_site_fract_y
 _atom_site_fract_z
 _atom_site_occupancy
  Mg  Mg0  1  0.500000  0.163264  0.140173  1
  Mg  Mg1  1  0.500000  0.836736  0.859827  1
  Mg  Mg2  1  0.500000  0.324346  0.641977  1
  Mg  Mg3  1  0.500000  0.675654  0.358023  1
  In  In4  1  0.000000  0.000000  0.500000  1
  As  As5  1  0.000000  0.500000  0.000000  1
  Pd  Pd6  1  0.500000  0.200220  0.381946  1
  Pd  Pd7  1  0.500000  0.799780  0.618054  1
  Pd  Pd8  1  0.500000  0.318484  0.896701  1
  Pd  Pd9  1  0.500000  0.681516  0.103299  1
  Pd  Pd10  1  0.000000  0.425588  0.236205  1
  Pd  Pd11  1  0.000000  0.574412  0.763795  1
  Pd  Pd12  1  0.000000  0.078232  0.747537  1
  Pd  Pd13  1  0.000000  0.921768  0.252463  1
  Pd  Pd14  1  0.000000  0.000000  0.000000  1
  Pd  Pd15  1  0.000000  0.500000  0.500000  1
