# generated using pymatgen
data_Tb15DyMgAg3Rh4
_symmetry_space_group_name_H-M   'P 1'
_cell_length_a   9.57113273
_cell_length_b   9.60018206
_cell_length_c   9.60018280
_cell_angle_alpha   60.36240352
_cell_angle_beta   60.33600732
_cell_angle_gamma   60.33601271
_symmetry_Int_Tables_number   1
_chemical_formula_structural   Tb15DyMgAg3Rh4
_chemical_formula_sum   'Tb15 Dy1 Mg1 Ag3 Rh4'
_cell_volume   628.61076302
_cell_formula_units_Z   1
loop_
 _symmetry_equiv_pos_site_id
 _symmetry_equiv_pos_as_xyz
  1  'x, y, z'
loop_
 _atom_site_type_symbol
 _atom_site_label
 _atom_site_symmetry_multiplicity
 _atom_site_fract_x
 _atom_site_fract_y
 _atom_site_fract_z
 _atom_site_occupancy
  Tb  Tb0  1  0.066066  0.435939  0.435939  1
  Tb  Tb1  1  0.649886  0.047544  0.650995  1
  Tb  Tb2  1  0.814294  0.813275  0.187165  1
  Tb  Tb3  1  0.435053  0.064285  0.064285  1
  Tb  Tb4  1  0.436820  0.435743  0.063356  1
  Tb  Tb5  1  0.190078  0.189041  0.811439  1
  Tb  Tb6  1  0.814607  0.186957  0.186957  1
  Tb  Tb7  1  0.065864  0.435711  0.063328  1
  Tb  Tb8  1  0.436820  0.063356  0.435743  1
  Tb  Tb9  1  0.061511  0.646042  0.646042  1
  Tb  Tb10  1  0.189965  0.811723  0.811723  1
  Tb  Tb11  1  0.649886  0.650995  0.047544  1
  Tb  Tb12  1  0.190078  0.811439  0.189041  1
  Tb  Tb13  1  0.065864  0.063328  0.435711  1
  Tb  Tb14  1  0.814294  0.187165  0.813275  1
  Dy  Dy15  1  0.649135  0.651509  0.651509  1
  Mg  Mg16  1  0.713381  0.428741  0.428741  1
  Ag  Ag17  1  0.417639  0.415125  0.750698  1
  Ag  Ag18  1  0.417235  0.415404  0.415404  1
  Ag  Ag19  1  0.417639  0.750698  0.415125  1
  Rh  Rh20  1  0.857901  0.429013  0.854293  1
  Rh  Rh21  1  0.427965  0.856178  0.856178  1
  Rh  Rh22  1  0.857901  0.854293  0.429013  1
  Rh  Rh23  1  0.860122  0.856496  0.856496  1
