# generated using pymatgen
data_Sc4Al6RePt
_symmetry_space_group_name_H-M   'P 1'
_cell_length_a   5.32925500
_cell_length_b   5.32925643
_cell_length_c   8.61079500
_cell_angle_alpha   90.00000000
_cell_angle_beta   90.00000000
_cell_angle_gamma   120.00000974
_symmetry_Int_Tables_number   1
_chemical_formula_structural   Sc4Al6RePt
_chemical_formula_sum   'Sc4 Al6 Re1 Pt1'
_cell_volume   211.79073540
_cell_formula_units_Z   1
loop_
 _symmetry_equiv_pos_site_id
 _symmetry_equiv_pos_as_xyz
  1  'x, y, z'
loop_
 _atom_site_type_symbol
 _atom_site_label
 _atom_site_symmetry_multiplicity
 _atom_site_fract_x
 _atom_site_fract_y
 _atom_site_fract_z
 _atom_site_occupancy
  Sc  Sc0  1  0.333333  0.666667  0.061844  1
  Sc  Sc1  1  0.666667  0.333333  0.550301  1
  Sc  Sc2  1  0.333333  0.666667  0.449699  1
  Sc  Sc3  1  0.666667  0.333333  0.938156  1
  Al  Al4  1  0.833481  0.666960  0.250615  1
  Al  Al5  1  0.166519  0.833481  0.749385  1
  Al  Al6  1  0.666960  0.833481  0.749385  1
  Al  Al7  1  0.333040  0.166519  0.250615  1
  Al  Al8  1  0.833481  0.166519  0.250615  1
  Al  Al9  1  0.166519  0.333040  0.749385  1
  Re  Re10  1  0.000000  0.000000  0.000000  1
  Pt  Pt11  1  0.000000  0.000000  0.500000  1
