# generated using pymatgen
data_Tb2Tm4FeSb2
_symmetry_space_group_name_H-M   'P 1'
_cell_length_a   8.12454700
_cell_length_b   8.13263532
_cell_length_c   4.13705200
_cell_angle_alpha   90.00000000
_cell_angle_beta   90.00000000
_cell_angle_gamma   119.96709377
_symmetry_Int_Tables_number   1
_chemical_formula_structural   Tb2Tm4FeSb2
_chemical_formula_sum   'Tb2 Tm4 Fe1 Sb2'
_cell_volume   236.80778472
_cell_formula_units_Z   1
loop_
 _symmetry_equiv_pos_site_id
 _symmetry_equiv_pos_as_xyz
  1  'x, y, z'
loop_
 _atom_site_type_symbol
 _atom_site_label
 _atom_site_symmetry_multiplicity
 _atom_site_fract_x
 _atom_site_fract_y
 _atom_site_fract_z
 _atom_site_occupancy
  Tb  Tb0  1  0.000456  0.604785  0.500000  1
  Tb  Tb1  1  0.395670  0.395215  0.500000  1
  Tm  Tm2  1  0.232927  0.000000  0.000000  1
  Tm  Tm3  1  0.765734  0.766415  0.000000  1
  Tm  Tm4  1  0.999319  0.233585  0.000000  1
  Tm  Tm5  1  0.606406  0.000000  0.500000  1
  Fe  Fe6  1  0.997229  0.000000  0.500000  1
  Sb  Sb7  1  0.335587  0.668916  0.000000  1
  Sb  Sb8  1  0.666672  0.331084  0.000000  1
