# generated using pymatgen
data_Ce3Sc2Os3
_symmetry_space_group_name_H-M   'P 1'
_cell_length_a   6.15553900
_cell_length_b   8.00817353
_cell_length_c   8.00817200
_cell_angle_alpha   120.00001021
_cell_angle_beta   90.00000000
_cell_angle_gamma   90.00000000
_symmetry_Int_Tables_number   1
_chemical_formula_structural   Ce3Sc2Os3
_chemical_formula_sum   'Ce6 Sc4 Os6'
_cell_volume   341.87200726
_cell_formula_units_Z   2
loop_
 _symmetry_equiv_pos_site_id
 _symmetry_equiv_pos_as_xyz
  1  'x, y, z'
loop_
 _atom_site_type_symbol
 _atom_site_label
 _atom_site_symmetry_multiplicity
 _atom_site_fract_x
 _atom_site_fract_y
 _atom_site_fract_z
 _atom_site_occupancy
  Ce  Ce0  1  0.750000  0.747402  0.747402  1
  Ce  Ce1  1  0.250000  0.252598  0.252598  1
  Ce  Ce2  1  0.750000  0.000000  0.252598  1
  Ce  Ce3  1  0.250000  0.000000  0.747402  1
  Ce  Ce4  1  0.750000  0.252598  0.000000  1
  Ce  Ce5  1  0.250000  0.747402  0.000000  1
  Sc  Sc6  1  0.000000  0.666667  0.333333  1
  Sc  Sc7  1  0.000000  0.333333  0.666667  1
  Sc  Sc8  1  0.500000  0.333333  0.666667  1
  Sc  Sc9  1  0.500000  0.666667  0.333333  1
  Os  Os10  1  0.750000  0.389845  0.389845  1
  Os  Os11  1  0.250000  0.610155  0.610155  1
  Os  Os12  1  0.750000  0.000000  0.610155  1
  Os  Os13  1  0.250000  0.000000  0.389845  1
  Os  Os14  1  0.750000  0.610155  0.000000  1
  Os  Os15  1  0.250000  0.389845  0.000000  1
