# generated using pymatgen
data_Rb3SiS3
_symmetry_space_group_name_H-M   'P 1'
_cell_length_a   9.93426130
_cell_length_b   9.93426054
_cell_length_c   9.02102629
_cell_angle_alpha   85.57786827
_cell_angle_beta   85.57786780
_cell_angle_gamma   79.34747979
_symmetry_Int_Tables_number   1
_chemical_formula_structural   Rb3SiS3
_chemical_formula_sum   'Rb12 Si4 S12'
_cell_volume   870.53700432
_cell_formula_units_Z   4
loop_
 _symmetry_equiv_pos_site_id
 _symmetry_equiv_pos_as_xyz
  1  'x, y, z'
loop_
 _atom_site_type_symbol
 _atom_site_label
 _atom_site_symmetry_multiplicity
 _atom_site_fract_x
 _atom_site_fract_y
 _atom_site_fract_z
 _atom_site_occupancy
  Rb  Rb0  1  0.202839  0.248065  0.304590  1
  Rb  Rb1  1  0.751935  0.797161  0.195410  1
  Rb  Rb2  1  0.797161  0.751935  0.695410  1
  Rb  Rb3  1  0.248065  0.202839  0.804590  1
  Rb  Rb4  1  0.198857  0.608373  0.625882  1
  Rb  Rb5  1  0.391627  0.801143  0.874118  1
  Rb  Rb6  1  0.801143  0.391627  0.374118  1
  Rb  Rb7  1  0.608373  0.198857  0.125882  1
  Rb  Rb8  1  0.589818  0.410182  0.750000  1
  Rb  Rb9  1  0.410182  0.589818  0.250000  1
  Rb  Rb10  1  0.078702  0.921298  0.250000  1
  Rb  Rb11  1  0.921298  0.078702  0.750000  1
  Si  Si12  1  0.567414  0.079935  0.539081  1
  Si  Si13  1  0.920065  0.432586  0.960919  1
  Si  Si14  1  0.432586  0.920065  0.460919  1
  Si  Si15  1  0.079935  0.567414  0.039081  1
  S  S16  1  0.580507  0.056160  0.778737  1
  S  S17  1  0.943840  0.419493  0.721263  1
  S  S18  1  0.419493  0.943840  0.221263  1
  S  S19  1  0.056160  0.580507  0.278737  1
  S  S20  1  0.469784  0.288120  0.473908  1
  S  S21  1  0.711880  0.530216  0.026092  1
  S  S22  1  0.530216  0.711880  0.526092  1
  S  S23  1  0.288120  0.469784  0.973908  1
  S  S24  1  0.771033  0.041459  0.432934  1
  S  S25  1  0.958541  0.228967  0.067066  1
  S  S26  1  0.228967  0.958541  0.567066  1
  S  S27  1  0.041459  0.771033  0.932934  1
