# generated using pymatgen
data_Y2AlNi9
_symmetry_space_group_name_H-M   'P 1'
_cell_length_a   4.87147517
_cell_length_b   4.87147537
_cell_length_c   7.97605700
_cell_angle_alpha   90.00000000
_cell_angle_beta   90.00000000
_cell_angle_gamma   119.82417728
_symmetry_Int_Tables_number   1
_chemical_formula_structural   Y2AlNi9
_chemical_formula_sum   'Y2 Al1 Ni9'
_cell_volume   164.21264773
_cell_formula_units_Z   1
loop_
 _symmetry_equiv_pos_site_id
 _symmetry_equiv_pos_as_xyz
  1  'x, y, z'
loop_
 _atom_site_type_symbol
 _atom_site_label
 _atom_site_symmetry_multiplicity
 _atom_site_fract_x
 _atom_site_fract_y
 _atom_site_fract_z
 _atom_site_occupancy
  Y  Y0  1  0.000000  0.000000  0.766053  1
  Y  Y1  1  0.000000  0.000000  0.233947  1
  Al  Al2  1  0.500000  0.500000  0.500000  1
  Ni  Ni3  1  0.668466  0.331534  0.749939  1
  Ni  Ni4  1  0.668466  0.331534  0.250061  1
  Ni  Ni5  1  0.500000  0.500000  0.000000  1
  Ni  Ni6  1  0.331534  0.668466  0.749939  1
  Ni  Ni7  1  0.500000  0.000000  0.500000  1
  Ni  Ni8  1  0.000000  0.500000  0.000000  1
  Ni  Ni9  1  0.500000  0.000000  0.000000  1
  Ni  Ni10  1  0.331534  0.668466  0.250061  1
  Ni  Ni11  1  0.000000  0.500000  0.500000  1
