# generated using pymatgen
data_Ti8Al15Fe3Pt4
_symmetry_space_group_name_H-M   'P 1'
_cell_length_a   8.61901398
_cell_length_b   8.60642702
_cell_length_c   8.61901306
_cell_angle_alpha   120.12618976
_cell_angle_beta   119.84225175
_cell_angle_gamma   90.06960802
_symmetry_Int_Tables_number   1
_chemical_formula_structural   Ti8Al15Fe3Pt4
_chemical_formula_sum   'Ti8 Al15 Fe3 Pt4'
_cell_volume   452.02585377
_cell_formula_units_Z   1
loop_
 _symmetry_equiv_pos_site_id
 _symmetry_equiv_pos_as_xyz
  1  'x, y, z'
loop_
 _atom_site_type_symbol
 _atom_site_label
 _atom_site_symmetry_multiplicity
 _atom_site_fract_x
 _atom_site_fract_y
 _atom_site_fract_z
 _atom_site_occupancy
  Ti  Ti0  1  0.784795  0.287381  0.074416  1
  Ti  Ti1  1  0.212965  0.287381  0.502586  1
  Ti  Ti2  1  0.209789  0.717934  0.508145  1
  Ti  Ti3  1  0.221108  0.717297  0.925614  1
  Ti  Ti4  1  0.791684  0.717297  0.496189  1
  Ti  Ti5  1  0.784236  0.277179  0.492944  1
  Ti  Ti6  1  0.376141  0.125922  0.749782  1
  Ti  Ti7  1  0.385528  0.630217  0.244690  1
  Al  Al8  1  0.997448  0.497359  0.499912  1
  Al  Al9  1  0.152272  0.349925  0.197651  1
  Al  Al10  1  0.159783  0.969612  0.809829  1
  Al  Al11  1  0.155307  0.340349  0.801502  1
  Al  Al12  1  0.538847  0.340349  0.185042  1
  Al  Al13  1  0.848346  0.650300  0.801954  1
  Al  Al14  1  0.838428  0.029747  0.191319  1
  Al  Al15  1  0.837637  0.659534  0.190153  1
  Al  Al16  1  0.469382  0.659534  0.821897  1
  Al  Al17  1  0.383127  0.118251  0.249096  1
  Al  Al18  1  0.869156  0.118251  0.735125  1
  Al  Al19  1  0.623185  0.874296  0.251111  1
  Al  Al20  1  0.616271  0.370079  0.753807  1
  Al  Al21  1  0.614500  0.881491  0.748890  1
  Al  Al22  1  0.132600  0.881491  0.266991  1
  Fe  Fe23  1  0.003937  0.999866  0.503259  1
  Fe  Fe24  1  0.496606  0.999866  0.995929  1
  Fe  Fe25  1  0.495417  0.498742  0.003325  1
  Pt  Pt26  1  0.500178  0.499280  0.499878  1
  Pt  Pt27  1  0.999401  0.499280  0.999102  1
  Pt  Pt28  1  0.000046  0.000376  0.000329  1
  Pt  Pt29  1  0.501874  0.001410  0.499536  1
