# generated using pymatgen
data_Ca5TbSi24Os7Ru
_symmetry_space_group_name_H-M   'P 1'
_cell_length_a   10.19274151
_cell_length_b   10.19227361
_cell_length_c   8.19086134
_cell_angle_alpha   89.93427262
_cell_angle_beta   90.12498348
_cell_angle_gamma   132.60680350
_symmetry_Int_Tables_number   1
_chemical_formula_structural   Ca5TbSi24Os7Ru
_chemical_formula_sum   'Ca5 Tb1 Si24 Os7 Ru1'
_cell_volume   626.29400445
_cell_formula_units_Z   1
loop_
 _symmetry_equiv_pos_site_id
 _symmetry_equiv_pos_as_xyz
  1  'x, y, z'
loop_
 _atom_site_type_symbol
 _atom_site_label
 _atom_site_symmetry_multiplicity
 _atom_site_fract_x
 _atom_site_fract_y
 _atom_site_fract_z
 _atom_site_occupancy
  Ca  Ca0  1  0.499855  0.499653  0.499411  1
  Ca  Ca1  1  0.999937  0.000155  0.000021  1
  Ca  Ca2  1  0.499796  0.000035  0.749824  1
  Ca  Ca3  1  0.999985  0.500664  0.250258  1
  Ca  Ca4  1  0.499999  0.999351  0.250311  1
  Tb  Tb5  1  0.998400  0.498360  0.749726  1
  Si  Si6  1  0.793806  0.203529  0.498164  1
  Si  Si7  1  0.295821  0.706197  0.000784  1
  Si  Si8  1  0.206172  0.795847  0.499107  1
  Si  Si9  1  0.703473  0.293647  0.001751  1
  Si  Si10  1  0.334497  0.334985  0.831055  1
  Si  Si11  1  0.665295  0.667837  0.166821  1
  Si  Si12  1  0.167024  0.164437  0.331075  1
  Si  Si13  1  0.833421  0.832814  0.668650  1
  Si  Si14  1  0.122970  0.890225  0.729978  1
  Si  Si15  1  0.109756  0.876525  0.269274  1
  Si  Si16  1  0.607503  0.373737  0.230854  1
  Si  Si17  1  0.626647  0.393844  0.770461  1
  Si  Si18  1  0.875899  0.109280  0.269328  1
  Si  Si19  1  0.891727  0.124155  0.729736  1
  Si  Si20  1  0.392319  0.625456  0.770300  1
  Si  Si21  1  0.374238  0.607893  0.230905  1
  Si  Si22  1  0.348108  0.113546  0.507369  1
  Si  Si23  1  0.887166  0.654037  0.493365  1
  Si  Si24  1  0.386211  0.152034  0.010297  1
  Si  Si25  1  0.846425  0.613101  0.989731  1
  Si  Si26  1  0.652470  0.885714  0.491984  1
  Si  Si27  1  0.113102  0.346417  0.509273  1
  Si  Si28  1  0.613454  0.848036  0.991776  1
  Si  Si29  1  0.153656  0.387799  0.008889  1
  Os  Os30  1  0.672186  0.331902  0.501697  1
  Os  Os31  1  0.168693  0.828880  0.998612  1
  Os  Os32  1  0.329048  0.668401  0.501383  1
  Os  Os33  1  0.831865  0.172429  0.998220  1
  Os  Os34  1  0.127494  0.126745  0.624656  1
  Os  Os35  1  0.872366  0.872528  0.374925  1
  Os  Os36  1  0.373221  0.373114  0.124277  1
  Ru  Ru37  1  0.625992  0.626685  0.875755  1
