# generated using pymatgen
data_Sc2Fe3Co(NiP)6
_symmetry_space_group_name_H-M   'P 1'
_cell_length_a   3.62254200
_cell_length_b   10.13869500
_cell_length_c   11.77412200
_cell_angle_alpha   90.00000000
_cell_angle_beta   90.00000000
_cell_angle_gamma   90.00000000
_symmetry_Int_Tables_number   1
_chemical_formula_structural   Sc2Fe3Co(NiP)6
_chemical_formula_sum   'Sc4 Fe6 Co2 Ni12 P12'
_cell_volume   432.43816860
_cell_formula_units_Z   2
loop_
 _symmetry_equiv_pos_site_id
 _symmetry_equiv_pos_as_xyz
  1  'x, y, z'
loop_
 _atom_site_type_symbol
 _atom_site_label
 _atom_site_symmetry_multiplicity
 _atom_site_fract_x
 _atom_site_fract_y
 _atom_site_fract_z
 _atom_site_occupancy
  Sc  Sc0  1  0.250000  0.578387  0.706944  1
  Sc  Sc1  1  0.250000  0.921613  0.206944  1
  Sc  Sc2  1  0.750000  0.420651  0.294203  1
  Sc  Sc3  1  0.750000  0.079349  0.794203  1
  Fe  Fe4  1  0.250000  0.874612  0.699708  1
  Fe  Fe5  1  0.250000  0.625388  0.199708  1
  Fe  Fe6  1  0.750000  0.126639  0.299190  1
  Fe  Fe7  1  0.750000  0.373361  0.799190  1
  Fe  Fe8  1  0.250000  0.462934  0.932868  1
  Fe  Fe9  1  0.250000  0.037066  0.432868  1
  Co  Co10  1  0.750000  0.536907  0.069206  1
  Co  Co11  1  0.750000  0.963093  0.569206  1
  Ni  Ni12  1  0.250000  0.716779  0.990669  1
  Ni  Ni13  1  0.250000  0.783221  0.490669  1
  Ni  Ni14  1  0.750000  0.285519  0.010323  1
  Ni  Ni15  1  0.750000  0.214481  0.510323  1
  Ni  Ni16  1  0.250000  0.409250  0.482924  1
  Ni  Ni17  1  0.250000  0.090750  0.982924  1
  Ni  Ni18  1  0.750000  0.590955  0.516807  1
  Ni  Ni19  1  0.750000  0.909045  0.016807  1
  Ni  Ni20  1  0.250000  0.226393  0.172723  1
  Ni  Ni21  1  0.250000  0.273608  0.672723  1
  Ni  Ni22  1  0.750000  0.774019  0.826188  1
  Ni  Ni23  1  0.750000  0.725981  0.326188  1
  P  P24  1  0.250000  0.430066  0.115441  1
  P  P25  1  0.250000  0.069934  0.615441  1
  P  P26  1  0.750000  0.569285  0.883942  1
  P  P27  1  0.750000  0.930715  0.383942  1
  P  P28  1  0.250000  0.265738  0.863889  1
  P  P29  1  0.250000  0.234262  0.363889  1
  P  P30  1  0.750000  0.735029  0.135745  1
  P  P31  1  0.750000  0.764971  0.635745  1
  P  P32  1  0.250000  0.600389  0.385689  1
  P  P33  1  0.250000  0.899611  0.885689  1
  P  P34  1  0.750000  0.399838  0.613542  1
  P  P35  1  0.750000  0.100162  0.113542  1
