# generated using pymatgen
data_Sb11Pt
_symmetry_space_group_name_H-M   'P 1'
_cell_length_a   4.23094000
_cell_length_b   4.23094041
_cell_length_c   20.82884900
_cell_angle_alpha   90.00000000
_cell_angle_beta   90.00000000
_cell_angle_gamma   119.99999676
_symmetry_Int_Tables_number   1
_chemical_formula_structural   Sb11Pt
_chemical_formula_sum   'Sb11 Pt1'
_cell_volume   322.90122527
_cell_formula_units_Z   1
loop_
 _symmetry_equiv_pos_site_id
 _symmetry_equiv_pos_as_xyz
  1  'x, y, z'
loop_
 _atom_site_type_symbol
 _atom_site_label
 _atom_site_symmetry_multiplicity
 _atom_site_fract_x
 _atom_site_fract_y
 _atom_site_fract_z
 _atom_site_occupancy
  Sb  Sb0  1  0.666667  0.333333  0.913405  1
  Sb  Sb1  1  0.333333  0.666667  0.341260  1
  Sb  Sb2  1  0.333333  0.666667  0.086595  1
  Sb  Sb3  1  0.666667  0.333333  0.658740  1
  Sb  Sb4  1  0.333333  0.666667  0.829940  1
  Sb  Sb5  1  0.666667  0.333333  0.170060  1
  Sb  Sb6  1  0.000000  0.000000  0.739760  1
  Sb  Sb7  1  0.666667  0.333333  0.440005  1
  Sb  Sb8  1  0.333333  0.666667  0.559995  1
  Sb  Sb9  1  0.000000  0.000000  0.000000  1
  Sb  Sb10  1  0.000000  0.000000  0.260240  1
  Pt  Pt11  1  0.000000  0.000000  0.500000  1
