# generated using pymatgen
data_YbSm3Pd2(PtO7)2
_symmetry_space_group_name_H-M   'P 1'
_cell_length_a   7.32513397
_cell_length_b   7.34250029
_cell_length_c   7.34250123
_cell_angle_alpha   59.97209460
_cell_angle_beta   59.90551043
_cell_angle_gamma   59.90551467
_symmetry_Int_Tables_number   1
_chemical_formula_structural   YbSm3Pd2(PtO7)2
_chemical_formula_sum   'Yb1 Sm3 Pd2 Pt2 O14'
_cell_volume   278.78887158
_cell_formula_units_Z   1
loop_
 _symmetry_equiv_pos_site_id
 _symmetry_equiv_pos_as_xyz
  1  'x, y, z'
loop_
 _atom_site_type_symbol
 _atom_site_label
 _atom_site_symmetry_multiplicity
 _atom_site_fract_x
 _atom_site_fract_y
 _atom_site_fract_z
 _atom_site_occupancy
  Yb  Yb0  1  0.625000  0.125000  0.125000  1
  Sm  Sm1  1  0.125000  0.125000  0.125000  1
  Sm  Sm2  1  0.125000  0.625000  0.125000  1
  Sm  Sm3  1  0.125000  0.125000  0.625000  1
  Pd  Pd4  1  0.625000  0.625000  0.625000  1
  Pd  Pd5  1  0.125000  0.625000  0.625000  1
  Pt  Pt6  1  0.625000  0.625000  0.125000  1
  Pt  Pt7  1  0.625000  0.125000  0.625000  1
  O  O8  1  0.709519  0.292132  0.292132  1
  O  O9  1  0.709244  0.289106  0.708841  1
  O  O10  1  0.998452  0.000898  0.000898  1
  O  O11  1  0.289606  0.711875  0.288097  1
  O  O12  1  0.709244  0.708841  0.289106  1
  O  O13  1  0.962286  0.538027  0.538027  1
  O  O14  1  0.287714  0.711973  0.711973  1
  O  O15  1  0.251548  0.249102  0.249102  1
  O  O16  1  0.960394  0.538125  0.961903  1
  O  O17  1  0.540756  0.960894  0.541159  1
  O  O18  1  0.540756  0.541159  0.960894  1
  O  O19  1  0.960394  0.961903  0.538125  1
  O  O20  1  0.540481  0.957868  0.957868  1
  O  O21  1  0.289606  0.288097  0.711875  1
