# generated using pymatgen
data_LiDyYCu3O8
_symmetry_space_group_name_H-M   'P 1'
_cell_length_a   6.08479553
_cell_length_b   6.31331576
_cell_length_c   6.27478529
_cell_angle_alpha   125.92058719
_cell_angle_beta   125.40697100
_cell_angle_gamma   78.55915726
_symmetry_Int_Tables_number   1
_chemical_formula_structural   LiDyYCu3O8
_chemical_formula_sum   'Li1 Dy1 Y1 Cu3 O8'
_cell_volume   155.40401886
_cell_formula_units_Z   1
loop_
 _symmetry_equiv_pos_site_id
 _symmetry_equiv_pos_as_xyz
  1  'x, y, z'
loop_
 _atom_site_type_symbol
 _atom_site_label
 _atom_site_symmetry_multiplicity
 _atom_site_fract_x
 _atom_site_fract_y
 _atom_site_fract_z
 _atom_site_occupancy
  Li  Li0  1  0.374984  0.624979  0.749970  1
  Dy  Dy1  1  0.738725  0.238980  0.480643  1
  Y  Y2  1  0.011078  0.010922  0.019033  1
  Cu  Cu3  1  0.874969  0.625029  0.249929  1
  Cu  Cu4  1  0.374925  0.125042  0.750008  1
  Cu  Cu5  1  0.374926  0.624892  0.249879  1
  O  O6  1  0.417546  0.851457  0.172787  1
  O  O7  1  0.692647  0.282339  0.864524  1
  O  O8  1  0.333812  0.398975  0.327981  1
  O  O9  1  0.057022  0.967778  0.634811  1
  O  O10  1  0.004305  0.646920  0.053675  1
  O  O11  1  0.604008  0.969865  0.953357  1
  O  O12  1  0.145539  0.280597  0.547571  1
  O  O13  1  0.745515  0.602226  0.445831  1
