# generated using pymatgen
data_K2TeRuO6
_symmetry_space_group_name_H-M   'P 1'
_cell_length_a   6.92548390
_cell_length_b   6.92549791
_cell_length_c   6.92552038
_cell_angle_alpha   46.11792660
_cell_angle_beta   46.11828285
_cell_angle_gamma   46.11847863
_symmetry_Int_Tables_number   1
_chemical_formula_structural   K2TeRuO6
_chemical_formula_sum   'K2 Te1 Ru1 O6'
_cell_volume   157.43974753
_cell_formula_units_Z   1
loop_
 _symmetry_equiv_pos_site_id
 _symmetry_equiv_pos_as_xyz
  1  'x, y, z'
loop_
 _atom_site_type_symbol
 _atom_site_label
 _atom_site_symmetry_multiplicity
 _atom_site_fract_x
 _atom_site_fract_y
 _atom_site_fract_z
 _atom_site_occupancy
  K  K0  1  0.137344  0.137339  0.137326  1
  K  K1  1  0.859236  0.859247  0.859262  1
  Te  Te2  1  0.334728  0.334724  0.334726  1
  Ru  Ru3  1  0.665129  0.665126  0.665128  1
  O  O4  1  0.659592  0.463498  0.061672  1
  O  O5  1  0.533376  0.944857  0.336456  1
  O  O6  1  0.061675  0.659590  0.463494  1
  O  O7  1  0.944853  0.336457  0.533380  1
  O  O8  1  0.463500  0.061667  0.659590  1
  O  O9  1  0.336453  0.533383  0.944854  1
