# generated using pymatgen
data_Tb12InSi4Sn
_symmetry_space_group_name_H-M   'P 1'
_cell_length_a   8.57313669
_cell_length_b   8.57316627
_cell_length_c   8.57313711
_cell_angle_alpha   112.26762298
_cell_angle_beta   111.07590373
_cell_angle_gamma   105.15671388
_symmetry_Int_Tables_number   1
_chemical_formula_structural   Tb12InSi4Sn
_chemical_formula_sum   'Tb12 In1 Si4 Sn1'
_cell_volume   482.96543980
_cell_formula_units_Z   1
loop_
 _symmetry_equiv_pos_site_id
 _symmetry_equiv_pos_as_xyz
  1  'x, y, z'
loop_
 _atom_site_type_symbol
 _atom_site_label
 _atom_site_symmetry_multiplicity
 _atom_site_fract_x
 _atom_site_fract_y
 _atom_site_fract_z
 _atom_site_occupancy
  Tb  Tb0  1  0.442888  0.238802  0.204086  1
  Tb  Tb1  1  0.557112  0.761198  0.795914  1
  Tb  Tb2  1  0.034717  0.238802  0.795914  1
  Tb  Tb3  1  0.965283  0.761198  0.204086  1
  Tb  Tb4  1  0.186077  0.279381  0.465460  1
  Tb  Tb5  1  0.813923  0.720619  0.534540  1
  Tb  Tb6  1  0.186077  0.720619  0.906696  1
  Tb  Tb7  1  0.813923  0.279381  0.093304  1
  Tb  Tb8  1  0.320464  0.617739  0.297275  1
  Tb  Tb9  1  0.679536  0.382261  0.702725  1
  Tb  Tb10  1  0.320465  0.023190  0.702724  1
  Tb  Tb11  1  0.679535  0.976810  0.297276  1
  In  In12  1  0.500000  0.500000  0.000000  1
  Si  Si13  1  0.371440  0.000000  0.371440  1
  Si  Si14  1  0.628560  0.000000  0.628560  1
  Si  Si15  1  0.114830  0.614830  0.500000  1
  Si  Si16  1  0.885170  0.385170  0.500000  1
  Sn  Sn17  1  0.000000  0.000000  0.000000  1
