# generated using pymatgen
data_LiTb4TiPd14
_symmetry_space_group_name_H-M   'P 1'
_cell_length_a   4.13336800
_cell_length_b   4.13336800
_cell_length_c   19.97529600
_cell_angle_alpha   90.00000000
_cell_angle_beta   90.00000000
_cell_angle_gamma   90.00000000
_symmetry_Int_Tables_number   1
_chemical_formula_structural   LiTb4TiPd14
_chemical_formula_sum   'Li1 Tb4 Ti1 Pd14'
_cell_volume   341.27255927
_cell_formula_units_Z   1
loop_
 _symmetry_equiv_pos_site_id
 _symmetry_equiv_pos_as_xyz
  1  'x, y, z'
loop_
 _atom_site_type_symbol
 _atom_site_label
 _atom_site_symmetry_multiplicity
 _atom_site_fract_x
 _atom_site_fract_y
 _atom_site_fract_z
 _atom_site_occupancy
  Li  Li0  1  0.500000  0.500000  0.000000  1
  Tb  Tb1  1  0.000000  0.000000  0.193179  1
  Tb  Tb2  1  0.000000  0.000000  0.396919  1
  Tb  Tb3  1  0.000000  0.000000  0.603081  1
  Tb  Tb4  1  0.000000  0.000000  0.806821  1
  Ti  Ti5  1  0.000000  0.000000  0.000000  1
  Pd  Pd6  1  0.500000  0.500000  0.187634  1
  Pd  Pd7  1  0.500000  0.500000  0.396117  1
  Pd  Pd8  1  0.500000  0.500000  0.603883  1
  Pd  Pd9  1  0.500000  0.500000  0.812366  1
  Pd  Pd10  1  0.500000  0.000000  0.082017  1
  Pd  Pd11  1  0.500000  0.000000  0.292616  1
  Pd  Pd12  1  0.500000  0.000000  0.500000  1
  Pd  Pd13  1  0.500000  0.000000  0.707384  1
  Pd  Pd14  1  0.500000  0.000000  0.917983  1
  Pd  Pd15  1  0.000000  0.500000  0.082017  1
  Pd  Pd16  1  0.000000  0.500000  0.292616  1
  Pd  Pd17  1  0.000000  0.500000  0.500000  1
  Pd  Pd18  1  0.000000  0.500000  0.707384  1
  Pd  Pd19  1  0.000000  0.500000  0.917983  1
