# generated using pymatgen
data_Nd2ErRuI3
_symmetry_space_group_name_H-M   'P 1'
_cell_length_a   4.31680900
_cell_length_b   9.03722387
_cell_length_c   12.52422459
_cell_angle_alpha   85.49866913
_cell_angle_beta   90.00000000
_cell_angle_gamma   90.00000000
_symmetry_Int_Tables_number   1
_chemical_formula_structural   Nd2ErRuI3
_chemical_formula_sum   'Nd4 Er2 Ru2 I6'
_cell_volume   487.08760083
_cell_formula_units_Z   2
loop_
 _symmetry_equiv_pos_site_id
 _symmetry_equiv_pos_as_xyz
  1  'x, y, z'
loop_
 _atom_site_type_symbol
 _atom_site_label
 _atom_site_symmetry_multiplicity
 _atom_site_fract_x
 _atom_site_fract_y
 _atom_site_fract_z
 _atom_site_occupancy
  Nd  Nd0  1  0.750000  0.095246  0.680874  1
  Nd  Nd1  1  0.250000  0.904754  0.319126  1
  Nd  Nd2  1  0.250000  0.270956  0.900127  1
  Nd  Nd3  1  0.750000  0.729044  0.099873  1
  Er  Er4  1  0.750000  0.121300  0.120742  1
  Er  Er5  1  0.250000  0.878700  0.879258  1
  Ru  Ru6  1  0.750000  0.054133  0.907334  1
  Ru  Ru7  1  0.250000  0.945867  0.092666  1
  I  I8  1  0.250000  0.354710  0.637183  1
  I  I9  1  0.750000  0.645290  0.362817  1
  I  I10  1  0.750000  0.150719  0.387489  1
  I  I11  1  0.250000  0.849281  0.612511  1
  I  I12  1  0.250000  0.418841  0.136157  1
  I  I13  1  0.750000  0.581159  0.863843  1
