# generated using pymatgen
data_Dy5Y11(NiAg)4
_symmetry_space_group_name_H-M   'P 1'
_cell_length_a   9.47649576
_cell_length_b   9.50590930
_cell_length_c   9.50590820
_cell_angle_alpha   60.13901372
_cell_angle_beta   60.10230313
_cell_angle_gamma   60.10230123
_symmetry_Int_Tables_number   1
_chemical_formula_structural   Dy5Y11(NiAg)4
_chemical_formula_sum   'Dy5 Y11 Ni4 Ag4'
_cell_volume   607.07937447
_cell_formula_units_Z   1
loop_
 _symmetry_equiv_pos_site_id
 _symmetry_equiv_pos_as_xyz
  1  'x, y, z'
loop_
 _atom_site_type_symbol
 _atom_site_label
 _atom_site_symmetry_multiplicity
 _atom_site_fract_x
 _atom_site_fract_y
 _atom_site_fract_z
 _atom_site_occupancy
  Dy  Dy0  1  0.598026  0.600149  0.600149  1
  Dy  Dy1  1  0.600104  0.602349  0.197442  1
  Dy  Dy2  1  0.600104  0.197442  0.602349  1
  Dy  Dy3  1  0.201675  0.600149  0.600149  1
  Dy  Dy4  1  0.060812  0.439188  0.439188  1
  Y  Y5  1  0.438870  0.061130  0.061130  1
  Y  Y6  1  0.439389  0.061122  0.438502  1
  Y  Y7  1  0.060987  0.438502  0.061122  1
  Y  Y8  1  0.439389  0.438502  0.061122  1
  Y  Y9  1  0.060987  0.061122  0.438502  1
  Y  Y10  1  0.185747  0.814253  0.814253  1
  Y  Y11  1  0.814041  0.185959  0.185959  1
  Y  Y12  1  0.814032  0.185640  0.813929  1
  Y  Y13  1  0.186398  0.813929  0.185640  1
  Y  Y14  1  0.814032  0.813929  0.185640  1
  Y  Y15  1  0.186398  0.185640  0.813929  1
  Ni  Ni16  1  0.393669  0.393968  0.393968  1
  Ni  Ni17  1  0.393716  0.393100  0.819469  1
  Ni  Ni18  1  0.393716  0.819469  0.393100  1
  Ni  Ni19  1  0.818395  0.393968  0.393968  1
  Ag  Ag20  1  0.831723  0.831464  0.831464  1
  Ag  Ag21  1  0.831219  0.830931  0.506630  1
  Ag  Ag22  1  0.831219  0.506630  0.830931  1
  Ag  Ag23  1  0.505348  0.831464  0.831464  1
