# generated using pymatgen
data_KRb7Fe8P8(O7F2)4
_symmetry_space_group_name_H-M   'P 1'
_cell_length_a   6.94419900
_cell_length_b   10.57902200
_cell_length_c   11.41415900
_cell_angle_alpha   90.00000000
_cell_angle_beta   90.00000000
_cell_angle_gamma   90.00000000
_symmetry_Int_Tables_number   1
_chemical_formula_structural   KRb7Fe8P8(O7F2)4
_chemical_formula_sum   'K1 Rb7 Fe8 P8 O28 F8'
_cell_volume   838.51646779
_cell_formula_units_Z   1
loop_
 _symmetry_equiv_pos_site_id
 _symmetry_equiv_pos_as_xyz
  1  'x, y, z'
loop_
 _atom_site_type_symbol
 _atom_site_label
 _atom_site_symmetry_multiplicity
 _atom_site_fract_x
 _atom_site_fract_y
 _atom_site_fract_z
 _atom_site_occupancy
  K  K0  1  0.501302  0.565951  0.173228  1
  Rb  Rb1  1  0.498469  0.068417  0.829933  1
  Rb  Rb2  1  0.001511  0.568652  0.670365  1
  Rb  Rb3  1  0.998685  0.930923  0.670124  1
  Rb  Rb4  1  0.501598  0.431801  0.830262  1
  Rb  Rb5  1  0.501747  0.931021  0.170185  1
  Rb  Rb6  1  0.997583  0.432253  0.328909  1
  Rb  Rb7  1  0.001778  0.068339  0.329666  1
  Fe  Fe8  1  0.000072  0.250261  0.836606  1
  Fe  Fe9  1  0.500145  0.749785  0.663628  1
  Fe  Fe10  1  0.001024  0.748900  0.163310  1
  Fe  Fe11  1  0.500024  0.251059  0.336321  1
  Fe  Fe12  1  0.999861  0.000044  0.000371  1
  Fe  Fe13  1  0.499913  0.500153  0.499356  1
  Fe  Fe14  1  0.499910  0.999953  0.499743  1
  Fe  Fe15  1  0.000695  0.500136  0.001050  1
  P  P16  1  0.218190  0.248066  0.579749  1
  P  P17  1  0.282233  0.747299  0.920845  1
  P  P18  1  0.717429  0.750826  0.921721  1
  P  P19  1  0.781979  0.252100  0.579407  1
  P  P20  1  0.780729  0.751274  0.419119  1
  P  P21  1  0.717288  0.253230  0.080024  1
  P  P22  1  0.281700  0.248572  0.079905  1
  P  P23  1  0.218040  0.747901  0.419445  1
  O  O24  1  0.000174  0.250155  0.523292  1
  O  O25  1  0.499577  0.746587  0.978828  1
  O  O26  1  0.999268  0.748792  0.474912  1
  O  O27  1  0.499571  0.249577  0.023270  1
  O  O28  1  0.173579  0.329280  0.988736  1
  O  O29  1  0.324874  0.828823  0.511064  1
  O  O30  1  0.673697  0.670883  0.510965  1
  O  O31  1  0.826608  0.172684  0.989271  1
  O  O32  1  0.826155  0.670189  0.012797  1
  O  O33  1  0.674177  0.171096  0.488367  1
  O  O34  1  0.326148  0.328936  0.488646  1
  O  O35  1  0.174163  0.828852  0.011340  1
  O  O36  1  0.280968  0.109472  0.581709  1
  O  O37  1  0.217338  0.609251  0.917480  1
  O  O38  1  0.779272  0.889671  0.919816  1
  O  O39  1  0.718989  0.390685  0.580531  1
  O  O40  1  0.718608  0.889977  0.417615  1
  O  O41  1  0.777385  0.392551  0.082196  1
  O  O42  1  0.218236  0.110126  0.082290  1
  O  O43  1  0.281790  0.609529  0.417233  1
  O  O44  1  0.205029  0.306984  0.701507  1
  O  O45  1  0.297590  0.807000  0.799440  1
  O  O46  1  0.704552  0.692504  0.799671  1
  O  O47  1  0.794809  0.193526  0.701313  1
  O  O48  1  0.791464  0.692082  0.297124  1
  O  O49  1  0.705056  0.194137  0.201735  1
  O  O50  1  0.295673  0.308439  0.201186  1
  O  O51  1  0.205036  0.807359  0.297935  1
  F  F52  1  0.110260  0.076536  0.846083  1
  F  F53  1  0.389220  0.576550  0.653888  1
  F  F54  1  0.610802  0.923177  0.653923  1
  F  F55  1  0.889425  0.423618  0.846407  1
  F  F56  1  0.889760  0.922539  0.154322  1
  F  F57  1  0.606481  0.426412  0.342428  1
  F  F58  1  0.389682  0.077468  0.345724  1
  F  F59  1  0.122677  0.577639  0.153684  1
