# generated using pymatgen
data_Er2Fe2Si2B
_symmetry_space_group_name_H-M   'P 1'
_cell_length_a   5.68514605
_cell_length_b   5.68514430
_cell_length_c   6.76705753
_cell_angle_alpha   52.33270179
_cell_angle_beta   52.33271656
_cell_angle_gamma   41.26317710
_symmetry_Int_Tables_number   1
_chemical_formula_structural   Er2Fe2Si2B
_chemical_formula_sum   'Er2 Fe2 Si2 B1'
_cell_volume   109.25340322
_cell_formula_units_Z   1
loop_
 _symmetry_equiv_pos_site_id
 _symmetry_equiv_pos_as_xyz
  1  'x, y, z'
loop_
 _atom_site_type_symbol
 _atom_site_label
 _atom_site_symmetry_multiplicity
 _atom_site_fract_x
 _atom_site_fract_y
 _atom_site_fract_z
 _atom_site_occupancy
  Er  Er0  1  0.439392  0.439392  0.299967  1
  Er  Er1  1  0.560608  0.560608  0.700033  1
  Fe  Fe2  1  0.790019  0.790019  0.101887  1
  Fe  Fe3  1  0.209981  0.209981  0.898113  1
  Si  Si4  1  0.836036  0.836036  0.721496  1
  Si  Si5  1  0.163964  0.163964  0.278504  1
  B  B6  1  0.000000  0.000000  0.000000  1
