# generated using pymatgen
data_PmZnCu4
_symmetry_space_group_name_H-M   'P 1'
_cell_length_a   5.15249016
_cell_length_b   5.15248982
_cell_length_c   4.13015800
_cell_angle_alpha   90.00000000
_cell_angle_beta   90.00000000
_cell_angle_gamma   60.56152396
_symmetry_Int_Tables_number   1
_chemical_formula_structural   PmZnCu4
_chemical_formula_sum   'Pm1 Zn1 Cu4'
_cell_volume   95.49074230
_cell_formula_units_Z   1
loop_
 _symmetry_equiv_pos_site_id
 _symmetry_equiv_pos_as_xyz
  1  'x, y, z'
loop_
 _atom_site_type_symbol
 _atom_site_label
 _atom_site_symmetry_multiplicity
 _atom_site_fract_x
 _atom_site_fract_y
 _atom_site_fract_z
 _atom_site_occupancy
  Pm  Pm0  1  0.999925  0.000075  0.000000  1
  Zn  Zn1  1  0.499646  0.500353  0.499999  1
  Cu  Cu2  1  0.331313  0.331324  0.000000  1
  Cu  Cu3  1  0.668676  0.668687  0.000000  1
  Cu  Cu4  1  0.500415  0.999980  0.499999  1
  Cu  Cu5  1  0.000020  0.499584  0.499999  1
