# generated using pymatgen
data_LaEu3Si10NiPt5
_symmetry_space_group_name_H-M   'P 1'
_cell_length_a   8.30126561
_cell_length_b   8.31046245
_cell_length_c   8.31369927
_cell_angle_alpha   137.68772842
_cell_angle_beta   105.05293506
_cell_angle_gamma   90.05143153
_symmetry_Int_Tables_number   1
_chemical_formula_structural   LaEu3Si10NiPt5
_chemical_formula_sum   'La1 Eu3 Si10 Ni1 Pt5'
_cell_volume   356.04025077
_cell_formula_units_Z   1
loop_
 _symmetry_equiv_pos_site_id
 _symmetry_equiv_pos_as_xyz
  1  'x, y, z'
loop_
 _atom_site_type_symbol
 _atom_site_label
 _atom_site_symmetry_multiplicity
 _atom_site_fract_x
 _atom_site_fract_y
 _atom_site_fract_z
 _atom_site_occupancy
  La  La0  1  0.105425  0.873270  0.237166  1
  Eu  Eu1  1  0.893913  0.131224  0.767503  1
  Eu  Eu2  1  0.636460  0.368355  0.263334  1
  Eu  Eu3  1  0.363883  0.627513  0.731969  1
  Si  Si4  1  0.999962  0.749552  0.748004  1
  Si  Si5  1  0.999785  0.251949  0.250341  1
  Si  Si6  1  0.273977  0.023237  0.751741  1
  Si  Si7  1  0.725633  0.476031  0.749184  1
  Si  Si8  1  0.726506  0.976762  0.249366  1
  Si  Si9  1  0.273395  0.521901  0.250655  1
  Si  Si10  1  0.752441  0.618704  0.158094  1
  Si  Si11  1  0.247374  0.404337  0.866000  1
  Si  Si12  1  0.463230  0.097650  0.341658  1
  Si  Si13  1  0.539113  0.880459  0.635617  1
  Ni  Ni14  1  0.498495  0.749777  0.250711  1
  Pt  Pt15  1  0.499622  0.248504  0.747864  1
  Pt  Pt16  1  0.023245  0.637695  0.388433  1
  Pt  Pt17  1  0.976366  0.364935  0.614057  1
  Pt  Pt18  1  0.249182  0.135353  0.111684  1
  Pt  Pt19  1  0.751995  0.862792  0.886620  1
