# generated using pymatgen
data_Ti7Nb5B12(Os3Ru)3
_symmetry_space_group_name_H-M   'P 1'
_cell_length_a   3.09452700
_cell_length_b   8.97914824
_cell_length_c   15.52802127
_cell_angle_alpha   89.97616635
_cell_angle_beta   90.00000000
_cell_angle_gamma   90.00000000
_symmetry_Int_Tables_number   1
_chemical_formula_structural   Ti7Nb5B12(Os3Ru)3
_chemical_formula_sum   'Ti7 Nb5 B12 Os9 Ru3'
_cell_volume   431.46492591
_cell_formula_units_Z   1
loop_
 _symmetry_equiv_pos_site_id
 _symmetry_equiv_pos_as_xyz
  1  'x, y, z'
loop_
 _atom_site_type_symbol
 _atom_site_label
 _atom_site_symmetry_multiplicity
 _atom_site_fract_x
 _atom_site_fract_y
 _atom_site_fract_z
 _atom_site_occupancy
  Ti  Ti0  1  0.000000  0.799984  0.495197  1
  Ti  Ti1  1  0.000000  0.199927  0.505878  1
  Ti  Ti2  1  0.000000  0.301695  0.005464  1
  Ti  Ti3  1  0.000000  0.697404  0.993679  1
  Ti  Ti4  1  0.000000  0.513391  0.594860  1
  Ti  Ti5  1  0.000000  0.486120  0.405709  1
  Ti  Ti6  1  0.000000  0.015456  0.904132  1
  Nb  Nb7  1  0.000000  0.983906  0.093253  1
  Nb  Nb8  1  0.000000  0.685563  0.205723  1
  Nb  Nb9  1  0.000000  0.315041  0.794924  1
  Nb  Nb10  1  0.000000  0.186398  0.297045  1
  Nb  Nb11  1  0.000000  0.814561  0.703703  1
  B  B12  1  0.500000  0.602530  0.496388  1
  B  B13  1  0.500000  0.397243  0.503780  1
  B  B14  1  0.500000  0.105395  0.001409  1
  B  B15  1  0.500000  0.894281  0.993372  1
  B  B16  1  0.000000  0.609919  0.834017  1
  B  B17  1  0.000000  0.393626  0.166306  1
  B  B18  1  0.000000  0.109784  0.665087  1
  B  B19  1  0.000000  0.889473  0.337352  1
  B  B20  1  0.500000  0.711041  0.597885  1
  B  B21  1  0.500000  0.288783  0.402684  1
  B  B22  1  0.500000  0.212571  0.901631  1
  B  B23  1  0.500000  0.782938  0.096946  1
  Os  Os24  1  0.500000  0.783358  0.859112  1
  Os  Os25  1  0.500000  0.520068  0.093490  1
  Os  Os26  1  0.500000  0.479295  0.906602  1
  Os  Os27  1  0.500000  0.020146  0.407564  1
  Os  Os28  1  0.500000  0.979981  0.593140  1
  Os  Os29  1  0.500000  0.565398  0.731452  1
  Os  Os30  1  0.500000  0.434645  0.268430  1
  Os  Os31  1  0.500000  0.066775  0.767556  1
  Os  Os32  1  0.500000  0.933947  0.234616  1
  Ru  Ru33  1  0.500000  0.716827  0.360254  1
  Ru  Ru34  1  0.500000  0.282776  0.639943  1
  Ru  Ru35  1  0.500000  0.219753  0.141418  1
