# generated using pymatgen
data_Na8Zn(Sn4Au)3
_symmetry_space_group_name_H-M   'P 1'
_cell_length_a   9.89282800
_cell_length_b   9.89282769
_cell_length_c   7.53272800
_cell_angle_alpha   90.00000000
_cell_angle_beta   90.00000000
_cell_angle_gamma   120.00000105
_symmetry_Int_Tables_number   1
_chemical_formula_structural   Na8Zn(Sn4Au)3
_chemical_formula_sum   'Na8 Zn1 Sn12 Au3'
_cell_volume   638.44547865
_cell_formula_units_Z   1
loop_
 _symmetry_equiv_pos_site_id
 _symmetry_equiv_pos_as_xyz
  1  'x, y, z'
loop_
 _atom_site_type_symbol
 _atom_site_label
 _atom_site_symmetry_multiplicity
 _atom_site_fract_x
 _atom_site_fract_y
 _atom_site_fract_z
 _atom_site_occupancy
  Na  Na0  1  0.534301  0.068602  0.250884  1
  Na  Na1  1  0.059418  0.529710  0.752264  1
  Na  Na2  1  0.470290  0.529710  0.752264  1
  Na  Na3  1  0.534301  0.465699  0.250884  1
  Na  Na4  1  0.470290  0.940582  0.752264  1
  Na  Na5  1  0.931398  0.465699  0.250884  1
  Na  Na6  1  0.000000  0.000000  0.748760  1
  Na  Na7  1  0.000000  0.000000  0.252996  1
  Zn  Zn8  1  0.333333  0.666667  0.415450  1
  Sn  Sn9  1  0.173172  0.826828  0.056409  1
  Sn  Sn10  1  0.829260  0.658520  0.550912  1
  Sn  Sn11  1  0.341480  0.170740  0.550912  1
  Sn  Sn12  1  0.829594  0.170406  0.948277  1
  Sn  Sn13  1  0.829594  0.659187  0.948277  1
  Sn  Sn14  1  0.829260  0.170740  0.550912  1
  Sn  Sn15  1  0.340813  0.170406  0.948277  1
  Sn  Sn16  1  0.653656  0.826828  0.056409  1
  Sn  Sn17  1  0.651409  0.825704  0.450876  1
  Sn  Sn18  1  0.174296  0.348591  0.450876  1
  Sn  Sn19  1  0.174296  0.825704  0.450876  1
  Sn  Sn20  1  0.173172  0.346344  0.056409  1
  Au  Au21  1  0.666667  0.333333  0.551479  1
  Au  Au22  1  0.666667  0.333333  0.950708  1
  Au  Au23  1  0.333333  0.666667  0.051742  1
