# generated using pymatgen
data_Rb3Ca(USe3)2
_symmetry_space_group_name_H-M   'P 1'
_cell_length_a   7.45287906
_cell_length_b   7.45275295
_cell_length_c   8.34724885
_cell_angle_alpha   81.45138077
_cell_angle_beta   81.44891380
_cell_angle_gamma   119.99688306
_symmetry_Int_Tables_number   1
_chemical_formula_structural   Rb3Ca(USe3)2
_chemical_formula_sum   'Rb3 Ca1 U2 Se6'
_cell_volume   383.38045317
_cell_formula_units_Z   1
loop_
 _symmetry_equiv_pos_site_id
 _symmetry_equiv_pos_as_xyz
  1  'x, y, z'
loop_
 _atom_site_type_symbol
 _atom_site_label
 _atom_site_symmetry_multiplicity
 _atom_site_fract_x
 _atom_site_fract_y
 _atom_site_fract_z
 _atom_site_occupancy
  Rb  Rb0  1  0.661529  0.338470  0.500000  1
  Rb  Rb1  1  0.338471  0.661530  0.500000  1
  Rb  Rb2  1  0.000000  0.000000  0.500000  1
  Ca  Ca3  1  0.500000  0.500000  0.000000  1
  U  U4  1  0.832631  0.167369  0.999996  1
  U  U5  1  0.167369  0.832631  0.000004  1
  Se  Se6  1  0.779027  0.779023  0.195152  1
  Se  Se7  1  0.220973  0.220977  0.804848  1
  Se  Se8  1  0.433685  0.089259  0.197997  1
  Se  Se9  1  0.566315  0.910741  0.802003  1
  Se  Se10  1  0.910761  0.566313  0.802009  1
  Se  Se11  1  0.089239  0.433687  0.197991  1
