# generated using pymatgen
data_Tb2SmEr3(Si3Ru)8
_symmetry_space_group_name_H-M   'P 1'
_cell_length_a   10.12225843
_cell_length_b   10.12225821
_cell_length_c   8.14446524
_cell_angle_alpha   90.12136624
_cell_angle_beta   89.87863534
_cell_angle_gamma   132.55366463
_symmetry_Int_Tables_number   1
_chemical_formula_structural   Tb2SmEr3(Si3Ru)8
_chemical_formula_sum   'Tb2 Sm1 Er3 Si24 Ru8'
_cell_volume   614.71532572
_cell_formula_units_Z   1
loop_
 _symmetry_equiv_pos_site_id
 _symmetry_equiv_pos_as_xyz
  1  'x, y, z'
loop_
 _atom_site_type_symbol
 _atom_site_label
 _atom_site_symmetry_multiplicity
 _atom_site_fract_x
 _atom_site_fract_y
 _atom_site_fract_z
 _atom_site_occupancy
  Tb  Tb0  1  0.497716  0.997716  0.250000  1
  Tb  Tb1  1  0.002328  0.502328  0.750000  1
  Sm  Sm2  1  0.502992  0.002992  0.750000  1
  Er  Er3  1  0.997654  0.497654  0.250000  1
  Er  Er4  1  0.500014  0.500010  0.499845  1
  Er  Er5  1  0.000010  0.000014  0.000155  1
  Si  Si6  1  0.387652  0.153802  0.005043  1
  Si  Si7  1  0.653802  0.887652  0.494957  1
  Si  Si8  1  0.111321  0.343510  0.503495  1
  Si  Si9  1  0.843510  0.611321  0.996505  1
  Si  Si10  1  0.612516  0.846207  0.995632  1
  Si  Si11  1  0.346207  0.112516  0.504368  1
  Si  Si12  1  0.888583  0.656009  0.494693  1
  Si  Si13  1  0.156009  0.388583  0.005307  1
  Si  Si14  1  0.612448  0.378878  0.227602  1
  Si  Si15  1  0.878878  0.112448  0.272398  1
  Si  Si16  1  0.886479  0.120493  0.728857  1
  Si  Si17  1  0.620493  0.386479  0.771143  1
  Si  Si18  1  0.387865  0.621955  0.771693  1
  Si  Si19  1  0.121955  0.887865  0.728307  1
  Si  Si20  1  0.706560  0.295553  0.001312  1
  Si  Si21  1  0.795553  0.206560  0.498688  1
  Si  Si22  1  0.293568  0.704690  0.001474  1
  Si  Si23  1  0.204690  0.793568  0.498526  1
  Si  Si24  1  0.168251  0.167964  0.332922  1
  Si  Si25  1  0.667964  0.668251  0.167078  1
  Si  Si26  1  0.331986  0.331892  0.832679  1
  Si  Si27  1  0.831892  0.831986  0.667321  1
  Si  Si28  1  0.379161  0.612771  0.228288  1
  Si  Si29  1  0.112771  0.879161  0.271712  1
  Ru  Ru30  1  0.625623  0.625642  0.872878  1
  Ru  Ru31  1  0.125642  0.125623  0.627122  1
  Ru  Ru32  1  0.873894  0.874302  0.373263  1
  Ru  Ru33  1  0.374302  0.373894  0.126737  1
  Ru  Ru34  1  0.328326  0.665150  0.499013  1
  Ru  Ru35  1  0.165150  0.828326  0.000987  1
  Ru  Ru36  1  0.671506  0.334724  0.497630  1
  Ru  Ru37  1  0.834724  0.171506  0.002370  1
