# generated using pymatgen
data_V3Fe9Si4
_symmetry_space_group_name_H-M   'P 1'
_cell_length_a   5.61409400
_cell_length_b   5.61409400
_cell_length_c   5.61409400
_cell_angle_alpha   90.00000000
_cell_angle_beta   90.00000000
_cell_angle_gamma   90.00000000
_symmetry_Int_Tables_number   1
_chemical_formula_structural   V3Fe9Si4
_chemical_formula_sum   'V3 Fe9 Si4'
_cell_volume   176.94530349
_cell_formula_units_Z   1
loop_
 _symmetry_equiv_pos_site_id
 _symmetry_equiv_pos_as_xyz
  1  'x, y, z'
loop_
 _atom_site_type_symbol
 _atom_site_label
 _atom_site_symmetry_multiplicity
 _atom_site_fract_x
 _atom_site_fract_y
 _atom_site_fract_z
 _atom_site_occupancy
  V  V0  1  0.000000  0.500000  0.500000  1
  V  V1  1  0.500000  0.500000  0.000000  1
  V  V2  1  0.500000  0.000000  0.500000  1
  Fe  Fe3  1  0.749380  0.749380  0.250620  1
  Fe  Fe4  1  0.749380  0.749380  0.749380  1
  Fe  Fe5  1  0.749380  0.250620  0.250620  1
  Fe  Fe6  1  0.250620  0.250620  0.749380  1
  Fe  Fe7  1  0.250620  0.749380  0.749380  1
  Fe  Fe8  1  0.000000  0.000000  0.000000  1
  Fe  Fe9  1  0.250620  0.749380  0.250620  1
  Fe  Fe10  1  0.749380  0.250620  0.749380  1
  Fe  Fe11  1  0.250620  0.250620  0.250620  1
  Si  Si12  1  0.000000  0.500000  0.000000  1
  Si  Si13  1  0.500000  0.000000  0.000000  1
  Si  Si14  1  0.000000  0.000000  0.500000  1
  Si  Si15  1  0.500000  0.500000  0.500000  1
