# generated using pymatgen
data_Ta8VTc3B8
_symmetry_space_group_name_H-M   'P 1'
_cell_length_a   6.03063900
_cell_length_b   6.03063900
_cell_length_c   6.57304400
_cell_angle_alpha   90.00000000
_cell_angle_beta   90.00000000
_cell_angle_gamma   90.00000000
_symmetry_Int_Tables_number   1
_chemical_formula_structural   Ta8VTc3B8
_chemical_formula_sum   'Ta8 V1 Tc3 B8'
_cell_volume   239.05245238
_cell_formula_units_Z   1
loop_
 _symmetry_equiv_pos_site_id
 _symmetry_equiv_pos_as_xyz
  1  'x, y, z'
loop_
 _atom_site_type_symbol
 _atom_site_label
 _atom_site_symmetry_multiplicity
 _atom_site_fract_x
 _atom_site_fract_y
 _atom_site_fract_z
 _atom_site_occupancy
  Ta  Ta0  1  0.678920  0.824425  0.497672  1
  Ta  Ta1  1  0.321080  0.175575  0.497672  1
  Ta  Ta2  1  0.824502  0.321071  0.002334  1
  Ta  Ta3  1  0.175498  0.678929  0.002334  1
  Ta  Ta4  1  0.824425  0.321080  0.497672  1
  Ta  Ta5  1  0.175575  0.678920  0.497672  1
  Ta  Ta6  1  0.321071  0.175498  0.002334  1
  Ta  Ta7  1  0.678929  0.824502  0.002334  1
  V  V8  1  0.000000  0.000000  0.250098  1
  Tc  Tc9  1  0.500000  0.500000  0.249776  1
  Tc  Tc10  1  0.000000  0.000000  0.749901  1
  Tc  Tc11  1  0.500000  0.500000  0.750253  1
  B  B12  1  0.387589  0.889860  0.250021  1
  B  B13  1  0.612411  0.110140  0.250021  1
  B  B14  1  0.110404  0.389620  0.749967  1
  B  B15  1  0.889596  0.610380  0.749967  1
  B  B16  1  0.889860  0.612411  0.250021  1
  B  B17  1  0.110140  0.387589  0.250021  1
  B  B18  1  0.389620  0.889596  0.749967  1
  B  B19  1  0.610380  0.110404  0.749967  1
