# generated using pymatgen
data_PrNd15(ZrIr3)4
_symmetry_space_group_name_H-M   'P 1'
_cell_length_a   11.19170153
_cell_length_b   11.19664232
_cell_length_c   6.38336418
_cell_angle_alpha   89.98958742
_cell_angle_beta   90.02478485
_cell_angle_gamma   89.97478298
_symmetry_Int_Tables_number   1
_chemical_formula_structural   PrNd15(ZrIr3)4
_chemical_formula_sum   'Pr1 Nd15 Zr4 Ir12'
_cell_volume   799.89587348
_cell_formula_units_Z   1
loop_
 _symmetry_equiv_pos_site_id
 _symmetry_equiv_pos_as_xyz
  1  'x, y, z'
loop_
 _atom_site_type_symbol
 _atom_site_label
 _atom_site_symmetry_multiplicity
 _atom_site_fract_x
 _atom_site_fract_y
 _atom_site_fract_z
 _atom_site_occupancy
  Pr  Pr0  1  0.087149  0.287457  0.121942  1
  Nd  Nd1  1  0.787529  0.413198  0.121557  1
  Nd  Nd2  1  0.212410  0.587066  0.121559  1
  Nd  Nd3  1  0.913153  0.712374  0.121549  1
  Nd  Nd4  1  0.413116  0.787652  0.378403  1
  Nd  Nd5  1  0.586849  0.212372  0.378341  1
  Nd  Nd6  1  0.287724  0.086802  0.378440  1
  Nd  Nd7  1  0.712331  0.913195  0.378401  1
  Nd  Nd8  1  0.413206  0.212279  0.878361  1
  Nd  Nd9  1  0.712364  0.086809  0.878413  1
  Nd  Nd10  1  0.287580  0.913133  0.878428  1
  Nd  Nd11  1  0.586862  0.787711  0.878442  1
  Nd  Nd12  1  0.086870  0.712303  0.621611  1
  Nd  Nd13  1  0.913024  0.287640  0.621686  1
  Nd  Nd14  1  0.212363  0.413177  0.621693  1
  Nd  Nd15  1  0.787752  0.586875  0.621620  1
  Zr  Zr16  1  0.999930  0.999777  0.999937  1
  Zr  Zr17  1  0.499991  0.500024  0.000019  1
  Zr  Zr18  1  0.499982  0.499993  0.499946  1
  Zr  Zr19  1  0.000005  0.999975  0.500017  1
  Ir  Ir20  1  0.138965  0.860959  0.249973  1
  Ir  Ir21  1  0.361245  0.361040  0.250100  1
  Ir  Ir22  1  0.638975  0.638974  0.250043  1
  Ir  Ir23  1  0.860757  0.138872  0.250175  1
  Ir  Ir24  1  0.361093  0.638962  0.749923  1
  Ir  Ir25  1  0.139082  0.138740  0.749549  1
  Ir  Ir26  1  0.860965  0.861100  0.749992  1
  Ir  Ir27  1  0.638983  0.361103  0.749955  1
  Ir  Ir28  1  0.999867  0.500194  0.379421  1
  Ir  Ir29  1  0.500032  0.999935  0.120701  1
  Ir  Ir30  1  0.500013  0.999998  0.620739  1
  Ir  Ir31  1  0.999833  0.500311  0.879065  1
