# generated using pymatgen
data_Ca6Al43Cr4
_symmetry_space_group_name_H-M   'P 1'
_cell_length_a   10.95753600
_cell_length_b   10.95753690
_cell_length_c   17.61768000
_cell_angle_alpha   90.00000000
_cell_angle_beta   90.00000000
_cell_angle_gamma   120.00000332
_symmetry_Int_Tables_number   1
_chemical_formula_structural   Ca6Al43Cr4
_chemical_formula_sum   'Ca12 Al86 Cr8'
_cell_volume   1831.91442537
_cell_formula_units_Z   2
loop_
 _symmetry_equiv_pos_site_id
 _symmetry_equiv_pos_as_xyz
  1  'x, y, z'
loop_
 _atom_site_type_symbol
 _atom_site_label
 _atom_site_symmetry_multiplicity
 _atom_site_fract_x
 _atom_site_fract_y
 _atom_site_fract_z
 _atom_site_occupancy
  Ca  Ca0  1  0.533070  0.000000  0.594503  1
  Ca  Ca1  1  0.466930  0.000000  0.405497  1
  Ca  Ca2  1  0.000000  0.533070  0.594503  1
  Ca  Ca3  1  0.466930  0.000000  0.094503  1
  Ca  Ca4  1  0.000000  0.533070  0.905497  1
  Ca  Ca5  1  0.000000  0.466930  0.405497  1
  Ca  Ca6  1  0.533070  0.000000  0.905497  1
  Ca  Ca7  1  0.000000  0.466930  0.094503  1
  Ca  Ca8  1  0.466930  0.466930  0.594503  1
  Ca  Ca9  1  0.533070  0.533070  0.405497  1
  Ca  Ca10  1  0.533070  0.533070  0.094503  1
  Ca  Ca11  1  0.466930  0.466930  0.905497  1
  Al  Al12  1  0.246883  0.493764  0.500000  1
  Al  Al13  1  0.753117  0.506236  0.500000  1
  Al  Al14  1  0.506236  0.753117  0.500000  1
  Al  Al15  1  0.753117  0.506236  0.000000  1
  Al  Al16  1  0.493764  0.246883  0.000000  1
  Al  Al17  1  0.493764  0.246883  0.500000  1
  Al  Al18  1  0.246883  0.493764  0.000000  1
  Al  Al19  1  0.506236  0.753117  0.000000  1
  Al  Al20  1  0.246883  0.753117  0.500000  1
  Al  Al21  1  0.753117  0.246883  0.500000  1
  Al  Al22  1  0.753117  0.246883  0.000000  1
  Al  Al23  1  0.246883  0.753117  0.000000  1
  Al  Al24  1  0.155019  0.000000  0.115770  1
  Al  Al25  1  0.844981  0.000000  0.884230  1
  Al  Al26  1  0.000000  0.155019  0.115770  1
  Al  Al27  1  0.844981  0.000000  0.615770  1
  Al  Al28  1  0.000000  0.155019  0.384230  1
  Al  Al29  1  0.000000  0.844981  0.884230  1
  Al  Al30  1  0.155019  0.000000  0.384230  1
  Al  Al31  1  0.000000  0.844981  0.615770  1
  Al  Al32  1  0.844981  0.844981  0.115770  1
  Al  Al33  1  0.155019  0.155019  0.884230  1
  Al  Al34  1  0.155019  0.155019  0.615770  1
  Al  Al35  1  0.844981  0.844981  0.384230  1
  Al  Al36  1  0.247874  0.000000  0.531051  1
  Al  Al37  1  0.752126  0.000000  0.468949  1
  Al  Al38  1  0.000000  0.247874  0.531051  1
  Al  Al39  1  0.752126  0.000000  0.031051  1
  Al  Al40  1  0.000000  0.247874  0.968949  1
  Al  Al41  1  0.000000  0.752126  0.468949  1
  Al  Al42  1  0.247874  0.000000  0.968949  1
  Al  Al43  1  0.000000  0.752126  0.031051  1
  Al  Al44  1  0.752126  0.752126  0.531051  1
  Al  Al45  1  0.247874  0.247874  0.468949  1
  Al  Al46  1  0.247874  0.247874  0.031051  1
  Al  Al47  1  0.752126  0.752126  0.968949  1
  Al  Al48  1  0.145561  0.600749  0.750000  1
  Al  Al49  1  0.854439  0.399251  0.250000  1
  Al  Al50  1  0.399251  0.544812  0.750000  1
  Al  Al51  1  0.600749  0.145561  0.750000  1
  Al  Al52  1  0.600749  0.455188  0.250000  1
  Al  Al53  1  0.399251  0.854439  0.250000  1
  Al  Al54  1  0.455188  0.854439  0.750000  1
  Al  Al55  1  0.544812  0.399251  0.750000  1
  Al  Al56  1  0.544812  0.145561  0.250000  1
  Al  Al57  1  0.455188  0.600749  0.250000  1
  Al  Al58  1  0.854439  0.455188  0.750000  1
  Al  Al59  1  0.145561  0.544812  0.250000  1
  Al  Al60  1  0.333333  0.666667  0.627493  1
  Al  Al61  1  0.666667  0.333333  0.372507  1
  Al  Al62  1  0.666667  0.333333  0.127493  1
  Al  Al63  1  0.666667  0.333333  0.872507  1
  Al  Al64  1  0.333333  0.666667  0.872507  1
  Al  Al65  1  0.333333  0.666667  0.127493  1
  Al  Al66  1  0.333333  0.666667  0.372507  1
  Al  Al67  1  0.666667  0.333333  0.627493  1
  Al  Al68  1  0.156615  0.389634  0.666203  1
  Al  Al69  1  0.843385  0.610366  0.333797  1
  Al  Al70  1  0.610366  0.766981  0.666203  1
  Al  Al71  1  0.843385  0.610366  0.166203  1
  Al  Al72  1  0.389634  0.156615  0.833797  1
  Al  Al73  1  0.389634  0.233019  0.333797  1
  Al  Al74  1  0.156615  0.389634  0.833797  1
  Al  Al75  1  0.610366  0.843385  0.166203  1
  Al  Al76  1  0.233019  0.843385  0.666203  1
  Al  Al77  1  0.389634  0.233019  0.166203  1
  Al  Al78  1  0.766981  0.610366  0.833797  1
  Al  Al79  1  0.766981  0.156615  0.333797  1
  Al  Al80  1  0.610366  0.766981  0.833797  1
  Al  Al81  1  0.233019  0.389634  0.166203  1
  Al  Al82  1  0.610366  0.843385  0.333797  1
  Al  Al83  1  0.389634  0.156615  0.666203  1
  Al  Al84  1  0.766981  0.156615  0.166203  1
  Al  Al85  1  0.233019  0.389634  0.333797  1
  Al  Al86  1  0.233019  0.843385  0.833797  1
  Al  Al87  1  0.766981  0.610366  0.666203  1
  Al  Al88  1  0.843385  0.233019  0.833797  1
  Al  Al89  1  0.156615  0.766981  0.166203  1
  Al  Al90  1  0.156615  0.766981  0.333797  1
  Al  Al91  1  0.843385  0.233019  0.666203  1
  Al  Al92  1  0.145419  0.000000  0.750000  1
  Al  Al93  1  0.854581  0.000000  0.250000  1
  Al  Al94  1  0.000000  0.145419  0.750000  1
  Al  Al95  1  0.000000  0.854581  0.250000  1
  Al  Al96  1  0.854581  0.854581  0.750000  1
  Al  Al97  1  0.145419  0.145419  0.250000  1
  Cr  Cr98  1  0.000000  0.000000  0.500000  1
  Cr  Cr99  1  0.000000  0.000000  0.000000  1
  Cr  Cr100  1  0.733128  0.000000  0.750000  1
  Cr  Cr101  1  0.266872  0.000000  0.250000  1
  Cr  Cr102  1  0.000000  0.733128  0.750000  1
  Cr  Cr103  1  0.000000  0.266872  0.250000  1
  Cr  Cr104  1  0.266872  0.266872  0.750000  1
  Cr  Cr105  1  0.733128  0.733128  0.250000  1
