# generated using pymatgen
data_Dy4TmPaGa10
_symmetry_space_group_name_H-M   'P 1'
_cell_length_a   6.12315937
_cell_length_b   9.62539708
_cell_length_c   11.49118100
_cell_angle_alpha   90.00000000
_cell_angle_beta   90.00000000
_cell_angle_gamma   90.05765654
_symmetry_Int_Tables_number   1
_chemical_formula_structural   Dy4TmPaGa10
_chemical_formula_sum   'Dy8 Tm2 Pa2 Ga20'
_cell_volume   677.26504837
_cell_formula_units_Z   2
loop_
 _symmetry_equiv_pos_site_id
 _symmetry_equiv_pos_as_xyz
  1  'x, y, z'
loop_
 _atom_site_type_symbol
 _atom_site_label
 _atom_site_symmetry_multiplicity
 _atom_site_fract_x
 _atom_site_fract_y
 _atom_site_fract_z
 _atom_site_occupancy
  Dy  Dy0  1  0.146635  0.248077  0.925225  1
  Dy  Dy1  1  0.353365  0.251923  0.425225  1
  Dy  Dy2  1  0.111989  0.008909  0.648682  1
  Dy  Dy3  1  0.388011  0.491091  0.148682  1
  Dy  Dy4  1  0.111688  0.490119  0.648715  1
  Dy  Dy5  1  0.388312  0.009881  0.148715  1
  Dy  Dy6  1  0.888557  0.990509  0.351471  1
  Dy  Dy7  1  0.611443  0.509491  0.851471  1
  Tm  Tm8  1  0.851862  0.749309  0.074539  1
  Tm  Tm9  1  0.648138  0.750691  0.574539  1
  Pa  Pa10  1  0.886377  0.511159  0.353777  1
  Pa  Pa11  1  0.613623  0.988841  0.853777  1
  Ga  Ga12  1  0.871226  0.053188  0.090221  1
  Ga  Ga13  1  0.628774  0.446812  0.590221  1
  Ga  Ga14  1  0.127923  0.552227  0.907733  1
  Ga  Ga15  1  0.372077  0.947773  0.407733  1
  Ga  Ga16  1  0.124608  0.946375  0.908851  1
  Ga  Ga17  1  0.375392  0.553625  0.408851  1
  Ga  Ga18  1  0.871853  0.446991  0.091390  1
  Ga  Ga19  1  0.628147  0.053009  0.591390  1
  Ga  Ga20  1  0.171708  0.749709  0.254908  1
  Ga  Ga21  1  0.328292  0.750291  0.754908  1
  Ga  Ga22  1  0.824901  0.248846  0.745911  1
  Ga  Ga23  1  0.675099  0.251154  0.245911  1
  Ga  Ga24  1  0.376672  0.751006  0.002192  1
  Ga  Ga25  1  0.123328  0.748994  0.502192  1
  Ga  Ga26  1  0.624452  0.248759  0.994693  1
  Ga  Ga27  1  0.875548  0.251241  0.494693  1
  Ga  Ga28  1  0.602728  0.750023  0.299545  1
  Ga  Ga29  1  0.897272  0.749977  0.799545  1
  Ga  Ga30  1  0.401269  0.247607  0.702147  1
  Ga  Ga31  1  0.098731  0.252393  0.202147  1
