# generated using pymatgen
data_K(HfSe2)2
_symmetry_space_group_name_H-M   'P 1'
_cell_length_a   3.80634100
_cell_length_b   8.43542616
_cell_length_c   6.49098200
_cell_angle_alpha   76.63563704
_cell_angle_beta   90.00000000
_cell_angle_gamma   90.00000679
_symmetry_Int_Tables_number   1
_chemical_formula_structural   K(HfSe2)2
_chemical_formula_sum   'K1 Hf2 Se4'
_cell_volume   202.76929093
_cell_formula_units_Z   1
loop_
 _symmetry_equiv_pos_site_id
 _symmetry_equiv_pos_as_xyz
  1  'x, y, z'
loop_
 _atom_site_type_symbol
 _atom_site_label
 _atom_site_symmetry_multiplicity
 _atom_site_fract_x
 _atom_site_fract_y
 _atom_site_fract_z
 _atom_site_occupancy
  K  K0  1  0.500000  0.495294  0.658263  1
  Hf  Hf1  1  0.000000  0.999555  0.002282  1
  Hf  Hf2  1  0.500000  0.998896  0.501460  1
  Se  Se3  1  0.000000  0.803416  0.393946  1
  Se  Se4  1  0.500000  0.806267  0.895578  1
  Se  Se5  1  0.000000  0.193479  0.607291  1
  Se  Se6  1  0.500000  0.193093  0.111179  1
