# generated using pymatgen
data_Nd8As14Ir3Rh13
_symmetry_space_group_name_H-M   'P 1'
_cell_length_a   4.12132400
_cell_length_b   13.24848661
_cell_length_c   13.62521023
_cell_angle_alpha   81.44003187
_cell_angle_beta   90.00000000
_cell_angle_gamma   90.00000000
_symmetry_Int_Tables_number   1
_chemical_formula_structural   Nd8As14Ir3Rh13
_chemical_formula_sum   'Nd8 As14 Ir3 Rh13'
_cell_volume   735.66708010
_cell_formula_units_Z   1
loop_
 _symmetry_equiv_pos_site_id
 _symmetry_equiv_pos_as_xyz
  1  'x, y, z'
loop_
 _atom_site_type_symbol
 _atom_site_label
 _atom_site_symmetry_multiplicity
 _atom_site_fract_x
 _atom_site_fract_y
 _atom_site_fract_z
 _atom_site_occupancy
  Nd  Nd0  1  0.250000  0.100031  0.789545  1
  Nd  Nd1  1  0.750000  0.899790  0.210629  1
  Nd  Nd2  1  0.250000  0.281574  0.100839  1
  Nd  Nd3  1  0.750000  0.718687  0.898393  1
  Nd  Nd4  1  0.250000  0.520058  0.292684  1
  Nd  Nd5  1  0.750000  0.480281  0.707050  1
  Nd  Nd6  1  0.250000  0.208897  0.436996  1
  Nd  Nd7  1  0.750000  0.791249  0.563109  1
  As  As8  1  0.250000  0.052336  0.101407  1
  As  As9  1  0.750000  0.947711  0.898696  1
  As  As10  1  0.250000  0.311711  0.689021  1
  As  As11  1  0.750000  0.688172  0.311173  1
  As  As12  1  0.250000  0.607182  0.566304  1
  As  As13  1  0.750000  0.392780  0.433635  1
  As  As14  1  0.250000  0.847105  0.719962  1
  As  As15  1  0.750000  0.152978  0.279667  1
  As  As16  1  0.750000  0.257075  0.919191  1
  As  As17  1  0.250000  0.742592  0.080523  1
  As  As18  1  0.750000  0.094814  0.586448  1
  As  As19  1  0.250000  0.905327  0.414011  1
  As  As20  1  0.750000  0.470474  0.128666  1
  As  As21  1  0.250000  0.529430  0.871397  1
  Ir  Ir22  1  0.750000  0.276922  0.600078  1
  Ir  Ir23  1  0.250000  0.344702  0.860959  1
  Ir  Ir24  1  0.750000  0.655088  0.139283  1
  Rh  Rh25  1  0.250000  0.988943  0.574004  1
  Rh  Rh26  1  0.750000  0.011435  0.425928  1
  Rh  Rh27  1  0.250000  0.665327  0.732182  1
  Rh  Rh28  1  0.750000  0.334817  0.268267  1
  Rh  Rh29  1  0.250000  0.553050  0.046444  1
  Rh  Rh30  1  0.750000  0.446834  0.953427  1
  Rh  Rh31  1  0.250000  0.054511  0.279011  1
  Rh  Rh32  1  0.750000  0.945287  0.721031  1
  Rh  Rh33  1  0.250000  0.425694  0.526465  1
  Rh  Rh34  1  0.750000  0.574494  0.473222  1
  Rh  Rh35  1  0.250000  0.918021  0.996473  1
  Rh  Rh36  1  0.750000  0.082110  0.003867  1
  Rh  Rh37  1  0.250000  0.722510  0.400014  1
