# generated using pymatgen
data_Pa2Ta(TiGe2)2
_symmetry_space_group_name_H-M   'P 1'
_cell_length_a   7.12999300
_cell_length_b   7.07102243
_cell_length_c   7.17342315
_cell_angle_alpha   70.00484393
_cell_angle_beta   90.00000000
_cell_angle_gamma   90.00000000
_symmetry_Int_Tables_number   1
_chemical_formula_structural   Pa2Ta(TiGe2)2
_chemical_formula_sum   'Pa4 Ta2 Ti4 Ge8'
_cell_volume   339.85756909
_cell_formula_units_Z   2
loop_
 _symmetry_equiv_pos_site_id
 _symmetry_equiv_pos_as_xyz
  1  'x, y, z'
loop_
 _atom_site_type_symbol
 _atom_site_label
 _atom_site_symmetry_multiplicity
 _atom_site_fract_x
 _atom_site_fract_y
 _atom_site_fract_z
 _atom_site_occupancy
  Pa  Pa0  1  0.668970  0.941612  0.687983  1
  Pa  Pa1  1  0.331030  0.058388  0.312017  1
  Pa  Pa2  1  0.168970  0.558388  0.312017  1
  Pa  Pa3  1  0.831030  0.441612  0.687983  1
  Ta  Ta4  1  0.000000  0.000000  0.000000  1
  Ta  Ta5  1  0.500000  0.500000  0.000000  1
  Ti  Ti6  1  0.665008  0.747867  0.250614  1
  Ti  Ti7  1  0.334992  0.252133  0.749386  1
  Ti  Ti8  1  0.165008  0.752133  0.749386  1
  Ti  Ti9  1  0.834992  0.247867  0.250614  1
  Ge  Ge10  1  0.953191  0.856930  0.411847  1
  Ge  Ge11  1  0.046809  0.143070  0.588153  1
  Ge  Ge12  1  0.453191  0.643070  0.588153  1
  Ge  Ge13  1  0.546809  0.356930  0.411847  1
  Ge  Ge14  1  0.865503  0.634158  0.001619  1
  Ge  Ge15  1  0.134497  0.365842  0.998381  1
  Ge  Ge16  1  0.365503  0.865842  0.998381  1
  Ge  Ge17  1  0.634497  0.134158  0.001619  1
