# generated using pymatgen
data_TmLu7(Ga3Pt)4
_symmetry_space_group_name_H-M   'P 1'
_cell_length_a   8.80276001
_cell_length_b   8.80276041
_cell_length_c   6.92169100
_cell_angle_alpha   90.00000000
_cell_angle_beta   90.00000000
_cell_angle_gamma   120.00739562
_symmetry_Int_Tables_number   1
_chemical_formula_structural   TmLu7(Ga3Pt)4
_chemical_formula_sum   'Tm1 Lu7 Ga12 Pt4'
_cell_volume   464.45988799
_cell_formula_units_Z   1
loop_
 _symmetry_equiv_pos_site_id
 _symmetry_equiv_pos_as_xyz
  1  'x, y, z'
loop_
 _atom_site_type_symbol
 _atom_site_label
 _atom_site_symmetry_multiplicity
 _atom_site_fract_x
 _atom_site_fract_y
 _atom_site_fract_z
 _atom_site_occupancy
  Tm  Tm0  1  0.000141  0.999859  0.250000  1
  Lu  Lu1  1  0.999864  0.000136  0.750000  1
  Lu  Lu2  1  0.520678  0.041448  0.250000  1
  Lu  Lu3  1  0.520523  0.479477  0.250000  1
  Lu  Lu4  1  0.958552  0.479322  0.250000  1
  Lu  Lu5  1  0.479302  0.958536  0.750000  1
  Lu  Lu6  1  0.479463  0.520537  0.750000  1
  Lu  Lu7  1  0.041464  0.520698  0.750000  1
  Ga  Ga8  1  0.166374  0.332909  0.047387  1
  Ga  Ga9  1  0.166618  0.833382  0.452610  1
  Ga  Ga10  1  0.667091  0.833626  0.452613  1
  Ga  Ga11  1  0.667091  0.833626  0.047387  1
  Ga  Ga12  1  0.166618  0.833382  0.047390  1
  Ga  Ga13  1  0.833797  0.667430  0.952324  1
  Ga  Ga14  1  0.833556  0.166444  0.952311  1
  Ga  Ga15  1  0.332570  0.166203  0.952324  1
  Ga  Ga16  1  0.166374  0.332909  0.452613  1
  Ga  Ga17  1  0.332570  0.166203  0.547676  1
  Ga  Ga18  1  0.833797  0.667430  0.547676  1
  Ga  Ga19  1  0.833556  0.166444  0.547689  1
  Pt  Pt20  1  0.333402  0.666598  0.027837  1
  Pt  Pt21  1  0.333402  0.666598  0.472163  1
  Pt  Pt22  1  0.666599  0.333401  0.972114  1
  Pt  Pt23  1  0.666599  0.333401  0.527886  1
