# generated using pymatgen
data_RbUBr4O
_symmetry_space_group_name_H-M   'P 1'
_cell_length_a   7.94954202
_cell_length_b   7.94954218
_cell_length_c   8.42332168
_cell_angle_alpha   106.72380430
_cell_angle_beta   106.72380670
_cell_angle_gamma   30.33035348
_symmetry_Int_Tables_number   1
_chemical_formula_structural   RbUBr4O
_chemical_formula_sum   'Rb1 U1 Br4 O1'
_cell_volume   256.58538659
_cell_formula_units_Z   1
loop_
 _symmetry_equiv_pos_site_id
 _symmetry_equiv_pos_as_xyz
  1  'x, y, z'
loop_
 _atom_site_type_symbol
 _atom_site_label
 _atom_site_symmetry_multiplicity
 _atom_site_fract_x
 _atom_site_fract_y
 _atom_site_fract_z
 _atom_site_occupancy
  Rb  Rb0  1  0.995831  0.004169  0.000000  1
  U  U1  1  0.500939  0.499061  0.500000  1
  Br  Br2  1  0.369554  0.368246  0.194378  1
  Br  Br3  1  0.629287  0.628946  0.333035  1
  Br  Br4  1  0.371055  0.370713  0.666965  1
  Br  Br5  1  0.631754  0.630445  0.805621  1
  O  O6  1  0.000878  0.999122  0.500000  1
