# generated using pymatgen
data_SmZn9Cu2
_symmetry_space_group_name_H-M   'P 1'
_cell_length_a   6.68742020
_cell_length_b   8.15971803
_cell_length_c   8.15971860
_cell_angle_alpha   99.66700582
_cell_angle_beta   114.19117366
_cell_angle_gamma   65.80882401
_symmetry_Int_Tables_number   1
_chemical_formula_structural   SmZn9Cu2
_chemical_formula_sum   'Sm2 Zn18 Cu4'
_cell_volume   370.48713144
_cell_formula_units_Z   2
loop_
 _symmetry_equiv_pos_site_id
 _symmetry_equiv_pos_as_xyz
  1  'x, y, z'
loop_
 _atom_site_type_symbol
 _atom_site_label
 _atom_site_symmetry_multiplicity
 _atom_site_fract_x
 _atom_site_fract_y
 _atom_site_fract_z
 _atom_site_occupancy
  Sm  Sm0  1  0.000000  0.000000  0.000000  1
  Sm  Sm1  1  0.250000  0.500000  0.500000  1
  Zn  Zn2  1  0.500001  0.000000  0.000000  1
  Zn  Zn3  1  0.896756  0.674744  0.082699  1
  Zn  Zn4  1  0.185944  0.325256  0.082699  1
  Zn  Zn5  1  0.353245  0.582699  0.174744  1
  Zn  Zn6  1  0.821497  0.417301  0.174744  1
  Zn  Zn7  1  0.428502  0.082699  0.325256  1
  Zn  Zn8  1  0.896756  0.917301  0.325256  1
  Zn  Zn9  1  0.064054  0.174744  0.417301  1
  Zn  Zn10  1  0.353245  0.825256  0.417301  1
  Zn  Zn11  1  0.749999  0.500000  0.500000  1
  Zn  Zn12  1  0.821497  0.825256  0.582699  1
  Zn  Zn13  1  0.761201  0.174744  0.582699  1
  Zn  Zn14  1  0.488799  0.082699  0.674744  1
  Zn  Zn15  1  0.185944  0.917301  0.674744  1
  Zn  Zn16  1  0.761201  0.417301  0.825256  1
  Zn  Zn17  1  0.064054  0.582699  0.825256  1
  Zn  Zn18  1  0.488799  0.325256  0.917301  1
  Zn  Zn19  1  0.428502  0.674744  0.917301  1
  Cu  Cu20  1  0.625001  0.250000  0.250000  1
  Cu  Cu21  1  0.624999  0.750000  0.250000  1
  Cu  Cu22  1  0.125000  0.250000  0.750000  1
  Cu  Cu23  1  0.625001  0.750000  0.750000  1
