# generated using pymatgen
data_TaNb6Ni4WN2
_symmetry_space_group_name_H-M   'P 1'
_cell_length_a   8.22519262
_cell_length_b   8.24663263
_cell_length_c   8.22535523
_cell_angle_alpha   59.91433312
_cell_angle_beta   59.79910781
_cell_angle_gamma   59.91369677
_symmetry_Int_Tables_number   1
_chemical_formula_structural   TaNb6Ni4WN2
_chemical_formula_sum   'Ta2 Nb12 Ni8 W2 N4'
_cell_volume   393.40034566
_cell_formula_units_Z   2
loop_
 _symmetry_equiv_pos_site_id
 _symmetry_equiv_pos_as_xyz
  1  'x, y, z'
loop_
 _atom_site_type_symbol
 _atom_site_label
 _atom_site_symmetry_multiplicity
 _atom_site_fract_x
 _atom_site_fract_y
 _atom_site_fract_z
 _atom_site_occupancy
  Ta  Ta0  1  0.125000  0.625000  0.625000  1
  Ta  Ta1  1  0.625000  0.625000  0.125000  1
  Nb  Nb2  1  0.815244  0.814978  0.186253  1
  Nb  Nb3  1  0.186261  0.183483  0.815251  1
  Nb  Nb4  1  0.813415  0.186593  0.813398  1
  Nb  Nb5  1  0.182820  0.817198  0.182784  1
  Nb  Nb6  1  0.186261  0.815004  0.815252  1
  Nb  Nb7  1  0.815243  0.183525  0.186253  1
  Nb  Nb8  1  0.434756  0.435022  0.063747  1
  Nb  Nb9  1  0.063739  0.066517  0.434749  1
  Nb  Nb10  1  0.436585  0.063407  0.436602  1
  Nb  Nb11  1  0.067180  0.432802  0.067216  1
  Nb  Nb12  1  0.063739  0.434996  0.434748  1
  Nb  Nb13  1  0.434757  0.066475  0.063747  1
  Ni  Ni14  1  0.736174  0.420025  0.423779  1
  Ni  Ni15  1  0.421683  0.739189  0.421669  1
  Ni  Ni16  1  0.423846  0.420018  0.736118  1
  Ni  Ni17  1  0.421683  0.417460  0.421669  1
  Ni  Ni18  1  0.513826  0.829975  0.826221  1
  Ni  Ni19  1  0.828317  0.510811  0.828331  1
  Ni  Ni20  1  0.826154  0.829982  0.513882  1
  Ni  Ni21  1  0.828317  0.832540  0.828331  1
  W  W22  1  0.625000  0.125000  0.625000  1
  W  W23  1  0.625000  0.625000  0.625000  1
  N  N24  1  0.625000  0.125000  0.125000  1
  N  N25  1  0.125000  0.625000  0.125000  1
  N  N26  1  0.125000  0.125000  0.625000  1
  N  N27  1  0.125000  0.125000  0.125000  1
