# generated using pymatgen
data_CeHo7(MgCo)2
_symmetry_space_group_name_H-M   'P 1'
_cell_length_a   9.39884197
_cell_length_b   9.61537364
_cell_length_c   9.61537402
_cell_angle_alpha   58.51563865
_cell_angle_beta   60.74218259
_cell_angle_gamma   60.74217409
_symmetry_Int_Tables_number   1
_chemical_formula_structural   CeHo7(MgCo)2
_chemical_formula_sum   'Ce2 Ho14 Mg4 Co4'
_cell_volume   613.84770596
_cell_formula_units_Z   2
loop_
 _symmetry_equiv_pos_site_id
 _symmetry_equiv_pos_as_xyz
  1  'x, y, z'
loop_
 _atom_site_type_symbol
 _atom_site_label
 _atom_site_symmetry_multiplicity
 _atom_site_fract_x
 _atom_site_fract_y
 _atom_site_fract_z
 _atom_site_occupancy
  Ce  Ce0  1  0.817948  0.182052  0.182052  1
  Ce  Ce1  1  0.182052  0.817948  0.817948  1
  Ho  Ho2  1  0.188842  0.811158  0.188842  1
  Ho  Ho3  1  0.811158  0.188842  0.811158  1
  Ho  Ho4  1  0.188842  0.188842  0.811158  1
  Ho  Ho5  1  0.811158  0.811158  0.188842  1
  Ho  Ho6  1  0.924012  0.575988  0.575988  1
  Ho  Ho7  1  0.575988  0.924012  0.924012  1
  Ho  Ho8  1  0.558645  0.941355  0.558645  1
  Ho  Ho9  1  0.941355  0.558645  0.941355  1
  Ho  Ho10  1  0.558645  0.558645  0.941355  1
  Ho  Ho11  1  0.941355  0.941355  0.558645  1
  Ho  Ho12  1  0.332077  0.348330  0.348330  1
  Ho  Ho13  1  0.348330  0.332077  0.971264  1
  Ho  Ho14  1  0.348330  0.971264  0.332077  1
  Ho  Ho15  1  0.971264  0.348330  0.348330  1
  Mg  Mg16  1  0.581879  0.578134  0.578134  1
  Mg  Mg17  1  0.578134  0.581879  0.261854  1
  Mg  Mg18  1  0.578134  0.261854  0.581879  1
  Mg  Mg19  1  0.261854  0.578134  0.578134  1
  Co  Co20  1  0.092489  0.155970  0.155970  1
  Co  Co21  1  0.155970  0.092489  0.595570  1
  Co  Co22  1  0.155970  0.595570  0.092489  1
  Co  Co23  1  0.595570  0.155970  0.155970  1
