# generated using pymatgen
data_Lu6Zn19Au4Se
_symmetry_space_group_name_H-M   'P 1'
_cell_length_a   9.09103006
_cell_length_b   9.09102998
_cell_length_c   9.09103000
_cell_angle_alpha   59.99999994
_cell_angle_beta   60.00000023
_cell_angle_gamma   60.00000196
_symmetry_Int_Tables_number   1
_chemical_formula_structural   Lu6Zn19Au4Se
_chemical_formula_sum   'Lu6 Zn19 Au4 Se1'
_cell_volume   531.28099932
_cell_formula_units_Z   1
loop_
 _symmetry_equiv_pos_site_id
 _symmetry_equiv_pos_as_xyz
  1  'x, y, z'
loop_
 _atom_site_type_symbol
 _atom_site_label
 _atom_site_symmetry_multiplicity
 _atom_site_fract_x
 _atom_site_fract_y
 _atom_site_fract_z
 _atom_site_occupancy
  Lu  Lu0  1  0.716863  0.283137  0.283137  1
  Lu  Lu1  1  0.716863  0.283137  0.716863  1
  Lu  Lu2  1  0.716863  0.716863  0.283137  1
  Lu  Lu3  1  0.283137  0.716863  0.716863  1
  Lu  Lu4  1  0.283137  0.716863  0.283137  1
  Lu  Lu5  1  0.283137  0.283137  0.716863  1
  Zn  Zn6  1  0.372652  0.875782  0.875782  1
  Zn  Zn7  1  0.875782  0.372652  0.875782  1
  Zn  Zn8  1  0.875782  0.875782  0.372652  1
  Zn  Zn9  1  0.875782  0.875782  0.875782  1
  Zn  Zn10  1  0.502374  0.997626  0.997626  1
  Zn  Zn11  1  0.502374  0.997626  0.502374  1
  Zn  Zn12  1  0.502374  0.502374  0.997626  1
  Zn  Zn13  1  0.997626  0.502374  0.502374  1
  Zn  Zn14  1  0.997626  0.502374  0.997626  1
  Zn  Zn15  1  0.997626  0.997626  0.502374  1
  Zn  Zn16  1  0.000000  0.000000  0.000000  1
  Zn  Zn17  1  0.004127  0.331957  0.331957  1
  Zn  Zn18  1  0.331957  0.004127  0.331957  1
  Zn  Zn19  1  0.331957  0.331957  0.004127  1
  Zn  Zn20  1  0.331957  0.331957  0.331957  1
  Zn  Zn21  1  0.993762  0.668747  0.668747  1
  Zn  Zn22  1  0.668747  0.993762  0.668747  1
  Zn  Zn23  1  0.668747  0.668747  0.993762  1
  Zn  Zn24  1  0.668747  0.668747  0.668747  1
  Au  Au25  1  0.638740  0.120421  0.120421  1
  Au  Au26  1  0.120421  0.638740  0.120421  1
  Au  Au27  1  0.120421  0.120421  0.638740  1
  Au  Au28  1  0.120421  0.120421  0.120421  1
  Se  Se29  1  0.500000  0.500000  0.500000  1
