# generated using pymatgen
data_LaSm2BiO7
_symmetry_space_group_name_H-M   'P 1'
_cell_length_a   6.74596666
_cell_length_b   6.74596628
_cell_length_c   7.91689300
_cell_angle_alpha   90.00000000
_cell_angle_beta   90.00000000
_cell_angle_gamma   109.19760292
_symmetry_Int_Tables_number   1
_chemical_formula_structural   LaSm2BiO7
_chemical_formula_sum   'La2 Sm4 Bi2 O14'
_cell_volume   340.24720803
_cell_formula_units_Z   2
loop_
 _symmetry_equiv_pos_site_id
 _symmetry_equiv_pos_as_xyz
  1  'x, y, z'
loop_
 _atom_site_type_symbol
 _atom_site_label
 _atom_site_symmetry_multiplicity
 _atom_site_fract_x
 _atom_site_fract_y
 _atom_site_fract_z
 _atom_site_occupancy
  La  La0  1  0.500562  0.500562  0.500000  1
  La  La1  1  0.499438  0.499438  0.000000  1
  Sm  Sm2  1  0.468608  0.998702  0.249973  1
  Sm  Sm3  1  0.001298  0.531392  0.250027  1
  Sm  Sm4  1  0.531392  0.001298  0.749973  1
  Sm  Sm5  1  0.998702  0.468608  0.750027  1
  Bi  Bi6  1  0.000221  0.000221  0.500000  1
  Bi  Bi7  1  0.999779  0.999779  0.000000  1
  O  O8  1  0.329957  0.074194  0.528768  1
  O  O9  1  0.925806  0.670043  0.971232  1
  O  O10  1  0.670043  0.925806  0.028768  1
  O  O11  1  0.074194  0.329957  0.471232  1
  O  O12  1  0.925707  0.670250  0.528957  1
  O  O13  1  0.329750  0.074293  0.971043  1
  O  O14  1  0.074293  0.329750  0.028957  1
  O  O15  1  0.670250  0.925707  0.471043  1
  O  O16  1  0.633676  0.366324  0.250000  1
  O  O17  1  0.366324  0.633676  0.750000  1
  O  O18  1  0.639208  0.360792  0.750000  1
  O  O19  1  0.360792  0.639208  0.250000  1
  O  O20  1  0.079932  0.920068  0.250000  1
  O  O21  1  0.920068  0.079932  0.750000  1
