# generated using pymatgen
data_Ca12SnSb7Rh8
_symmetry_space_group_name_H-M   'P 1'
_cell_length_a   5.81743200
_cell_length_b   8.36526457
_cell_length_c   13.83406900
_cell_angle_alpha   89.80077549
_cell_angle_beta   90.00000000
_cell_angle_gamma   90.00000000
_symmetry_Int_Tables_number   1
_chemical_formula_structural   Ca12SnSb7Rh8
_chemical_formula_sum   'Ca12 Sn1 Sb7 Rh8'
_cell_volume   673.22201381
_cell_formula_units_Z   1
loop_
 _symmetry_equiv_pos_site_id
 _symmetry_equiv_pos_as_xyz
  1  'x, y, z'
loop_
 _atom_site_type_symbol
 _atom_site_label
 _atom_site_symmetry_multiplicity
 _atom_site_fract_x
 _atom_site_fract_y
 _atom_site_fract_z
 _atom_site_occupancy
  Ca  Ca0  1  0.630467  0.257639  0.249866  1
  Ca  Ca1  1  0.370153  0.742434  0.750858  1
  Ca  Ca2  1  0.370153  0.757566  0.249142  1
  Ca  Ca3  1  0.630467  0.242361  0.750134  1
  Ca  Ca4  1  0.148755  0.395515  0.098087  1
  Ca  Ca5  1  0.850061  0.604913  0.901906  1
  Ca  Ca6  1  0.853171  0.604341  0.597826  1
  Ca  Ca7  1  0.853171  0.895659  0.402174  1
  Ca  Ca8  1  0.149398  0.396680  0.402111  1
  Ca  Ca9  1  0.149398  0.103320  0.597889  1
  Ca  Ca10  1  0.148755  0.104485  0.901913  1
  Ca  Ca11  1  0.850061  0.895087  0.098094  1
  Sn  Sn12  1  0.633005  0.250000  0.500000  1
  Sb  Sb13  1  0.137271  0.105525  0.249090  1
  Sb  Sb14  1  0.863213  0.894941  0.750365  1
  Sb  Sb15  1  0.863213  0.605059  0.249635  1
  Sb  Sb16  1  0.137271  0.394475  0.750910  1
  Sb  Sb17  1  0.635264  0.250000  0.000000  1
  Sb  Sb18  1  0.364489  0.750000  0.000000  1
  Sb  Sb19  1  0.365195  0.750000  0.500000  1
  Rh  Rh20  1  0.370375  0.032018  0.087454  1
  Rh  Rh21  1  0.628941  0.967750  0.911894  1
  Rh  Rh22  1  0.632136  0.965904  0.587307  1
  Rh  Rh23  1  0.632136  0.534096  0.412693  1
  Rh  Rh24  1  0.367084  0.030485  0.410570  1
  Rh  Rh25  1  0.367084  0.469515  0.589430  1
  Rh  Rh26  1  0.370375  0.467982  0.912546  1
  Rh  Rh27  1  0.628941  0.532250  0.088106  1
