# generated using pymatgen
data_Lu6CrB14Ru
_symmetry_space_group_name_H-M   'P 1'
_cell_length_a   7.89908919
_cell_length_b   7.89908892
_cell_length_c   9.19317500
_cell_angle_alpha   90.00000000
_cell_angle_beta   90.00000000
_cell_angle_gamma   154.98186276
_symmetry_Int_Tables_number   1
_chemical_formula_structural   Lu6CrB14Ru
_chemical_formula_sum   'Lu6 Cr1 B14 Ru1'
_cell_volume   242.58419812
_cell_formula_units_Z   1
loop_
 _symmetry_equiv_pos_site_id
 _symmetry_equiv_pos_as_xyz
  1  'x, y, z'
loop_
 _atom_site_type_symbol
 _atom_site_label
 _atom_site_symmetry_multiplicity
 _atom_site_fract_x
 _atom_site_fract_y
 _atom_site_fract_z
 _atom_site_occupancy
  Lu  Lu0  1  0.105765  0.894235  0.061425  1
  Lu  Lu1  1  0.894110  0.105890  0.941966  1
  Lu  Lu2  1  0.757414  0.242586  0.250000  1
  Lu  Lu3  1  0.244513  0.755487  0.750000  1
  Lu  Lu4  1  0.105765  0.894235  0.438575  1
  Lu  Lu5  1  0.894110  0.105890  0.558034  1
  Cr  Cr6  1  0.947838  0.052162  0.250000  1
  B  B7  1  0.727459  0.272541  0.534654  1
  B  B8  1  0.271696  0.728304  0.465858  1
  B  B9  1  0.271696  0.728304  0.034142  1
  B  B10  1  0.727459  0.272541  0.965346  1
  B  B11  1  0.519419  0.480581  0.905785  1
  B  B12  1  0.479990  0.520010  0.095242  1
  B  B13  1  0.479990  0.520010  0.404758  1
  B  B14  1  0.519419  0.480581  0.594215  1
  B  B15  1  0.453543  0.546457  0.750000  1
  B  B16  1  0.545517  0.454483  0.250000  1
  B  B17  1  0.631971  0.368029  0.649441  1
  B  B18  1  0.368361  0.631639  0.348764  1
  B  B19  1  0.368361  0.631639  0.151236  1
  B  B20  1  0.631971  0.368029  0.850559  1
  Ru  Ru21  1  0.053637  0.946363  0.750000  1
