# generated using pymatgen
data_U(MoO3)2
_symmetry_space_group_name_H-M   'P 1'
_cell_length_a   4.92798300
_cell_length_b   4.92798300
_cell_length_c   9.98153200
_cell_angle_alpha   90.00000000
_cell_angle_beta   90.00000000
_cell_angle_gamma   90.00000000
_symmetry_Int_Tables_number   1
_chemical_formula_structural   U(MoO3)2
_chemical_formula_sum   'U2 Mo4 O12'
_cell_volume   242.40166880
_cell_formula_units_Z   2
loop_
 _symmetry_equiv_pos_site_id
 _symmetry_equiv_pos_as_xyz
  1  'x, y, z'
loop_
 _atom_site_type_symbol
 _atom_site_label
 _atom_site_symmetry_multiplicity
 _atom_site_fract_x
 _atom_site_fract_y
 _atom_site_fract_z
 _atom_site_occupancy
  U  U0  1  0.000000  0.000000  0.000000  1
  U  U1  1  0.500000  0.500000  0.500000  1
  Mo  Mo2  1  0.000000  0.000000  0.333219  1
  Mo  Mo3  1  0.500000  0.500000  0.833219  1
  Mo  Mo4  1  0.000000  0.000000  0.666781  1
  Mo  Mo5  1  0.500000  0.500000  0.166781  1
  O  O6  1  0.691727  0.691727  0.663096  1
  O  O7  1  0.308273  0.308273  0.663096  1
  O  O8  1  0.691727  0.691727  0.336904  1
  O  O9  1  0.191727  0.808273  0.163096  1
  O  O10  1  0.808273  0.191727  0.163096  1
  O  O11  1  0.808273  0.191727  0.836904  1
  O  O12  1  0.304701  0.304701  0.000000  1
  O  O13  1  0.195299  0.804701  0.500000  1
  O  O14  1  0.804701  0.195299  0.500000  1
  O  O15  1  0.695299  0.695299  0.000000  1
  O  O16  1  0.308273  0.308273  0.336904  1
  O  O17  1  0.191727  0.808273  0.836904  1
