# generated using pymatgen
data_Nd6CoNiCl6
_symmetry_space_group_name_H-M   'P 1'
_cell_length_a   10.10185219
_cell_length_b   10.10185144
_cell_length_c   10.04543009
_cell_angle_alpha   109.45358107
_cell_angle_beta   109.45358191
_cell_angle_gamma   109.73279610
_symmetry_Int_Tables_number   1
_chemical_formula_structural   Nd6CoNiCl6
_chemical_formula_sum   'Nd12 Co2 Ni2 Cl12'
_cell_volume   786.91386445
_cell_formula_units_Z   2
loop_
 _symmetry_equiv_pos_site_id
 _symmetry_equiv_pos_as_xyz
  1  'x, y, z'
loop_
 _atom_site_type_symbol
 _atom_site_label
 _atom_site_symmetry_multiplicity
 _atom_site_fract_x
 _atom_site_fract_y
 _atom_site_fract_z
 _atom_site_occupancy
  Nd  Nd0  1  0.475109  0.490491  0.235727  1
  Nd  Nd1  1  0.754764  0.239384  0.264273  1
  Nd  Nd2  1  0.755058  0.015296  0.490502  1
  Nd  Nd3  1  0.235444  0.475204  0.490502  1
  Nd  Nd4  1  0.260616  0.745236  0.235727  1
  Nd  Nd5  1  0.024796  0.264556  0.009498  1
  Nd  Nd6  1  0.009509  0.024891  0.264273  1
  Nd  Nd7  1  0.484704  0.744942  0.009498  1
  Nd  Nd8  1  0.488292  0.238292  0.476582  1
  Nd  Nd9  1  0.012518  0.487482  0.750000  1
  Nd  Nd10  1  0.261708  0.011708  0.023418  1
  Nd  Nd11  1  0.237482  0.262518  0.750000  1
  Co  Co12  1  0.999873  0.249873  0.499746  1
  Co  Co13  1  0.250127  0.500127  0.000254  1
  Ni  Ni14  1  0.250278  0.249722  0.250000  1
  Ni  Ni15  1  0.499722  0.000278  0.250000  1
  Cl  Cl16  1  0.250198  0.754448  0.746709  1
  Cl  Cl17  1  0.507739  0.503489  0.753291  1
  Cl  Cl18  1  0.994414  0.747564  0.997395  1
  Cl  Cl19  1  0.745552  0.249802  0.753291  1
  Cl  Cl20  1  0.996511  0.992261  0.746709  1
  Cl  Cl21  1  0.250170  0.997019  0.502605  1
  Cl  Cl22  1  0.752436  0.505586  0.502605  1
  Cl  Cl23  1  0.502981  0.249830  0.997395  1
  Cl  Cl24  1  0.753624  0.746376  0.250000  1
  Cl  Cl25  1  0.746935  0.996935  0.993869  1
  Cl  Cl26  1  0.996376  0.503624  0.250000  1
  Cl  Cl27  1  0.503065  0.753065  0.506131  1
