# generated using pymatgen
data_PrSmSc6(BO3)8
_symmetry_space_group_name_H-M   'P 1'
_cell_length_a   6.29422068
_cell_length_b   6.29422149
_cell_length_c   12.14520388
_cell_angle_alpha   99.52596620
_cell_angle_beta   99.52596431
_cell_angle_gamma   103.68128548
_symmetry_Int_Tables_number   1
_chemical_formula_structural   PrSmSc6(BO3)8
_chemical_formula_sum   'Pr1 Sm1 Sc6 B8 O24'
_cell_volume   450.42390632
_cell_formula_units_Z   1
loop_
 _symmetry_equiv_pos_site_id
 _symmetry_equiv_pos_as_xyz
  1  'x, y, z'
loop_
 _atom_site_type_symbol
 _atom_site_label
 _atom_site_symmetry_multiplicity
 _atom_site_fract_x
 _atom_site_fract_y
 _atom_site_fract_z
 _atom_site_occupancy
  Pr  Pr0  1  0.034342  0.965659  0.750000  1
  Sm  Sm1  1  0.966345  0.033656  0.250000  1
  Sc  Sc2  1  0.296789  0.798179  0.025516  1
  Sc  Sc3  1  0.426735  0.573266  0.250000  1
  Sc  Sc4  1  0.201821  0.703211  0.474484  1
  Sc  Sc5  1  0.797508  0.296724  0.524089  1
  Sc  Sc6  1  0.573947  0.426055  0.750000  1
  Sc  Sc7  1  0.703276  0.202492  0.975910  1
  B  B8  1  0.779104  0.731544  0.001588  1
  B  B9  1  0.900156  0.506264  0.226602  1
  B  B10  1  0.493735  0.099844  0.273398  1
  B  B11  1  0.268456  0.220896  0.498412  1
  B  B12  1  0.730107  0.778944  0.500040  1
  B  B13  1  0.505827  0.898810  0.726117  1
  B  B14  1  0.101190  0.494173  0.773883  1
  B  B15  1  0.221056  0.269893  0.999961  1
  O  O16  1  0.635703  0.868312  0.004268  1
  O  O17  1  0.292571  0.483391  0.068322  1
  O  O18  1  0.991363  0.817164  0.071690  1
  O  O19  1  0.835170  0.301417  0.150759  1
  O  O20  1  0.432539  0.886985  0.204696  1
  O  O21  1  0.765072  0.649509  0.239228  1
  O  O22  1  0.350490  0.234928  0.260772  1
  O  O23  1  0.113015  0.567461  0.295304  1
  O  O24  1  0.698584  0.164831  0.349241  1
  O  O25  1  0.182836  0.008637  0.428309  1
  O  O26  1  0.516610  0.707430  0.431678  1
  O  O27  1  0.131688  0.364297  0.495732  1
  O  O28  1  0.868131  0.636973  0.504687  1
  O  O29  1  0.481943  0.290090  0.567149  1
  O  O30  1  0.813134  0.992223  0.568432  1
  O  O31  1  0.304469  0.834165  0.648132  1
  O  O32  1  0.888569  0.432924  0.704763  1
  O  O33  1  0.645158  0.761062  0.739832  1
  O  O34  1  0.238938  0.354841  0.760167  1
  O  O35  1  0.567076  0.111431  0.795236  1
  O  O36  1  0.165837  0.695533  0.851868  1
  O  O37  1  0.007777  0.186866  0.931569  1
  O  O38  1  0.709909  0.518057  0.932851  1
  O  O39  1  0.363027  0.131869  0.995314  1
