# generated using pymatgen
data_Y3HoAl18(PdRh)3
_symmetry_space_group_name_H-M   'P 1'
_cell_length_a   7.59065418
_cell_length_b   7.59144430
_cell_length_c   9.45752801
_cell_angle_alpha   90.00959541
_cell_angle_beta   90.00916640
_cell_angle_gamma   119.61109413
_symmetry_Int_Tables_number   1
_chemical_formula_structural   Y3HoAl18(PdRh)3
_chemical_formula_sum   'Y3 Ho1 Al18 Pd3 Rh3'
_cell_volume   473.80594013
_cell_formula_units_Z   1
loop_
 _symmetry_equiv_pos_site_id
 _symmetry_equiv_pos_as_xyz
  1  'x, y, z'
loop_
 _atom_site_type_symbol
 _atom_site_label
 _atom_site_symmetry_multiplicity
 _atom_site_fract_x
 _atom_site_fract_y
 _atom_site_fract_z
 _atom_site_occupancy
  Y  Y0  1  0.996047  0.669709  0.249741  1
  Y  Y1  1  0.005967  0.331526  0.750113  1
  Y  Y2  1  0.668457  0.994018  0.249890  1
  Ho  Ho3  1  0.330189  0.003945  0.750289  1
  Al  Al4  1  0.125233  0.126120  0.249280  1
  Al  Al5  1  0.874137  0.874846  0.750718  1
  Al  Al6  1  0.995887  0.330583  0.074782  1
  Al  Al7  1  0.996555  0.665292  0.924990  1
  Al  Al8  1  0.999068  0.669377  0.576914  1
  Al  Al9  1  0.330870  0.001185  0.423516  1
  Al  Al10  1  0.000453  0.330987  0.423815  1
  Al  Al11  1  0.668775  0.999561  0.576381  1
  Al  Al12  1  0.669171  0.004104  0.925022  1
  Al  Al13  1  0.334915  0.003664  0.074592  1
  Al  Al14  1  0.330586  0.330318  0.556060  1
  Al  Al15  1  0.669480  0.669431  0.444174  1
  Al  Al16  1  0.670621  0.667444  0.052301  1
  Al  Al17  1  0.332558  0.329192  0.947477  1
  Al  Al18  1  0.340125  0.545226  0.249263  1
  Al  Al19  1  0.658832  0.451287  0.753353  1
  Al  Al20  1  0.548383  0.340861  0.246632  1
  Al  Al21  1  0.454714  0.660088  0.750736  1
  Pd  Pd22  1  0.327352  0.672681  0.999948  1
  Pd  Pd23  1  0.327417  0.672609  0.500048  1
  Pd  Pd24  1  0.672084  0.327874  0.500039  1
  Rh  Rh25  1  0.671826  0.328062  0.999931  1
  Rh  Rh26  1  0.000338  0.999827  0.999896  1
  Rh  Rh27  1  0.999959  0.000184  0.500098  1
