# generated using pymatgen
data_YHo15MgIn3Ir4
_symmetry_space_group_name_H-M   'P 1'
_cell_length_a   9.63346812
_cell_length_b   9.63346755
_cell_length_c   9.62808451
_cell_angle_alpha   60.04057479
_cell_angle_beta   60.04057396
_cell_angle_gamma   60.03068187
_symmetry_Int_Tables_number   1
_chemical_formula_structural   YHo15MgIn3Ir4
_chemical_formula_sum   'Y1 Ho15 Mg1 In3 Ir4'
_cell_volume   632.34923507
_cell_formula_units_Z   1
loop_
 _symmetry_equiv_pos_site_id
 _symmetry_equiv_pos_as_xyz
  1  'x, y, z'
loop_
 _atom_site_type_symbol
 _atom_site_label
 _atom_site_symmetry_multiplicity
 _atom_site_fract_x
 _atom_site_fract_y
 _atom_site_fract_z
 _atom_site_occupancy
  Y  Y0  1  0.437186  0.437186  0.061920  1
  Ho  Ho1  1  0.650885  0.650885  0.045604  1
  Ho  Ho2  1  0.188791  0.812739  0.189005  1
  Ho  Ho3  1  0.059260  0.440313  0.059524  1
  Ho  Ho4  1  0.191545  0.809235  0.808711  1
  Ho  Ho5  1  0.060811  0.437640  0.438087  1
  Ho  Ho6  1  0.812739  0.188791  0.189005  1
  Ho  Ho7  1  0.652093  0.652093  0.651839  1
  Ho  Ho8  1  0.809235  0.191545  0.808711  1
  Ho  Ho9  1  0.188929  0.188929  0.812429  1
  Ho  Ho10  1  0.045758  0.650751  0.650672  1
  Ho  Ho11  1  0.440313  0.059260  0.059524  1
  Ho  Ho12  1  0.059784  0.059784  0.440185  1
  Ho  Ho13  1  0.650751  0.045758  0.650672  1
  Ho  Ho14  1  0.809045  0.809045  0.191555  1
  Ho  Ho15  1  0.437640  0.060811  0.438087  1
  Mg  Mg16  1  0.422621  0.422621  0.422815  1
  In  In17  1  0.417275  0.417275  0.747932  1
  In  In18  1  0.417296  0.748173  0.417263  1
  In  In19  1  0.748173  0.417296  0.417263  1
  Ir  Ir20  1  0.423451  0.859414  0.858769  1
  Ir  Ir21  1  0.858113  0.858113  0.858038  1
  Ir  Ir22  1  0.859414  0.423451  0.858769  1
  Ir  Ir23  1  0.858892  0.858892  0.423619  1
