# generated using pymatgen
data_ErThTe4
_symmetry_space_group_name_H-M   'P 1'
_cell_length_a   8.05028694
_cell_length_b   8.05028707
_cell_length_c   8.05028690
_cell_angle_alpha   148.88001368
_cell_angle_beta   135.38335166
_cell_angle_gamma   55.39547300
_symmetry_Int_Tables_number   1
_chemical_formula_structural   ErThTe4
_chemical_formula_sum   'Er1 Th1 Te4'
_cell_volume   188.14389635
_cell_formula_units_Z   1
loop_
 _symmetry_equiv_pos_site_id
 _symmetry_equiv_pos_as_xyz
  1  'x, y, z'
loop_
 _atom_site_type_symbol
 _atom_site_label
 _atom_site_symmetry_multiplicity
 _atom_site_fract_x
 _atom_site_fract_y
 _atom_site_fract_z
 _atom_site_occupancy
  Er  Er0  1  0.861759  0.861759  0.000000  1
  Th  Th1  1  0.138059  0.138059  0.000000  1
  Te  Te2  1  0.708609  0.208609  0.500000  1
  Te  Te3  1  0.297726  0.797726  0.500000  1
  Te  Te4  1  0.751117  0.496924  0.254193  1
  Te  Te5  1  0.242729  0.496924  0.745807  1
