# generated using pymatgen
data_SmY(Er2Rh9)2
_symmetry_space_group_name_H-M   'P 1'
_cell_length_a   5.26094000
_cell_length_b   5.26094114
_cell_length_c   17.54176100
_cell_angle_alpha   90.00000000
_cell_angle_beta   90.00000000
_cell_angle_gamma   119.99999285
_symmetry_Int_Tables_number   1
_chemical_formula_structural   SmY(Er2Rh9)2
_chemical_formula_sum   'Sm1 Y1 Er4 Rh18'
_cell_volume   420.46576823
_cell_formula_units_Z   1
loop_
 _symmetry_equiv_pos_site_id
 _symmetry_equiv_pos_as_xyz
  1  'x, y, z'
loop_
 _atom_site_type_symbol
 _atom_site_label
 _atom_site_symmetry_multiplicity
 _atom_site_fract_x
 _atom_site_fract_y
 _atom_site_fract_z
 _atom_site_occupancy
  Sm  Sm0  1  0.333333  0.666667  0.750000  1
  Y  Y1  1  0.666667  0.333333  0.250000  1
  Er  Er2  1  0.333333  0.666667  0.958268  1
  Er  Er3  1  0.666667  0.333333  0.041972  1
  Er  Er4  1  0.666667  0.333333  0.458028  1
  Er  Er5  1  0.333333  0.666667  0.541732  1
  Rh  Rh6  1  0.167368  0.832632  0.374699  1
  Rh  Rh7  1  0.167368  0.334735  0.374699  1
  Rh  Rh8  1  0.665265  0.832632  0.374699  1
  Rh  Rh9  1  0.832681  0.167319  0.625145  1
  Rh  Rh10  1  0.832681  0.665363  0.625145  1
  Rh  Rh11  1  0.334637  0.167319  0.625145  1
  Rh  Rh12  1  0.832681  0.167319  0.874855  1
  Rh  Rh13  1  0.832681  0.665363  0.874855  1
  Rh  Rh14  1  0.334637  0.167319  0.874855  1
  Rh  Rh15  1  0.167368  0.832632  0.125301  1
  Rh  Rh16  1  0.167368  0.334735  0.125301  1
  Rh  Rh17  1  0.665265  0.832632  0.125301  1
  Rh  Rh18  1  0.333333  0.666667  0.250000  1
  Rh  Rh19  1  0.666667  0.333333  0.750000  1
  Rh  Rh20  1  0.000000  0.000000  0.250000  1
  Rh  Rh21  1  0.000000  0.000000  0.750000  1
  Rh  Rh22  1  0.000000  0.000000  0.499982  1
  Rh  Rh23  1  0.000000  0.000000  0.000018  1
