# generated using pymatgen
data_SmTh3(TcC2)2
_symmetry_space_group_name_H-M   'P 1'
_cell_length_a   5.33842700
_cell_length_b   6.68124266
_cell_length_c   10.07719959
_cell_angle_alpha   89.81992724
_cell_angle_beta   90.00000000
_cell_angle_gamma   90.00000000
_symmetry_Int_Tables_number   1
_chemical_formula_structural   SmTh3(TcC2)2
_chemical_formula_sum   'Sm2 Th6 Tc4 C8'
_cell_volume   359.42498981
_cell_formula_units_Z   2
loop_
 _symmetry_equiv_pos_site_id
 _symmetry_equiv_pos_as_xyz
  1  'x, y, z'
loop_
 _atom_site_type_symbol
 _atom_site_label
 _atom_site_symmetry_multiplicity
 _atom_site_fract_x
 _atom_site_fract_y
 _atom_site_fract_z
 _atom_site_occupancy
  Sm  Sm0  1  0.750000  0.316167  0.449139  1
  Sm  Sm1  1  0.250000  0.683833  0.550861  1
  Th  Th2  1  0.750000  0.474810  0.777181  1
  Th  Th3  1  0.250000  0.025893  0.283551  1
  Th  Th4  1  0.750000  0.974107  0.716449  1
  Th  Th5  1  0.250000  0.525190  0.222819  1
  Th  Th6  1  0.750000  0.811167  0.049042  1
  Th  Th7  1  0.250000  0.188833  0.950958  1
  Tc  Tc8  1  0.750000  0.771471  0.363591  1
  Tc  Tc9  1  0.250000  0.725055  0.861421  1
  Tc  Tc10  1  0.250000  0.228529  0.636409  1
  Tc  Tc11  1  0.750000  0.274945  0.138579  1
  C  C12  1  0.250000  0.963704  0.742508  1
  C  C13  1  0.750000  0.533934  0.244182  1
  C  C14  1  0.250000  0.466066  0.755818  1
  C  C15  1  0.750000  0.036296  0.257492  1
  C  C16  1  0.250000  0.323250  0.449163  1
  C  C17  1  0.750000  0.164030  0.945688  1
  C  C18  1  0.250000  0.835970  0.054312  1
  C  C19  1  0.750000  0.676750  0.550837  1
