# generated using pymatgen
data_Ce3Tm(MoN2)4
_symmetry_space_group_name_H-M   'P 1'
_cell_length_a   3.24343100
_cell_length_b   5.70961776
_cell_length_c   10.84481919
_cell_angle_alpha   89.65708277
_cell_angle_beta   90.00000000
_cell_angle_gamma   90.00000000
_symmetry_Int_Tables_number   1
_chemical_formula_structural   Ce3Tm(MoN2)4
_chemical_formula_sum   'Ce3 Tm1 Mo4 N8'
_cell_volume   200.82891187
_cell_formula_units_Z   1
loop_
 _symmetry_equiv_pos_site_id
 _symmetry_equiv_pos_as_xyz
  1  'x, y, z'
loop_
 _atom_site_type_symbol
 _atom_site_label
 _atom_site_symmetry_multiplicity
 _atom_site_fract_x
 _atom_site_fract_y
 _atom_site_fract_z
 _atom_site_occupancy
  Ce  Ce0  1  0.250000  0.074224  0.855748  1
  Ce  Ce1  1  0.250000  0.573096  0.641158  1
  Ce  Ce2  1  0.750000  0.922723  0.148761  1
  Tm  Tm3  1  0.750000  0.424942  0.353302  1
  Mo  Mo4  1  0.250000  0.430023  0.100992  1
  Mo  Mo5  1  0.250000  0.936766  0.406455  1
  Mo  Mo6  1  0.750000  0.567733  0.901133  1
  Mo  Mo7  1  0.750000  0.067994  0.594598  1
  N  N8  1  0.250000  0.167967  0.249946  1
  N  N9  1  0.250000  0.662931  0.257386  1
  N  N10  1  0.750000  0.835174  0.751313  1
  N  N11  1  0.750000  0.333656  0.744762  1
  N  N12  1  0.250000  0.744765  0.995055  1
  N  N13  1  0.250000  0.257006  0.501404  1
  N  N14  1  0.750000  0.253252  0.007885  1
  N  N15  1  0.750000  0.747748  0.490101  1
