# generated using pymatgen
data_Tm7LuV(B8Rh)3
_symmetry_space_group_name_H-M   'P 1'
_cell_length_a   3.59924400
_cell_length_b   9.10272274
_cell_length_c   11.46371441
_cell_angle_alpha   90.20012300
_cell_angle_beta   90.00000000
_cell_angle_gamma   90.00000000
_symmetry_Int_Tables_number   1
_chemical_formula_structural   Tm7LuV(B8Rh)3
_chemical_formula_sum   'Tm7 Lu1 V1 B24 Rh3'
_cell_volume   375.58246930
_cell_formula_units_Z   1
loop_
 _symmetry_equiv_pos_site_id
 _symmetry_equiv_pos_as_xyz
  1  'x, y, z'
loop_
 _atom_site_type_symbol
 _atom_site_label
 _atom_site_symmetry_multiplicity
 _atom_site_fract_x
 _atom_site_fract_y
 _atom_site_fract_z
 _atom_site_occupancy
  Tm  Tm0  1  0.500000  0.317504  0.410429  1
  Tm  Tm1  1  0.500000  0.677425  0.584413  1
  Tm  Tm2  1  0.500000  0.178263  0.918069  1
  Tm  Tm3  1  0.500000  0.824861  0.087505  1
  Tm  Tm4  1  0.500000  0.443198  0.126104  1
  Tm  Tm5  1  0.500000  0.557424  0.872212  1
  Tm  Tm6  1  0.500000  0.055841  0.628500  1
  Lu  Lu7  1  0.500000  0.946149  0.372511  1
  V  V8  1  0.500000  0.138073  0.179495  1
  B  B9  1  0.000000  0.105922  0.471958  1
  B  B10  1  0.000000  0.893009  0.529376  1
  B  B11  1  0.000000  0.395148  0.969704  1
  B  B12  1  0.000000  0.608163  0.028813  1
  B  B13  1  0.000000  0.131262  0.316529  1
  B  B14  1  0.000000  0.867266  0.683382  1
  B  B15  1  0.000000  0.368094  0.816692  1
  B  B16  1  0.000000  0.632914  0.183896  1
  B  B17  1  0.000000  0.051604  0.065924  1
  B  B18  1  0.000000  0.947700  0.934130  1
  B  B19  1  0.000000  0.445770  0.564762  1
  B  B20  1  0.000000  0.552647  0.433649  1
  B  B21  1  0.000000  0.481622  0.287398  1
  B  B22  1  0.000000  0.518209  0.711365  1
  B  B23  1  0.000000  0.018445  0.788034  1
  B  B24  1  0.000000  0.980504  0.213672  1
  B  B25  1  0.000000  0.249581  0.079809  1
  B  B26  1  0.000000  0.751518  0.920043  1
  B  B27  1  0.000000  0.249837  0.578815  1
  B  B28  1  0.000000  0.750111  0.420600  1
  B  B29  1  0.000000  0.294057  0.236143  1
  B  B30  1  0.000000  0.706111  0.763174  1
  B  B31  1  0.000000  0.207407  0.736502  1
  B  B32  1  0.000000  0.793406  0.265721  1
  Rh  Rh33  1  0.500000  0.860833  0.820352  1
  Rh  Rh34  1  0.500000  0.361067  0.678918  1
  Rh  Rh35  1  0.500000  0.639059  0.321404  1
