# generated using pymatgen
data_Li3UAs6Rh7
_symmetry_space_group_name_H-M   'P 1'
_cell_length_a   7.05897970
_cell_length_b   7.05898022
_cell_length_c   7.03322600
_cell_angle_alpha   109.39732498
_cell_angle_beta   109.39732646
_cell_angle_gamma   109.54500808
_symmetry_Int_Tables_number   1
_chemical_formula_structural   Li3UAs6Rh7
_chemical_formula_sum   'Li3 U1 As6 Rh7'
_cell_volume   270.02990373
_cell_formula_units_Z   1
loop_
 _symmetry_equiv_pos_site_id
 _symmetry_equiv_pos_as_xyz
  1  'x, y, z'
loop_
 _atom_site_type_symbol
 _atom_site_label
 _atom_site_symmetry_multiplicity
 _atom_site_fract_x
 _atom_site_fract_y
 _atom_site_fract_z
 _atom_site_occupancy
  Li  Li0  1  0.500000  0.000000  0.000000  1
  Li  Li1  1  0.000000  0.500000  0.000000  1
  Li  Li2  1  0.500000  0.500000  0.500000  1
  U  U3  1  0.000000  0.000000  0.500000  1
  As  As4  1  0.681049  0.681049  0.986168  1
  As  As5  1  0.318951  0.318951  0.013832  1
  As  As6  1  0.000000  0.681049  0.694882  1
  As  As7  1  0.000000  0.318951  0.305118  1
  As  As8  1  0.681049  0.000000  0.694882  1
  As  As9  1  0.318951  0.000000  0.305118  1
  Rh  Rh10  1  0.000000  0.000000  0.000000  1
  Rh  Rh11  1  0.249892  0.499785  0.749892  1
  Rh  Rh12  1  0.750108  0.249892  0.500000  1
  Rh  Rh13  1  0.499785  0.249892  0.749892  1
  Rh  Rh14  1  0.500215  0.750108  0.250108  1
  Rh  Rh15  1  0.750108  0.500215  0.250108  1
  Rh  Rh16  1  0.249892  0.750108  0.500000  1
