# generated using pymatgen
data_Nd3Sn3HgRh2
_symmetry_space_group_name_H-M   'P 1'
_cell_length_a   7.74280500
_cell_length_b   7.74280490
_cell_length_c   4.13626000
_cell_angle_alpha   90.00000000
_cell_angle_beta   90.00000000
_cell_angle_gamma   119.99999615
_symmetry_Int_Tables_number   1
_chemical_formula_structural   Nd3Sn3HgRh2
_chemical_formula_sum   'Nd3 Sn3 Hg1 Rh2'
_cell_volume   214.75096139
_cell_formula_units_Z   1
loop_
 _symmetry_equiv_pos_site_id
 _symmetry_equiv_pos_as_xyz
  1  'x, y, z'
loop_
 _atom_site_type_symbol
 _atom_site_label
 _atom_site_symmetry_multiplicity
 _atom_site_fract_x
 _atom_site_fract_y
 _atom_site_fract_z
 _atom_site_occupancy
  Nd  Nd0  1  0.018651  0.601233  0.000000  1
  Nd  Nd1  1  0.398767  0.417418  0.000000  1
  Nd  Nd2  1  0.582582  0.981349  0.000000  1
  Sn  Sn3  1  0.750318  0.760966  0.500000  1
  Sn  Sn4  1  0.010648  0.249682  0.500000  1
  Sn  Sn5  1  0.239034  0.989352  0.500000  1
  Hg  Hg6  1  0.666667  0.333333  0.500000  1
  Rh  Rh7  1  0.000000  0.000000  0.000000  1
  Rh  Rh8  1  0.333333  0.666667  0.500000  1
