# generated using pymatgen
data_Sm3Ho3(Sn3Hg2)2
_symmetry_space_group_name_H-M   'P 1'
_cell_length_a   6.47124739
_cell_length_b   6.47124795
_cell_length_c   10.27035428
_cell_angle_alpha   90.09585196
_cell_angle_beta   90.09585272
_cell_angle_gamma   102.86742925
_symmetry_Int_Tables_number   1
_chemical_formula_structural   Sm3Ho3(Sn3Hg2)2
_chemical_formula_sum   'Sm3 Ho3 Sn6 Hg4'
_cell_volume   419.29009722
_cell_formula_units_Z   1
loop_
 _symmetry_equiv_pos_site_id
 _symmetry_equiv_pos_as_xyz
  1  'x, y, z'
loop_
 _atom_site_type_symbol
 _atom_site_label
 _atom_site_symmetry_multiplicity
 _atom_site_fract_x
 _atom_site_fract_y
 _atom_site_fract_z
 _atom_site_occupancy
  Sm  Sm0  1  0.204952  0.795048  0.000000  1
  Sm  Sm1  1  0.204371  0.795629  0.500000  1
  Sm  Sm2  1  0.795663  0.204337  0.500000  1
  Ho  Ho3  1  0.625065  0.624765  0.250106  1
  Ho  Ho4  1  0.375235  0.374935  0.749894  1
  Ho  Ho5  1  0.795252  0.204748  0.000000  1
  Sn  Sn6  1  0.064077  0.494155  0.249240  1
  Sn  Sn7  1  0.933729  0.502349  0.751675  1
  Sn  Sn8  1  0.497651  0.066271  0.248325  1
  Sn  Sn9  1  0.505845  0.935923  0.750760  1
  Sn  Sn10  1  0.012385  0.014022  0.248570  1
  Sn  Sn11  1  0.985978  0.987615  0.751430  1
  Hg  Hg12  1  0.313911  0.313983  0.038888  1
  Hg  Hg13  1  0.686017  0.686089  0.961112  1
  Hg  Hg14  1  0.685771  0.685903  0.539287  1
  Hg  Hg15  1  0.314097  0.314229  0.460713  1
