# generated using pymatgen
data_Dy11Y(Er2Bi3)4
_symmetry_space_group_name_H-M   'P 1'
_cell_length_a   8.23969207
_cell_length_b   9.49747300
_cell_length_c   12.05113310
_cell_angle_alpha   90.00113293
_cell_angle_beta   89.98560009
_cell_angle_gamma   90.00134421
_symmetry_Int_Tables_number   1
_chemical_formula_structural   Dy11Y(Er2Bi3)4
_chemical_formula_sum   'Dy11 Y1 Er8 Bi12'
_cell_volume   943.07648941
_cell_formula_units_Z   1
loop_
 _symmetry_equiv_pos_site_id
 _symmetry_equiv_pos_as_xyz
  1  'x, y, z'
loop_
 _atom_site_type_symbol
 _atom_site_label
 _atom_site_symmetry_multiplicity
 _atom_site_fract_x
 _atom_site_fract_y
 _atom_site_fract_z
 _atom_site_occupancy
  Dy  Dy0  1  0.186301  0.749900  0.718826  1
  Dy  Dy1  1  0.686327  0.750103  0.781184  1
  Dy  Dy2  1  0.813687  0.249901  0.281175  1
  Dy  Dy3  1  0.313708  0.250101  0.218795  1
  Dy  Dy4  1  0.693665  0.563200  0.059980  1
  Dy  Dy5  1  0.193666  0.936760  0.439996  1
  Dy  Dy6  1  0.306388  0.063172  0.940109  1
  Dy  Dy7  1  0.806278  0.436803  0.559987  1
  Dy  Dy8  1  0.354084  0.750056  0.215546  1
  Dy  Dy9  1  0.854098  0.749953  0.284439  1
  Dy  Dy10  1  0.645905  0.250054  0.784458  1
  Y  Y11  1  0.145966  0.249962  0.715390  1
  Er  Er12  1  0.025765  0.750110  0.988748  1
  Er  Er13  1  0.525730  0.749900  0.511271  1
  Er  Er14  1  0.974253  0.250116  0.011278  1
  Er  Er15  1  0.474148  0.249882  0.488724  1
  Er  Er16  1  0.306549  0.435548  0.940251  1
  Er  Er17  1  0.806449  0.064458  0.559855  1
  Er  Er18  1  0.693504  0.935529  0.059854  1
  Er  Er19  1  0.193522  0.564492  0.440148  1
  Bi  Bi20  1  0.433984  0.003730  0.673165  1
  Bi  Bi21  1  0.933899  0.496295  0.826831  1
  Bi  Bi22  1  0.566084  0.503767  0.326827  1
  Bi  Bi23  1  0.066076  0.996270  0.173187  1
  Bi  Bi24  1  0.566550  0.996077  0.326839  1
  Bi  Bi25  1  0.066539  0.503890  0.173173  1
  Bi  Bi26  1  0.433520  0.496111  0.673163  1
  Bi  Bi27  1  0.933437  0.003861  0.826833  1
  Bi  Bi28  1  0.408390  0.748978  0.957887  1
  Bi  Bi29  1  0.908368  0.751021  0.542107  1
  Bi  Bi30  1  0.591631  0.248995  0.042078  1
  Bi  Bi31  1  0.091528  0.251007  0.457897  1
