# generated using pymatgen
data_CuTc3Sn8
_symmetry_space_group_name_H-M   'P 1'
_cell_length_a   5.47426300
_cell_length_b   5.44657568
_cell_length_c   9.46262600
_cell_angle_alpha   90.00000000
_cell_angle_beta   90.00000000
_cell_angle_gamma   120.16828342
_symmetry_Int_Tables_number   1
_chemical_formula_structural   CuTc3Sn8
_chemical_formula_sum   'Cu1 Tc3 Sn8'
_cell_volume   243.92289115
_cell_formula_units_Z   1
loop_
 _symmetry_equiv_pos_site_id
 _symmetry_equiv_pos_as_xyz
  1  'x, y, z'
loop_
 _atom_site_type_symbol
 _atom_site_label
 _atom_site_symmetry_multiplicity
 _atom_site_fract_x
 _atom_site_fract_y
 _atom_site_fract_z
 _atom_site_occupancy
  Cu  Cu0  1  0.750000  0.000000  0.000000  1
  Tc  Tc1  1  0.250000  0.000000  0.500000  1
  Tc  Tc2  1  0.250000  0.000000  0.000000  1
  Tc  Tc3  1  0.750000  0.000000  0.500000  1
  Sn  Sn4  1  0.250000  0.500000  0.404398  1
  Sn  Sn5  1  0.750000  0.500000  0.911843  1
  Sn  Sn6  1  0.250000  0.500000  0.088157  1
  Sn  Sn7  1  0.750000  0.500000  0.595602  1
  Sn  Sn8  1  0.911961  0.817069  0.250735  1
  Sn  Sn9  1  0.405108  0.817069  0.749265  1
  Sn  Sn10  1  0.588039  0.182931  0.250735  1
  Sn  Sn11  1  0.094892  0.182931  0.749265  1
