# generated using pymatgen
data_Ho6Al24FeRe3Pt4
_symmetry_space_group_name_H-M   'P 1'
_cell_length_a   8.84219139
_cell_length_b   8.84219171
_cell_length_c   9.48581268
_cell_angle_alpha   90.62864432
_cell_angle_beta   89.37135293
_cell_angle_gamma   119.48928595
_symmetry_Int_Tables_number   1
_chemical_formula_structural   Ho6Al24FeRe3Pt4
_chemical_formula_sum   'Ho6 Al24 Fe1 Re3 Pt4'
_cell_volume   645.50863780
_cell_formula_units_Z   1
loop_
 _symmetry_equiv_pos_site_id
 _symmetry_equiv_pos_as_xyz
  1  'x, y, z'
loop_
 _atom_site_type_symbol
 _atom_site_label
 _atom_site_symmetry_multiplicity
 _atom_site_fract_x
 _atom_site_fract_y
 _atom_site_fract_z
 _atom_site_occupancy
  Ho  Ho0  1  0.187522  0.385992  0.253594  1
  Ho  Ho1  1  0.812478  0.614008  0.746406  1
  Ho  Ho2  1  0.614008  0.812478  0.253594  1
  Ho  Ho3  1  0.385992  0.187522  0.746406  1
  Ho  Ho4  1  0.194017  0.805983  0.254613  1
  Ho  Ho5  1  0.805983  0.194017  0.745387  1
  Al  Al6  1  0.333626  0.666374  0.029021  1
  Al  Al7  1  0.666374  0.333626  0.970979  1
  Al  Al8  1  0.668646  0.331354  0.519841  1
  Al  Al9  1  0.331354  0.668646  0.480159  1
  Al  Al10  1  0.155193  0.317935  0.576119  1
  Al  Al11  1  0.844807  0.682065  0.423881  1
  Al  Al12  1  0.682065  0.844807  0.576119  1
  Al  Al13  1  0.837425  0.678742  0.080269  1
  Al  Al14  1  0.317935  0.155193  0.423881  1
  Al  Al15  1  0.162575  0.321258  0.919731  1
  Al  Al16  1  0.161109  0.838891  0.575200  1
  Al  Al17  1  0.321258  0.162575  0.080269  1
  Al  Al18  1  0.838891  0.161109  0.424800  1
  Al  Al19  1  0.678742  0.837425  0.919731  1
  Al  Al20  1  0.837666  0.162334  0.077938  1
  Al  Al21  1  0.162334  0.837666  0.922062  1
  Al  Al22  1  0.562386  0.127900  0.251454  1
  Al  Al23  1  0.437614  0.872100  0.748546  1
  Al  Al24  1  0.872100  0.437614  0.251454  1
  Al  Al25  1  0.127900  0.562386  0.748546  1
  Al  Al26  1  0.561778  0.438222  0.248220  1
  Al  Al27  1  0.438222  0.561778  0.751780  1
  Al  Al28  1  0.999093  0.000907  0.258642  1
  Al  Al29  1  0.000907  0.999093  0.741358  1
  Fe  Fe30  1  0.000000  0.000000  0.500000  1
  Re  Re31  1  0.500000  0.000000  0.500000  1
  Re  Re32  1  0.000000  0.500000  0.500000  1
  Re  Re33  1  0.000000  0.000000  0.000000  1
  Pt  Pt34  1  0.500000  0.000000  0.000000  1
  Pt  Pt35  1  0.000000  0.500000  0.000000  1
  Pt  Pt36  1  0.500000  0.500000  0.000000  1
  Pt  Pt37  1  0.500000  0.500000  0.500000  1
