# generated using pymatgen
data_Yb3LuAl17SiIr6
_symmetry_space_group_name_H-M   'P 1'
_cell_length_a   7.51904725
_cell_length_b   7.52148797
_cell_length_c   9.48369600
_cell_angle_alpha   90.00000000
_cell_angle_beta   90.00000000
_cell_angle_gamma   119.54743569
_symmetry_Int_Tables_number   1
_chemical_formula_structural   Yb3LuAl17SiIr6
_chemical_formula_sum   'Yb3 Lu1 Al17 Si1 Ir6'
_cell_volume   466.59207213
_cell_formula_units_Z   1
loop_
 _symmetry_equiv_pos_site_id
 _symmetry_equiv_pos_as_xyz
  1  'x, y, z'
loop_
 _atom_site_type_symbol
 _atom_site_label
 _atom_site_symmetry_multiplicity
 _atom_site_fract_x
 _atom_site_fract_y
 _atom_site_fract_z
 _atom_site_occupancy
  Yb  Yb0  1  0.993286  0.676818  0.250000  1
  Yb  Yb1  1  0.003759  0.330158  0.750000  1
  Yb  Yb2  1  0.677924  0.994125  0.250000  1
  Lu  Lu3  1  0.330368  0.002711  0.750000  1
  Al  Al4  1  0.874392  0.871417  0.750000  1
  Al  Al5  1  0.001215  0.336824  0.072774  1
  Al  Al6  1  0.998414  0.665872  0.927507  1
  Al  Al7  1  0.998414  0.665872  0.572493  1
  Al  Al8  1  0.336587  0.000966  0.426601  1
  Al  Al9  1  0.001215  0.336824  0.427226  1
  Al  Al10  1  0.665590  0.998294  0.572406  1
  Al  Al11  1  0.665590  0.998294  0.927594  1
  Al  Al12  1  0.336587  0.000966  0.073399  1
  Al  Al13  1  0.332765  0.332334  0.555748  1
  Al  Al14  1  0.662782  0.662923  0.450489  1
  Al  Al15  1  0.662782  0.662923  0.049511  1
  Al  Al16  1  0.332765  0.332334  0.944252  1
  Al  Al17  1  0.334514  0.546741  0.250000  1
  Al  Al18  1  0.659475  0.451172  0.750000  1
  Al  Al19  1  0.547256  0.334993  0.250000  1
  Al  Al20  1  0.454277  0.666199  0.750000  1
  Si  Si21  1  0.135432  0.136677  0.250000  1
  Ir  Ir22  1  0.669355  0.326163  0.999447  1
  Ir  Ir23  1  0.326589  0.670283  0.999322  1
  Ir  Ir24  1  0.326589  0.670283  0.500678  1
  Ir  Ir25  1  0.669355  0.326163  0.500553  1
  Ir  Ir26  1  0.001364  0.000837  0.006015  1
  Ir  Ir27  1  0.001364  0.000837  0.493985  1
