# generated using pymatgen
data_HoIO4
_symmetry_space_group_name_H-M   'P 1'
_cell_length_a   5.00829346
_cell_length_b   5.00829359
_cell_length_c   7.19291600
_cell_angle_alpha   90.00000000
_cell_angle_beta   90.00000000
_cell_angle_gamma   94.24736704
_symmetry_Int_Tables_number   1
_chemical_formula_structural   HoIO4
_chemical_formula_sum   'Ho2 I2 O8'
_cell_volume   179.92443361
_cell_formula_units_Z   2
loop_
 _symmetry_equiv_pos_site_id
 _symmetry_equiv_pos_as_xyz
  1  'x, y, z'
loop_
 _atom_site_type_symbol
 _atom_site_label
 _atom_site_symmetry_multiplicity
 _atom_site_fract_x
 _atom_site_fract_y
 _atom_site_fract_z
 _atom_site_occupancy
  Ho  Ho0  1  0.000000  0.000000  0.000000  1
  Ho  Ho1  1  0.000000  0.000000  0.500000  1
  I  I2  1  0.470680  0.529320  0.750000  1
  I  I3  1  0.529320  0.470680  0.250000  1
  O  O4  1  0.308631  0.691369  0.949129  1
  O  O5  1  0.308631  0.691369  0.550871  1
  O  O6  1  0.691369  0.308631  0.050871  1
  O  O7  1  0.691369  0.308631  0.449129  1
  O  O8  1  0.831669  0.764600  0.250000  1
  O  O9  1  0.235400  0.168331  0.250000  1
  O  O10  1  0.764600  0.831669  0.750000  1
  O  O11  1  0.168331  0.235400  0.750000  1
