# generated using pymatgen
data_Hf9TiMo3Rh
_symmetry_space_group_name_H-M   'P 1'
_cell_length_a   8.38188700
_cell_length_b   8.81024357
_cell_length_c   8.81024307
_cell_angle_alpha   119.99479399
_cell_angle_beta   90.00000000
_cell_angle_gamma   90.00000000
_symmetry_Int_Tables_number   1
_chemical_formula_structural   Hf9TiMo3Rh
_chemical_formula_sum   'Hf18 Ti2 Mo6 Rh2'
_cell_volume   563.47028674
_cell_formula_units_Z   2
loop_
 _symmetry_equiv_pos_site_id
 _symmetry_equiv_pos_as_xyz
  1  'x, y, z'
loop_
 _atom_site_type_symbol
 _atom_site_label
 _atom_site_symmetry_multiplicity
 _atom_site_fract_x
 _atom_site_fract_y
 _atom_site_fract_z
 _atom_site_occupancy
  Hf  Hf0  1  0.555336  0.802227  0.604446  1
  Hf  Hf1  1  0.555315  0.802233  0.197767  1
  Hf  Hf2  1  0.555336  0.395554  0.197773  1
  Hf  Hf3  1  0.444664  0.197773  0.395554  1
  Hf  Hf4  1  0.444685  0.197767  0.802233  1
  Hf  Hf5  1  0.444664  0.604446  0.802227  1
  Hf  Hf6  1  0.055336  0.197773  0.395554  1
  Hf  Hf7  1  0.055315  0.197767  0.802233  1
  Hf  Hf8  1  0.055336  0.604446  0.802227  1
  Hf  Hf9  1  0.944664  0.802227  0.604446  1
  Hf  Hf10  1  0.944685  0.802233  0.197767  1
  Hf  Hf11  1  0.944664  0.395554  0.197773  1
  Hf  Hf12  1  0.750000  0.456824  0.913674  1
  Hf  Hf13  1  0.750000  0.456832  0.543168  1
  Hf  Hf14  1  0.750000  0.086326  0.543176  1
  Hf  Hf15  1  0.250000  0.543176  0.086326  1
  Hf  Hf16  1  0.250000  0.543168  0.456832  1
  Hf  Hf17  1  0.250000  0.913674  0.456824  1
  Ti  Ti18  1  0.500000  0.000000  0.000000  1
  Ti  Ti19  1  0.000000  0.000000  0.000000  1
  Mo  Mo20  1  0.750000  0.115439  0.230851  1
  Mo  Mo21  1  0.750000  0.115424  0.884576  1
  Mo  Mo22  1  0.750000  0.769149  0.884561  1
  Mo  Mo23  1  0.250000  0.884561  0.769149  1
  Mo  Mo24  1  0.250000  0.884576  0.115424  1
  Mo  Mo25  1  0.250000  0.230851  0.115439  1
  Rh  Rh26  1  0.750000  0.666702  0.333298  1
  Rh  Rh27  1  0.250000  0.333298  0.666702  1
