# generated using pymatgen
data_Y4Ga18Co5Pd
_symmetry_space_group_name_H-M   'P 1'
_cell_length_a   7.42151069
_cell_length_b   7.42151065
_cell_length_c   9.45349872
_cell_angle_alpha   90.05690150
_cell_angle_beta   90.05689706
_cell_angle_gamma   119.62943704
_symmetry_Int_Tables_number   1
_chemical_formula_structural   Y4Ga18Co5Pd
_chemical_formula_sum   'Y4 Ga18 Co5 Pd1'
_cell_volume   452.60211399
_cell_formula_units_Z   1
loop_
 _symmetry_equiv_pos_site_id
 _symmetry_equiv_pos_as_xyz
  1  'x, y, z'
loop_
 _atom_site_type_symbol
 _atom_site_label
 _atom_site_symmetry_multiplicity
 _atom_site_fract_x
 _atom_site_fract_y
 _atom_site_fract_z
 _atom_site_occupancy
  Y  Y0  1  0.671691  0.996917  0.748528  1
  Y  Y1  1  0.328309  0.003083  0.251472  1
  Y  Y2  1  0.996917  0.671691  0.748528  1
  Y  Y3  1  0.003083  0.328309  0.251472  1
  Ga  Ga4  1  0.999892  0.655881  0.076091  1
  Ga  Ga5  1  0.664696  0.001808  0.428781  1
  Ga  Ga6  1  0.001808  0.664696  0.428781  1
  Ga  Ga7  1  0.000108  0.344119  0.923909  1
  Ga  Ga8  1  0.655881  0.999892  0.076091  1
  Ga  Ga9  1  0.344119  0.000108  0.923909  1
  Ga  Ga10  1  0.666607  0.666607  0.556691  1
  Ga  Ga11  1  0.343397  0.343397  0.062961  1
  Ga  Ga12  1  0.656603  0.656603  0.937039  1
  Ga  Ga13  1  0.333393  0.333393  0.443309  1
  Ga  Ga14  1  0.128724  0.128724  0.741447  1
  Ga  Ga15  1  0.871276  0.871276  0.258553  1
  Ga  Ga16  1  0.664838  0.448282  0.251915  1
  Ga  Ga17  1  0.335162  0.551718  0.748085  1
  Ga  Ga18  1  0.448282  0.664838  0.251915  1
  Ga  Ga19  1  0.551718  0.335162  0.748085  1
  Ga  Ga20  1  0.335304  0.998192  0.571219  1
  Ga  Ga21  1  0.998192  0.335304  0.571219  1
  Co  Co22  1  0.670402  0.329598  0.000000  1
  Co  Co23  1  0.329304  0.670696  0.500000  1
  Co  Co24  1  0.329598  0.670402  0.000000  1
  Co  Co25  1  0.670696  0.329304  0.500000  1
  Co  Co26  1  0.000000  0.000000  0.500000  1
  Pd  Pd27  1  0.000000  0.000000  0.000000  1
