# generated using pymatgen
data_Re5(Tc3B2)3
_symmetry_space_group_name_H-M   'P 1'
_cell_length_a   7.52450400
_cell_length_b   7.52908093
_cell_length_c   4.90016805
_cell_angle_alpha   90.01392622
_cell_angle_beta   90.00000000
_cell_angle_gamma   119.97989285
_symmetry_Int_Tables_number   1
_chemical_formula_structural   Re5(Tc3B2)3
_chemical_formula_sum   'Re5 Tc9 B6'
_cell_volume   240.46362488
_cell_formula_units_Z   1
loop_
 _symmetry_equiv_pos_site_id
 _symmetry_equiv_pos_as_xyz
  1  'x, y, z'
loop_
 _atom_site_type_symbol
 _atom_site_label
 _atom_site_symmetry_multiplicity
 _atom_site_fract_x
 _atom_site_fract_y
 _atom_site_fract_z
 _atom_site_occupancy
  Re  Re0  1  0.545801  0.454016  0.048401  1
  Re  Re1  1  0.454150  0.545813  0.549027  1
  Re  Re2  1  0.545453  0.090905  0.048580  1
  Re  Re3  1  0.908216  0.454016  0.048401  1
  Re  Re4  1  0.091662  0.545813  0.549027  1
  Tc  Tc5  1  0.454515  0.909031  0.550190  1
  Tc  Tc6  1  0.122785  0.876679  0.252774  1
  Tc  Tc7  1  0.877003  0.122893  0.752205  1
  Tc  Tc8  1  0.122909  0.245819  0.252352  1
  Tc  Tc9  1  0.753894  0.876679  0.252774  1
  Tc  Tc10  1  0.245889  0.122893  0.752205  1
  Tc  Tc11  1  0.877076  0.754152  0.752875  1
  Tc  Tc12  1  0.333770  0.667541  0.085023  1
  Tc  Tc13  1  0.666806  0.333612  0.585163  1
  B  B14  1  0.810876  0.621751  0.341075  1
  B  B15  1  0.189516  0.811353  0.840715  1
  B  B16  1  0.810983  0.188882  0.340731  1
  B  B17  1  0.377899  0.188882  0.340731  1
  B  B18  1  0.621837  0.811353  0.840715  1
  B  B19  1  0.188959  0.377918  0.840994  1
