# generated using pymatgen
data_Y3PaAl16(GaIr3)2
_symmetry_space_group_name_H-M   'P 1'
_cell_length_a   7.57141037
_cell_length_b   7.56152701
_cell_length_c   9.47441300
_cell_angle_alpha   90.00000000
_cell_angle_beta   90.00000000
_cell_angle_gamma   119.42649703
_symmetry_Int_Tables_number   1
_chemical_formula_structural   Y3PaAl16(GaIr3)2
_chemical_formula_sum   'Y3 Pa1 Al16 Ga2 Ir6'
_cell_volume   472.44376959
_cell_formula_units_Z   1
loop_
 _symmetry_equiv_pos_site_id
 _symmetry_equiv_pos_as_xyz
  1  'x, y, z'
loop_
 _atom_site_type_symbol
 _atom_site_label
 _atom_site_symmetry_multiplicity
 _atom_site_fract_x
 _atom_site_fract_y
 _atom_site_fract_z
 _atom_site_occupancy
  Y  Y0  1  0.005661  0.326010  0.750000  1
  Y  Y1  1  0.675413  0.993701  0.250000  1
  Y  Y2  1  0.326081  0.005109  0.750000  1
  Pa  Pa3  1  0.994695  0.675904  0.250000  1
  Al  Al4  1  0.001346  0.333982  0.074403  1
  Al  Al5  1  0.998342  0.663480  0.922627  1
  Al  Al6  1  0.998342  0.663480  0.577373  1
  Al  Al7  1  0.339649  0.003942  0.425720  1
  Al  Al8  1  0.001346  0.333982  0.425597  1
  Al  Al9  1  0.664171  0.999211  0.574713  1
  Al  Al10  1  0.664171  0.999211  0.925287  1
  Al  Al11  1  0.339649  0.003942  0.074280  1
  Al  Al12  1  0.333249  0.333309  0.556730  1
  Al  Al13  1  0.662360  0.664837  0.446948  1
  Al  Al14  1  0.662360  0.664837  0.053052  1
  Al  Al15  1  0.333249  0.333309  0.943270  1
  Al  Al16  1  0.336621  0.548226  0.250000  1
  Al  Al17  1  0.660655  0.448618  0.750000  1
  Al  Al18  1  0.548822  0.340475  0.250000  1
  Al  Al19  1  0.449645  0.662406  0.750000  1
  Ga  Ga20  1  0.139801  0.138661  0.250000  1
  Ga  Ga21  1  0.865909  0.867552  0.750000  1
  Ir  Ir22  1  0.673030  0.330436  0.002120  1
  Ir  Ir23  1  0.326787  0.671302  0.002051  1
  Ir  Ir24  1  0.326787  0.671302  0.497949  1
  Ir  Ir25  1  0.673030  0.330436  0.497880  1
  Ir  Ir26  1  0.999415  0.996171  0.003914  1
  Ir  Ir27  1  0.999415  0.996171  0.496086  1
