# generated using pymatgen
data_HfNp3Sb2As3
_symmetry_space_group_name_H-M   'P 1'
_cell_length_a   8.84120600
_cell_length_b   8.84120650
_cell_length_c   6.07198000
_cell_angle_alpha   90.00000000
_cell_angle_beta   90.00000000
_cell_angle_gamma   120.00000560
_symmetry_Int_Tables_number   1
_chemical_formula_structural   HfNp3Sb2As3
_chemical_formula_sum   'Hf2 Np6 Sb4 As6'
_cell_volume   411.03990241
_cell_formula_units_Z   2
loop_
 _symmetry_equiv_pos_site_id
 _symmetry_equiv_pos_as_xyz
  1  'x, y, z'
loop_
 _atom_site_type_symbol
 _atom_site_label
 _atom_site_symmetry_multiplicity
 _atom_site_fract_x
 _atom_site_fract_y
 _atom_site_fract_z
 _atom_site_occupancy
  Hf  Hf0  1  0.000000  0.000000  0.000000  1
  Hf  Hf1  1  0.000000  0.000000  0.500000  1
  Np  Np2  1  0.626709  0.000000  0.250000  1
  Np  Np3  1  0.373291  0.000000  0.750000  1
  Np  Np4  1  0.000000  0.626709  0.250000  1
  Np  Np5  1  0.000000  0.373291  0.750000  1
  Np  Np6  1  0.373291  0.373291  0.250000  1
  Np  Np7  1  0.626709  0.626709  0.750000  1
  Sb  Sb8  1  0.333333  0.666667  0.000000  1
  Sb  Sb9  1  0.666667  0.333333  0.000000  1
  Sb  Sb10  1  0.666667  0.333333  0.500000  1
  Sb  Sb11  1  0.333333  0.666667  0.500000  1
  As  As12  1  0.262486  0.000000  0.250000  1
  As  As13  1  0.737514  0.000000  0.750000  1
  As  As14  1  0.000000  0.262486  0.250000  1
  As  As15  1  0.000000  0.737514  0.750000  1
  As  As16  1  0.737514  0.737514  0.250000  1
  As  As17  1  0.262486  0.262486  0.750000  1
