# generated using pymatgen
data_Hf3Zr7Si2Sn5Sb
_symmetry_space_group_name_H-M   'P 1'
_cell_length_a   8.67833288
_cell_length_b   8.67948611
_cell_length_c   5.85268808
_cell_angle_alpha   90.01491217
_cell_angle_beta   89.97796261
_cell_angle_gamma   119.99854470
_symmetry_Int_Tables_number   1
_chemical_formula_structural   Hf3Zr7Si2Sn5Sb
_chemical_formula_sum   'Hf3 Zr7 Si2 Sn5 Sb1'
_cell_volume   381.78834187
_cell_formula_units_Z   1
loop_
 _symmetry_equiv_pos_site_id
 _symmetry_equiv_pos_as_xyz
  1  'x, y, z'
loop_
 _atom_site_type_symbol
 _atom_site_label
 _atom_site_symmetry_multiplicity
 _atom_site_fract_x
 _atom_site_fract_y
 _atom_site_fract_z
 _atom_site_occupancy
  Hf  Hf0  1  0.667996  0.333956  0.999302  1
  Hf  Hf1  1  0.332039  0.665852  0.999534  1
  Hf  Hf2  1  0.332017  0.665664  0.500549  1
  Zr  Zr3  1  0.739030  0.739696  0.749341  1
  Zr  Zr4  1  0.260669  0.000134  0.749135  1
  Zr  Zr5  1  0.000341  0.261327  0.749208  1
  Zr  Zr6  1  0.257865  0.258736  0.250774  1
  Zr  Zr7  1  0.741526  0.999942  0.250930  1
  Zr  Zr8  1  0.000276  0.739973  0.250813  1
  Zr  Zr9  1  0.668276  0.333586  0.500274  1
  Si  Si10  1  0.999972  0.999319  0.998194  1
  Si  Si11  1  0.999946  0.999279  0.501884  1
  Sn  Sn12  1  0.394440  0.394383  0.750881  1
  Sn  Sn13  1  0.605122  0.998989  0.751188  1
  Sn  Sn14  1  0.000592  0.608257  0.750853  1
  Sn  Sn15  1  0.604603  0.605104  0.249048  1
  Sn  Sn16  1  0.394758  0.999417  0.248935  1
  Sb  Sb17  1  0.000533  0.396381  0.249158  1
