# generated using pymatgen
data_Tb7Sc(Ga3Pd)4
_symmetry_space_group_name_H-M   'P 1'
_cell_length_a   8.96094800
_cell_length_b   8.93852037
_cell_length_c   7.05511700
_cell_angle_alpha   90.00000000
_cell_angle_beta   90.00000000
_cell_angle_gamma   120.08304248
_symmetry_Int_Tables_number   1
_chemical_formula_structural   Tb7Sc(Ga3Pd)4
_chemical_formula_sum   'Tb7 Sc1 Ga12 Pd4'
_cell_volume   488.97924011
_cell_formula_units_Z   1
loop_
 _symmetry_equiv_pos_site_id
 _symmetry_equiv_pos_as_xyz
  1  'x, y, z'
loop_
 _atom_site_type_symbol
 _atom_site_label
 _atom_site_symmetry_multiplicity
 _atom_site_fract_x
 _atom_site_fract_y
 _atom_site_fract_z
 _atom_site_occupancy
  Tb  Tb0  1  0.483523  0.967046  0.750000  1
  Tb  Tb1  1  0.964067  0.481535  0.250000  1
  Tb  Tb2  1  0.034563  0.517388  0.750000  1
  Tb  Tb3  1  0.517468  0.481535  0.250000  1
  Tb  Tb4  1  0.482825  0.517388  0.750000  1
  Tb  Tb5  1  0.000037  0.000076  0.250000  1
  Tb  Tb6  1  0.000157  0.000315  0.750000  1
  Sc  Sc7  1  0.515587  0.031173  0.250000  1
  Ga  Ga8  1  0.167930  0.335861  0.043398  1
  Ga  Ga9  1  0.832157  0.664313  0.956545  1
  Ga  Ga10  1  0.664050  0.834764  0.046716  1
  Ga  Ga11  1  0.832157  0.664313  0.543455  1
  Ga  Ga12  1  0.335403  0.166467  0.958898  1
  Ga  Ga13  1  0.167930  0.335861  0.456602  1
  Ga  Ga14  1  0.170712  0.834764  0.046716  1
  Ga  Ga15  1  0.335403  0.166467  0.541102  1
  Ga  Ga16  1  0.831063  0.166467  0.958898  1
  Ga  Ga17  1  0.664050  0.834764  0.453284  1
  Ga  Ga18  1  0.831063  0.166467  0.541102  1
  Ga  Ga19  1  0.170712  0.834764  0.453284  1
  Pd  Pd20  1  0.334540  0.669082  0.032099  1
  Pd  Pd21  1  0.665029  0.330056  0.974768  1
  Pd  Pd22  1  0.665029  0.330056  0.525232  1
  Pd  Pd23  1  0.334540  0.669082  0.467901  1
