# generated using pymatgen
data_Ce4Ni(Sb4Ru)3
_symmetry_space_group_name_H-M   'P 1'
_cell_length_a   6.06749077
_cell_length_b   6.23184477
_cell_length_c   12.68349200
_cell_angle_alpha   90.00000000
_cell_angle_beta   90.00000000
_cell_angle_gamma   89.94254752
_symmetry_Int_Tables_number   1
_chemical_formula_structural   Ce4Ni(Sb4Ru)3
_chemical_formula_sum   'Ce4 Ni1 Sb12 Ru3'
_cell_volume   479.58365434
_cell_formula_units_Z   1
loop_
 _symmetry_equiv_pos_site_id
 _symmetry_equiv_pos_as_xyz
  1  'x, y, z'
loop_
 _atom_site_type_symbol
 _atom_site_label
 _atom_site_symmetry_multiplicity
 _atom_site_fract_x
 _atom_site_fract_y
 _atom_site_fract_z
 _atom_site_occupancy
  Ce  Ce0  1  0.249536  0.498081  0.303708  1
  Ce  Ce1  1  0.747134  0.500200  0.696785  1
  Ce  Ce2  1  0.252866  0.999800  0.696785  1
  Ce  Ce3  1  0.750464  0.001919  0.303708  1
  Ni  Ni4  1  0.000000  0.750000  0.902105  1
  Sb  Sb5  1  0.000000  0.750000  0.502418  1
  Sb  Sb6  1  0.000000  0.250000  0.498421  1
  Sb  Sb7  1  0.500000  0.250000  0.498417  1
  Sb  Sb8  1  0.500000  0.750000  0.501869  1
  Sb  Sb9  1  0.249831  0.598876  0.057322  1
  Sb  Sb10  1  0.750329  0.399687  0.941545  1
  Sb  Sb11  1  0.249671  0.100313  0.941545  1
  Sb  Sb12  1  0.750169  0.901124  0.057322  1
  Sb  Sb13  1  0.250079  0.989295  0.226028  1
  Sb  Sb14  1  0.755237  0.003852  0.771942  1
  Sb  Sb15  1  0.244763  0.496148  0.771942  1
  Sb  Sb16  1  0.749921  0.510705  0.226028  1
  Ru  Ru17  1  0.000000  0.250000  0.100036  1
  Ru  Ru18  1  0.500000  0.250000  0.102027  1
  Ru  Ru19  1  0.500000  0.750000  0.900047  1
