# generated using pymatgen
data_Tm3In4RhAu
_symmetry_space_group_name_H-M   'P 1'
_cell_length_a   7.86711200
_cell_length_b   7.86711263
_cell_length_c   3.81264500
_cell_angle_alpha   90.00000000
_cell_angle_beta   90.00000000
_cell_angle_gamma   120.00000575
_symmetry_Int_Tables_number   1
_chemical_formula_structural   Tm3In4RhAu
_chemical_formula_sum   'Tm3 In4 Rh1 Au1'
_cell_volume   204.35613349
_cell_formula_units_Z   1
loop_
 _symmetry_equiv_pos_site_id
 _symmetry_equiv_pos_as_xyz
  1  'x, y, z'
loop_
 _atom_site_type_symbol
 _atom_site_label
 _atom_site_symmetry_multiplicity
 _atom_site_fract_x
 _atom_site_fract_y
 _atom_site_fract_z
 _atom_site_occupancy
  Tm  Tm0  1  0.295151  0.250302  0.500000  1
  Tm  Tm1  1  0.749698  0.044849  0.500000  1
  Tm  Tm2  1  0.955151  0.704849  0.500000  1
  In  In3  1  0.065742  0.399762  0.000000  1
  In  In4  1  0.600238  0.665979  0.000000  1
  In  In5  1  0.334021  0.934258  0.000000  1
  In  In6  1  0.666667  0.333333  0.000000  1
  Rh  Rh7  1  0.000000  0.000000  0.000000  1
  Au  Au8  1  0.333333  0.666667  0.500000  1
