# generated using pymatgen
data_Y2Er10OsRh3
_symmetry_space_group_name_H-M   'P 1'
_cell_length_a   6.36444166
_cell_length_b   7.21441067
_cell_length_c   9.13540800
_cell_angle_alpha   90.00000000
_cell_angle_beta   90.00000000
_cell_angle_gamma   90.15641297
_symmetry_Int_Tables_number   1
_chemical_formula_structural   Y2Er10OsRh3
_chemical_formula_sum   'Y2 Er10 Os1 Rh3'
_cell_volume   419.45705172
_cell_formula_units_Z   1
loop_
 _symmetry_equiv_pos_site_id
 _symmetry_equiv_pos_as_xyz
  1  'x, y, z'
loop_
 _atom_site_type_symbol
 _atom_site_label
 _atom_site_symmetry_multiplicity
 _atom_site_fract_x
 _atom_site_fract_y
 _atom_site_fract_z
 _atom_site_occupancy
  Y  Y0  1  0.875021  0.535466  0.250000  1
  Y  Y1  1  0.628191  0.033700  0.250000  1
  Er  Er2  1  0.333039  0.676898  0.057607  1
  Er  Er3  1  0.171323  0.178158  0.437895  1
  Er  Er4  1  0.671588  0.323774  0.564725  1
  Er  Er5  1  0.824994  0.819340  0.934049  1
  Er  Er6  1  0.671588  0.323774  0.935275  1
  Er  Er7  1  0.824994  0.819340  0.565951  1
  Er  Er8  1  0.333039  0.676898  0.442393  1
  Er  Er9  1  0.171323  0.178158  0.062105  1
  Er  Er10  1  0.126926  0.464856  0.750000  1
  Er  Er11  1  0.373067  0.966227  0.750000  1
  Os  Os12  1  0.534687  0.615097  0.750000  1
  Rh  Rh13  1  0.052193  0.887906  0.250000  1
  Rh  Rh14  1  0.450815  0.386277  0.250000  1
  Rh  Rh15  1  0.957213  0.114128  0.750000  1
