# generated using pymatgen
data_LaCd3As(PN2)6
_symmetry_space_group_name_H-M   'P 1'
_cell_length_a   7.51990002
_cell_length_b   7.53702244
_cell_length_c   7.53702102
_cell_angle_alpha   109.51718993
_cell_angle_beta   109.42520522
_cell_angle_gamma   109.42521819
_symmetry_Int_Tables_number   1
_chemical_formula_structural   LaCd3As(PN2)6
_chemical_formula_sum   'La1 Cd3 As1 P6 N12'
_cell_volume   329.03037700
_cell_formula_units_Z   1
loop_
 _symmetry_equiv_pos_site_id
 _symmetry_equiv_pos_as_xyz
  1  'x, y, z'
loop_
 _atom_site_type_symbol
 _atom_site_label
 _atom_site_symmetry_multiplicity
 _atom_site_fract_x
 _atom_site_fract_y
 _atom_site_fract_z
 _atom_site_occupancy
  La  La0  1  0.644754  0.000000  0.000000  1
  Cd  Cd1  1  0.997852  0.000000  0.654776  1
  Cd  Cd2  1  0.997852  0.654776  0.000000  1
  Cd  Cd3  1  0.343075  0.345224  0.345224  1
  As  As4  1  0.029811  0.000000  0.000000  1
  P  P5  1  0.245512  0.749324  0.495019  1
  P  P6  1  0.750494  0.254307  0.504981  1
  P  P7  1  0.750494  0.504981  0.254307  1
  P  P8  1  0.245512  0.495019  0.749324  1
  P  P9  1  0.496187  0.745693  0.250676  1
  P  P10  1  0.496187  0.250676  0.745693  1
  N  N11  1  0.718297  0.306552  0.306552  1
  N  N12  1  0.287632  0.700878  0.288776  1
  N  N13  1  0.305587  0.601381  0.601381  1
  N  N14  1  0.586754  0.587898  0.299122  1
  N  N15  1  0.411745  0.693448  0.000000  1
  N  N16  1  0.998856  0.711224  0.412102  1
  N  N17  1  0.586754  0.299122  0.587898  1
  N  N18  1  0.704206  0.000000  0.398619  1
  N  N19  1  0.411745  0.000000  0.693448  1
  N  N20  1  0.704206  0.398619  0.000000  1
  N  N21  1  0.287632  0.288776  0.700878  1
  N  N22  1  0.998856  0.412102  0.711224  1
