# generated using pymatgen
data_Cs4Na2DyHoAs4
_symmetry_space_group_name_H-M   'P 1'
_cell_length_a   9.79600514
_cell_length_b   9.79600433
_cell_length_c   9.79600516
_cell_angle_alpha   136.35481549
_cell_angle_beta   136.58991716
_cell_angle_gamma   63.25108598
_symmetry_Int_Tables_number   1
_chemical_formula_structural   Cs4Na2DyHoAs4
_chemical_formula_sum   'Cs4 Na2 Dy1 Ho1 As4'
_cell_volume   440.17031985
_cell_formula_units_Z   1
loop_
 _symmetry_equiv_pos_site_id
 _symmetry_equiv_pos_as_xyz
  1  'x, y, z'
loop_
 _atom_site_type_symbol
 _atom_site_label
 _atom_site_symmetry_multiplicity
 _atom_site_fract_x
 _atom_site_fract_y
 _atom_site_fract_z
 _atom_site_occupancy
  Cs  Cs0  1  0.681168  0.397524  0.716232  1
  Cs  Cs1  1  0.818832  0.035065  0.216356  1
  Cs  Cs2  1  0.181291  0.964935  0.783768  1
  Cs  Cs3  1  0.318709  0.602476  0.283644  1
  Na  Na4  1  0.750000  0.000000  0.750000  1
  Na  Na5  1  0.250000  0.000000  0.250000  1
  Dy  Dy6  1  0.750000  0.500000  0.250000  1
  Ho  Ho7  1  0.250000  0.500000  0.750000  1
  As  As8  1  0.409109  0.189825  0.779006  1
  As  As9  1  0.589180  0.810175  0.219284  1
  As  As10  1  0.090891  0.369894  0.280716  1
  As  As11  1  0.910820  0.630106  0.720994  1
