# generated using pymatgen
data_Er3Al12IrRu2Pt
_symmetry_space_group_name_H-M   'P 1'
_cell_length_a   8.79231851
_cell_length_b   8.80185948
_cell_length_c   9.50480322
_cell_angle_alpha   89.86195206
_cell_angle_beta   90.23126331
_cell_angle_gamma   119.73106313
_symmetry_Int_Tables_number   1
_chemical_formula_structural   Er3Al12IrRu2Pt
_chemical_formula_sum   'Er6 Al24 Ir2 Ru4 Pt2'
_cell_volume   638.73186660
_cell_formula_units_Z   2
loop_
 _symmetry_equiv_pos_site_id
 _symmetry_equiv_pos_as_xyz
  1  'x, y, z'
loop_
 _atom_site_type_symbol
 _atom_site_label
 _atom_site_symmetry_multiplicity
 _atom_site_fract_x
 _atom_site_fract_y
 _atom_site_fract_z
 _atom_site_occupancy
  Er  Er0  1  0.191932  0.385992  0.249665  1
  Er  Er1  1  0.808068  0.614008  0.750335  1
  Er  Er2  1  0.611779  0.808144  0.248545  1
  Er  Er3  1  0.388221  0.191856  0.751455  1
  Er  Er4  1  0.194558  0.806992  0.250808  1
  Er  Er5  1  0.805442  0.193008  0.749192  1
  Al  Al6  1  0.331424  0.668180  0.029342  1
  Al  Al7  1  0.668576  0.331820  0.970658  1
  Al  Al8  1  0.661307  0.330410  0.528670  1
  Al  Al9  1  0.338693  0.669590  0.471330  1
  Al  Al10  1  0.168763  0.325268  0.576821  1
  Al  Al11  1  0.831237  0.674732  0.423179  1
  Al  Al12  1  0.673501  0.835912  0.576730  1
  Al  Al13  1  0.840812  0.675526  0.077819  1
  Al  Al14  1  0.326499  0.164088  0.423270  1
  Al  Al15  1  0.159188  0.324474  0.922181  1
  Al  Al16  1  0.168065  0.841994  0.578267  1
  Al  Al17  1  0.325273  0.159978  0.078321  1
  Al  Al18  1  0.831935  0.158006  0.421733  1
  Al  Al19  1  0.674727  0.840022  0.921679  1
  Al  Al20  1  0.837331  0.163425  0.078198  1
  Al  Al21  1  0.162669  0.836575  0.921802  1
  Al  Al22  1  0.560809  0.123580  0.250890  1
  Al  Al23  1  0.439191  0.876420  0.749110  1
  Al  Al24  1  0.873348  0.436872  0.247614  1
  Al  Al25  1  0.126652  0.563128  0.752386  1
  Al  Al26  1  0.561724  0.437106  0.253308  1
  Al  Al27  1  0.438276  0.562894  0.746692  1
  Al  Al28  1  0.000215  0.001114  0.249988  1
  Al  Al29  1  0.999785  0.998886  0.750012  1
  Ir  Ir30  1  0.500000  0.000000  0.000000  1
  Ir  Ir31  1  0.000000  0.500000  0.000000  1
  Ru  Ru32  1  0.500000  0.000000  0.500000  1
  Ru  Ru33  1  0.500000  0.500000  0.500000  1
  Ru  Ru34  1  0.000000  0.000000  0.000000  1
  Ru  Ru35  1  0.000000  0.000000  0.500000  1
  Pt  Pt36  1  0.500000  0.500000  0.000000  1
  Pt  Pt37  1  0.000000  0.500000  0.500000  1
