# generated using pymatgen
data_Nb5Bi4MoS12
_symmetry_space_group_name_H-M   'P 1'
_cell_length_a   5.75556600
_cell_length_b   5.76088873
_cell_length_c   17.57250900
_cell_angle_alpha   90.00000000
_cell_angle_beta   90.00000000
_cell_angle_gamma   119.96945244
_symmetry_Int_Tables_number   1
_chemical_formula_structural   Nb5Bi4MoS12
_chemical_formula_sum   'Nb5 Bi4 Mo1 S12'
_cell_volume   504.74907570
_cell_formula_units_Z   1
loop_
 _symmetry_equiv_pos_site_id
 _symmetry_equiv_pos_as_xyz
  1  'x, y, z'
loop_
 _atom_site_type_symbol
 _atom_site_label
 _atom_site_symmetry_multiplicity
 _atom_site_fract_x
 _atom_site_fract_y
 _atom_site_fract_z
 _atom_site_occupancy
  Nb  Nb0  1  0.673192  0.673427  0.250000  1
  Nb  Nb1  1  0.999764  0.326573  0.250000  1
  Nb  Nb2  1  0.999709  0.673642  0.750000  1
  Nb  Nb3  1  0.327152  0.000000  0.250000  1
  Nb  Nb4  1  0.326066  0.326358  0.750000  1
  Bi  Bi5  1  0.334493  0.667504  0.001527  1
  Bi  Bi6  1  0.666990  0.332496  0.498473  1
  Bi  Bi7  1  0.334493  0.667504  0.498473  1
  Bi  Bi8  1  0.666990  0.332496  0.001527  1
  Mo  Mo9  1  0.672430  0.000000  0.750000  1
  S  S10  1  0.338937  0.672476  0.662993  1
  S  S11  1  0.666656  0.333444  0.161330  1
  S  S12  1  0.666462  0.327524  0.837007  1
  S  S13  1  0.333211  0.666556  0.338670  1
  S  S14  1  0.333211  0.666556  0.161330  1
  S  S15  1  0.666462  0.327524  0.662993  1
  S  S16  1  0.666656  0.333444  0.338670  1
  S  S17  1  0.338937  0.672476  0.837007  1
  S  S18  1  0.000012  0.000000  0.158483  1
  S  S19  1  0.994081  0.000000  0.659719  1
  S  S20  1  0.994081  0.000000  0.840281  1
  S  S21  1  0.000012  0.000000  0.341517  1
