# generated using pymatgen
data_Tb3Tl4Cd
_symmetry_space_group_name_H-M   'P 1'
_cell_length_a   6.44814625
_cell_length_b   6.44814646
_cell_length_c   10.76324100
_cell_angle_alpha   90.00000000
_cell_angle_beta   90.00000000
_cell_angle_gamma   104.75748646
_symmetry_Int_Tables_number   1
_chemical_formula_structural   Tb3Tl4Cd
_chemical_formula_sum   'Tb6 Tl8 Cd2'
_cell_volume   432.75789411
_cell_formula_units_Z   2
loop_
 _symmetry_equiv_pos_site_id
 _symmetry_equiv_pos_as_xyz
  1  'x, y, z'
loop_
 _atom_site_type_symbol
 _atom_site_label
 _atom_site_symmetry_multiplicity
 _atom_site_fract_x
 _atom_site_fract_y
 _atom_site_fract_z
 _atom_site_occupancy
  Tb  Tb0  1  0.611531  0.611531  0.250000  1
  Tb  Tb1  1  0.388469  0.388469  0.750000  1
  Tb  Tb2  1  0.205329  0.794671  0.500000  1
  Tb  Tb3  1  0.205329  0.794671  0.000000  1
  Tb  Tb4  1  0.794671  0.205329  0.500000  1
  Tb  Tb5  1  0.794671  0.205329  0.000000  1
  Tl  Tl6  1  0.301433  0.301433  0.034898  1
  Tl  Tl7  1  0.698567  0.698567  0.965102  1
  Tl  Tl8  1  0.301433  0.301433  0.465102  1
  Tl  Tl9  1  0.698567  0.698567  0.534898  1
  Tl  Tl10  1  0.524429  0.072187  0.250000  1
  Tl  Tl11  1  0.927813  0.475571  0.750000  1
  Tl  Tl12  1  0.475571  0.927813  0.750000  1
  Tl  Tl13  1  0.072187  0.524429  0.250000  1
  Cd  Cd14  1  0.016653  0.016653  0.250000  1
  Cd  Cd15  1  0.983347  0.983347  0.750000  1
