# generated using pymatgen
data_NdTh(Si2Ni9)2
_symmetry_space_group_name_H-M   'P 1'
_cell_length_a   7.59355371
_cell_length_b   7.59355337
_cell_length_c   7.59355384
_cell_angle_alpha   99.59791110
_cell_angle_beta   99.59791068
_cell_angle_gamma   131.80014745
_symmetry_Int_Tables_number   1
_chemical_formula_structural   NdTh(Si2Ni9)2
_chemical_formula_sum   'Nd1 Th1 Si4 Ni18'
_cell_volume   297.96140262
_cell_formula_units_Z   1
loop_
 _symmetry_equiv_pos_site_id
 _symmetry_equiv_pos_as_xyz
  1  'x, y, z'
loop_
 _atom_site_type_symbol
 _atom_site_label
 _atom_site_symmetry_multiplicity
 _atom_site_fract_x
 _atom_site_fract_y
 _atom_site_fract_z
 _atom_site_occupancy
  Nd  Nd0  1  0.750000  0.250000  0.500000  1
  Th  Th1  1  0.500000  0.500000  0.000000  1
  Si  Si2  1  0.624997  0.875781  0.749215  1
  Si  Si3  1  0.124219  0.375003  0.250785  1
  Si  Si4  1  0.124219  0.873434  0.749215  1
  Si  Si5  1  0.126566  0.875781  0.250785  1
  Ni  Ni6  1  0.250000  0.750000  0.500000  1
  Ni  Ni7  1  0.000000  0.000000  0.000000  1
  Ni  Ni8  1  0.687773  0.014818  0.078658  1
  Ni  Ni9  1  0.687773  0.609114  0.672955  1
  Ni  Ni10  1  0.267697  0.439044  0.580095  1
  Ni  Ni11  1  0.267697  0.687602  0.828653  1
  Ni  Ni12  1  0.936160  0.014818  0.327045  1
  Ni  Ni13  1  0.936160  0.609114  0.921342  1
  Ni  Ni14  1  0.858948  0.439044  0.171347  1
  Ni  Ni15  1  0.858948  0.687602  0.419905  1
  Ni  Ni16  1  0.560956  0.732303  0.419905  1
  Ni  Ni17  1  0.560956  0.141052  0.828653  1
  Ni  Ni18  1  0.985182  0.312227  0.921342  1
  Ni  Ni19  1  0.985182  0.063840  0.672955  1
  Ni  Ni20  1  0.312398  0.732303  0.171347  1
  Ni  Ni21  1  0.312398  0.141052  0.580095  1
  Ni  Ni22  1  0.390886  0.312227  0.327045  1
  Ni  Ni23  1  0.390886  0.063840  0.078658  1
