# generated using pymatgen
data_Al2ZnAg6
_symmetry_space_group_name_H-M   'P 1'
_cell_length_a   7.78980900
_cell_length_b   7.78980883
_cell_length_c   2.90621900
_cell_angle_alpha   90.00000000
_cell_angle_beta   90.00000000
_cell_angle_gamma   120.00000497
_symmetry_Int_Tables_number   1
_chemical_formula_structural   Al2ZnAg6
_chemical_formula_sum   'Al2 Zn1 Ag6'
_cell_volume   152.72585205
_cell_formula_units_Z   1
loop_
 _symmetry_equiv_pos_site_id
 _symmetry_equiv_pos_as_xyz
  1  'x, y, z'
loop_
 _atom_site_type_symbol
 _atom_site_label
 _atom_site_symmetry_multiplicity
 _atom_site_fract_x
 _atom_site_fract_y
 _atom_site_fract_z
 _atom_site_occupancy
  Al  Al0  1  0.333333  0.666667  0.000000  1
  Al  Al1  1  0.000000  0.000000  0.500000  1
  Zn  Zn2  1  0.666667  0.333333  0.000000  1
  Ag  Ag3  1  0.301423  0.000103  0.000000  1
  Ag  Ag4  1  0.698681  0.698577  0.000000  1
  Ag  Ag5  1  0.999897  0.301319  0.000000  1
  Ag  Ag6  1  0.001866  0.636683  0.500000  1
  Ag  Ag7  1  0.363317  0.365182  0.500000  1
  Ag  Ag8  1  0.634818  0.998134  0.500000  1
