# generated using pymatgen
data_Tb7Er9Cd3AgIr4
_symmetry_space_group_name_H-M   'P 1'
_cell_length_a   9.59738947
_cell_length_b   9.59739007
_cell_length_c   9.59617413
_cell_angle_alpha   59.88418135
_cell_angle_beta   59.88418229
_cell_angle_gamma   59.94981488
_symmetry_Int_Tables_number   1
_chemical_formula_structural   Tb7Er9Cd3AgIr4
_chemical_formula_sum   'Tb7 Er9 Cd3 Ag1 Ir4'
_cell_volume   623.68095843
_cell_formula_units_Z   1
loop_
 _symmetry_equiv_pos_site_id
 _symmetry_equiv_pos_as_xyz
  1  'x, y, z'
loop_
 _atom_site_type_symbol
 _atom_site_label
 _atom_site_symmetry_multiplicity
 _atom_site_fract_x
 _atom_site_fract_y
 _atom_site_fract_z
 _atom_site_occupancy
  Tb  Tb0  1  0.060814  0.060814  0.437124  1
  Tb  Tb1  1  0.187164  0.810385  0.811307  1
  Tb  Tb2  1  0.810445  0.188224  0.187469  1
  Tb  Tb3  1  0.810385  0.187164  0.811307  1
  Tb  Tb4  1  0.188224  0.810445  0.187469  1
  Tb  Tb5  1  0.810744  0.810744  0.187201  1
  Tb  Tb6  1  0.187695  0.187695  0.811239  1
  Er  Er7  1  0.598346  0.598346  0.598518  1
  Er  Er8  1  0.599827  0.599827  0.203023  1
  Er  Er9  1  0.598609  0.203908  0.599966  1
  Er  Er10  1  0.203908  0.598609  0.599966  1
  Er  Er11  1  0.060711  0.439266  0.438579  1
  Er  Er12  1  0.437594  0.061075  0.060560  1
  Er  Er13  1  0.439266  0.060711  0.438579  1
  Er  Er14  1  0.061075  0.437594  0.060560  1
  Er  Er15  1  0.438580  0.438580  0.060772  1
  Cd  Cd16  1  0.830865  0.830865  0.509410  1
  Cd  Cd17  1  0.830986  0.509381  0.830998  1
  Cd  Cd18  1  0.509381  0.830986  0.830998  1
  Ag  Ag19  1  0.832476  0.832476  0.832676  1
  Ir  Ir20  1  0.391667  0.391667  0.391734  1
  Ir  Ir21  1  0.392360  0.392360  0.825943  1
  Ir  Ir22  1  0.394060  0.824820  0.392302  1
  Ir  Ir23  1  0.824820  0.394060  0.392302  1
