# generated using pymatgen
data_Sc(SiRh2)2
_symmetry_space_group_name_H-M   'P 1'
_cell_length_a   4.07197400
_cell_length_b   8.93199000
_cell_length_c   11.15734100
_cell_angle_alpha   90.00000000
_cell_angle_beta   90.00000000
_cell_angle_gamma   90.00000000
_symmetry_Int_Tables_number   1
_chemical_formula_structural   Sc(SiRh2)2
_chemical_formula_sum   'Sc4 Si8 Rh16'
_cell_volume   405.80176446
_cell_formula_units_Z   4
loop_
 _symmetry_equiv_pos_site_id
 _symmetry_equiv_pos_as_xyz
  1  'x, y, z'
loop_
 _atom_site_type_symbol
 _atom_site_label
 _atom_site_symmetry_multiplicity
 _atom_site_fract_x
 _atom_site_fract_y
 _atom_site_fract_z
 _atom_site_occupancy
  Sc  Sc0  1  0.250000  0.146068  0.825952  1
  Sc  Sc1  1  0.250000  0.353932  0.325952  1
  Sc  Sc2  1  0.750000  0.853932  0.174048  1
  Sc  Sc3  1  0.750000  0.646068  0.674048  1
  Si  Si4  1  0.250000  0.414215  0.638423  1
  Si  Si5  1  0.250000  0.085785  0.138423  1
  Si  Si6  1  0.750000  0.585785  0.361577  1
  Si  Si7  1  0.750000  0.914215  0.861577  1
  Si  Si8  1  0.250000  0.617890  0.059449  1
  Si  Si9  1  0.250000  0.882110  0.559449  1
  Si  Si10  1  0.750000  0.382110  0.940551  1
  Si  Si11  1  0.750000  0.117890  0.440551  1
  Rh  Rh12  1  0.250000  0.615892  0.501853  1
  Rh  Rh13  1  0.250000  0.884108  0.001853  1
  Rh  Rh14  1  0.750000  0.384108  0.498147  1
  Rh  Rh15  1  0.750000  0.115892  0.998147  1
  Rh  Rh16  1  0.250000  0.695306  0.266578  1
  Rh  Rh17  1  0.250000  0.804694  0.766578  1
  Rh  Rh18  1  0.750000  0.304694  0.733422  1
  Rh  Rh19  1  0.750000  0.195306  0.233422  1
  Rh  Rh20  1  0.250000  0.171897  0.560541  1
  Rh  Rh21  1  0.250000  0.328103  0.060541  1
  Rh  Rh22  1  0.750000  0.828103  0.439459  1
  Rh  Rh23  1  0.750000  0.671897  0.939459  1
  Rh  Rh24  1  0.250000  0.007636  0.342033  1
  Rh  Rh25  1  0.250000  0.492364  0.842033  1
  Rh  Rh26  1  0.750000  0.992364  0.657967  1
  Rh  Rh27  1  0.750000  0.507636  0.157967  1
