# generated using pymatgen
data_K3CoPdO4
_symmetry_space_group_name_H-M   'P 1'
_cell_length_a   7.27608510
_cell_length_b   7.27608549
_cell_length_c   5.94546200
_cell_angle_alpha   79.55157344
_cell_angle_beta   79.55157287
_cell_angle_gamma   84.12191235
_symmetry_Int_Tables_number   1
_chemical_formula_structural   K3CoPdO4
_chemical_formula_sum   'K6 Co2 Pd2 O8'
_cell_volume   303.62172411
_cell_formula_units_Z   2
loop_
 _symmetry_equiv_pos_site_id
 _symmetry_equiv_pos_as_xyz
  1  'x, y, z'
loop_
 _atom_site_type_symbol
 _atom_site_label
 _atom_site_symmetry_multiplicity
 _atom_site_fract_x
 _atom_site_fract_y
 _atom_site_fract_z
 _atom_site_occupancy
  K  K0  1  0.076409  0.243400  0.036259  1
  K  K1  1  0.600037  0.399963  0.250000  1
  K  K2  1  0.243400  0.076409  0.536259  1
  K  K3  1  0.756600  0.923591  0.463741  1
  K  K4  1  0.923591  0.756600  0.963741  1
  K  K5  1  0.399963  0.600037  0.750000  1
  Co  Co6  1  0.735339  0.264661  0.750000  1
  Co  Co7  1  0.264661  0.735339  0.250000  1
  Pd  Pd8  1  0.500000  0.000000  0.000000  1
  Pd  Pd9  1  0.000000  0.500000  0.500000  1
  O  O10  1  0.213244  0.494341  0.217147  1
  O  O11  1  0.903061  0.250893  0.471731  1
  O  O12  1  0.494341  0.213244  0.717147  1
  O  O13  1  0.250893  0.903061  0.971731  1
  O  O14  1  0.096939  0.749107  0.528269  1
  O  O15  1  0.749107  0.096939  0.028269  1
  O  O16  1  0.505659  0.786756  0.282853  1
  O  O17  1  0.786756  0.505659  0.782853  1
