# generated using pymatgen
data_Zr2TiP2Ru
_symmetry_space_group_name_H-M   'P 1'
_cell_length_a   3.78122000
_cell_length_b   6.51565800
_cell_length_c   7.78162500
_cell_angle_alpha   90.00000000
_cell_angle_beta   90.00000000
_cell_angle_gamma   90.00000000
_symmetry_Int_Tables_number   1
_chemical_formula_structural   Zr2TiP2Ru
_chemical_formula_sum   'Zr4 Ti2 P4 Ru2'
_cell_volume   191.71695609
_cell_formula_units_Z   2
loop_
 _symmetry_equiv_pos_site_id
 _symmetry_equiv_pos_as_xyz
  1  'x, y, z'
loop_
 _atom_site_type_symbol
 _atom_site_label
 _atom_site_symmetry_multiplicity
 _atom_site_fract_x
 _atom_site_fract_y
 _atom_site_fract_z
 _atom_site_occupancy
  Zr  Zr0  1  0.750000  0.529714  0.324873  1
  Zr  Zr1  1  0.250000  0.970584  0.828961  1
  Zr  Zr2  1  0.750000  0.029714  0.175127  1
  Zr  Zr3  1  0.250000  0.470584  0.671039  1
  Ti  Ti4  1  0.250000  0.361619  0.053341  1
  Ti  Ti5  1  0.250000  0.861619  0.446659  1
  P  P6  1  0.250000  0.737726  0.131651  1
  P  P7  1  0.250000  0.237726  0.368349  1
  P  P8  1  0.750000  0.265358  0.855827  1
  P  P9  1  0.750000  0.765358  0.644173  1
  Ru  Ru10  1  0.750000  0.134998  0.555943  1
  Ru  Ru11  1  0.750000  0.634998  0.944057  1
