# generated using pymatgen
data_Co5Si7BMo12C
_symmetry_space_group_name_H-M   'P 1'
_cell_length_a   7.76430499
_cell_length_b   7.76430461
_cell_length_c   7.76430404
_cell_angle_alpha   60.25082777
_cell_angle_beta   60.25083216
_cell_angle_gamma   60.25082769
_symmetry_Int_Tables_number   1
_chemical_formula_structural   Co5Si7BMo12C
_chemical_formula_sum   'Co5 Si7 B1 Mo12 C1'
_cell_volume   332.85231227
_cell_formula_units_Z   1
loop_
 _symmetry_equiv_pos_site_id
 _symmetry_equiv_pos_as_xyz
  1  'x, y, z'
loop_
 _atom_site_type_symbol
 _atom_site_label
 _atom_site_symmetry_multiplicity
 _atom_site_fract_x
 _atom_site_fract_y
 _atom_site_fract_z
 _atom_site_occupancy
  Co  Co0  1  0.830571  0.830571  0.830571  1
  Co  Co1  1  0.617472  0.617472  0.142219  1
  Co  Co2  1  0.617472  0.142219  0.617472  1
  Co  Co3  1  0.142219  0.617472  0.617472  1
  Co  Co4  1  0.627250  0.627250  0.627250  1
  Si  Si5  1  0.414499  0.414499  0.758383  1
  Si  Si6  1  0.414499  0.758383  0.414499  1
  Si  Si7  1  0.758383  0.414499  0.414499  1
  Si  Si8  1  0.413121  0.413121  0.413121  1
  Si  Si9  1  0.836867  0.836867  0.503400  1
  Si  Si10  1  0.836867  0.503400  0.836867  1
  Si  Si11  1  0.503400  0.836867  0.836867  1
  B  B12  1  0.249587  0.249587  0.249587  1
  Mo  Mo13  1  0.049588  0.049588  0.453195  1
  Mo  Mo14  1  0.447286  0.052456  0.447286  1
  Mo  Mo15  1  0.052456  0.447286  0.447286  1
  Mo  Mo16  1  0.447286  0.447286  0.052456  1
  Mo  Mo17  1  0.049588  0.453195  0.049588  1
  Mo  Mo18  1  0.453195  0.049588  0.049588  1
  Mo  Mo19  1  0.190839  0.190839  0.807590  1
  Mo  Mo20  1  0.805946  0.188712  0.805946  1
  Mo  Mo21  1  0.188712  0.805946  0.805946  1
  Mo  Mo22  1  0.805946  0.805946  0.188712  1
  Mo  Mo23  1  0.190839  0.807590  0.190839  1
  Mo  Mo24  1  0.807590  0.190839  0.190839  1
  C  C25  1  0.998521  0.998521  0.998521  1
