# generated using pymatgen
data_Th3Ga3CuIrRu
_symmetry_space_group_name_H-M   'P 1'
_cell_length_a   7.31377300
_cell_length_b   7.31377306
_cell_length_c   4.00878900
_cell_angle_alpha   90.00000000
_cell_angle_beta   90.00000000
_cell_angle_gamma   120.00000424
_symmetry_Int_Tables_number   1
_chemical_formula_structural   Th3Ga3CuIrRu
_chemical_formula_sum   'Th3 Ga3 Cu1 Ir1 Ru1'
_cell_volume   185.70635622
_cell_formula_units_Z   1
loop_
 _symmetry_equiv_pos_site_id
 _symmetry_equiv_pos_as_xyz
  1  'x, y, z'
loop_
 _atom_site_type_symbol
 _atom_site_label
 _atom_site_symmetry_multiplicity
 _atom_site_fract_x
 _atom_site_fract_y
 _atom_site_fract_z
 _atom_site_occupancy
  Th  Th0  1  0.421422  0.418809  0.500000  1
  Th  Th1  1  0.581191  0.002614  0.500000  1
  Th  Th2  1  0.997386  0.578578  0.500000  1
  Ga  Ga3  1  0.764299  0.760849  0.000000  1
  Ga  Ga4  1  0.239151  0.003450  0.000000  1
  Ga  Ga5  1  0.996550  0.235701  0.000000  1
  Cu  Cu6  1  0.000000  0.000000  0.500000  1
  Ir  Ir7  1  0.333333  0.666667  0.000000  1
  Ru  Ru8  1  0.666667  0.333333  0.000000  1
