# generated using pymatgen
data_Ba4TiCrN6
_symmetry_space_group_name_H-M   'P 1'
_cell_length_a   6.59919444
_cell_length_b   6.59919431
_cell_length_c   13.13851164
_cell_angle_alpha   89.46905954
_cell_angle_beta   90.53093979
_cell_angle_gamma   126.45693903
_symmetry_Int_Tables_number   1
_chemical_formula_structural   Ba4TiCrN6
_chemical_formula_sum   'Ba8 Ti2 Cr2 N12'
_cell_volume   460.17674846
_cell_formula_units_Z   2
loop_
 _symmetry_equiv_pos_site_id
 _symmetry_equiv_pos_as_xyz
  1  'x, y, z'
loop_
 _atom_site_type_symbol
 _atom_site_label
 _atom_site_symmetry_multiplicity
 _atom_site_fract_x
 _atom_site_fract_y
 _atom_site_fract_z
 _atom_site_occupancy
  Ba  Ba0  1  0.556288  0.443712  0.651349  1
  Ba  Ba1  1  0.443712  0.556288  0.348651  1
  Ba  Ba2  1  0.942513  0.057487  0.136885  1
  Ba  Ba3  1  0.057487  0.942513  0.863115  1
  Ba  Ba4  1  0.858702  0.141298  0.579170  1
  Ba  Ba5  1  0.141298  0.858702  0.420830  1
  Ba  Ba6  1  0.642012  0.357988  0.078315  1
  Ba  Ba7  1  0.357988  0.642012  0.921685  1
  Ti  Ti8  1  0.743081  0.256919  0.831533  1
  Ti  Ti9  1  0.256919  0.743081  0.168467  1
  Cr  Cr10  1  0.759332  0.240668  0.336579  1
  Cr  Cr11  1  0.240668  0.759332  0.663421  1
  N  N12  1  0.840657  0.159343  0.944260  1
  N  N13  1  0.159343  0.840657  0.055740  1
  N  N14  1  0.673224  0.326776  0.442931  1
  N  N15  1  0.326776  0.673224  0.557069  1
  N  N16  1  0.587834  0.412166  0.865378  1
  N  N17  1  0.412166  0.587834  0.134622  1
  N  N18  1  0.902959  0.097041  0.371838  1
  N  N19  1  0.097041  0.902959  0.628162  1
  N  N20  1  0.509440  0.969854  0.739777  1
  N  N21  1  0.969854  0.509440  0.260223  1
  N  N22  1  0.490560  0.030146  0.260223  1
  N  N23  1  0.030146  0.490560  0.739777  1
