# generated using pymatgen
data_CaYHo2(SiPd2)4
_symmetry_space_group_name_H-M   'P 1'
_cell_length_a   5.55434901
_cell_length_b   6.99149800
_cell_length_c   7.33476002
_cell_angle_alpha   90.00008784
_cell_angle_beta   90.00791950
_cell_angle_gamma   90.00019118
_symmetry_Int_Tables_number   1
_chemical_formula_structural   CaYHo2(SiPd2)4
_chemical_formula_sum   'Ca1 Y1 Ho2 Si4 Pd8'
_cell_volume   284.83234682
_cell_formula_units_Z   1
loop_
 _symmetry_equiv_pos_site_id
 _symmetry_equiv_pos_as_xyz
  1  'x, y, z'
loop_
 _atom_site_type_symbol
 _atom_site_label
 _atom_site_symmetry_multiplicity
 _atom_site_fract_x
 _atom_site_fract_y
 _atom_site_fract_z
 _atom_site_occupancy
  Ca  Ca0  1  0.361614  0.749997  0.027071  1
  Y  Y1  1  0.141548  0.750000  0.527642  1
  Ho  Ho2  1  0.640970  0.250002  0.972350  1
  Ho  Ho3  1  0.858298  0.249999  0.473156  1
  Si  Si4  1  0.642311  0.749998  0.378076  1
  Si  Si5  1  0.861051  0.750001  0.877720  1
  Si  Si6  1  0.358736  0.250001  0.623149  1
  Si  Si7  1  0.140058  0.250000  0.122549  1
  Pd  Pd8  1  0.903012  0.550407  0.176647  1
  Pd  Pd9  1  0.599488  0.948984  0.676545  1
  Pd  Pd10  1  0.089853  0.053195  0.820614  1
  Pd  Pd11  1  0.405355  0.446174  0.325350  1
  Pd  Pd12  1  0.089848  0.446802  0.820611  1
  Pd  Pd13  1  0.405354  0.053826  0.325346  1
  Pd  Pd14  1  0.903008  0.949596  0.176637  1
  Pd  Pd15  1  0.599495  0.551018  0.676538  1
