# generated using pymatgen
data_Th2Si6Pd20Rh
_symmetry_space_group_name_H-M   'P 1'
_cell_length_a   8.68809390
_cell_length_b   8.68809405
_cell_length_c   8.71628676
_cell_angle_alpha   60.10693667
_cell_angle_beta   60.10693848
_cell_angle_gamma   59.99999811
_symmetry_Int_Tables_number   1
_chemical_formula_structural   Th2Si6Pd20Rh
_chemical_formula_sum   'Th2 Si6 Pd20 Rh1'
_cell_volume   465.97821577
_cell_formula_units_Z   1
loop_
 _symmetry_equiv_pos_site_id
 _symmetry_equiv_pos_as_xyz
  1  'x, y, z'
loop_
 _atom_site_type_symbol
 _atom_site_label
 _atom_site_symmetry_multiplicity
 _atom_site_fract_x
 _atom_site_fract_y
 _atom_site_fract_z
 _atom_site_occupancy
  Th  Th0  1  0.746195  0.746195  0.761414  1
  Th  Th1  1  0.249931  0.249931  0.250206  1
  Si  Si2  1  0.733691  0.733691  0.263387  1
  Si  Si3  1  0.269230  0.733691  0.263387  1
  Si  Si4  1  0.733691  0.269230  0.263387  1
  Si  Si5  1  0.263360  0.263360  0.736417  1
  Si  Si6  1  0.736862  0.263360  0.736417  1
  Si  Si7  1  0.263360  0.736862  0.736417  1
  Pd  Pd8  1  0.000343  0.000343  0.998971  1
  Pd  Pd9  1  0.615785  0.152902  0.615526  1
  Pd  Pd10  1  0.152902  0.615785  0.615526  1
  Pd  Pd11  1  0.615785  0.615785  0.615526  1
  Pd  Pd12  1  0.384194  0.384194  0.847420  1
  Pd  Pd13  1  0.383561  0.847435  0.385444  1
  Pd  Pd14  1  0.847435  0.383561  0.385444  1
  Pd  Pd15  1  0.383561  0.383561  0.385444  1
  Pd  Pd16  1  0.999588  0.999588  0.344006  1
  Pd  Pd17  1  0.656817  0.999588  0.344006  1
  Pd  Pd18  1  0.999588  0.656817  0.344006  1
  Pd  Pd19  1  0.655106  0.344165  0.999779  1
  Pd  Pd20  1  0.000951  0.344165  0.999779  1
  Pd  Pd21  1  0.000686  0.345180  0.653448  1
  Pd  Pd22  1  0.344165  0.655106  0.999779  1
  Pd  Pd23  1  0.345180  0.000686  0.653448  1
  Pd  Pd24  1  0.344165  0.000951  0.999779  1
  Pd  Pd25  1  0.000686  0.000686  0.653448  1
  Pd  Pd26  1  0.000951  0.655106  0.999779  1
  Pd  Pd27  1  0.655106  0.000951  0.999779  1
  Rh  Rh28  1  0.617122  0.617122  0.148632  1
