# generated using pymatgen
data_MnV3SiN
_symmetry_space_group_name_H-M   'P 1'
_cell_length_a   6.43962300
_cell_length_b   6.43962300
_cell_length_c   6.43962300
_cell_angle_alpha   90.00000000
_cell_angle_beta   90.00000000
_cell_angle_gamma   90.00000000
_symmetry_Int_Tables_number   1
_chemical_formula_structural   MnV3SiN
_chemical_formula_sum   'Mn4 V12 Si4 N4'
_cell_volume   267.04308010
_cell_formula_units_Z   4
loop_
 _symmetry_equiv_pos_site_id
 _symmetry_equiv_pos_as_xyz
  1  'x, y, z'
loop_
 _atom_site_type_symbol
 _atom_site_label
 _atom_site_symmetry_multiplicity
 _atom_site_fract_x
 _atom_site_fract_y
 _atom_site_fract_z
 _atom_site_occupancy
  Mn  Mn0  1  0.576334  0.423666  0.923666  1
  Mn  Mn1  1  0.423666  0.923666  0.576334  1
  Mn  Mn2  1  0.923666  0.576334  0.423666  1
  Mn  Mn3  1  0.076334  0.076334  0.076334  1
  V  V4  1  0.793025  0.949669  0.377375  1
  V  V5  1  0.706975  0.050331  0.877375  1
  V  V6  1  0.206975  0.449669  0.122625  1
  V  V7  1  0.293025  0.550331  0.622625  1
  V  V8  1  0.949669  0.377375  0.793025  1
  V  V9  1  0.050331  0.877375  0.706975  1
  V  V10  1  0.449669  0.122625  0.206975  1
  V  V11  1  0.550331  0.622625  0.293025  1
  V  V12  1  0.377375  0.793025  0.949669  1
  V  V13  1  0.877375  0.706975  0.050331  1
  V  V14  1  0.122625  0.206975  0.449669  1
  V  V15  1  0.622625  0.293025  0.550331  1
  Si  Si16  1  0.178782  0.821218  0.321218  1
  Si  Si17  1  0.321218  0.178782  0.821218  1
  Si  Si18  1  0.821218  0.321218  0.178782  1
  Si  Si19  1  0.678782  0.678782  0.678782  1
  N  N20  1  0.874878  0.125122  0.625122  1
  N  N21  1  0.625122  0.874878  0.125122  1
  N  N22  1  0.125122  0.625122  0.874878  1
  N  N23  1  0.374878  0.374878  0.374878  1
