# generated using pymatgen
data_LiCaSmGa(Ni3B)2
_symmetry_space_group_name_H-M   'P 1'
_cell_length_a   5.14629300
_cell_length_b   5.14629284
_cell_length_c   7.00551500
_cell_angle_alpha   90.00000000
_cell_angle_beta   90.00000000
_cell_angle_gamma   120.00000746
_symmetry_Int_Tables_number   1
_chemical_formula_structural   LiCaSmGa(Ni3B)2
_chemical_formula_sum   'Li1 Ca1 Sm1 Ga1 Ni6 B2'
_cell_volume   160.67920358
_cell_formula_units_Z   1
loop_
 _symmetry_equiv_pos_site_id
 _symmetry_equiv_pos_as_xyz
  1  'x, y, z'
loop_
 _atom_site_type_symbol
 _atom_site_label
 _atom_site_symmetry_multiplicity
 _atom_site_fract_x
 _atom_site_fract_y
 _atom_site_fract_z
 _atom_site_occupancy
  Li  Li0  1  0.666667  0.333333  0.500000  1
  Ca  Ca1  1  0.000000  0.000000  0.500000  1
  Sm  Sm2  1  0.000000  0.000000  0.000000  1
  Ga  Ga3  1  0.333333  0.666667  0.500000  1
  Ni  Ni4  1  0.498822  0.501178  0.800512  1
  Ni  Ni5  1  0.002355  0.501178  0.800512  1
  Ni  Ni6  1  0.498822  0.997645  0.800512  1
  Ni  Ni7  1  0.002355  0.501178  0.199488  1
  Ni  Ni8  1  0.498822  0.501178  0.199488  1
  Ni  Ni9  1  0.498822  0.997645  0.199488  1
  B  B10  1  0.666667  0.333333  0.000000  1
  B  B11  1  0.333333  0.666667  0.000000  1
