# generated using pymatgen
data_Dy2Y(Ir2Rh)3
_symmetry_space_group_name_H-M   'P 1'
_cell_length_a   5.31153313
_cell_length_b   5.30582841
_cell_length_c   17.48441350
_cell_angle_alpha   90.00004163
_cell_angle_beta   90.02385825
_cell_angle_gamma   119.96457877
_symmetry_Int_Tables_number   1
_chemical_formula_structural   Dy2Y(Ir2Rh)3
_chemical_formula_sum   'Dy4 Y2 Ir12 Rh6'
_cell_volume   426.88377386
_cell_formula_units_Z   2
loop_
 _symmetry_equiv_pos_site_id
 _symmetry_equiv_pos_as_xyz
  1  'x, y, z'
loop_
 _atom_site_type_symbol
 _atom_site_label
 _atom_site_symmetry_multiplicity
 _atom_site_fract_x
 _atom_site_fract_y
 _atom_site_fract_z
 _atom_site_occupancy
  Dy  Dy0  1  0.333009  0.666505  0.958385  1
  Dy  Dy1  1  0.667525  0.333763  0.041591  1
  Dy  Dy2  1  0.666738  0.333369  0.459005  1
  Dy  Dy3  1  0.333212  0.666606  0.541134  1
  Y  Y4  1  0.333222  0.666610  0.749708  1
  Y  Y5  1  0.666733  0.333367  0.250636  1
  Ir  Ir6  1  0.167554  0.832134  0.374364  1
  Ir  Ir7  1  0.167554  0.335421  0.374363  1
  Ir  Ir8  1  0.665087  0.832544  0.374076  1
  Ir  Ir9  1  0.832617  0.167854  0.625676  1
  Ir  Ir10  1  0.832616  0.664762  0.625676  1
  Ir  Ir11  1  0.335426  0.167714  0.625509  1
  Ir  Ir12  1  0.831942  0.167167  0.874100  1
  Ir  Ir13  1  0.831942  0.664774  0.874100  1
  Ir  Ir14  1  0.335001  0.167500  0.874446  1
  Ir  Ir15  1  0.165865  0.831335  0.125924  1
  Ir  Ir16  1  0.165865  0.334531  0.125924  1
  Ir  Ir17  1  0.999457  0.999728  0.500076  1
  Rh  Rh18  1  0.663839  0.831919  0.125236  1
  Rh  Rh19  1  0.333694  0.666848  0.249518  1
  Rh  Rh20  1  0.666521  0.333259  0.750440  1
  Rh  Rh21  1  0.001327  0.000664  0.249910  1
  Rh  Rh22  1  0.000205  0.000102  0.750084  1
  Rh  Rh23  1  0.003049  0.001525  0.000119  1
