# generated using pymatgen
data_DyY2TlIn3Rh2
_symmetry_space_group_name_H-M   'P 1'
_cell_length_a   7.76458200
_cell_length_b   7.75239855
_cell_length_c   3.90537600
_cell_angle_alpha   90.00000000
_cell_angle_beta   90.00000000
_cell_angle_gamma   119.98443274
_symmetry_Int_Tables_number   1
_chemical_formula_structural   DyY2TlIn3Rh2
_chemical_formula_sum   'Dy1 Y2 Tl1 In3 Rh2'
_cell_volume   203.61780989
_cell_formula_units_Z   1
loop_
 _symmetry_equiv_pos_site_id
 _symmetry_equiv_pos_as_xyz
  1  'x, y, z'
loop_
 _atom_site_type_symbol
 _atom_site_label
 _atom_site_symmetry_multiplicity
 _atom_site_fract_x
 _atom_site_fract_y
 _atom_site_fract_z
 _atom_site_occupancy
  Dy  Dy0  1  0.384979  0.415827  0.500000  1
  Y  Y1  1  0.028846  0.613762  0.500000  1
  Y  Y2  1  0.584904  0.970966  0.500000  1
  Tl  Tl3  1  0.666082  0.333381  0.000000  1
  In  In4  1  0.005142  0.256157  0.000000  1
  In  In5  1  0.250848  0.994293  0.000000  1
  In  In6  1  0.744008  0.749688  0.000000  1
  Rh  Rh7  1  0.001342  0.001029  0.500000  1
  Rh  Rh8  1  0.333847  0.664895  0.000000  1
