# generated using pymatgen
data_Ba5TlSi2
_symmetry_space_group_name_H-M   'P 1'
_cell_length_a   10.66008722
_cell_length_b   10.66008626
_cell_length_c   10.66008659
_cell_angle_alpha   132.29334613
_cell_angle_beta   132.29333472
_cell_angle_gamma   69.76611193
_symmetry_Int_Tables_number   1
_chemical_formula_structural   Ba5TlSi2
_chemical_formula_sum   'Ba10 Tl2 Si4'
_cell_volume   650.04191431
_cell_formula_units_Z   2
loop_
 _symmetry_equiv_pos_site_id
 _symmetry_equiv_pos_as_xyz
  1  'x, y, z'
loop_
 _atom_site_type_symbol
 _atom_site_label
 _atom_site_symmetry_multiplicity
 _atom_site_fract_x
 _atom_site_fract_y
 _atom_site_fract_z
 _atom_site_occupancy
  Ba  Ba0  1  0.539176  0.039469  0.853752  1
  Ba  Ba1  1  0.185716  0.685422  0.146248  1
  Ba  Ba2  1  0.039469  0.185716  0.500294  1
  Ba  Ba3  1  0.685422  0.539176  0.499706  1
  Ba  Ba4  1  0.460824  0.960531  0.146248  1
  Ba  Ba5  1  0.814284  0.314578  0.853752  1
  Ba  Ba6  1  0.960531  0.814284  0.499706  1
  Ba  Ba7  1  0.314578  0.460824  0.500294  1
  Ba  Ba8  1  0.000000  0.000000  0.000000  1
  Ba  Ba9  1  0.500000  0.500000  0.000000  1
  Tl  Tl10  1  0.249495  0.249495  0.000000  1
  Tl  Tl11  1  0.750505  0.750505  0.000000  1
  Si  Si12  1  0.899558  0.399668  0.299226  1
  Si  Si13  1  0.100442  0.600332  0.700774  1
  Si  Si14  1  0.399668  0.100442  0.500109  1
  Si  Si15  1  0.600332  0.899558  0.499891  1
