# generated using pymatgen
data_Ce8LuScSn6
_symmetry_space_group_name_H-M   'P 1'
_cell_length_a   9.08825249
_cell_length_b   9.08825208
_cell_length_c   9.08825300
_cell_angle_alpha   96.61816513
_cell_angle_beta   96.61815848
_cell_angle_gamma   140.30866709
_symmetry_Int_Tables_number   1
_chemical_formula_structural   Ce8LuScSn6
_chemical_formula_sum   'Ce8 Lu1 Sc1 Sn6'
_cell_volume   450.93588960
_cell_formula_units_Z   1
loop_
 _symmetry_equiv_pos_site_id
 _symmetry_equiv_pos_as_xyz
  1  'x, y, z'
loop_
 _atom_site_type_symbol
 _atom_site_label
 _atom_site_symmetry_multiplicity
 _atom_site_fract_x
 _atom_site_fract_y
 _atom_site_fract_z
 _atom_site_occupancy
  Ce  Ce0  1  0.098327  0.234659  0.331887  1
  Ce  Ce1  1  0.902772  0.766439  0.668113  1
  Ce  Ce2  1  0.765341  0.097228  0.863668  1
  Ce  Ce3  1  0.401673  0.733561  0.136332  1
  Ce  Ce4  1  0.233561  0.901673  0.136332  1
  Ce  Ce5  1  0.597228  0.265341  0.863668  1
  Ce  Ce6  1  0.734659  0.598327  0.331887  1
  Ce  Ce7  1  0.266439  0.402772  0.668113  1
  Lu  Lu8  1  0.250000  0.750000  0.500000  1
  Sc  Sc9  1  0.750000  0.250000  0.500000  1
  Sn  Sn10  1  0.148767  0.648767  0.802603  1
  Sn  Sn11  1  0.846164  0.346164  0.197397  1
  Sn  Sn12  1  0.351233  0.153836  0.500000  1
  Sn  Sn13  1  0.653836  0.851233  0.500000  1
  Sn  Sn14  1  0.250000  0.250000  0.000000  1
  Sn  Sn15  1  0.750000  0.750000  0.000000  1
