# generated using pymatgen
data_Rb3YSb2
_symmetry_space_group_name_H-M   'P 1'
_cell_length_a   10.19371137
_cell_length_b   10.19371208
_cell_length_c   10.19371134
_cell_angle_alpha   128.34354479
_cell_angle_beta   70.61021515
_cell_angle_gamma   135.36668598
_symmetry_Int_Tables_number   1
_chemical_formula_structural   Rb3YSb2
_chemical_formula_sum   'Rb6 Y2 Sb4'
_cell_volume   572.03757479
_cell_formula_units_Z   2
loop_
 _symmetry_equiv_pos_site_id
 _symmetry_equiv_pos_as_xyz
  1  'x, y, z'
loop_
 _atom_site_type_symbol
 _atom_site_label
 _atom_site_symmetry_multiplicity
 _atom_site_fract_x
 _atom_site_fract_y
 _atom_site_fract_z
 _atom_site_occupancy
  Rb  Rb0  1  0.812394  0.200303  0.012698  1
  Rb  Rb1  1  0.687606  0.700303  0.387908  1
  Rb  Rb2  1  0.750000  0.250001  0.500000  1
  Rb  Rb3  1  0.250001  0.750001  0.500000  1
  Rb  Rb4  1  0.312394  0.299697  0.612091  1
  Rb  Rb5  1  0.187606  0.799697  0.987302  1
  Y  Y6  1  0.250001  0.250001  0.000000  1
  Y  Y7  1  0.750001  0.750001  0.000000  1
  Sb  Sb8  1  0.402313  0.693252  0.095565  1
  Sb  Sb9  1  0.097687  0.193252  0.290938  1
  Sb  Sb10  1  0.902313  0.806748  0.709062  1
  Sb  Sb11  1  0.597686  0.306748  0.904435  1
