# generated using pymatgen
data_Nb3FeRu2N
_symmetry_space_group_name_H-M   'P 1'
_cell_length_a   8.22862363
_cell_length_b   8.22862366
_cell_length_c   8.22862400
_cell_angle_alpha   59.99999865
_cell_angle_beta   59.99999853
_cell_angle_gamma   59.99999914
_symmetry_Int_Tables_number   1
_chemical_formula_structural   Nb3FeRu2N
_chemical_formula_sum   'Nb12 Fe4 Ru8 N4'
_cell_volume   393.97313401
_cell_formula_units_Z   4
loop_
 _symmetry_equiv_pos_site_id
 _symmetry_equiv_pos_as_xyz
  1  'x, y, z'
loop_
 _atom_site_type_symbol
 _atom_site_label
 _atom_site_symmetry_multiplicity
 _atom_site_fract_x
 _atom_site_fract_y
 _atom_site_fract_z
 _atom_site_occupancy
  Nb  Nb0  1  0.806854  0.806854  0.193146  1
  Nb  Nb1  1  0.193146  0.193146  0.806854  1
  Nb  Nb2  1  0.806854  0.193146  0.806854  1
  Nb  Nb3  1  0.193146  0.806854  0.193146  1
  Nb  Nb4  1  0.193146  0.806854  0.806854  1
  Nb  Nb5  1  0.806854  0.193146  0.193146  1
  Nb  Nb6  1  0.443146  0.443146  0.056854  1
  Nb  Nb7  1  0.056854  0.056854  0.443146  1
  Nb  Nb8  1  0.443146  0.056854  0.443146  1
  Nb  Nb9  1  0.056854  0.443146  0.056854  1
  Nb  Nb10  1  0.056854  0.443146  0.443146  1
  Nb  Nb11  1  0.443146  0.056854  0.056854  1
  Fe  Fe12  1  0.125000  0.625000  0.625000  1
  Fe  Fe13  1  0.625000  0.125000  0.625000  1
  Fe  Fe14  1  0.625000  0.625000  0.125000  1
  Fe  Fe15  1  0.625000  0.625000  0.625000  1
  Ru  Ru16  1  0.745666  0.418112  0.418112  1
  Ru  Ru17  1  0.418112  0.745666  0.418112  1
  Ru  Ru18  1  0.418112  0.418112  0.745666  1
  Ru  Ru19  1  0.418112  0.418112  0.418112  1
  Ru  Ru20  1  0.504334  0.831888  0.831888  1
  Ru  Ru21  1  0.831888  0.504334  0.831888  1
  Ru  Ru22  1  0.831888  0.831888  0.504334  1
  Ru  Ru23  1  0.831888  0.831888  0.831888  1
  N  N24  1  0.625000  0.125000  0.125000  1
  N  N25  1  0.125000  0.625000  0.125000  1
  N  N26  1  0.125000  0.125000  0.625000  1
  N  N27  1  0.125000  0.125000  0.125000  1
