# generated using pymatgen
data_Sm8Y12Si15Se
_symmetry_space_group_name_H-M   'P 1'
_cell_length_a   7.56482711
_cell_length_b   7.73277340
_cell_length_c   14.75586509
_cell_angle_alpha   89.76620860
_cell_angle_beta   86.59613800
_cell_angle_gamma   89.96770361
_symmetry_Int_Tables_number   1
_chemical_formula_structural   Sm8Y12Si15Se
_chemical_formula_sum   'Sm8 Y12 Si15 Se1'
_cell_volume   861.64521738
_cell_formula_units_Z   1
loop_
 _symmetry_equiv_pos_site_id
 _symmetry_equiv_pos_as_xyz
  1  'x, y, z'
loop_
 _atom_site_type_symbol
 _atom_site_label
 _atom_site_symmetry_multiplicity
 _atom_site_fract_x
 _atom_site_fract_y
 _atom_site_fract_z
 _atom_site_occupancy
  Sm  Sm0  1  0.022408  0.183624  0.099623  1
  Sm  Sm1  1  0.977841  0.818444  0.899521  1
  Sm  Sm2  1  0.477979  0.683597  0.900005  1
  Sm  Sm3  1  0.000589  0.823367  0.599692  1
  Sm  Sm4  1  0.522420  0.317714  0.099934  1
  Sm  Sm5  1  0.993490  0.173026  0.398617  1
  Sm  Sm6  1  0.501952  0.312647  0.399061  1
  Sm  Sm7  1  0.508284  0.685915  0.600678  1
  Y  Y8  1  0.168972  0.508807  0.751519  1
  Y  Y9  1  0.830333  0.491987  0.254151  1
  Y  Y10  1  0.328624  0.007312  0.253087  1
  Y  Y11  1  0.671773  0.992420  0.747798  1
  Y  Y12  1  0.357471  0.163409  0.621410  1
  Y  Y13  1  0.644495  0.831998  0.379615  1
  Y  Y14  1  0.144372  0.666700  0.381142  1
  Y  Y15  1  0.672423  0.820948  0.122257  1
  Y  Y16  1  0.851483  0.332918  0.618464  1
  Y  Y17  1  0.327262  0.179386  0.876646  1
  Y  Y18  1  0.827446  0.321811  0.876608  1
  Y  Y19  1  0.171836  0.679158  0.122297  1
  Si  Si20  1  0.045642  0.111153  0.749606  1
  Si  Si21  1  0.954191  0.890003  0.248456  1
  Si  Si22  1  0.453068  0.608535  0.249331  1
  Si  Si23  1  0.544918  0.392131  0.749309  1
  Si  Si24  1  0.286427  0.874066  0.751344  1
  Si  Si25  1  0.715177  0.123939  0.247622  1
  Si  Si26  1  0.215001  0.375975  0.248686  1
  Si  Si27  1  0.786831  0.625433  0.750617  1
  Si  Si28  1  0.793425  0.533712  0.456257  1
  Si  Si29  1  0.298107  0.963981  0.458421  1
  Si  Si30  1  0.853871  0.529793  0.039772  1
  Si  Si31  1  0.698521  0.035192  0.543647  1
  Si  Si32  1  0.144949  0.471999  0.958788  1
  Si  Si33  1  0.644556  0.029903  0.958886  1
  Si  Si34  1  0.354463  0.971888  0.040610  1
  Se  Se35  1  0.209406  0.467109  0.546522  1
