# generated using pymatgen
data_Dy5P12Ir12Ru7
_symmetry_space_group_name_H-M   'P 1'
_cell_length_a   12.62588229
_cell_length_b   12.59118419
_cell_length_c   3.97557900
_cell_angle_alpha   90.00000000
_cell_angle_beta   90.00000000
_cell_angle_gamma   119.81586824
_symmetry_Int_Tables_number   1
_chemical_formula_structural   Dy5P12Ir12Ru7
_chemical_formula_sum   'Dy5 P12 Ir12 Ru7'
_cell_volume   548.35543308
_cell_formula_units_Z   1
loop_
 _symmetry_equiv_pos_site_id
 _symmetry_equiv_pos_as_xyz
  1  'x, y, z'
loop_
 _atom_site_type_symbol
 _atom_site_label
 _atom_site_symmetry_multiplicity
 _atom_site_fract_x
 _atom_site_fract_y
 _atom_site_fract_z
 _atom_site_occupancy
  Dy  Dy0  1  0.667364  0.331909  0.000000  1
  Dy  Dy1  1  0.333741  0.667164  0.000000  1
  Dy  Dy2  1  0.814593  0.001595  0.500000  1
  Dy  Dy3  1  0.183700  0.185066  0.500000  1
  Dy  Dy4  1  0.999480  0.815352  0.500000  1
  P  P5  1  0.640068  0.004274  0.000000  1
  P  P6  1  0.363180  0.362873  0.000000  1
  P  P7  1  0.999830  0.636911  0.000000  1
  P  P8  1  0.688728  0.518404  0.500000  1
  P  P9  1  0.830210  0.308048  0.500000  1
  P  P10  1  0.312216  0.831950  0.500000  1
  P  P11  1  0.519352  0.687478  0.500000  1
  P  P12  1  0.180213  0.000971  0.000000  1
  P  P13  1  0.819078  0.819995  0.000000  1
  P  P14  1  0.997298  0.180977  0.000000  1
  P  P15  1  0.480527  0.167762  0.500000  1
  P  P16  1  0.169145  0.481228  0.500000  1
  Ir  Ir17  1  0.624374  0.806519  0.000000  1
  Ir  Ir18  1  0.182562  0.376136  0.000000  1
  Ir  Ir19  1  0.375500  0.181414  0.000000  1
  Ir  Ir20  1  0.193165  0.818892  0.000000  1
  Ir  Ir21  1  0.805267  0.623458  0.000000  1
  Ir  Ir22  1  0.869666  0.506812  0.500000  1
  Ir  Ir23  1  0.492679  0.360985  0.500000  1
  Ir  Ir24  1  0.637455  0.128225  0.500000  1
  Ir  Ir25  1  0.131638  0.639997  0.500000  1
  Ir  Ir26  1  0.361331  0.491676  0.500000  1
  Ir  Ir27  1  0.506928  0.867167  0.500000  1
  Ir  Ir28  1  0.999443  0.000038  0.000000  1
  Ru  Ru29  1  0.712414  0.712095  0.500000  1
  Ru  Ru30  1  0.002255  0.288915  0.500000  1
  Ru  Ru31  1  0.453355  0.996926  0.000000  1
  Ru  Ru32  1  0.544969  0.545301  0.000000  1
  Ru  Ru33  1  0.001827  0.455694  0.000000  1
  Ru  Ru34  1  0.819732  0.197681  0.000000  1
  Ru  Ru35  1  0.286714  0.000116  0.500000  1
