# generated using pymatgen
data_Sm3Y3P13Rh20
_symmetry_space_group_name_H-M   'P 1'
_cell_length_a   13.38206100
_cell_length_b   13.38205871
_cell_length_c   3.94137500
_cell_angle_alpha   90.00000000
_cell_angle_beta   90.00000000
_cell_angle_gamma   119.99999825
_symmetry_Int_Tables_number   1
_chemical_formula_structural   Sm3Y3P13Rh20
_chemical_formula_sum   'Sm3 Y3 P13 Rh20'
_cell_volume   611.25768586
_cell_formula_units_Z   1
loop_
 _symmetry_equiv_pos_site_id
 _symmetry_equiv_pos_as_xyz
  1  'x, y, z'
loop_
 _atom_site_type_symbol
 _atom_site_label
 _atom_site_symmetry_multiplicity
 _atom_site_fract_x
 _atom_site_fract_y
 _atom_site_fract_z
 _atom_site_occupancy
  Sm  Sm0  1  0.530575  0.717495  0.247668  1
  Sm  Sm1  1  0.282505  0.813080  0.247668  1
  Sm  Sm2  1  0.186920  0.469425  0.247668  1
  Y  Y3  1  0.470755  0.283236  0.752114  1
  Y  Y4  1  0.716764  0.187519  0.752114  1
  Y  Y5  1  0.812481  0.529245  0.752114  1
  P  P6  1  0.525965  0.139848  0.250580  1
  P  P7  1  0.860152  0.386118  0.250580  1
  P  P8  1  0.613882  0.474035  0.250580  1
  P  P9  1  0.945940  0.715600  0.254630  1
  P  P10  1  0.284400  0.230341  0.254630  1
  P  P11  1  0.769659  0.054060  0.254630  1
  P  P12  1  0.386918  0.523874  0.749504  1
  P  P13  1  0.476126  0.863043  0.749504  1
  P  P14  1  0.136957  0.613082  0.749504  1
  P  P15  1  0.717220  0.770137  0.744679  1
  P  P16  1  0.229863  0.947082  0.744679  1
  P  P17  1  0.052918  0.282780  0.744679  1
  P  P18  1  0.000000  0.000000  0.999715  1
  Rh  Rh19  1  0.333333  0.666667  0.751641  1
  Rh  Rh20  1  0.919837  0.248928  0.255209  1
  Rh  Rh21  1  0.751072  0.670909  0.255209  1
  Rh  Rh22  1  0.329091  0.080163  0.255209  1
  Rh  Rh23  1  0.440659  0.025798  0.751678  1
  Rh  Rh24  1  0.974202  0.414862  0.751678  1
  Rh  Rh25  1  0.585138  0.559341  0.751678  1
  Rh  Rh26  1  0.666667  0.333333  0.248341  1
  Rh  Rh27  1  0.093953  0.186740  0.246652  1
  Rh  Rh28  1  0.813260  0.907213  0.246652  1
  Rh  Rh29  1  0.092787  0.906047  0.246652  1
  Rh  Rh30  1  0.021854  0.583875  0.248292  1
  Rh  Rh31  1  0.416125  0.437979  0.248292  1
  Rh  Rh32  1  0.562021  0.978146  0.248292  1
  Rh  Rh33  1  0.673063  0.923547  0.745135  1
  Rh  Rh34  1  0.076453  0.749515  0.745135  1
  Rh  Rh35  1  0.250485  0.326937  0.745135  1
  Rh  Rh36  1  0.906947  0.814081  0.753960  1
  Rh  Rh37  1  0.185919  0.092866  0.753960  1
  Rh  Rh38  1  0.907134  0.093053  0.753960  1
