# generated using pymatgen
data_Sc22FeIr4Ru3
_symmetry_space_group_name_H-M   'P 1'
_cell_length_a   9.42867172
_cell_length_b   9.42867135
_cell_length_c   9.44422200
_cell_angle_alpha   59.94543379
_cell_angle_beta   59.94543510
_cell_angle_gamma   60.10914890
_symmetry_Int_Tables_number   1
_chemical_formula_structural   Sc22FeIr4Ru3
_chemical_formula_sum   'Sc22 Fe1 Ir4 Ru3'
_cell_volume   593.67654924
_cell_formula_units_Z   1
loop_
 _symmetry_equiv_pos_site_id
 _symmetry_equiv_pos_as_xyz
  1  'x, y, z'
loop_
 _atom_site_type_symbol
 _atom_site_label
 _atom_site_symmetry_multiplicity
 _atom_site_fract_x
 _atom_site_fract_y
 _atom_site_fract_z
 _atom_site_occupancy
  Sc  Sc0  1  0.802459  0.802459  0.197541  1
  Sc  Sc1  1  0.197046  0.802954  0.197046  1
  Sc  Sc2  1  0.802954  0.197046  0.197046  1
  Sc  Sc3  1  0.197541  0.197541  0.802459  1
  Sc  Sc4  1  0.802954  0.197046  0.802954  1
  Sc  Sc5  1  0.197046  0.802954  0.802954  1
  Sc  Sc6  1  0.614642  0.614642  0.155757  1
  Sc  Sc7  1  0.614958  0.155757  0.614642  1
  Sc  Sc8  1  0.155757  0.614958  0.614642  1
  Sc  Sc9  1  0.614642  0.614642  0.614958  1
  Sc  Sc10  1  0.385358  0.385358  0.844243  1
  Sc  Sc11  1  0.385042  0.844243  0.385358  1
  Sc  Sc12  1  0.844243  0.385042  0.385358  1
  Sc  Sc13  1  0.385358  0.385358  0.385042  1
  Sc  Sc14  1  0.843259  0.843259  0.471725  1
  Sc  Sc15  1  0.841756  0.471725  0.843259  1
  Sc  Sc16  1  0.471725  0.841756  0.843259  1
  Sc  Sc17  1  0.843259  0.843259  0.841756  1
  Sc  Sc18  1  0.156741  0.156741  0.528275  1
  Sc  Sc19  1  0.158244  0.528275  0.156741  1
  Sc  Sc20  1  0.528275  0.158244  0.156741  1
  Sc  Sc21  1  0.156741  0.156741  0.158244  1
  Fe  Fe22  1  0.500000  0.500000  0.500000  1
  Ir  Ir23  1  0.500000  0.000000  0.500000  1
  Ir  Ir24  1  0.000000  0.500000  0.500000  1
  Ir  Ir25  1  0.000000  0.500000  0.000000  1
  Ir  Ir26  1  0.500000  0.000000  0.000000  1
  Ru  Ru27  1  0.000000  0.000000  0.000000  1
  Ru  Ru28  1  0.000000  0.000000  0.500000  1
  Ru  Ru29  1  0.500000  0.500000  0.000000  1
