# generated using pymatgen
data_Ho3Er3(CoSn6)2
_symmetry_space_group_name_H-M   'P 1'
_cell_length_a   8.45903278
_cell_length_b   8.45903241
_cell_length_c   13.08745228
_cell_angle_alpha   90.00227186
_cell_angle_beta   89.99772787
_cell_angle_gamma   148.84383836
_symmetry_Int_Tables_number   1
_chemical_formula_structural   Ho3Er3(CoSn6)2
_chemical_formula_sum   'Ho3 Er3 Co2 Sn12'
_cell_volume   484.50667292
_cell_formula_units_Z   1
loop_
 _symmetry_equiv_pos_site_id
 _symmetry_equiv_pos_as_xyz
  1  'x, y, z'
loop_
 _atom_site_type_symbol
 _atom_site_label
 _atom_site_symmetry_multiplicity
 _atom_site_fract_x
 _atom_site_fract_y
 _atom_site_fract_z
 _atom_site_occupancy
  Ho  Ho0  1  0.100806  0.899194  0.593741  1
  Ho  Ho1  1  0.100790  0.899210  0.906388  1
  Ho  Ho2  1  0.899081  0.100919  0.406084  1
  Er  Er3  1  0.898710  0.101290  0.093966  1
  Er  Er4  1  0.899864  0.100136  0.750049  1
  Er  Er5  1  0.100177  0.899823  0.249855  1
  Co  Co6  1  0.300370  0.699630  0.249734  1
  Co  Co7  1  0.699608  0.300392  0.750191  1
  Sn  Sn8  1  0.755843  0.244157  0.571646  1
  Sn  Sn9  1  0.427431  0.572569  0.575746  1
  Sn  Sn10  1  0.572667  0.427333  0.424117  1
  Sn  Sn11  1  0.733606  0.266394  0.249844  1
  Sn  Sn12  1  0.266332  0.733668  0.749785  1
  Sn  Sn13  1  0.244341  0.755659  0.071195  1
  Sn  Sn14  1  0.244133  0.755867  0.428473  1
  Sn  Sn15  1  0.572724  0.427276  0.076052  1
  Sn  Sn16  1  0.454503  0.545497  0.249680  1
  Sn  Sn17  1  0.545462  0.454538  0.750174  1
  Sn  Sn18  1  0.756131  0.243869  0.928563  1
  Sn  Sn19  1  0.427424  0.572576  0.924717  1
