# generated using pymatgen
data_Na4Ti6BCl18
_symmetry_space_group_name_H-M   'P 1'
_cell_length_a   9.44069104
_cell_length_b   9.42430368
_cell_length_c   9.47370522
_cell_angle_alpha   119.16439329
_cell_angle_beta   100.09609279
_cell_angle_gamma   102.47346071
_symmetry_Int_Tables_number   1
_chemical_formula_structural   Na4Ti6BCl18
_chemical_formula_sum   'Na4 Ti6 B1 Cl18'
_cell_volume   678.64189185
_cell_formula_units_Z   1
loop_
 _symmetry_equiv_pos_site_id
 _symmetry_equiv_pos_as_xyz
  1  'x, y, z'
loop_
 _atom_site_type_symbol
 _atom_site_label
 _atom_site_symmetry_multiplicity
 _atom_site_fract_x
 _atom_site_fract_y
 _atom_site_fract_z
 _atom_site_occupancy
  Na  Na0  1  0.158515  0.719552  0.553884  1
  Na  Na1  1  0.871292  0.971202  0.781288  1
  Na  Na2  1  0.128708  0.028798  0.218712  1
  Na  Na3  1  0.841485  0.280448  0.446116  1
  Ti  Ti4  1  0.348129  0.447869  0.764536  1
  Ti  Ti5  1  0.363887  0.640663  0.145734  1
  Ti  Ti6  1  0.644689  0.740521  0.040700  1
  Ti  Ti7  1  0.651871  0.552131  0.235464  1
  Ti  Ti8  1  0.355311  0.259479  0.959300  1
  Ti  Ti9  1  0.636113  0.359337  0.854266  1
  B  B10  1  0.500000  0.500000  0.000000  1
  Cl  Cl11  1  0.815983  0.411442  0.101926  1
  Cl  Cl12  1  0.521285  0.711549  0.417128  1
  Cl  Cl13  1  0.174091  0.976624  0.903936  1
  Cl  Cl14  1  0.184017  0.588558  0.898074  1
  Cl  Cl15  1  0.825885  0.825288  0.306679  1
  Cl  Cl16  1  0.507642  0.294348  0.212925  1
  Cl  Cl17  1  0.790161  0.199688  0.690078  1
  Cl  Cl18  1  0.174115  0.174712  0.693321  1
  Cl  Cl19  1  0.513739  0.917267  0.204349  1
  Cl  Cl20  1  0.808586  0.613664  0.891682  1
  Cl  Cl21  1  0.209839  0.800312  0.309922  1
  Cl  Cl22  1  0.161148  0.382998  0.488491  1
  Cl  Cl23  1  0.492358  0.705652  0.787075  1
  Cl  Cl24  1  0.825909  0.023376  0.096064  1
  Cl  Cl25  1  0.478715  0.288451  0.582872  1
  Cl  Cl26  1  0.191414  0.386336  0.108318  1
  Cl  Cl27  1  0.838852  0.617002  0.511509  1
  Cl  Cl28  1  0.486261  0.082733  0.795651  1
