# generated using pymatgen
data_Cs3Pa5O14
_symmetry_space_group_name_H-M   'P 1'
_cell_length_a   8.05415800
_cell_length_b   8.09851400
_cell_length_c   28.60868700
_cell_angle_alpha   90.00000000
_cell_angle_beta   90.00000000
_cell_angle_gamma   90.00000000
_symmetry_Int_Tables_number   1
_chemical_formula_structural   Cs3Pa5O14
_chemical_formula_sum   'Cs12 Pa20 O56'
_cell_volume   1866.05056823
_cell_formula_units_Z   4
loop_
 _symmetry_equiv_pos_site_id
 _symmetry_equiv_pos_as_xyz
  1  'x, y, z'
loop_
 _atom_site_type_symbol
 _atom_site_label
 _atom_site_symmetry_multiplicity
 _atom_site_fract_x
 _atom_site_fract_y
 _atom_site_fract_z
 _atom_site_occupancy
  Cs  Cs0  1  0.000000  0.314864  0.795513  1
  Cs  Cs1  1  0.000000  0.685136  0.204487  1
  Cs  Cs2  1  0.500000  0.834925  0.620752  1
  Cs  Cs3  1  0.000000  0.185136  0.295513  1
  Cs  Cs4  1  0.500000  0.262173  0.524720  1
  Cs  Cs5  1  0.000000  0.814864  0.704487  1
  Cs  Cs6  1  0.500000  0.165075  0.379248  1
  Cs  Cs7  1  0.500000  0.237827  0.024720  1
  Cs  Cs8  1  0.500000  0.737827  0.475280  1
  Cs  Cs9  1  0.500000  0.334925  0.879248  1
  Cs  Cs10  1  0.500000  0.762173  0.975280  1
  Cs  Cs11  1  0.500000  0.665075  0.120752  1
  Pa  Pa12  1  0.742381  0.868108  0.852833  1
  Pa  Pa13  1  0.000000  0.417897  0.055696  1
  Pa  Pa14  1  0.500000  0.630795  0.748545  1
  Pa  Pa15  1  0.257619  0.131892  0.147167  1
  Pa  Pa16  1  0.000000  0.082103  0.555696  1
  Pa  Pa17  1  0.000000  0.417339  0.438758  1
  Pa  Pa18  1  0.742381  0.131892  0.147167  1
  Pa  Pa19  1  0.500000  0.869205  0.248545  1
  Pa  Pa20  1  0.500000  0.369205  0.251455  1
  Pa  Pa21  1  0.000000  0.582103  0.944304  1
  Pa  Pa22  1  0.000000  0.917339  0.061242  1
  Pa  Pa23  1  0.257619  0.631892  0.352833  1
  Pa  Pa24  1  0.000000  0.082661  0.938758  1
  Pa  Pa25  1  0.742381  0.631892  0.352833  1
  Pa  Pa26  1  0.000000  0.582661  0.561242  1
  Pa  Pa27  1  0.500000  0.130795  0.751455  1
  Pa  Pa28  1  0.000000  0.917897  0.444304  1
  Pa  Pa29  1  0.257619  0.868108  0.852833  1
  Pa  Pa30  1  0.742381  0.368108  0.647167  1
  Pa  Pa31  1  0.257619  0.368108  0.647167  1
  O  O32  1  0.193486  0.337669  0.100873  1
  O  O33  1  0.000000  0.154770  0.018462  1
  O  O34  1  0.500000  0.882631  0.723512  1
  O  O35  1  0.500000  0.674944  0.377462  1
  O  O36  1  0.000000  0.329640  0.914176  1
  O  O37  1  0.000000  0.960251  0.859966  1
  O  O38  1  0.500000  0.617369  0.223512  1
  O  O39  1  0.806514  0.662331  0.899127  1
  O  O40  1  0.000000  0.345230  0.518462  1
  O  O41  1  0.316971  0.430302  0.307374  1
  O  O42  1  0.500000  0.117369  0.276488  1
  O  O43  1  0.708566  0.299475  0.205107  1
  O  O44  1  0.834424  0.000000  0.500000  1
  O  O45  1  0.708566  0.799475  0.294893  1
  O  O46  1  0.000000  0.460251  0.640034  1
  O  O47  1  0.246001  0.964213  0.081077  1
  O  O48  1  0.834424  0.500000  0.000000  1
  O  O49  1  0.683029  0.430302  0.307374  1
  O  O50  1  0.291434  0.799475  0.294893  1
  O  O51  1  0.291434  0.200525  0.705107  1
  O  O52  1  0.806514  0.337669  0.100873  1
  O  O53  1  0.708566  0.700525  0.794893  1
  O  O54  1  0.291434  0.299475  0.205107  1
  O  O55  1  0.000000  0.845230  0.981538  1
  O  O56  1  0.246001  0.035787  0.918923  1
  O  O57  1  0.316971  0.930302  0.192626  1
  O  O58  1  0.500000  0.382631  0.776488  1
  O  O59  1  0.000000  0.039749  0.140034  1
  O  O60  1  0.193486  0.662331  0.899127  1
  O  O61  1  0.806514  0.162331  0.600873  1
  O  O62  1  0.000000  0.829640  0.585824  1
  O  O63  1  0.291434  0.700525  0.794893  1
  O  O64  1  0.500000  0.825056  0.877462  1
  O  O65  1  0.683029  0.069698  0.807374  1
  O  O66  1  0.316971  0.569698  0.692626  1
  O  O67  1  0.753999  0.464213  0.418923  1
  O  O68  1  0.753999  0.535787  0.581077  1
  O  O69  1  0.000000  0.670360  0.085824  1
  O  O70  1  0.000000  0.654770  0.481538  1
  O  O71  1  0.708566  0.200525  0.705107  1
  O  O72  1  0.683029  0.930302  0.192626  1
  O  O73  1  0.000000  0.539749  0.359966  1
  O  O74  1  0.500000  0.174944  0.122538  1
  O  O75  1  0.683029  0.569698  0.692626  1
  O  O76  1  0.165576  0.000000  0.500000  1
  O  O77  1  0.753999  0.964213  0.081077  1
  O  O78  1  0.806514  0.837669  0.399127  1
  O  O79  1  0.500000  0.325056  0.622538  1
  O  O80  1  0.753999  0.035787  0.918923  1
  O  O81  1  0.193486  0.837669  0.399127  1
  O  O82  1  0.246001  0.535787  0.581077  1
  O  O83  1  0.193486  0.162331  0.600873  1
  O  O84  1  0.000000  0.170360  0.414176  1
  O  O85  1  0.246001  0.464213  0.418923  1
  O  O86  1  0.316971  0.069698  0.807374  1
  O  O87  1  0.165576  0.500000  0.000000  1
