# generated using pymatgen
data_TmLu9(Sn3Se)2
_symmetry_space_group_name_H-M   'P 1'
_cell_length_a   8.92771938
_cell_length_b   8.92771883
_cell_length_c   6.57118000
_cell_angle_alpha   90.00000000
_cell_angle_beta   90.00000000
_cell_angle_gamma   119.95547235
_symmetry_Int_Tables_number   1
_chemical_formula_structural   TmLu9(Sn3Se)2
_chemical_formula_sum   'Tm1 Lu9 Sn6 Se2'
_cell_volume   453.78456424
_cell_formula_units_Z   1
loop_
 _symmetry_equiv_pos_site_id
 _symmetry_equiv_pos_as_xyz
  1  'x, y, z'
loop_
 _atom_site_type_symbol
 _atom_site_label
 _atom_site_symmetry_multiplicity
 _atom_site_fract_x
 _atom_site_fract_y
 _atom_site_fract_z
 _atom_site_occupancy
  Tm  Tm0  1  0.746631  0.746631  0.750000  1
  Lu  Lu1  1  0.666492  0.332903  0.000044  1
  Lu  Lu2  1  0.332903  0.666492  0.000044  1
  Lu  Lu3  1  0.332903  0.666492  0.499956  1
  Lu  Lu4  1  0.666492  0.332903  0.499956  1
  Lu  Lu5  1  0.253040  0.999220  0.750000  1
  Lu  Lu6  1  0.999220  0.253040  0.750000  1
  Lu  Lu7  1  0.254868  0.254868  0.250000  1
  Lu  Lu8  1  0.746467  0.000094  0.250000  1
  Lu  Lu9  1  0.000094  0.746467  0.250000  1
  Sn  Sn10  1  0.395409  0.395409  0.750000  1
  Sn  Sn11  1  0.602260  0.000355  0.750000  1
  Sn  Sn12  1  0.000355  0.602260  0.750000  1
  Sn  Sn13  1  0.603220  0.603220  0.250000  1
  Sn  Sn14  1  0.396859  0.999906  0.250000  1
  Sn  Sn15  1  0.999906  0.396859  0.250000  1
  Se  Se16  1  0.001440  0.001440  0.000835  1
  Se  Se17  1  0.001440  0.001440  0.499165  1
