# generated using pymatgen
data_YbTmB6Ir
_symmetry_space_group_name_H-M   'P 1'
_cell_length_a   3.62091700
_cell_length_b   9.11982600
_cell_length_c   11.48653100
_cell_angle_alpha   90.00000000
_cell_angle_beta   90.00000000
_cell_angle_gamma   90.00000000
_symmetry_Int_Tables_number   1
_chemical_formula_structural   YbTmB6Ir
_chemical_formula_sum   'Yb4 Tm4 B24 Ir4'
_cell_volume   379.30975440
_cell_formula_units_Z   4
loop_
 _symmetry_equiv_pos_site_id
 _symmetry_equiv_pos_as_xyz
  1  'x, y, z'
loop_
 _atom_site_type_symbol
 _atom_site_label
 _atom_site_symmetry_multiplicity
 _atom_site_fract_x
 _atom_site_fract_y
 _atom_site_fract_z
 _atom_site_occupancy
  Yb  Yb0  1  0.000000  0.322470  0.414092  1
  Yb  Yb1  1  0.000000  0.677530  0.585908  1
  Yb  Yb2  1  0.000000  0.822470  0.085908  1
  Yb  Yb3  1  0.000000  0.177530  0.914092  1
  Tm  Tm4  1  0.000000  0.943961  0.373629  1
  Tm  Tm5  1  0.000000  0.056039  0.626372  1
  Tm  Tm6  1  0.000000  0.443961  0.126371  1
  Tm  Tm7  1  0.000000  0.556039  0.873628  1
  B  B8  1  0.500000  0.554181  0.432862  1
  B  B9  1  0.500000  0.445819  0.567138  1
  B  B10  1  0.500000  0.054181  0.067138  1
  B  B11  1  0.500000  0.945819  0.932862  1
  B  B12  1  0.500000  0.749242  0.419804  1
  B  B13  1  0.500000  0.250758  0.580196  1
  B  B14  1  0.500000  0.249242  0.080196  1
  B  B15  1  0.500000  0.750758  0.919804  1
  B  B16  1  0.500000  0.790773  0.265470  1
  B  B17  1  0.500000  0.209227  0.734530  1
  B  B18  1  0.500000  0.290772  0.234530  1
  B  B19  1  0.500000  0.709227  0.765470  1
  B  B20  1  0.500000  0.631479  0.183466  1
  B  B21  1  0.500000  0.368521  0.816534  1
  B  B22  1  0.500000  0.131479  0.316534  1
  B  B23  1  0.500000  0.868521  0.683466  1
  B  B24  1  0.500000  0.983533  0.212706  1
  B  B25  1  0.500000  0.016467  0.787294  1
  B  B26  1  0.500000  0.483533  0.287294  1
  B  B27  1  0.500000  0.516467  0.712706  1
  B  B28  1  0.500000  0.605108  0.028676  1
  B  B29  1  0.500000  0.394892  0.971324  1
  B  B30  1  0.500000  0.105108  0.471324  1
  B  B31  1  0.500000  0.894892  0.528676  1
  Ir  Ir32  1  0.000000  0.637991  0.320567  1
  Ir  Ir33  1  0.000000  0.362009  0.679433  1
  Ir  Ir34  1  0.000000  0.137991  0.179433  1
  Ir  Ir35  1  0.000000  0.862009  0.820567  1
