# generated using pymatgen
data_Ac8HoNi6
_symmetry_space_group_name_H-M   'P 1'
_cell_length_a   7.81440670
_cell_length_b   7.81440661
_cell_length_c   7.81440639
_cell_angle_alpha   74.17608112
_cell_angle_beta   74.17607297
_cell_angle_gamma   74.17607716
_symmetry_Int_Tables_number   1
_chemical_formula_structural   Ac8HoNi6
_chemical_formula_sum   'Ac8 Ho1 Ni6'
_cell_volume   431.44729052
_cell_formula_units_Z   1
loop_
 _symmetry_equiv_pos_site_id
 _symmetry_equiv_pos_as_xyz
  1  'x, y, z'
loop_
 _atom_site_type_symbol
 _atom_site_label
 _atom_site_symmetry_multiplicity
 _atom_site_fract_x
 _atom_site_fract_y
 _atom_site_fract_z
 _atom_site_occupancy
  Ac  Ac0  1  0.794227  0.794227  0.794227  1
  Ac  Ac1  1  0.205773  0.205773  0.205773  1
  Ac  Ac2  1  0.317843  0.627571  0.833639  1
  Ac  Ac3  1  0.833639  0.317843  0.627571  1
  Ac  Ac4  1  0.627571  0.833639  0.317843  1
  Ac  Ac5  1  0.682157  0.372429  0.166361  1
  Ac  Ac6  1  0.166361  0.682157  0.372429  1
  Ac  Ac7  1  0.372429  0.166361  0.682157  1
  Ho  Ho8  1  0.000000  0.000000  0.000000  1
  Ni  Ni9  1  0.129547  0.967650  0.602969  1
  Ni  Ni10  1  0.602969  0.129547  0.967650  1
  Ni  Ni11  1  0.967650  0.602969  0.129547  1
  Ni  Ni12  1  0.870453  0.032350  0.397031  1
  Ni  Ni13  1  0.397031  0.870453  0.032350  1
  Ni  Ni14  1  0.032350  0.397031  0.870453  1
