# generated using pymatgen
data_Tb6Be(P3Rh5)4
_symmetry_space_group_name_H-M   'P 1'
_cell_length_a   13.33272900
_cell_length_b   13.33272737
_cell_length_c   3.92420300
_cell_angle_alpha   90.00000000
_cell_angle_beta   90.00000000
_cell_angle_gamma   119.99999660
_symmetry_Int_Tables_number   1
_chemical_formula_structural   Tb6Be(P3Rh5)4
_chemical_formula_sum   'Tb6 Be1 P12 Rh20'
_cell_volume   604.11575561
_cell_formula_units_Z   1
loop_
 _symmetry_equiv_pos_site_id
 _symmetry_equiv_pos_as_xyz
  1  'x, y, z'
loop_
 _atom_site_type_symbol
 _atom_site_label
 _atom_site_symmetry_multiplicity
 _atom_site_fract_x
 _atom_site_fract_y
 _atom_site_fract_z
 _atom_site_occupancy
  Tb  Tb0  1  0.530635  0.717499  0.247538  1
  Tb  Tb1  1  0.282501  0.813135  0.247538  1
  Tb  Tb2  1  0.186865  0.469365  0.247538  1
  Tb  Tb3  1  0.469365  0.282501  0.752462  1
  Tb  Tb4  1  0.717499  0.186865  0.752462  1
  Tb  Tb5  1  0.813135  0.530635  0.752462  1
  Be  Be6  1  0.000000  0.000000  0.000000  1
  P  P7  1  0.525398  0.138997  0.251065  1
  P  P8  1  0.861003  0.386402  0.251065  1
  P  P9  1  0.613598  0.474602  0.251065  1
  P  P10  1  0.947779  0.719601  0.252828  1
  P  P11  1  0.280399  0.228177  0.252828  1
  P  P12  1  0.771823  0.052221  0.252828  1
  P  P13  1  0.386402  0.525398  0.748935  1
  P  P14  1  0.474602  0.861003  0.748935  1
  P  P15  1  0.138997  0.613598  0.748935  1
  P  P16  1  0.719601  0.771823  0.747172  1
  P  P17  1  0.228177  0.947779  0.747172  1
  P  P18  1  0.052221  0.280399  0.747172  1
  Rh  Rh19  1  0.333333  0.666667  0.752471  1
  Rh  Rh20  1  0.922476  0.249716  0.252393  1
  Rh  Rh21  1  0.750284  0.672759  0.252393  1
  Rh  Rh22  1  0.327241  0.077524  0.252393  1
  Rh  Rh23  1  0.438410  0.024038  0.750224  1
  Rh  Rh24  1  0.975962  0.414372  0.750224  1
  Rh  Rh25  1  0.585628  0.561590  0.750224  1
  Rh  Rh26  1  0.666667  0.333333  0.247529  1
  Rh  Rh27  1  0.091890  0.189458  0.243764  1
  Rh  Rh28  1  0.810542  0.902432  0.243764  1
  Rh  Rh29  1  0.097568  0.908110  0.243764  1
  Rh  Rh30  1  0.024038  0.585628  0.249776  1
  Rh  Rh31  1  0.414372  0.438410  0.249776  1
  Rh  Rh32  1  0.561590  0.975962  0.249776  1
  Rh  Rh33  1  0.672759  0.922476  0.747607  1
  Rh  Rh34  1  0.077524  0.750284  0.747607  1
  Rh  Rh35  1  0.249716  0.327241  0.747607  1
  Rh  Rh36  1  0.908110  0.810542  0.756236  1
  Rh  Rh37  1  0.189458  0.097568  0.756236  1
  Rh  Rh38  1  0.902432  0.091890  0.756236  1
