# generated using pymatgen
data_Ta4Al4Zn3Ni
_symmetry_space_group_name_H-M   'P 1'
_cell_length_a   4.99696013
_cell_length_b   4.99696279
_cell_length_c   8.30216500
_cell_angle_alpha   90.00000000
_cell_angle_beta   90.00000000
_cell_angle_gamma   61.12325824
_symmetry_Int_Tables_number   1
_chemical_formula_structural   Ta4Al4Zn3Ni
_chemical_formula_sum   'Ta4 Al4 Zn3 Ni1'
_cell_volume   181.52614592
_cell_formula_units_Z   1
loop_
 _symmetry_equiv_pos_site_id
 _symmetry_equiv_pos_as_xyz
  1  'x, y, z'
loop_
 _atom_site_type_symbol
 _atom_site_label
 _atom_site_symmetry_multiplicity
 _atom_site_fract_x
 _atom_site_fract_y
 _atom_site_fract_z
 _atom_site_occupancy
  Ta  Ta0  1  0.336688  0.336687  0.567721  1
  Ta  Ta1  1  0.661507  0.661508  0.439568  1
  Ta  Ta2  1  0.661507  0.661508  0.060432  1
  Ta  Ta3  1  0.336688  0.336687  0.932279  1
  Al  Al4  1  0.992319  0.992319  0.501574  1
  Al  Al5  1  0.992319  0.992319  0.998426  1
  Al  Al6  1  0.835123  0.353670  0.750000  1
  Al  Al7  1  0.353672  0.835121  0.750000  1
  Zn  Zn8  1  0.169610  0.652935  0.250000  1
  Zn  Zn9  1  0.652933  0.169612  0.250000  1
  Zn  Zn10  1  0.169193  0.169194  0.250000  1
  Ni  Ni11  1  0.838441  0.838440  0.750000  1
