# generated using pymatgen
data_Ho3AuO7
_symmetry_space_group_name_H-M   'P 1'
_cell_length_a   6.46706041
_cell_length_b   6.46706094
_cell_length_c   7.40260600
_cell_angle_alpha   90.00000000
_cell_angle_beta   90.00000000
_cell_angle_gamma   108.82300525
_symmetry_Int_Tables_number   1
_chemical_formula_structural   Ho3AuO7
_chemical_formula_sum   'Ho6 Au2 O14'
_cell_volume   293.04087589
_cell_formula_units_Z   2
loop_
 _symmetry_equiv_pos_site_id
 _symmetry_equiv_pos_as_xyz
  1  'x, y, z'
loop_
 _atom_site_type_symbol
 _atom_site_label
 _atom_site_symmetry_multiplicity
 _atom_site_fract_x
 _atom_site_fract_y
 _atom_site_fract_z
 _atom_site_occupancy
  Ho  Ho0  1  0.002218  0.471180  0.747970  1
  Ho  Ho1  1  0.997782  0.528820  0.247970  1
  Ho  Ho2  1  0.528820  0.997782  0.752030  1
  Ho  Ho3  1  0.471180  0.002218  0.252030  1
  Ho  Ho4  1  0.507845  0.507845  0.500000  1
  Ho  Ho5  1  0.492155  0.492155  0.000000  1
  Au  Au6  1  0.998902  0.998902  0.500000  1
  Au  Au7  1  0.001098  0.001098  0.000000  1
  O  O8  1  0.638930  0.361070  0.750000  1
  O  O9  1  0.361070  0.638930  0.250000  1
  O  O10  1  0.919299  0.080701  0.750000  1
  O  O11  1  0.080701  0.919299  0.250000  1
  O  O12  1  0.915140  0.667276  0.523299  1
  O  O13  1  0.084860  0.332724  0.023299  1
  O  O14  1  0.332724  0.084860  0.976701  1
  O  O15  1  0.667276  0.915140  0.476701  1
  O  O16  1  0.367931  0.632069  0.750000  1
  O  O17  1  0.632069  0.367931  0.250000  1
  O  O18  1  0.921273  0.671117  0.973375  1
  O  O19  1  0.078727  0.328883  0.473375  1
  O  O20  1  0.328883  0.078727  0.526625  1
  O  O21  1  0.671117  0.921273  0.026625  1
