# generated using pymatgen
data_Ti7Pd3Pt17Rh
_symmetry_space_group_name_H-M   'P 1'
_cell_length_a   5.56839200
_cell_length_b   5.57143786
_cell_length_c   15.94240539
_cell_angle_alpha   90.07808240
_cell_angle_beta   90.00000000
_cell_angle_gamma   119.98191722
_symmetry_Int_Tables_number   1
_chemical_formula_structural   Ti7Pd3Pt17Rh
_chemical_formula_sum   'Ti7 Pd3 Pt17 Rh1'
_cell_volume   428.41053331
_cell_formula_units_Z   1
loop_
 _symmetry_equiv_pos_site_id
 _symmetry_equiv_pos_as_xyz
  1  'x, y, z'
loop_
 _atom_site_type_symbol
 _atom_site_label
 _atom_site_symmetry_multiplicity
 _atom_site_fract_x
 _atom_site_fract_y
 _atom_site_fract_z
 _atom_site_occupancy
  Ti  Ti0  1  0.998563  0.997126  0.719012  1
  Ti  Ti1  1  0.666771  0.333540  0.854784  1
  Ti  Ti2  1  0.333547  0.667095  0.145175  1
  Ti  Ti3  1  0.999852  0.999704  0.279842  1
  Ti  Ti4  1  0.669454  0.338907  0.432802  1
  Ti  Ti5  1  0.000217  0.000434  0.999746  1
  Ti  Ti6  1  0.333213  0.666428  0.570213  1
  Pd  Pd7  1  0.500162  0.000324  0.999874  1
  Pd  Pd8  1  0.500320  0.500381  0.000051  1
  Pd  Pd9  1  0.000062  0.500381  0.000051  1
  Pt  Pt10  1  0.332735  0.166130  0.571141  1
  Pt  Pt11  1  0.166357  0.332715  0.858491  1
  Pt  Pt12  1  0.166839  0.333679  0.429059  1
  Pt  Pt13  1  0.165927  0.832757  0.429171  1
  Pt  Pt14  1  0.499849  0.999697  0.713190  1
  Pt  Pt15  1  0.666830  0.832757  0.429171  1
  Pt  Pt16  1  0.166831  0.832702  0.858223  1
  Pt  Pt17  1  0.665871  0.832702  0.858223  1
  Pt  Pt18  1  0.833231  0.167091  0.141533  1
  Pt  Pt19  1  0.833394  0.166130  0.571141  1
  Pt  Pt20  1  0.501649  0.500910  0.713086  1
  Pt  Pt21  1  0.333860  0.167091  0.141533  1
  Pt  Pt22  1  0.833258  0.666515  0.141858  1
  Pt  Pt23  1  0.499508  0.499754  0.286567  1
  Pt  Pt24  1  0.500029  0.000060  0.286035  1
  Pt  Pt25  1  0.000245  0.499754  0.286567  1
  Pt  Pt26  1  0.999262  0.500910  0.713086  1
  Rh  Rh27  1  0.832166  0.664332  0.570377  1
