# generated using pymatgen
data_Li2Ac3PrSi6
_symmetry_space_group_name_H-M   'P 1'
_cell_length_a   8.64227740
_cell_length_b   8.53671738
_cell_length_c   6.15515274
_cell_angle_alpha   69.92469673
_cell_angle_beta   68.08985831
_cell_angle_gamma   41.98545846
_symmetry_Int_Tables_number   1
_chemical_formula_structural   Li2Ac3PrSi6
_chemical_formula_sum   'Li2 Ac3 Pr1 Si6'
_cell_volume   280.23713328
_cell_formula_units_Z   1
loop_
 _symmetry_equiv_pos_site_id
 _symmetry_equiv_pos_as_xyz
  1  'x, y, z'
loop_
 _atom_site_type_symbol
 _atom_site_label
 _atom_site_symmetry_multiplicity
 _atom_site_fract_x
 _atom_site_fract_y
 _atom_site_fract_z
 _atom_site_occupancy
  Li  Li0  1  0.659708  0.668839  0.331161  1
  Li  Li1  1  0.331161  0.340292  0.659708  1
  Ac  Ac2  1  0.750852  0.749148  0.750852  1
  Ac  Ac3  1  0.755411  0.244589  0.755411  1
  Ac  Ac4  1  0.250852  0.249148  0.250852  1
  Pr  Pr5  1  0.239264  0.760736  0.239264  1
  Si  Si6  1  0.835841  0.326213  0.166682  1
  Si  Si7  1  0.673787  0.164159  0.328735  1
  Si  Si8  1  0.166682  0.671265  0.835841  1
  Si  Si9  1  0.328735  0.833318  0.673787  1
  Si  Si10  1  0.167721  0.160013  0.839987  1
  Si  Si11  1  0.839987  0.832279  0.167721  1
