# generated using pymatgen
data_Hf4Al7Ru
_symmetry_space_group_name_H-M   'P 1'
_cell_length_a   5.28105800
_cell_length_b   5.28105803
_cell_length_c   8.51993500
_cell_angle_alpha   90.00000000
_cell_angle_beta   90.00000000
_cell_angle_gamma   119.99998728
_symmetry_Int_Tables_number   1
_chemical_formula_structural   Hf4Al7Ru
_chemical_formula_sum   'Hf4 Al7 Ru1'
_cell_volume   205.78269274
_cell_formula_units_Z   1
loop_
 _symmetry_equiv_pos_site_id
 _symmetry_equiv_pos_as_xyz
  1  'x, y, z'
loop_
 _atom_site_type_symbol
 _atom_site_label
 _atom_site_symmetry_multiplicity
 _atom_site_fract_x
 _atom_site_fract_y
 _atom_site_fract_z
 _atom_site_occupancy
  Hf  Hf0  1  0.333333  0.666667  0.438950  1
  Hf  Hf1  1  0.666667  0.333333  0.933411  1
  Hf  Hf2  1  0.666667  0.333333  0.561050  1
  Hf  Hf3  1  0.333333  0.666667  0.066589  1
  Al  Al4  1  0.169984  0.339970  0.758600  1
  Al  Al5  1  0.830016  0.169984  0.241400  1
  Al  Al6  1  0.339970  0.169984  0.241400  1
  Al  Al7  1  0.660030  0.830016  0.758600  1
  Al  Al8  1  0.000000  0.000000  0.500000  1
  Al  Al9  1  0.830016  0.660030  0.241400  1
  Al  Al10  1  0.169984  0.830016  0.758600  1
  Ru  Ru11  1  0.000000  0.000000  0.000000  1
