# generated using pymatgen
data_CeDy15(CdNi)4
_symmetry_space_group_name_H-M   'P 1'
_cell_length_a   9.55582861
_cell_length_b   9.55582921
_cell_length_c   9.55582922
_cell_angle_alpha   59.86998383
_cell_angle_beta   59.86997753
_cell_angle_gamma   59.86998319
_symmetry_Int_Tables_number   1
_chemical_formula_structural   CeDy15(CdNi)4
_chemical_formula_sum   'Ce1 Dy15 Cd4 Ni4'
_cell_volume   615.18670799
_cell_formula_units_Z   1
loop_
 _symmetry_equiv_pos_site_id
 _symmetry_equiv_pos_as_xyz
  1  'x, y, z'
loop_
 _atom_site_type_symbol
 _atom_site_label
 _atom_site_symmetry_multiplicity
 _atom_site_fract_x
 _atom_site_fract_y
 _atom_site_fract_z
 _atom_site_occupancy
  Ce  Ce0  1  0.593741  0.593741  0.593741  1
  Dy  Dy1  1  0.599099  0.599099  0.200733  1
  Dy  Dy2  1  0.599099  0.200733  0.599099  1
  Dy  Dy3  1  0.200733  0.599099  0.599099  1
  Dy  Dy4  1  0.061912  0.439634  0.439634  1
  Dy  Dy5  1  0.439948  0.062048  0.062048  1
  Dy  Dy6  1  0.439634  0.061912  0.439634  1
  Dy  Dy7  1  0.062048  0.439948  0.062048  1
  Dy  Dy8  1  0.439634  0.439634  0.061912  1
  Dy  Dy9  1  0.062048  0.062048  0.439948  1
  Dy  Dy10  1  0.189191  0.813551  0.813551  1
  Dy  Dy11  1  0.812796  0.185911  0.185911  1
  Dy  Dy12  1  0.813551  0.189191  0.813551  1
  Dy  Dy13  1  0.185911  0.812796  0.185911  1
  Dy  Dy14  1  0.813551  0.813551  0.189191  1
  Dy  Dy15  1  0.185911  0.185911  0.812796  1
  Cd  Cd16  1  0.830999  0.830999  0.830999  1
  Cd  Cd17  1  0.830811  0.830811  0.506563  1
  Cd  Cd18  1  0.830811  0.506563  0.830811  1
  Cd  Cd19  1  0.506563  0.830811  0.830811  1
  Ni  Ni20  1  0.393087  0.393087  0.393087  1
  Ni  Ni21  1  0.394234  0.394234  0.820454  1
  Ni  Ni22  1  0.394234  0.820454  0.394234  1
  Ni  Ni23  1  0.820454  0.394234  0.394234  1
