# generated using pymatgen
data_Nb16Al3SiTe16
_symmetry_space_group_name_H-M   'P 1'
_cell_length_a   4.91574300
_cell_length_b   10.96687411
_cell_length_c   19.14432911
_cell_angle_alpha   89.99798914
_cell_angle_beta   90.00000000
_cell_angle_gamma   90.00000000
_symmetry_Int_Tables_number   1
_chemical_formula_structural   Nb16Al3SiTe16
_chemical_formula_sum   'Nb16 Al3 Si1 Te16'
_cell_volume   1032.07718859
_cell_formula_units_Z   1
loop_
 _symmetry_equiv_pos_site_id
 _symmetry_equiv_pos_as_xyz
  1  'x, y, z'
loop_
 _atom_site_type_symbol
 _atom_site_label
 _atom_site_symmetry_multiplicity
 _atom_site_fract_x
 _atom_site_fract_y
 _atom_site_fract_z
 _atom_site_occupancy
  Nb  Nb0  1  0.500194  0.566339  0.380324  1
  Nb  Nb1  1  0.500194  0.433661  0.619676  1
  Nb  Nb2  1  0.498381  0.065048  0.117475  1
  Nb  Nb3  1  0.498381  0.934952  0.882525  1
  Nb  Nb4  1  0.499862  0.709645  0.537670  1
  Nb  Nb5  1  0.499862  0.290355  0.462330  1
  Nb  Nb6  1  0.498864  0.205912  0.963023  1
  Nb  Nb7  1  0.498864  0.794088  0.036977  1
  Nb  Nb8  1  0.000219  0.694691  0.441686  1
  Nb  Nb9  1  0.000219  0.305309  0.558314  1
  Nb  Nb10  1  0.001001  0.191530  0.057144  1
  Nb  Nb11  1  0.001001  0.808470  0.942856  1
  Nb  Nb12  1  0.999927  0.398744  0.388807  1
  Nb  Nb13  1  0.999927  0.601256  0.611193  1
  Nb  Nb14  1  0.001585  0.900548  0.109196  1
  Nb  Nb15  1  0.001585  0.099452  0.890804  1
  Al  Al16  1  0.250112  0.500000  0.500000  1
  Al  Al17  1  0.749931  0.000000  0.000000  1
  Al  Al18  1  0.749983  0.500000  0.500000  1
  Si  Si19  1  0.249995  0.000000  0.000000  1
  Te  Te20  1  0.999969  0.847878  0.562548  1
  Te  Te21  1  0.999969  0.152122  0.437452  1
  Te  Te22  1  0.999642  0.346869  0.937406  1
  Te  Te23  1  0.999642  0.653131  0.062594  1
  Te  Te24  1  0.499995  0.332505  0.315283  1
  Te  Te25  1  0.499995  0.667495  0.684717  1
  Te  Te26  1  0.500725  0.833071  0.184164  1
  Te  Te27  1  0.500725  0.166929  0.815836  1
  Te  Te28  1  0.500083  0.823538  0.403424  1
  Te  Te29  1  0.500083  0.176462  0.596576  1
  Te  Te30  1  0.500389  0.322685  0.096310  1
  Te  Te31  1  0.500389  0.677315  0.903690  1
  Te  Te32  1  0.000088  0.609151  0.301062  1
  Te  Te33  1  0.000088  0.390849  0.698938  1
  Te  Te34  1  0.999065  0.108829  0.198164  1
  Te  Te35  1  0.999065  0.891171  0.801836  1
