# generated using pymatgen
data_Li6Ni6Rh
_symmetry_space_group_name_H-M   'P 1'
_cell_length_a   4.76843027
_cell_length_b   4.76842929
_cell_length_c   8.87367203
_cell_angle_alpha   74.41402647
_cell_angle_beta   74.41401877
_cell_angle_gamma   59.99998612
_symmetry_Int_Tables_number   1
_chemical_formula_structural   Li6Ni6Rh
_chemical_formula_sum   'Li6 Ni6 Rh1'
_cell_volume   166.11456753
_cell_formula_units_Z   1
loop_
 _symmetry_equiv_pos_site_id
 _symmetry_equiv_pos_as_xyz
  1  'x, y, z'
loop_
 _atom_site_type_symbol
 _atom_site_label
 _atom_site_symmetry_multiplicity
 _atom_site_fract_x
 _atom_site_fract_y
 _atom_site_fract_z
 _atom_site_occupancy
  Li  Li0  1  0.164009  0.164009  0.507972  1
  Li  Li1  1  0.835991  0.835991  0.492028  1
  Li  Li2  1  0.347670  0.347670  0.956989  1
  Li  Li3  1  0.652330  0.652330  0.043011  1
  Li  Li4  1  0.447662  0.447662  0.657017  1
  Li  Li5  1  0.552338  0.552338  0.342983  1
  Ni  Ni6  1  0.580540  0.092071  0.235319  1
  Ni  Ni7  1  0.092071  0.092071  0.235319  1
  Ni  Ni8  1  0.092071  0.580540  0.235319  1
  Ni  Ni9  1  0.419460  0.907929  0.764681  1
  Ni  Ni10  1  0.907929  0.907929  0.764681  1
  Ni  Ni11  1  0.907929  0.419460  0.764681  1
  Rh  Rh12  1  0.000000  0.000000  0.000000  1
