# generated using pymatgen
data_Pr4Ga4CoRu3
_symmetry_space_group_name_H-M   'P 1'
_cell_length_a   4.64986300
_cell_length_b   7.43373218
_cell_length_c   7.08704794
_cell_angle_alpha   89.91754238
_cell_angle_beta   90.00000000
_cell_angle_gamma   90.00000000
_symmetry_Int_Tables_number   1
_chemical_formula_structural   Pr4Ga4CoRu3
_chemical_formula_sum   'Pr4 Ga4 Co1 Ru3'
_cell_volume   244.96948454
_cell_formula_units_Z   1
loop_
 _symmetry_equiv_pos_site_id
 _symmetry_equiv_pos_as_xyz
  1  'x, y, z'
loop_
 _atom_site_type_symbol
 _atom_site_label
 _atom_site_symmetry_multiplicity
 _atom_site_fract_x
 _atom_site_fract_y
 _atom_site_fract_z
 _atom_site_occupancy
  Pr  Pr0  1  0.250000  0.031401  0.810134  1
  Pr  Pr1  1  0.250000  0.531922  0.692614  1
  Pr  Pr2  1  0.750000  0.970089  0.189388  1
  Pr  Pr3  1  0.750000  0.473319  0.307405  1
  Ga  Ga4  1  0.250000  0.190676  0.393109  1
  Ga  Ga5  1  0.250000  0.687525  0.106010  1
  Ga  Ga6  1  0.750000  0.806854  0.612457  1
  Ga  Ga7  1  0.750000  0.315709  0.890048  1
  Co  Co8  1  0.750000  0.648956  0.936814  1
  Ru  Ru9  1  0.250000  0.845675  0.437135  1
  Ru  Ru10  1  0.250000  0.346539  0.061781  1
  Ru  Ru11  1  0.750000  0.151336  0.563105  1
