# generated using pymatgen
data_Y6ScV(Co4P3)4
_symmetry_space_group_name_H-M   'P 1'
_cell_length_a   3.70598400
_cell_length_b   10.60320400
_cell_length_c   12.29158400
_cell_angle_alpha   90.00000000
_cell_angle_beta   90.00000000
_cell_angle_gamma   90.00000000
_symmetry_Int_Tables_number   1
_chemical_formula_structural   Y6ScV(Co4P3)4
_chemical_formula_sum   'Y6 Sc1 V1 Co16 P12'
_cell_volume   483.00153450
_cell_formula_units_Z   1
loop_
 _symmetry_equiv_pos_site_id
 _symmetry_equiv_pos_as_xyz
  1  'x, y, z'
loop_
 _atom_site_type_symbol
 _atom_site_label
 _atom_site_symmetry_multiplicity
 _atom_site_fract_x
 _atom_site_fract_y
 _atom_site_fract_z
 _atom_site_occupancy
  Y  Y0  1  0.000000  0.500000  0.527437  1
  Y  Y1  1  0.500000  0.000000  0.477245  1
  Y  Y2  1  0.500000  0.821586  0.205109  1
  Y  Y3  1  0.500000  0.178414  0.205109  1
  Y  Y4  1  0.000000  0.681955  0.795639  1
  Y  Y5  1  0.000000  0.318045  0.795639  1
  Sc  Sc6  1  0.500000  0.500000  0.153197  1
  V  V7  1  0.000000  0.000000  0.843536  1
  Co  Co8  1  0.500000  0.500000  0.703008  1
  Co  Co9  1  0.000000  0.000000  0.297249  1
  Co  Co10  1  0.000000  0.500000  0.984425  1
  Co  Co11  1  0.500000  0.000000  0.010851  1
  Co  Co12  1  0.500000  0.327526  0.990271  1
  Co  Co13  1  0.500000  0.672474  0.990271  1
  Co  Co14  1  0.000000  0.163833  0.003139  1
  Co  Co15  1  0.000000  0.836167  0.003139  1
  Co  Co16  1  0.500000  0.294464  0.434196  1
  Co  Co17  1  0.500000  0.705536  0.434196  1
  Co  Co18  1  0.000000  0.203009  0.570067  1
  Co  Co19  1  0.000000  0.796991  0.570067  1
  Co  Co20  1  0.500000  0.879833  0.706748  1
  Co  Co21  1  0.500000  0.120167  0.706748  1
  Co  Co22  1  0.000000  0.622603  0.296997  1
  Co  Co23  1  0.000000  0.377397  0.296997  1
  P  P24  1  0.500000  0.500000  0.883155  1
  P  P25  1  0.000000  0.000000  0.116209  1
  P  P26  1  0.500000  0.500000  0.357406  1
  P  P27  1  0.000000  0.000000  0.651945  1
  P  P28  1  0.500000  0.309275  0.617172  1
  P  P29  1  0.500000  0.690725  0.617172  1
  P  P30  1  0.000000  0.189281  0.385700  1
  P  P31  1  0.000000  0.810719  0.385700  1
  P  P32  1  0.500000  0.848101  0.888969  1
  P  P33  1  0.500000  0.151899  0.888969  1
  P  P34  1  0.000000  0.661942  0.103160  1
  P  P35  1  0.000000  0.338058  0.103160  1
