# generated using pymatgen
data_TbEuGe4N7
_symmetry_space_group_name_H-M   'P 1'
_cell_length_a   6.28652600
_cell_length_b   6.28652618
_cell_length_c   10.40827200
_cell_angle_alpha   90.00000000
_cell_angle_beta   90.00000000
_cell_angle_gamma   119.99998854
_symmetry_Int_Tables_number   1
_chemical_formula_structural   TbEuGe4N7
_chemical_formula_sum   'Tb2 Eu2 Ge8 N14'
_cell_volume   356.23022023
_cell_formula_units_Z   2
loop_
 _symmetry_equiv_pos_site_id
 _symmetry_equiv_pos_as_xyz
  1  'x, y, z'
loop_
 _atom_site_type_symbol
 _atom_site_label
 _atom_site_symmetry_multiplicity
 _atom_site_fract_x
 _atom_site_fract_y
 _atom_site_fract_z
 _atom_site_occupancy
  Tb  Tb0  1  0.666667  0.333333  0.952987  1
  Tb  Tb1  1  0.333333  0.666667  0.452987  1
  Eu  Eu2  1  0.666667  0.333333  0.605383  1
  Eu  Eu3  1  0.333333  0.666667  0.105383  1
  Ge  Ge4  1  0.172948  0.345894  0.759418  1
  Ge  Ge5  1  0.827052  0.172948  0.259418  1
  Ge  Ge6  1  0.345894  0.172948  0.259418  1
  Ge  Ge7  1  0.654106  0.827052  0.759418  1
  Ge  Ge8  1  0.172948  0.827052  0.759418  1
  Ge  Ge9  1  0.827052  0.654106  0.259418  1
  Ge  Ge10  1  0.000000  0.000000  0.024395  1
  Ge  Ge11  1  0.000000  0.000000  0.524395  1
  N  N12  1  0.000000  0.000000  0.833588  1
  N  N13  1  0.000000  0.000000  0.333588  1
  N  N14  1  0.841525  0.683050  0.082384  1
  N  N15  1  0.158475  0.841525  0.582384  1
  N  N16  1  0.683050  0.841525  0.582384  1
  N  N17  1  0.316950  0.158475  0.082384  1
  N  N18  1  0.841525  0.158475  0.082384  1
  N  N19  1  0.158475  0.316950  0.582384  1
  N  N20  1  0.498073  0.501927  0.810354  1
  N  N21  1  0.996145  0.498073  0.310354  1
  N  N22  1  0.501927  0.003855  0.310354  1
  N  N23  1  0.498073  0.996145  0.810354  1
  N  N24  1  0.501927  0.498073  0.310354  1
  N  N25  1  0.003855  0.501927  0.810354  1
