# generated using pymatgen
data_ZrP2Br8O3
_symmetry_space_group_name_H-M   'P 1'
_cell_length_a   9.52412639
_cell_length_b   9.85351447
_cell_length_c   11.66512700
_cell_angle_alpha   70.41823220
_cell_angle_beta   72.35848498
_cell_angle_gamma   65.58202689
_symmetry_Int_Tables_number   1
_chemical_formula_structural   ZrP2Br8O3
_chemical_formula_sum   'Zr2 P4 Br16 O6'
_cell_volume   921.72711998
_cell_formula_units_Z   2
loop_
 _symmetry_equiv_pos_site_id
 _symmetry_equiv_pos_as_xyz
  1  'x, y, z'
loop_
 _atom_site_type_symbol
 _atom_site_label
 _atom_site_symmetry_multiplicity
 _atom_site_fract_x
 _atom_site_fract_y
 _atom_site_fract_z
 _atom_site_occupancy
  Zr  Zr0  1  0.917674  0.801483  0.228002  1
  Zr  Zr1  1  0.082326  0.198517  0.771998  1
  P  P2  1  0.802430  0.196030  0.061793  1
  P  P3  1  0.220951  0.808863  0.356801  1
  P  P4  1  0.197570  0.803970  0.938207  1
  P  P5  1  0.779049  0.191137  0.643199  1
  Br  Br6  1  0.548215  0.260079  0.077012  1
  Br  Br7  1  0.805938  0.208373  0.447571  1
  Br  Br8  1  0.043996  0.508898  0.291577  1
  Br  Br9  1  0.451785  0.739921  0.922988  1
  Br  Br10  1  0.243708  0.193017  0.915089  1
  Br  Br11  1  0.290524  0.006196  0.253215  1
  Br  Br12  1  0.304170  0.166844  0.583332  1
  Br  Br13  1  0.823469  0.385831  0.107138  1
  Br  Br14  1  0.415720  0.605994  0.315395  1
  Br  Br15  1  0.176531  0.614169  0.892862  1
  Br  Br16  1  0.709476  0.993804  0.746785  1
  Br  Br17  1  0.584280  0.394006  0.684605  1
  Br  Br18  1  0.695830  0.833156  0.416668  1
  Br  Br19  1  0.756292  0.806983  0.084911  1
  Br  Br20  1  0.194062  0.791627  0.552429  1
  Br  Br21  1  0.956004  0.491102  0.708423  1
  O  O22  1  0.928033  0.176635  0.672660  1
  O  O23  1  0.858540  0.051759  0.161091  1
  O  O24  1  0.141460  0.948241  0.838909  1
  O  O25  1  0.071967  0.823365  0.327340  1
  O  O26  1  0.118947  0.806902  0.071403  1
  O  O27  1  0.881053  0.193098  0.928597  1
