# generated using pymatgen
data_NdTm2(Si3Pd10)2
_symmetry_space_group_name_H-M   'P 1'
_cell_length_a   8.72587662
_cell_length_b   8.72587676
_cell_length_c   8.72587800
_cell_angle_alpha   60.00000287
_cell_angle_beta   60.00000234
_cell_angle_gamma   60.00000647
_symmetry_Int_Tables_number   1
_chemical_formula_structural   NdTm2(Si3Pd10)2
_chemical_formula_sum   'Nd1 Tm2 Si6 Pd20'
_cell_volume   469.79925085
_cell_formula_units_Z   1
loop_
 _symmetry_equiv_pos_site_id
 _symmetry_equiv_pos_as_xyz
  1  'x, y, z'
loop_
 _atom_site_type_symbol
 _atom_site_label
 _atom_site_symmetry_multiplicity
 _atom_site_fract_x
 _atom_site_fract_y
 _atom_site_fract_z
 _atom_site_occupancy
  Nd  Nd0  1  0.250000  0.250000  0.250000  1
  Tm  Tm1  1  0.000000  0.000000  0.000000  1
  Tm  Tm2  1  0.750000  0.750000  0.750000  1
  Si  Si3  1  0.733048  0.266952  0.266952  1
  Si  Si4  1  0.266952  0.733048  0.733048  1
  Si  Si5  1  0.266952  0.733048  0.266952  1
  Si  Si6  1  0.733048  0.266952  0.733048  1
  Si  Si7  1  0.266952  0.266952  0.733048  1
  Si  Si8  1  0.733048  0.733048  0.266952  1
  Pd  Pd9  1  0.345792  0.999035  0.999035  1
  Pd  Pd10  1  0.656137  0.999035  0.999035  1
  Pd  Pd11  1  0.999035  0.345792  0.656137  1
  Pd  Pd12  1  0.999035  0.656137  0.345792  1
  Pd  Pd13  1  0.999035  0.345792  0.999035  1
  Pd  Pd14  1  0.656137  0.999035  0.345792  1
  Pd  Pd15  1  0.999035  0.656137  0.999035  1
  Pd  Pd16  1  0.345792  0.999035  0.656137  1
  Pd  Pd17  1  0.999035  0.999035  0.345792  1
  Pd  Pd18  1  0.999035  0.999035  0.656137  1
  Pd  Pd19  1  0.656137  0.345792  0.999035  1
  Pd  Pd20  1  0.345792  0.656137  0.999035  1
  Pd  Pd21  1  0.385720  0.385720  0.385720  1
  Pd  Pd22  1  0.617464  0.617464  0.617464  1
  Pd  Pd23  1  0.385720  0.385720  0.842841  1
  Pd  Pd24  1  0.385720  0.842841  0.385720  1
  Pd  Pd25  1  0.617464  0.617464  0.147608  1
  Pd  Pd26  1  0.617464  0.147608  0.617464  1
  Pd  Pd27  1  0.842841  0.385720  0.385720  1
  Pd  Pd28  1  0.147608  0.617464  0.617464  1
