# generated using pymatgen
data_Na4Ca(SiSe3)2
_symmetry_space_group_name_H-M   'P 1'
_cell_length_a   7.31368125
_cell_length_b   7.31368126
_cell_length_c   7.11909336
_cell_angle_alpha   80.87895633
_cell_angle_beta   80.87895669
_cell_angle_gamma   114.56588808
_symmetry_Int_Tables_number   1
_chemical_formula_structural   Na4Ca(SiSe3)2
_chemical_formula_sum   'Na4 Ca1 Si2 Se6'
_cell_volume   331.10080965
_cell_formula_units_Z   1
loop_
 _symmetry_equiv_pos_site_id
 _symmetry_equiv_pos_as_xyz
  1  'x, y, z'
loop_
 _atom_site_type_symbol
 _atom_site_label
 _atom_site_symmetry_multiplicity
 _atom_site_fract_x
 _atom_site_fract_y
 _atom_site_fract_z
 _atom_site_occupancy
  Na  Na0  1  0.512976  0.487024  0.500000  1
  Na  Na1  1  0.354964  0.645036  0.000000  1
  Na  Na2  1  0.685677  0.314323  0.000000  1
  Na  Na3  1  0.048832  0.951168  0.000000  1
  Ca  Ca4  1  0.871065  0.128935  0.500000  1
  Si  Si5  1  0.352172  0.958091  0.444219  1
  Si  Si6  1  0.041909  0.647828  0.555781  1
  Se  Se7  1  0.277416  0.197282  0.261222  1
  Se  Se8  1  0.802718  0.722584  0.738778  1
  Se  Se9  1  0.453993  0.052910  0.717637  1
  Se  Se10  1  0.947090  0.546007  0.282363  1
  Se  Se11  1  0.603216  0.908870  0.250937  1
  Se  Se12  1  0.091130  0.396784  0.749063  1
