# generated using pymatgen
data_Y2LuMg3Ga2Ag
_symmetry_space_group_name_H-M   'P 1'
_cell_length_a   7.35799557
_cell_length_b   7.35799599
_cell_length_c   4.32702700
_cell_angle_alpha   90.00000000
_cell_angle_beta   90.00000000
_cell_angle_gamma   119.72359336
_symmetry_Int_Tables_number   1
_chemical_formula_structural   Y2LuMg3Ga2Ag
_chemical_formula_sum   'Y2 Lu1 Mg3 Ga2 Ag1'
_cell_volume   203.44274227
_cell_formula_units_Z   1
loop_
 _symmetry_equiv_pos_site_id
 _symmetry_equiv_pos_as_xyz
  1  'x, y, z'
loop_
 _atom_site_type_symbol
 _atom_site_label
 _atom_site_symmetry_multiplicity
 _atom_site_fract_x
 _atom_site_fract_y
 _atom_site_fract_z
 _atom_site_occupancy
  Y  Y0  1  0.998799  0.575728  0.500000  1
  Y  Y1  1  0.575728  0.998799  0.500000  1
  Lu  Lu2  1  0.422505  0.422505  0.500000  1
  Mg  Mg3  1  0.755051  0.755051  0.000000  1
  Mg  Mg4  1  0.245153  0.000043  0.000000  1
  Mg  Mg5  1  0.000043  0.245153  0.000000  1
  Ga  Ga6  1  0.663951  0.334006  0.000000  1
  Ga  Ga7  1  0.334006  0.663951  0.000000  1
  Ag  Ag8  1  0.004765  0.004765  0.500000  1
