# generated using pymatgen
data_Ho2Lu6Tc(B8Ru)3
_symmetry_space_group_name_H-M   'P 1'
_cell_length_a   3.61245700
_cell_length_b   9.04700524
_cell_length_c   11.42627220
_cell_angle_alpha   89.93342712
_cell_angle_beta   90.00000000
_cell_angle_gamma   90.00000000
_symmetry_Int_Tables_number   1
_chemical_formula_structural   Ho2Lu6Tc(B8Ru)3
_chemical_formula_sum   'Ho2 Lu6 Tc1 B24 Ru3'
_cell_volume   373.43223233
_cell_formula_units_Z   1
loop_
 _symmetry_equiv_pos_site_id
 _symmetry_equiv_pos_as_xyz
  1  'x, y, z'
loop_
 _atom_site_type_symbol
 _atom_site_label
 _atom_site_symmetry_multiplicity
 _atom_site_fract_x
 _atom_site_fract_y
 _atom_site_fract_z
 _atom_site_occupancy
  Ho  Ho0  1  0.000000  0.323404  0.413086  1
  Ho  Ho1  1  0.000000  0.677842  0.583682  1
  Lu  Lu2  1  0.000000  0.819469  0.088051  1
  Lu  Lu3  1  0.000000  0.178152  0.915135  1
  Lu  Lu4  1  0.000000  0.943391  0.372073  1
  Lu  Lu5  1  0.000000  0.056950  0.628331  1
  Lu  Lu6  1  0.000000  0.444405  0.127646  1
  Lu  Lu7  1  0.000000  0.556572  0.872049  1
  Tc  Tc8  1  0.000000  0.638715  0.319935  1
  B  B9  1  0.500000  0.553230  0.433045  1
  B  B10  1  0.500000  0.445989  0.567542  1
  B  B11  1  0.500000  0.053397  0.066164  1
  B  B12  1  0.500000  0.946418  0.934051  1
  B  B13  1  0.500000  0.750014  0.419144  1
  B  B14  1  0.500000  0.250415  0.580874  1
  B  B15  1  0.500000  0.249080  0.079451  1
  B  B16  1  0.500000  0.750811  0.920397  1
  B  B17  1  0.500000  0.792779  0.264873  1
  B  B18  1  0.500000  0.207783  0.735142  1
  B  B19  1  0.500000  0.291399  0.233047  1
  B  B20  1  0.500000  0.708849  0.766137  1
  B  B21  1  0.500000  0.631119  0.184105  1
  B  B22  1  0.500000  0.368531  0.816238  1
  B  B23  1  0.500000  0.130469  0.314677  1
  B  B24  1  0.500000  0.869949  0.684874  1
  B  B25  1  0.500000  0.981730  0.212343  1
  B  B26  1  0.500000  0.018333  0.788012  1
  B  B27  1  0.500000  0.481566  0.286421  1
  B  B28  1  0.500000  0.517333  0.713524  1
  B  B29  1  0.500000  0.605359  0.028447  1
  B  B30  1  0.500000  0.394105  0.970582  1
  B  B31  1  0.500000  0.104557  0.471442  1
  B  B32  1  0.500000  0.896983  0.529107  1
  Ru  Ru33  1  0.000000  0.360913  0.680760  1
  Ru  Ru34  1  0.000000  0.137324  0.178291  1
  Ru  Ru35  1  0.000000  0.862662  0.821319  1
