# generated using pymatgen
data_ErLuSi2(Ru2C)2
_symmetry_space_group_name_H-M   'P 1'
_cell_length_a   5.89522770
_cell_length_b   5.89522775
_cell_length_c   7.12016600
_cell_angle_alpha   90.00000000
_cell_angle_beta   90.00000000
_cell_angle_gamma   142.90003712
_symmetry_Int_Tables_number   1
_chemical_formula_structural   ErLuSi2(Ru2C)2
_chemical_formula_sum   'Er1 Lu1 Si2 Ru4 C2'
_cell_volume   149.26500578
_cell_formula_units_Z   1
loop_
 _symmetry_equiv_pos_site_id
 _symmetry_equiv_pos_as_xyz
  1  'x, y, z'
loop_
 _atom_site_type_symbol
 _atom_site_label
 _atom_site_symmetry_multiplicity
 _atom_site_fract_x
 _atom_site_fract_y
 _atom_site_fract_z
 _atom_site_occupancy
  Er  Er0  1  0.453341  0.546659  0.750000  1
  Lu  Lu1  1  0.546415  0.453585  0.250000  1
  Si  Si2  1  0.267454  0.732546  0.250000  1
  Si  Si3  1  0.732008  0.267992  0.750000  1
  Ru  Ru4  1  0.836669  0.163331  0.056348  1
  Ru  Ru5  1  0.163414  0.836586  0.945239  1
  Ru  Ru6  1  0.163414  0.836586  0.554761  1
  Ru  Ru7  1  0.836669  0.163331  0.443652  1
  C  C8  1  0.000307  0.999693  0.002530  1
  C  C9  1  0.000307  0.999693  0.497470  1
