# generated using pymatgen
data_Yb4Pr5Pd6
_symmetry_space_group_name_H-M   'P 1'
_cell_length_a   7.65721846
_cell_length_b   7.69108389
_cell_length_c   7.68406194
_cell_angle_alpha   71.26480093
_cell_angle_beta   71.37355747
_cell_angle_gamma   71.34197892
_symmetry_Int_Tables_number   1
_chemical_formula_structural   Yb4Pr5Pd6
_chemical_formula_sum   'Yb4 Pr5 Pd6'
_cell_volume   394.01794845
_cell_formula_units_Z   1
loop_
 _symmetry_equiv_pos_site_id
 _symmetry_equiv_pos_as_xyz
  1  'x, y, z'
loop_
 _atom_site_type_symbol
 _atom_site_label
 _atom_site_symmetry_multiplicity
 _atom_site_fract_x
 _atom_site_fract_y
 _atom_site_fract_z
 _atom_site_occupancy
  Yb  Yb0  1  0.003274  0.998223  0.999649  1
  Yb  Yb1  1  0.800853  0.803157  0.801713  1
  Yb  Yb2  1  0.201133  0.200724  0.197776  1
  Yb  Yb3  1  0.334736  0.605792  0.836047  1
  Pr  Pr4  1  0.838868  0.336184  0.604998  1
  Pr  Pr5  1  0.604373  0.836653  0.335857  1
  Pr  Pr6  1  0.657211  0.396522  0.162033  1
  Pr  Pr7  1  0.162113  0.661211  0.399758  1
  Pr  Pr8  1  0.394601  0.166822  0.660830  1
  Pd  Pd9  1  0.160251  0.959868  0.586660  1
  Pd  Pd10  1  0.588526  0.154137  0.958253  1
  Pd  Pd11  1  0.960009  0.585518  0.157143  1
  Pd  Pd12  1  0.839874  0.041232  0.415470  1
  Pd  Pd13  1  0.412082  0.836952  0.042066  1
  Pd  Pd14  1  0.042094  0.417004  0.841747  1
