# generated using pymatgen
data_Ac2Zn25Pd
_symmetry_space_group_name_H-M   'P 1'
_cell_length_a   8.69821946
_cell_length_b   8.71237375
_cell_length_c   8.69957088
_cell_angle_alpha   59.94103186
_cell_angle_beta   60.19561166
_cell_angle_gamma   59.95641975
_symmetry_Int_Tables_number   1
_chemical_formula_structural   Ac2Zn25Pd
_chemical_formula_sum   'Ac2 Zn25 Pd1'
_cell_volume   466.49777834
_cell_formula_units_Z   1
loop_
 _symmetry_equiv_pos_site_id
 _symmetry_equiv_pos_as_xyz
  1  'x, y, z'
loop_
 _atom_site_type_symbol
 _atom_site_label
 _atom_site_symmetry_multiplicity
 _atom_site_fract_x
 _atom_site_fract_y
 _atom_site_fract_z
 _atom_site_occupancy
  Ac  Ac0  1  0.247513  0.254425  0.250003  1
  Ac  Ac1  1  0.749997  0.751941  0.752487  1
  Zn  Zn2  1  0.500003  0.499239  0.499997  1
  Zn  Zn3  1  0.000057  0.001986  0.999943  1
  Zn  Zn4  1  0.202619  0.441824  0.797381  1
  Zn  Zn5  1  0.560198  0.798103  0.439802  1
  Zn  Zn6  1  0.441305  0.198579  0.558695  1
  Zn  Zn7  1  0.301460  0.940140  0.698540  1
  Zn  Zn8  1  0.698347  0.058888  0.301653  1
  Zn  Zn9  1  0.943186  0.305338  0.056814  1
  Zn  Zn10  1  0.059057  0.698035  0.940943  1
  Zn  Zn11  1  0.198982  0.800811  0.558297  1
  Zn  Zn12  1  0.801332  0.201893  0.438360  1
  Zn  Zn13  1  0.441703  0.558091  0.801018  1
  Zn  Zn14  1  0.561640  0.441586  0.198668  1
  Zn  Zn15  1  0.700580  0.297720  0.941433  1
  Zn  Zn16  1  0.299308  0.699585  0.058997  1
  Zn  Zn17  1  0.058567  0.939733  0.299420  1
  Zn  Zn18  1  0.941003  0.057890  0.700692  1
  Zn  Zn19  1  0.558061  0.197468  0.802147  1
  Zn  Zn20  1  0.440856  0.800657  0.198510  1
  Zn  Zn21  1  0.801490  0.440023  0.559144  1
  Zn  Zn22  1  0.197853  0.557675  0.441939  1
  Zn  Zn23  1  0.940267  0.701137  0.297284  1
  Zn  Zn24  1  0.059443  0.298735  0.700447  1
  Zn  Zn25  1  0.299553  0.058625  0.940557  1
  Zn  Zn26  1  0.702716  0.938687  0.059733  1
  Pd  Pd27  1  0.792902  0.561187  0.207098  1
