# generated using pymatgen
data_Tm3Sn3HgRu2
_symmetry_space_group_name_H-M   'P 1'
_cell_length_a   7.87299000
_cell_length_b   7.87299020
_cell_length_c   3.64697900
_cell_angle_alpha   90.00000000
_cell_angle_beta   90.00000000
_cell_angle_gamma   120.00000755
_symmetry_Int_Tables_number   1
_chemical_formula_structural   Tm3Sn3HgRu2
_chemical_formula_sum   'Tm3 Sn3 Hg1 Ru2'
_cell_volume   195.76870681
_cell_formula_units_Z   1
loop_
 _symmetry_equiv_pos_site_id
 _symmetry_equiv_pos_as_xyz
  1  'x, y, z'
loop_
 _atom_site_type_symbol
 _atom_site_label
 _atom_site_symmetry_multiplicity
 _atom_site_fract_x
 _atom_site_fract_y
 _atom_site_fract_z
 _atom_site_occupancy
  Tm  Tm0  1  0.029253  0.411202  0.500000  1
  Tm  Tm1  1  0.588798  0.618050  0.500000  1
  Tm  Tm2  1  0.381950  0.970747  0.500000  1
  Sn  Sn3  1  0.004110  0.738473  0.000000  1
  Sn  Sn4  1  0.261527  0.265636  0.000000  1
  Sn  Sn5  1  0.734364  0.995890  0.000000  1
  Hg  Hg6  1  0.666667  0.333333  0.000000  1
  Ru  Ru7  1  0.333333  0.666667  0.000000  1
  Ru  Ru8  1  0.000000  0.000000  0.500000  1
