# generated using pymatgen
data_K2Rb6SnBi4
_symmetry_space_group_name_H-M   'P 1'
_cell_length_a   12.28166084
_cell_length_b   12.28165908
_cell_length_c   12.28165473
_cell_angle_alpha   60.04969643
_cell_angle_beta   60.04970139
_cell_angle_gamma   60.04967891
_symmetry_Int_Tables_number   1
_chemical_formula_structural   K2Rb6SnBi4
_chemical_formula_sum   'K4 Rb12 Sn2 Bi8'
_cell_volume   1311.42932917
_cell_formula_units_Z   2
loop_
 _symmetry_equiv_pos_site_id
 _symmetry_equiv_pos_as_xyz
  1  'x, y, z'
loop_
 _atom_site_type_symbol
 _atom_site_label
 _atom_site_symmetry_multiplicity
 _atom_site_fract_x
 _atom_site_fract_y
 _atom_site_fract_z
 _atom_site_occupancy
  K  K0  1  0.625000  0.125000  0.625000  1
  K  K1  1  0.625000  0.625000  0.125000  1
  K  K2  1  0.125000  0.625000  0.625000  1
  K  K3  1  0.625000  0.625000  0.625000  1
  Rb  Rb4  1  0.022934  0.022935  0.477084  1
  Rb  Rb5  1  0.772917  0.227065  0.227065  1
  Rb  Rb6  1  0.227038  0.772966  0.772966  1
  Rb  Rb7  1  0.772966  0.772966  0.227038  1
  Rb  Rb8  1  0.772966  0.227038  0.772966  1
  Rb  Rb9  1  0.227066  0.772917  0.227066  1
  Rb  Rb10  1  0.477034  0.022962  0.477034  1
  Rb  Rb11  1  0.477083  0.022935  0.022935  1
  Rb  Rb12  1  0.022962  0.477034  0.477034  1
  Rb  Rb13  1  0.022934  0.477083  0.022934  1
  Rb  Rb14  1  0.227066  0.227065  0.772916  1
  Rb  Rb15  1  0.477034  0.477034  0.022962  1
  Sn  Sn16  1  0.749953  0.749953  0.749953  1
  Sn  Sn17  1  0.500047  0.500047  0.500047  1
  Bi  Bi18  1  0.398803  0.803581  0.398803  1
  Bi  Bi19  1  0.851197  0.851197  0.446419  1
  Bi  Bi20  1  0.446419  0.851197  0.851197  1
  Bi  Bi21  1  0.851200  0.851200  0.851200  1
  Bi  Bi22  1  0.803581  0.398803  0.398803  1
  Bi  Bi23  1  0.398800  0.398800  0.398800  1
  Bi  Bi24  1  0.398803  0.398803  0.803581  1
  Bi  Bi25  1  0.851197  0.446419  0.851197  1
