# generated using pymatgen
data_Tm5Ru2Pb
_symmetry_space_group_name_H-M   'P 1'
_cell_length_a   8.67602713
_cell_length_b   8.67602676
_cell_length_c   8.67602621
_cell_angle_alpha   127.69115624
_cell_angle_beta   127.69115088
_cell_angle_gamma   77.12588504
_symmetry_Int_Tables_number   1
_chemical_formula_structural   Tm5Ru2Pb
_chemical_formula_sum   'Tm10 Ru4 Pb2'
_cell_volume   396.87563102
_cell_formula_units_Z   2
loop_
 _symmetry_equiv_pos_site_id
 _symmetry_equiv_pos_as_xyz
  1  'x, y, z'
loop_
 _atom_site_type_symbol
 _atom_site_label
 _atom_site_symmetry_multiplicity
 _atom_site_fract_x
 _atom_site_fract_y
 _atom_site_fract_z
 _atom_site_occupancy
  Tm  Tm0  1  0.000000  0.000000  0.000000  1
  Tm  Tm1  1  0.500000  0.500000  0.000000  1
  Tm  Tm2  1  0.786123  0.286123  0.811701  1
  Tm  Tm3  1  0.213877  0.713877  0.188299  1
  Tm  Tm4  1  0.474422  0.974422  0.188299  1
  Tm  Tm5  1  0.286123  0.474422  0.500000  1
  Tm  Tm6  1  0.025578  0.213877  0.500000  1
  Tm  Tm7  1  0.525578  0.025578  0.811701  1
  Tm  Tm8  1  0.713877  0.525578  0.500000  1
  Tm  Tm9  1  0.974422  0.786123  0.500000  1
  Ru  Ru10  1  0.143129  0.643129  0.786256  1
  Ru  Ru11  1  0.856871  0.356871  0.213744  1
  Ru  Ru12  1  0.643129  0.856871  0.500000  1
  Ru  Ru13  1  0.356871  0.143129  0.500000  1
  Pb  Pb14  1  0.250000  0.250000  0.000000  1
  Pb  Pb15  1  0.750000  0.750000  0.000000  1
