# generated using pymatgen
data_Ba2CaY(FeO4)2
_symmetry_space_group_name_H-M   'P 1'
_cell_length_a   5.73564400
_cell_length_b   10.33628200
_cell_length_c   13.38133900
_cell_angle_alpha   90.00000000
_cell_angle_beta   90.00000000
_cell_angle_gamma   90.00000000
_symmetry_Int_Tables_number   1
_chemical_formula_structural   Ba2CaY(FeO4)2
_chemical_formula_sum   'Ba8 Ca4 Y4 Fe8 O32'
_cell_volume   793.31581165
_cell_formula_units_Z   4
loop_
 _symmetry_equiv_pos_site_id
 _symmetry_equiv_pos_as_xyz
  1  'x, y, z'
loop_
 _atom_site_type_symbol
 _atom_site_label
 _atom_site_symmetry_multiplicity
 _atom_site_fract_x
 _atom_site_fract_y
 _atom_site_fract_z
 _atom_site_occupancy
  Ba  Ba0  1  0.250000  0.826986  0.709527  1
  Ba  Ba1  1  0.250000  0.673014  0.209527  1
  Ba  Ba2  1  0.750000  0.173014  0.290473  1
  Ba  Ba3  1  0.750000  0.326986  0.790473  1
  Ba  Ba4  1  0.250000  0.105293  0.914657  1
  Ba  Ba5  1  0.250000  0.394707  0.414657  1
  Ba  Ba6  1  0.750000  0.894707  0.085343  1
  Ba  Ba7  1  0.750000  0.605293  0.585343  1
  Ca  Ca8  1  0.250000  0.484632  0.915406  1
  Ca  Ca9  1  0.250000  0.015368  0.415406  1
  Ca  Ca10  1  0.750000  0.515368  0.084594  1
  Ca  Ca11  1  0.750000  0.984632  0.584594  1
  Y  Y12  1  0.250000  0.189027  0.641601  1
  Y  Y13  1  0.250000  0.310973  0.141601  1
  Y  Y14  1  0.750000  0.810973  0.358399  1
  Y  Y15  1  0.750000  0.689027  0.858399  1
  Fe  Fe16  1  0.250000  0.780072  0.967059  1
  Fe  Fe17  1  0.250000  0.719928  0.467059  1
  Fe  Fe18  1  0.750000  0.219928  0.032941  1
  Fe  Fe19  1  0.750000  0.280072  0.532941  1
  Fe  Fe20  1  0.250000  0.480590  0.695597  1
  Fe  Fe21  1  0.250000  0.019410  0.195597  1
  Fe  Fe22  1  0.750000  0.519410  0.304403  1
  Fe  Fe23  1  0.750000  0.980590  0.804403  1
  O  O24  1  0.250000  0.886302  0.086204  1
  O  O25  1  0.250000  0.613698  0.586204  1
  O  O26  1  0.750000  0.113698  0.913796  1
  O  O27  1  0.750000  0.386302  0.413796  1
  O  O28  1  0.250000  0.321195  0.780964  1
  O  O29  1  0.250000  0.178805  0.280964  1
  O  O30  1  0.750000  0.678805  0.219036  1
  O  O31  1  0.750000  0.821195  0.719036  1
  O  O32  1  0.513589  0.150973  0.505272  1
  O  O33  1  0.986411  0.349027  0.005272  1
  O  O34  1  0.013589  0.849027  0.494728  1
  O  O35  1  0.486411  0.650973  0.994728  1
  O  O36  1  0.486411  0.849027  0.494728  1
  O  O37  1  0.013589  0.650973  0.994728  1
  O  O38  1  0.986411  0.150973  0.505272  1
  O  O39  1  0.513589  0.349027  0.005272  1
  O  O40  1  0.506236  0.060340  0.722245  1
  O  O41  1  0.993764  0.439660  0.222245  1
  O  O42  1  0.006236  0.939660  0.277755  1
  O  O43  1  0.493764  0.560340  0.777755  1
  O  O44  1  0.493764  0.939660  0.277755  1
  O  O45  1  0.006236  0.560340  0.777755  1
  O  O46  1  0.993764  0.060340  0.722245  1
  O  O47  1  0.506236  0.439660  0.222245  1
  O  O48  1  0.990745  0.367203  0.609683  1
  O  O49  1  0.509255  0.132797  0.109683  1
  O  O50  1  0.490745  0.632797  0.390317  1
  O  O51  1  0.009255  0.867203  0.890317  1
  O  O52  1  0.009255  0.632797  0.390317  1
  O  O53  1  0.490745  0.867203  0.890317  1
  O  O54  1  0.509255  0.367203  0.609683  1
  O  O55  1  0.990745  0.132797  0.109683  1
