# generated using pymatgen
data_Tb3Tm2Bi2Ru
_symmetry_space_group_name_H-M   'P 1'
_cell_length_a   7.95009700
_cell_length_b   9.00656100
_cell_length_c   12.45929800
_cell_angle_alpha   90.00000000
_cell_angle_beta   90.00000000
_cell_angle_gamma   90.00000000
_symmetry_Int_Tables_number   1
_chemical_formula_structural   Tb3Tm2Bi2Ru
_chemical_formula_sum   'Tb12 Tm8 Bi8 Ru4'
_cell_volume   892.12353316
_cell_formula_units_Z   4
loop_
 _symmetry_equiv_pos_site_id
 _symmetry_equiv_pos_as_xyz
  1  'x, y, z'
loop_
 _atom_site_type_symbol
 _atom_site_label
 _atom_site_symmetry_multiplicity
 _atom_site_fract_x
 _atom_site_fract_y
 _atom_site_fract_z
 _atom_site_occupancy
  Tb  Tb0  1  0.844470  0.750000  0.793175  1
  Tb  Tb1  1  0.155530  0.250000  0.206825  1
  Tb  Tb2  1  0.344470  0.250000  0.706825  1
  Tb  Tb3  1  0.655530  0.750000  0.293175  1
  Tb  Tb4  1  0.376405  0.750000  0.691880  1
  Tb  Tb5  1  0.623595  0.250000  0.308120  1
  Tb  Tb6  1  0.876405  0.250000  0.808120  1
  Tb  Tb7  1  0.123595  0.750000  0.191880  1
  Tb  Tb8  1  0.946413  0.750000  0.504655  1
  Tb  Tb9  1  0.053587  0.250000  0.495345  1
  Tb  Tb10  1  0.446413  0.250000  0.995345  1
  Tb  Tb11  1  0.553587  0.750000  0.004655  1
  Tm  Tm12  1  0.673331  0.042616  0.563677  1
  Tm  Tm13  1  0.326669  0.957384  0.436323  1
  Tm  Tm14  1  0.173331  0.957384  0.936323  1
  Tm  Tm15  1  0.326669  0.542616  0.436323  1
  Tm  Tm16  1  0.826669  0.042616  0.063677  1
  Tm  Tm17  1  0.673331  0.457384  0.563677  1
  Tm  Tm18  1  0.826669  0.457384  0.063677  1
  Tm  Tm19  1  0.173331  0.542616  0.936323  1
  Bi  Bi20  1  0.569610  0.493474  0.827392  1
  Bi  Bi21  1  0.430390  0.506526  0.172608  1
  Bi  Bi22  1  0.069610  0.506526  0.672608  1
  Bi  Bi23  1  0.430390  0.993474  0.172608  1
  Bi  Bi24  1  0.930390  0.493474  0.327392  1
  Bi  Bi25  1  0.569610  0.006526  0.827392  1
  Bi  Bi26  1  0.930390  0.006526  0.327392  1
  Bi  Bi27  1  0.069610  0.993474  0.672608  1
  Ru  Ru28  1  0.572574  0.750000  0.510945  1
  Ru  Ru29  1  0.427426  0.250000  0.489055  1
  Ru  Ru30  1  0.072574  0.250000  0.989055  1
  Ru  Ru31  1  0.927426  0.750000  0.010945  1
