# generated using pymatgen
data_TbCeHf3Si4
_symmetry_space_group_name_H-M   'P 1'
_cell_length_a   7.30639900
_cell_length_b   7.30639900
_cell_length_c   13.44541300
_cell_angle_alpha   90.00000000
_cell_angle_beta   90.00000000
_cell_angle_gamma   90.00000000
_symmetry_Int_Tables_number   1
_chemical_formula_structural   TbCeHf3Si4
_chemical_formula_sum   'Tb4 Ce4 Hf12 Si16'
_cell_volume   717.76275241
_cell_formula_units_Z   4
loop_
 _symmetry_equiv_pos_site_id
 _symmetry_equiv_pos_as_xyz
  1  'x, y, z'
loop_
 _atom_site_type_symbol
 _atom_site_label
 _atom_site_symmetry_multiplicity
 _atom_site_fract_x
 _atom_site_fract_y
 _atom_site_fract_z
 _atom_site_occupancy
  Tb  Tb0  1  0.495367  0.155807  0.535250  1
  Tb  Tb1  1  0.504633  0.844193  0.035250  1
  Tb  Tb2  1  0.655807  0.004633  0.285250  1
  Tb  Tb3  1  0.344193  0.995367  0.785250  1
  Ce  Ce4  1  0.844641  0.505659  0.964021  1
  Ce  Ce5  1  0.155359  0.494341  0.464021  1
  Ce  Ce6  1  0.005659  0.655359  0.714021  1
  Ce  Ce7  1  0.994341  0.344641  0.214021  1
  Hf  Hf8  1  0.677239  0.326938  0.751017  1
  Hf  Hf9  1  0.322761  0.673062  0.251017  1
  Hf  Hf10  1  0.826938  0.822761  0.501017  1
  Hf  Hf11  1  0.173062  0.177239  0.001017  1
  Hf  Hf12  1  0.498333  0.349401  0.124129  1
  Hf  Hf13  1  0.501667  0.650599  0.624129  1
  Hf  Hf14  1  0.849401  0.001667  0.874129  1
  Hf  Hf15  1  0.150599  0.998333  0.374129  1
  Hf  Hf16  1  0.650498  0.503776  0.375193  1
  Hf  Hf17  1  0.349502  0.496224  0.875193  1
  Hf  Hf18  1  0.003776  0.849502  0.125193  1
  Hf  Hf19  1  0.996224  0.150498  0.625193  1
  Si  Si20  1  0.795196  0.135322  0.065426  1
  Si  Si21  1  0.204804  0.864678  0.565426  1
  Si  Si22  1  0.635322  0.704804  0.815426  1
  Si  Si23  1  0.364678  0.295196  0.315426  1
  Si  Si24  1  0.860795  0.202627  0.434605  1
  Si  Si25  1  0.139205  0.797373  0.934605  1
  Si  Si26  1  0.702627  0.639205  0.184605  1
  Si  Si27  1  0.297373  0.360795  0.684605  1
  Si  Si28  1  0.547538  0.204008  0.935437  1
  Si  Si29  1  0.452462  0.795992  0.435437  1
  Si  Si30  1  0.704008  0.952462  0.685437  1
  Si  Si31  1  0.295992  0.047538  0.185437  1
  Si  Si32  1  0.792463  0.450629  0.564923  1
  Si  Si33  1  0.207537  0.549371  0.064923  1
  Si  Si34  1  0.950629  0.707537  0.314923  1
  Si  Si35  1  0.049371  0.292463  0.814923  1
