# generated using pymatgen
data_TbHo15Cd4(NiIr)2
_symmetry_space_group_name_H-M   'P 1'
_cell_length_a   9.53443424
_cell_length_b   9.53443406
_cell_length_c   9.58551401
_cell_angle_alpha   59.82661834
_cell_angle_beta   59.82662253
_cell_angle_gamma   59.58173250
_symmetry_Int_Tables_number   1
_chemical_formula_structural   TbHo15Cd4(NiIr)2
_chemical_formula_sum   'Tb1 Ho15 Cd4 Ni2 Ir2'
_cell_volume   612.57979953
_cell_formula_units_Z   1
loop_
 _symmetry_equiv_pos_site_id
 _symmetry_equiv_pos_as_xyz
  1  'x, y, z'
loop_
 _atom_site_type_symbol
 _atom_site_label
 _atom_site_symmetry_multiplicity
 _atom_site_fract_x
 _atom_site_fract_y
 _atom_site_fract_z
 _atom_site_occupancy
  Tb  Tb0  1  0.350726  0.350726  0.344187  1
  Ho  Ho1  1  0.350421  0.350421  0.954684  1
  Ho  Ho2  1  0.353932  0.951469  0.347218  1
  Ho  Ho3  1  0.951469  0.353932  0.347218  1
  Ho  Ho4  1  0.809322  0.187202  0.190399  1
  Ho  Ho5  1  0.187418  0.809065  0.813123  1
  Ho  Ho6  1  0.187202  0.809322  0.190399  1
  Ho  Ho7  1  0.809065  0.187418  0.813123  1
  Ho  Ho8  1  0.189018  0.189018  0.811116  1
  Ho  Ho9  1  0.811390  0.811390  0.188719  1
  Ho  Ho10  1  0.937022  0.561302  0.566446  1
  Ho  Ho11  1  0.561157  0.937181  0.935253  1
  Ho  Ho12  1  0.561302  0.937022  0.566446  1
  Ho  Ho13  1  0.937181  0.561157  0.935253  1
  Ho  Ho14  1  0.566207  0.566207  0.933762  1
  Ho  Ho15  1  0.939047  0.939047  0.560975  1
  Cd  Cd16  1  0.580174  0.580174  0.582845  1
  Cd  Cd17  1  0.580363  0.580363  0.256696  1
  Cd  Cd18  1  0.580196  0.255545  0.582294  1
  Cd  Cd19  1  0.255545  0.580196  0.582294  1
  Ni  Ni20  1  0.141324  0.575201  0.141447  1
  Ni  Ni21  1  0.575201  0.141324  0.141447  1
  Ir  Ir22  1  0.142906  0.142906  0.141555  1
  Ir  Ir23  1  0.142410  0.142410  0.573098  1
