# generated using pymatgen
data_Mg2Fe5P6Rh5
_symmetry_space_group_name_H-M   'P 1'
_cell_length_a   3.72351900
_cell_length_b   10.39907700
_cell_length_c   12.17353900
_cell_angle_alpha   90.00000000
_cell_angle_beta   90.00000000
_cell_angle_gamma   90.00000000
_symmetry_Int_Tables_number   1
_chemical_formula_structural   Mg2Fe5P6Rh5
_chemical_formula_sum   'Mg4 Fe10 P12 Rh10'
_cell_volume   471.37356103
_cell_formula_units_Z   2
loop_
 _symmetry_equiv_pos_site_id
 _symmetry_equiv_pos_as_xyz
  1  'x, y, z'
loop_
 _atom_site_type_symbol
 _atom_site_label
 _atom_site_symmetry_multiplicity
 _atom_site_fract_x
 _atom_site_fract_y
 _atom_site_fract_z
 _atom_site_occupancy
  Mg  Mg0  1  0.250000  0.583283  0.712502  1
  Mg  Mg1  1  0.250000  0.916717  0.212502  1
  Mg  Mg2  1  0.750000  0.424483  0.289324  1
  Mg  Mg3  1  0.750000  0.075517  0.789324  1
  Fe  Fe4  1  0.750000  0.773349  0.826853  1
  Fe  Fe5  1  0.750000  0.726651  0.326853  1
  Fe  Fe6  1  0.250000  0.874147  0.700483  1
  Fe  Fe7  1  0.250000  0.625853  0.200483  1
  Fe  Fe8  1  0.750000  0.116862  0.298545  1
  Fe  Fe9  1  0.750000  0.383138  0.798545  1
  Fe  Fe10  1  0.250000  0.461887  0.933176  1
  Fe  Fe11  1  0.250000  0.038113  0.433176  1
  Fe  Fe12  1  0.750000  0.540844  0.065816  1
  Fe  Fe13  1  0.750000  0.959156  0.565816  1
  P  P14  1  0.250000  0.440036  0.111573  1
  P  P15  1  0.250000  0.059964  0.611573  1
  P  P16  1  0.750000  0.572445  0.885724  1
  P  P17  1  0.750000  0.927555  0.385724  1
  P  P18  1  0.250000  0.271045  0.864038  1
  P  P19  1  0.250000  0.228955  0.364038  1
  P  P20  1  0.750000  0.729611  0.146532  1
  P  P21  1  0.750000  0.770389  0.646532  1
  P  P22  1  0.250000  0.608677  0.377788  1
  P  P23  1  0.250000  0.891323  0.877788  1
  P  P24  1  0.750000  0.403050  0.618526  1
  P  P25  1  0.750000  0.096950  0.118526  1
  Rh  Rh26  1  0.250000  0.707328  0.984315  1
  Rh  Rh27  1  0.250000  0.792672  0.484315  1
  Rh  Rh28  1  0.750000  0.289476  0.010585  1
  Rh  Rh29  1  0.750000  0.210524  0.510585  1
  Rh  Rh30  1  0.250000  0.412252  0.471766  1
  Rh  Rh31  1  0.250000  0.087748  0.971766  1
  Rh  Rh32  1  0.750000  0.597440  0.525890  1
  Rh  Rh33  1  0.750000  0.902560  0.025890  1
  Rh  Rh34  1  0.250000  0.234152  0.176566  1
  Rh  Rh35  1  0.250000  0.265848  0.676566  1
