# generated using pymatgen
data_Sr7Ir
_symmetry_space_group_name_H-M   'P 1'
_cell_length_a   7.38437760
_cell_length_b   11.30754623
_cell_length_c   10.49767465
_cell_angle_alpha   89.83123288
_cell_angle_beta   61.61648037
_cell_angle_gamma   40.47311356
_symmetry_Int_Tables_number   1
_chemical_formula_structural   Sr7Ir
_chemical_formula_sum   'Sr7 Ir1'
_cell_volume   389.50989233
_cell_formula_units_Z   1
loop_
 _symmetry_equiv_pos_site_id
 _symmetry_equiv_pos_as_xyz
  1  'x, y, z'
loop_
 _atom_site_type_symbol
 _atom_site_label
 _atom_site_symmetry_multiplicity
 _atom_site_fract_x
 _atom_site_fract_y
 _atom_site_fract_z
 _atom_site_occupancy
  Sr  Sr0  1  0.547668  0.894208  0.340026  1
  Sr  Sr1  1  0.832402  0.336853  0.925463  1
  Sr  Sr2  1  0.374878  0.205382  0.066087  1
  Sr  Sr3  1  0.999461  0.028116  0.201590  1
  Sr  Sr4  1  0.136557  0.751044  0.479334  1
  Sr  Sr5  1  0.238105  0.481451  0.788644  1
  Sr  Sr6  1  0.686630  0.616538  0.633824  1
  Ir  Ir7  1  0.686507  0.616794  0.134028  1
