# generated using pymatgen
data_Li2CoSi4Ru5
_symmetry_space_group_name_H-M   'P 1'
_cell_length_a   4.07340600
_cell_length_b   5.04557053
_cell_length_c   7.07218722
_cell_angle_alpha   89.78148383
_cell_angle_beta   90.00000000
_cell_angle_gamma   90.00000000
_symmetry_Int_Tables_number   1
_chemical_formula_structural   Li2CoSi4Ru5
_chemical_formula_sum   'Li2 Co1 Si4 Ru5'
_cell_volume   145.35118294
_cell_formula_units_Z   1
loop_
 _symmetry_equiv_pos_site_id
 _symmetry_equiv_pos_as_xyz
  1  'x, y, z'
loop_
 _atom_site_type_symbol
 _atom_site_label
 _atom_site_symmetry_multiplicity
 _atom_site_fract_x
 _atom_site_fract_y
 _atom_site_fract_z
 _atom_site_occupancy
  Li  Li0  1  0.750000  0.499984  0.750035  1
  Li  Li1  1  0.250000  0.499963  0.249987  1
  Co  Co2  1  0.750000  0.000005  0.749998  1
  Si  Si3  1  0.250000  0.192485  0.916733  1
  Si  Si4  1  0.750000  0.806332  0.082296  1
  Si  Si5  1  0.250000  0.807535  0.583279  1
  Si  Si6  1  0.750000  0.193666  0.417700  1
  Ru  Ru7  1  0.250000  0.999982  0.249972  1
  Ru  Ru8  1  0.250000  0.688826  0.911448  1
  Ru  Ru9  1  0.750000  0.317340  0.078996  1
  Ru  Ru10  1  0.250000  0.311211  0.588554  1
  Ru  Ru11  1  0.750000  0.682670  0.421003  1
