# generated using pymatgen
data_Y9ErPt18
_symmetry_space_group_name_H-M   'P 1'
_cell_length_a   9.81222345
_cell_length_b   9.81222345
_cell_length_c   5.78416300
_cell_angle_alpha   90.00000000
_cell_angle_beta   90.00000000
_cell_angle_gamma   89.91895155
_symmetry_Int_Tables_number   1
_chemical_formula_structural   Y9ErPt18
_chemical_formula_sum   'Y9 Er1 Pt18'
_cell_volume   556.89708963
_cell_formula_units_Z   1
loop_
 _symmetry_equiv_pos_site_id
 _symmetry_equiv_pos_as_xyz
  1  'x, y, z'
loop_
 _atom_site_type_symbol
 _atom_site_label
 _atom_site_symmetry_multiplicity
 _atom_site_fract_x
 _atom_site_fract_y
 _atom_site_fract_z
 _atom_site_occupancy
  Y  Y0  1  0.452563  0.808983  0.000000  1
  Y  Y1  1  0.547437  0.191017  0.000000  1
  Y  Y2  1  0.191017  0.547437  0.000000  1
  Y  Y3  1  0.808983  0.452563  0.000000  1
  Y  Y4  1  0.500000  0.500000  0.500000  1
  Y  Y5  1  0.308790  0.047580  0.500000  1
  Y  Y6  1  0.691210  0.952420  0.500000  1
  Y  Y7  1  0.952420  0.691210  0.500000  1
  Y  Y8  1  0.047580  0.308790  0.500000  1
  Er  Er9  1  0.000000  0.000000  0.000000  1
  Pt  Pt10  1  0.191241  0.808759  0.251140  1
  Pt  Pt11  1  0.808759  0.191241  0.748860  1
  Pt  Pt12  1  0.808759  0.191241  0.251140  1
  Pt  Pt13  1  0.191241  0.808759  0.748860  1
  Pt  Pt14  1  0.440199  0.781519  0.500000  1
  Pt  Pt15  1  0.559801  0.218481  0.500000  1
  Pt  Pt16  1  0.218481  0.559801  0.500000  1
  Pt  Pt17  1  0.781519  0.440199  0.500000  1
  Pt  Pt18  1  0.308109  0.308109  0.248246  1
  Pt  Pt19  1  0.691891  0.691891  0.751754  1
  Pt  Pt20  1  0.691891  0.691891  0.248246  1
  Pt  Pt21  1  0.308109  0.308109  0.751754  1
  Pt  Pt22  1  0.279789  0.059491  0.000000  1
  Pt  Pt23  1  0.720211  0.940509  0.000000  1
  Pt  Pt24  1  0.940509  0.720211  0.000000  1
  Pt  Pt25  1  0.059491  0.279789  0.000000  1
  Pt  Pt26  1  0.000000  0.000000  0.500000  1
  Pt  Pt27  1  0.500000  0.500000  0.000000  1
