# generated using pymatgen
data_Pr6EuPtI12
_symmetry_space_group_name_H-M   'P 1'
_cell_length_a   10.11846897
_cell_length_b   10.11846946
_cell_length_c   10.11847058
_cell_angle_alpha   106.66379551
_cell_angle_beta   106.66378605
_cell_angle_gamma   106.66378675
_symmetry_Int_Tables_number   1
_chemical_formula_structural   Pr6EuPtI12
_chemical_formula_sum   'Pr6 Eu1 Pt1 I12'
_cell_volume   870.55198192
_cell_formula_units_Z   1
loop_
 _symmetry_equiv_pos_site_id
 _symmetry_equiv_pos_as_xyz
  1  'x, y, z'
loop_
 _atom_site_type_symbol
 _atom_site_label
 _atom_site_symmetry_multiplicity
 _atom_site_fract_x
 _atom_site_fract_y
 _atom_site_fract_z
 _atom_site_occupancy
  Pr  Pr0  1  0.100123  0.024594  0.306265  1
  Pr  Pr1  1  0.306265  0.100123  0.024594  1
  Pr  Pr2  1  0.024594  0.306265  0.100123  1
  Pr  Pr3  1  0.899877  0.975406  0.693735  1
  Pr  Pr4  1  0.693735  0.899877  0.975406  1
  Pr  Pr5  1  0.975406  0.693735  0.899877  1
  Eu  Eu6  1  0.500000  0.500000  0.500000  1
  Pt  Pt7  1  0.000000  0.000000  0.000000  1
  I  I8  1  0.074310  0.679492  0.226009  1
  I  I9  1  0.226009  0.074310  0.679492  1
  I  I10  1  0.679492  0.226009  0.074310  1
  I  I11  1  0.925690  0.320508  0.773991  1
  I  I12  1  0.773991  0.925690  0.320508  1
  I  I13  1  0.320508  0.773991  0.925690  1
  I  I14  1  0.458286  0.151293  0.378428  1
  I  I15  1  0.378428  0.458286  0.151293  1
  I  I16  1  0.151293  0.378428  0.458286  1
  I  I17  1  0.541714  0.848707  0.621572  1
  I  I18  1  0.621572  0.541714  0.848707  1
  I  I19  1  0.848707  0.621572  0.541714  1
