# generated using pymatgen
data_CdAg(AuO2)4
_symmetry_space_group_name_H-M   'P 1'
_cell_length_a   6.78205151
_cell_length_b   6.78205095
_cell_length_c   6.78205129
_cell_angle_alpha   127.35645786
_cell_angle_beta   127.35645809
_cell_angle_gamma   77.66988528
_symmetry_Int_Tables_number   1
_chemical_formula_structural   CdAg(AuO2)4
_chemical_formula_sum   'Cd1 Ag1 Au4 O8'
_cell_volume   191.10428996
_cell_formula_units_Z   1
loop_
 _symmetry_equiv_pos_site_id
 _symmetry_equiv_pos_as_xyz
  1  'x, y, z'
loop_
 _atom_site_type_symbol
 _atom_site_label
 _atom_site_symmetry_multiplicity
 _atom_site_fract_x
 _atom_site_fract_y
 _atom_site_fract_z
 _atom_site_occupancy
  Cd  Cd0  1  0.000000  0.000000  0.000000  1
  Ag  Ag1  1  0.750000  0.250000  0.500000  1
  Au  Au2  1  0.377229  0.627969  0.754163  1
  Au  Au3  1  0.372031  0.126193  0.749261  1
  Au  Au4  1  0.873807  0.623067  0.245837  1
  Au  Au5  1  0.376933  0.622771  0.250739  1
  O  O6  1  0.034027  0.416750  0.025682  1
  O  O7  1  0.752355  0.283107  0.108555  1
  O  O8  1  0.174552  0.643799  0.891445  1
  O  O9  1  0.391067  0.008345  0.974318  1
  O  O10  1  0.716893  0.825448  0.469248  1
  O  O11  1  0.991655  0.965973  0.382723  1
  O  O12  1  0.356201  0.247645  0.530752  1
  O  O13  1  0.583250  0.608933  0.617277  1
