# generated using pymatgen
data_La2Mo(SeO6)2
_symmetry_space_group_name_H-M   'P 1'
_cell_length_a   10.54559488
_cell_length_b   10.48560308
_cell_length_c   10.54559509
_cell_angle_alpha   58.17377789
_cell_angle_beta   57.83358862
_cell_angle_gamma   58.17377242
_symmetry_Int_Tables_number   1
_chemical_formula_structural   La2Mo(SeO6)2
_chemical_formula_sum   'La4 Mo2 Se4 O24'
_cell_volume   787.86244178
_cell_formula_units_Z   2
loop_
 _symmetry_equiv_pos_site_id
 _symmetry_equiv_pos_as_xyz
  1  'x, y, z'
loop_
 _atom_site_type_symbol
 _atom_site_label
 _atom_site_symmetry_multiplicity
 _atom_site_fract_x
 _atom_site_fract_y
 _atom_site_fract_z
 _atom_site_occupancy
  La  La0  1  0.653371  0.640535  0.635149  1
  La  La1  1  0.135149  0.140535  0.153371  1
  La  La2  1  0.853770  0.858480  0.858429  1
  La  La3  1  0.358429  0.358480  0.353770  1
  Mo  Mo4  1  0.251975  0.536572  0.960443  1
  Mo  Mo5  1  0.460443  0.036572  0.751975  1
  Se  Se6  1  0.036734  0.747440  0.467785  1
  Se  Se7  1  0.967785  0.247440  0.536734  1
  Se  Se8  1  0.532676  0.965589  0.250669  1
  Se  Se9  1  0.750669  0.465589  0.032676  1
  O  O10  1  0.005634  0.773511  0.626255  1
  O  O11  1  0.774111  0.625931  0.003833  1
  O  O12  1  0.425740  0.563385  0.787579  1
  O  O13  1  0.276363  0.507159  0.130494  1
  O  O14  1  0.630494  0.007159  0.776363  1
  O  O15  1  0.495740  0.864933  0.723759  1
  O  O16  1  0.197534  0.587239  0.439413  1
  O  O17  1  0.080385  0.710199  0.932149  1
  O  O18  1  0.287579  0.063385  0.925740  1
  O  O19  1  0.432149  0.210199  0.580385  1
  O  O20  1  0.063808  0.907536  0.305878  1
  O  O21  1  0.877833  0.724526  0.494975  1
  O  O22  1  0.126255  0.273511  0.505634  1
  O  O23  1  0.939413  0.087239  0.697534  1
  O  O24  1  0.562875  0.804497  0.410013  1
  O  O25  1  0.694196  0.938009  0.089416  1
  O  O26  1  0.910013  0.304497  0.062875  1
  O  O27  1  0.805878  0.407536  0.563808  1
  O  O28  1  0.503833  0.125931  0.274111  1
  O  O29  1  0.373668  0.994458  0.227346  1
  O  O30  1  0.727346  0.494458  0.873668  1
  O  O31  1  0.589416  0.438009  0.194196  1
  O  O32  1  0.223759  0.364933  0.995740  1
  O  O33  1  0.994975  0.224526  0.377833  1
