# generated using pymatgen
data_LiLu19(Tl3Ru)2
_symmetry_space_group_name_H-M   'P 1'
_cell_length_a   9.33277700
_cell_length_b   9.33277591
_cell_length_c   9.59508300
_cell_angle_alpha   90.00000000
_cell_angle_beta   90.00000000
_cell_angle_gamma   120.00000032
_symmetry_Int_Tables_number   1
_chemical_formula_structural   LiLu19(Tl3Ru)2
_chemical_formula_sum   'Li1 Lu19 Tl6 Ru2'
_cell_volume   723.77085865
_cell_formula_units_Z   1
loop_
 _symmetry_equiv_pos_site_id
 _symmetry_equiv_pos_as_xyz
  1  'x, y, z'
loop_
 _atom_site_type_symbol
 _atom_site_label
 _atom_site_symmetry_multiplicity
 _atom_site_fract_x
 _atom_site_fract_y
 _atom_site_fract_z
 _atom_site_occupancy
  Li  Li0  1  0.000000  0.000000  0.500000  1
  Lu  Lu1  1  0.000000  0.000000  0.000000  1
  Lu  Lu2  1  0.208695  0.791305  0.437926  1
  Lu  Lu3  1  0.208695  0.417390  0.437926  1
  Lu  Lu4  1  0.582610  0.791305  0.437926  1
  Lu  Lu5  1  0.791305  0.208695  0.562074  1
  Lu  Lu6  1  0.791305  0.582610  0.562074  1
  Lu  Lu7  1  0.417390  0.208695  0.562074  1
  Lu  Lu8  1  0.789745  0.210255  0.940237  1
  Lu  Lu9  1  0.789745  0.579490  0.940237  1
  Lu  Lu10  1  0.420510  0.210255  0.940237  1
  Lu  Lu11  1  0.210255  0.789745  0.059763  1
  Lu  Lu12  1  0.210255  0.420510  0.059763  1
  Lu  Lu13  1  0.579490  0.789745  0.059763  1
  Lu  Lu14  1  0.538839  0.461161  0.252684  1
  Lu  Lu15  1  0.538839  0.077678  0.252684  1
  Lu  Lu16  1  0.922322  0.461161  0.252684  1
  Lu  Lu17  1  0.461161  0.538839  0.747316  1
  Lu  Lu18  1  0.461161  0.922322  0.747316  1
  Lu  Lu19  1  0.077678  0.538839  0.747316  1
  Tl  Tl20  1  0.885314  0.114686  0.257908  1
  Tl  Tl21  1  0.885314  0.770629  0.257908  1
  Tl  Tl22  1  0.229371  0.114686  0.257908  1
  Tl  Tl23  1  0.114686  0.885314  0.742092  1
  Tl  Tl24  1  0.114686  0.229371  0.742092  1
  Tl  Tl25  1  0.770629  0.885314  0.742092  1
  Ru  Ru26  1  0.333333  0.666667  0.250392  1
  Ru  Ru27  1  0.666667  0.333333  0.749608  1
