# generated using pymatgen
data_Sc3CoB2(IrRh)2
_symmetry_space_group_name_H-M   'P 1'
_cell_length_a   3.07967700
_cell_length_b   9.44425700
_cell_length_c   9.39951700
_cell_angle_alpha   90.00080878
_cell_angle_beta   90.00000000
_cell_angle_gamma   90.00000000
_symmetry_Int_Tables_number   1
_chemical_formula_structural   Sc3CoB2(IrRh)2
_chemical_formula_sum   'Sc6 Co2 B4 Ir4 Rh4'
_cell_volume   273.38740582
_cell_formula_units_Z   2
loop_
 _symmetry_equiv_pos_site_id
 _symmetry_equiv_pos_as_xyz
  1  'x, y, z'
loop_
 _atom_site_type_symbol
 _atom_site_label
 _atom_site_symmetry_multiplicity
 _atom_site_fract_x
 _atom_site_fract_y
 _atom_site_fract_z
 _atom_site_occupancy
  Sc  Sc0  1  0.000000  0.175020  0.675654  1
  Sc  Sc1  1  0.000000  0.823773  0.325443  1
  Sc  Sc2  1  0.000000  0.324808  0.175701  1
  Sc  Sc3  1  0.000000  0.674774  0.824415  1
  Sc  Sc4  1  0.000000  0.998352  0.000706  1
  Sc  Sc5  1  0.000000  0.499205  0.502042  1
  Co  Co6  1  0.500000  0.000597  0.499443  1
  Co  Co7  1  0.500000  0.500773  0.999194  1
  B  B8  1  0.000000  0.609352  0.110564  1
  B  B9  1  0.000000  0.388861  0.891459  1
  B  B10  1  0.000000  0.889842  0.608988  1
  B  B11  1  0.000000  0.110848  0.390299  1
  Ir  Ir12  1  0.500000  0.229220  0.933730  1
  Ir  Ir13  1  0.500000  0.565721  0.271624  1
  Ir  Ir14  1  0.500000  0.729908  0.565621  1
  Ir  Ir15  1  0.500000  0.270791  0.434062  1
  Rh  Rh16  1  0.500000  0.063970  0.227183  1
  Rh  Rh17  1  0.500000  0.936251  0.772052  1
  Rh  Rh18  1  0.500000  0.771376  0.063877  1
  Rh  Rh19  1  0.500000  0.436557  0.727944  1
