# generated using pymatgen
data_Tb3(DyRh)2
_symmetry_space_group_name_H-M   'P 1'
_cell_length_a   6.44114410
_cell_length_b   7.17127487
_cell_length_c   8.68764561
_cell_angle_alpha   96.74461394
_cell_angle_beta   111.75924506
_cell_angle_gamma   90.00000151
_symmetry_Int_Tables_number   1
_chemical_formula_structural   Tb3(DyRh)2
_chemical_formula_sum   'Tb6 Dy4 Rh4'
_cell_volume   369.70882300
_cell_formula_units_Z   2
loop_
 _symmetry_equiv_pos_site_id
 _symmetry_equiv_pos_as_xyz
  1  'x, y, z'
loop_
 _atom_site_type_symbol
 _atom_site_label
 _atom_site_symmetry_multiplicity
 _atom_site_fract_x
 _atom_site_fract_y
 _atom_site_fract_z
 _atom_site_occupancy
  Tb  Tb0  1  0.791412  0.082531  0.811497  1
  Tb  Tb1  1  0.979915  0.417469  0.188503  1
  Tb  Tb2  1  0.208793  0.916999  0.188815  1
  Tb  Tb3  1  0.019978  0.583001  0.811185  1
  Tb  Tb4  1  0.211613  0.185836  0.562943  1
  Tb  Tb5  1  0.648669  0.314164  0.437057  1
  Dy  Dy6  1  0.787894  0.813931  0.436466  1
  Dy  Dy7  1  0.351428  0.686069  0.563534  1
  Dy  Dy8  1  0.426890  0.250000  0.000000  1
  Dy  Dy9  1  0.572963  0.750000  0.000000  1
  Rh  Rh10  1  0.597010  0.428015  0.778376  1
  Rh  Rh11  1  0.818634  0.071985  0.221624  1
  Rh  Rh12  1  0.403799  0.572726  0.222798  1
  Rh  Rh13  1  0.181002  0.927274  0.777202  1
