# generated using pymatgen
data_Y4Co8P12Ru5Rh7
_symmetry_space_group_name_H-M   'P 1'
_cell_length_a   3.79556000
_cell_length_b   10.67184835
_cell_length_c   12.10929141
_cell_angle_alpha   89.97047452
_cell_angle_beta   90.00000000
_cell_angle_gamma   90.00000000
_symmetry_Int_Tables_number   1
_chemical_formula_structural   Y4Co8P12Ru5Rh7
_chemical_formula_sum   'Y4 Co8 P12 Ru5 Rh7'
_cell_volume   490.49454201
_cell_formula_units_Z   1
loop_
 _symmetry_equiv_pos_site_id
 _symmetry_equiv_pos_as_xyz
  1  'x, y, z'
loop_
 _atom_site_type_symbol
 _atom_site_label
 _atom_site_symmetry_multiplicity
 _atom_site_fract_x
 _atom_site_fract_y
 _atom_site_fract_z
 _atom_site_occupancy
  Y  Y0  1  0.250000  0.916137  0.207296  1
  Y  Y1  1  0.750000  0.084180  0.792895  1
  Y  Y2  1  0.750000  0.415515  0.291876  1
  Y  Y3  1  0.250000  0.584455  0.708235  1
  Co  Co4  1  0.250000  0.613248  0.198080  1
  Co  Co5  1  0.750000  0.386664  0.801815  1
  Co  Co6  1  0.750000  0.112872  0.300319  1
  Co  Co7  1  0.250000  0.886521  0.698419  1
  Co  Co8  1  0.250000  0.036087  0.432291  1
  Co  Co9  1  0.750000  0.964031  0.567142  1
  Co  Co10  1  0.750000  0.536139  0.067143  1
  Co  Co11  1  0.250000  0.463346  0.932081  1
  P  P12  1  0.250000  0.070128  0.610497  1
  P  P13  1  0.750000  0.930314  0.389297  1
  P  P14  1  0.750000  0.569989  0.889287  1
  P  P15  1  0.250000  0.430350  0.110180  1
  P  P16  1  0.250000  0.225569  0.373194  1
  P  P17  1  0.750000  0.774683  0.626750  1
  P  P18  1  0.750000  0.725285  0.126484  1
  P  P19  1  0.250000  0.271558  0.875437  1
  P  P20  1  0.250000  0.901619  0.885213  1
  P  P21  1  0.750000  0.100842  0.112251  1
  P  P22  1  0.750000  0.398162  0.616916  1
  P  P23  1  0.250000  0.601497  0.383459  1
  Ru  Ru24  1  0.250000  0.784509  0.492372  1
  Ru  Ru25  1  0.750000  0.215515  0.507403  1
  Ru  Ru26  1  0.750000  0.286887  0.008407  1
  Ru  Ru27  1  0.250000  0.714576  0.991735  1
  Ru  Ru28  1  0.250000  0.092351  0.987380  1
  Rh  Rh29  1  0.750000  0.905582  0.015877  1
  Rh  Rh30  1  0.750000  0.591802  0.515603  1
  Rh  Rh31  1  0.250000  0.408237  0.484469  1
  Rh  Rh32  1  0.250000  0.272427  0.681453  1
  Rh  Rh33  1  0.750000  0.727796  0.318954  1
  Rh  Rh34  1  0.750000  0.771947  0.818613  1
  Rh  Rh35  1  0.250000  0.229180  0.181173  1
