# generated using pymatgen
data_IrPbF7
_symmetry_space_group_name_H-M   'P 1'
_cell_length_a   4.83109238
_cell_length_b   7.55108765
_cell_length_c   7.86204297
_cell_angle_alpha   105.29175099
_cell_angle_beta   101.33999180
_cell_angle_gamma   91.27533320
_symmetry_Int_Tables_number   1
_chemical_formula_structural   IrPbF7
_chemical_formula_sum   'Ir2 Pb2 F14'
_cell_volume   270.41794746
_cell_formula_units_Z   2
loop_
 _symmetry_equiv_pos_site_id
 _symmetry_equiv_pos_as_xyz
  1  'x, y, z'
loop_
 _atom_site_type_symbol
 _atom_site_label
 _atom_site_symmetry_multiplicity
 _atom_site_fract_x
 _atom_site_fract_y
 _atom_site_fract_z
 _atom_site_occupancy
  Ir  Ir0  1  0.354607  0.188158  0.284854  1
  Ir  Ir1  1  0.645393  0.811842  0.715146  1
  Pb  Pb2  1  0.825982  0.646919  0.188839  1
  Pb  Pb3  1  0.174018  0.353081  0.811161  1
  F  F4  1  0.721642  0.430047  0.911801  1
  F  F5  1  0.278358  0.569953  0.088199  1
  F  F6  1  0.059858  0.051714  0.336862  1
  F  F7  1  0.940142  0.948286  0.663138  1
  F  F8  1  0.494483  0.960395  0.179833  1
  F  F9  1  0.505517  0.039605  0.820167  1
  F  F10  1  0.575787  0.200041  0.519106  1
  F  F11  1  0.424213  0.799959  0.480894  1
  F  F12  1  0.651972  0.324676  0.231912  1
  F  F13  1  0.348028  0.675324  0.768088  1
  F  F14  1  0.206562  0.413548  0.390799  1
  F  F15  1  0.793438  0.586452  0.609201  1
  F  F16  1  0.127241  0.185900  0.050758  1
  F  F17  1  0.872759  0.814100  0.949242  1
