# generated using pymatgen
data_Sm8Tm12Si15Ir
_symmetry_space_group_name_H-M   'P 1'
_cell_length_a   7.35213100
_cell_length_b   7.75510480
_cell_length_c   14.53678300
_cell_angle_alpha   90.00000000
_cell_angle_beta   90.00000000
_cell_angle_gamma   90.08128431
_symmetry_Int_Tables_number   1
_chemical_formula_structural   Sm8Tm12Si15Ir
_chemical_formula_sum   'Sm8 Tm12 Si15 Ir1'
_cell_volume   828.83632891
_cell_formula_units_Z   1
loop_
 _symmetry_equiv_pos_site_id
 _symmetry_equiv_pos_as_xyz
  1  'x, y, z'
loop_
 _atom_site_type_symbol
 _atom_site_label
 _atom_site_symmetry_multiplicity
 _atom_site_fract_x
 _atom_site_fract_y
 _atom_site_fract_z
 _atom_site_occupancy
  Sm  Sm0  1  0.016721  0.182528  0.097046  1
  Sm  Sm1  1  0.986213  0.824995  0.904134  1
  Sm  Sm2  1  0.484558  0.678011  0.904144  1
  Sm  Sm3  1  0.986213  0.824995  0.595866  1
  Sm  Sm4  1  0.515868  0.321228  0.096376  1
  Sm  Sm5  1  0.016721  0.182528  0.402954  1
  Sm  Sm6  1  0.515868  0.321228  0.403624  1
  Sm  Sm7  1  0.484558  0.678011  0.595856  1
  Tm  Tm8  1  0.155335  0.509596  0.750000  1
  Tm  Tm9  1  0.840338  0.489212  0.250000  1
  Tm  Tm10  1  0.340482  0.012779  0.250000  1
  Tm  Tm11  1  0.666479  0.990962  0.750000  1
  Tm  Tm12  1  0.314229  0.172913  0.626766  1
  Tm  Tm13  1  0.676029  0.825000  0.375041  1
  Tm  Tm14  1  0.175692  0.679275  0.375432  1
  Tm  Tm15  1  0.676029  0.825000  0.124959  1
  Tm  Tm16  1  0.834179  0.315870  0.626215  1
  Tm  Tm17  1  0.314229  0.172913  0.873234  1
  Tm  Tm18  1  0.834179  0.315870  0.873785  1
  Tm  Tm19  1  0.175692  0.679275  0.124568  1
  Si  Si20  1  0.971185  0.888826  0.250000  1
  Si  Si21  1  0.471577  0.611308  0.250000  1
  Si  Si22  1  0.528632  0.392619  0.750000  1
  Si  Si23  1  0.279796  0.867982  0.750000  1
  Si  Si24  1  0.718806  0.128629  0.250000  1
  Si  Si25  1  0.220483  0.373649  0.250000  1
  Si  Si26  1  0.771251  0.621761  0.750000  1
  Si  Si27  1  0.155475  0.471631  0.537733  1
  Si  Si28  1  0.848070  0.533803  0.462259  1
  Si  Si29  1  0.348375  0.968242  0.461175  1
  Si  Si30  1  0.848070  0.533803  0.037741  1
  Si  Si31  1  0.649514  0.032256  0.538168  1
  Si  Si32  1  0.155475  0.471631  0.962267  1
  Si  Si33  1  0.649514  0.032256  0.961832  1
  Si  Si34  1  0.348375  0.968242  0.038825  1
  Ir  Ir35  1  0.025781  0.101170  0.750000  1
