# generated using pymatgen
data_Tb3Tm3Lu2(CdIr)2
_symmetry_space_group_name_H-M   'P 1'
_cell_length_a   9.55751767
_cell_length_b   9.55399806
_cell_length_c   9.55399965
_cell_angle_alpha   60.02437039
_cell_angle_beta   59.98781434
_cell_angle_gamma   59.98781183
_symmetry_Int_Tables_number   1
_chemical_formula_structural   Tb3Tm3Lu2(CdIr)2
_chemical_formula_sum   'Tb6 Tm6 Lu4 Cd4 Ir4'
_cell_volume   616.87951975
_cell_formula_units_Z   2
loop_
 _symmetry_equiv_pos_site_id
 _symmetry_equiv_pos_as_xyz
  1  'x, y, z'
loop_
 _atom_site_type_symbol
 _atom_site_label
 _atom_site_symmetry_multiplicity
 _atom_site_fract_x
 _atom_site_fract_y
 _atom_site_fract_z
 _atom_site_occupancy
  Tb  Tb0  1  0.189573  0.810427  0.810427  1
  Tb  Tb1  1  0.810427  0.189573  0.189573  1
  Tb  Tb2  1  0.810472  0.189528  0.810472  1
  Tb  Tb3  1  0.189528  0.810472  0.189528  1
  Tb  Tb4  1  0.810472  0.810472  0.189528  1
  Tb  Tb5  1  0.189528  0.189528  0.810472  1
  Tm  Tm6  1  0.598565  0.598765  0.598765  1
  Tm  Tm7  1  0.598765  0.598565  0.203907  1
  Tm  Tm8  1  0.598765  0.203907  0.598565  1
  Tm  Tm9  1  0.203907  0.598765  0.598765  1
  Tm  Tm10  1  0.062349  0.437651  0.437651  1
  Tm  Tm11  1  0.437651  0.062349  0.062349  1
  Lu  Lu12  1  0.437722  0.062278  0.437722  1
  Lu  Lu13  1  0.062278  0.437722  0.062278  1
  Lu  Lu14  1  0.437722  0.437722  0.062278  1
  Lu  Lu15  1  0.062278  0.062278  0.437722  1
  Cd  Cd16  1  0.830382  0.830279  0.830279  1
  Cd  Cd17  1  0.830279  0.830382  0.509062  1
  Cd  Cd18  1  0.830279  0.509062  0.830382  1
  Cd  Cd19  1  0.509062  0.830279  0.830279  1
  Ir  Ir20  1  0.391883  0.391293  0.391293  1
  Ir  Ir21  1  0.391293  0.391883  0.825531  1
  Ir  Ir22  1  0.391293  0.825531  0.391883  1
  Ir  Ir23  1  0.825531  0.391293  0.391293  1
