# generated using pymatgen
data_Tb2Cr3Ni9P7
_symmetry_space_group_name_H-M   'P 1'
_cell_length_a   3.66449300
_cell_length_b   9.13435368
_cell_length_c   9.13350111
_cell_angle_alpha   120.00728801
_cell_angle_beta   90.00000000
_cell_angle_gamma   90.00000000
_symmetry_Int_Tables_number   1
_chemical_formula_structural   Tb2Cr3Ni9P7
_chemical_formula_sum   'Tb2 Cr3 Ni9 P7'
_cell_volume   264.74498302
_cell_formula_units_Z   1
loop_
 _symmetry_equiv_pos_site_id
 _symmetry_equiv_pos_as_xyz
  1  'x, y, z'
loop_
 _atom_site_type_symbol
 _atom_site_label
 _atom_site_symmetry_multiplicity
 _atom_site_fract_x
 _atom_site_fract_y
 _atom_site_fract_z
 _atom_site_occupancy
  Tb  Tb0  1  0.000000  0.666623  0.333217  1
  Tb  Tb1  1  0.500000  0.333212  0.666680  1
  Cr  Cr2  1  0.500000  0.118735  0.900443  1
  Cr  Cr3  1  0.500000  0.099667  0.218310  1
  Cr  Cr4  1  0.500000  0.781948  0.881425  1
  Ni  Ni5  1  0.000000  0.372627  0.938687  1
  Ni  Ni6  1  0.000000  0.061364  0.434052  1
  Ni  Ni7  1  0.000000  0.565825  0.627366  1
  Ni  Ni8  1  0.000000  0.875256  0.721638  1
  Ni  Ni9  1  0.000000  0.278433  0.153765  1
  Ni  Ni10  1  0.000000  0.846606  0.124657  1
  Ni  Ni11  1  0.500000  0.946538  0.562575  1
  Ni  Ni12  1  0.500000  0.437127  0.384128  1
  Ni  Ni13  1  0.500000  0.616075  0.053236  1
  P  P14  1  0.000000  0.112607  0.707970  1
  P  P15  1  0.000000  0.291972  0.404703  1
  P  P16  1  0.000000  0.595247  0.887395  1
  P  P17  1  0.500000  0.708893  0.597568  1
  P  P18  1  0.500000  0.402329  0.111391  1
  P  P19  1  0.500000  0.888708  0.290861  1
  P  P20  1  0.000000  0.000210  0.999931  1
