# generated using pymatgen
data_LiYb2EuAg2Pb3
_symmetry_space_group_name_H-M   'P 1'
_cell_length_a   4.96803300
_cell_length_b   4.96803157
_cell_length_c   11.11813700
_cell_angle_alpha   90.00000000
_cell_angle_beta   90.00000000
_cell_angle_gamma   119.99998954
_symmetry_Int_Tables_number   1
_chemical_formula_structural   LiYb2EuAg2Pb3
_chemical_formula_sum   'Li1 Yb2 Eu1 Ag2 Pb3'
_cell_volume   237.64655205
_cell_formula_units_Z   1
loop_
 _symmetry_equiv_pos_site_id
 _symmetry_equiv_pos_as_xyz
  1  'x, y, z'
loop_
 _atom_site_type_symbol
 _atom_site_label
 _atom_site_symmetry_multiplicity
 _atom_site_fract_x
 _atom_site_fract_y
 _atom_site_fract_z
 _atom_site_occupancy
  Li  Li0  1  0.333333  0.666667  0.500000  1
  Yb  Yb1  1  0.666667  0.333333  0.333298  1
  Yb  Yb2  1  0.666667  0.333333  0.666702  1
  Eu  Eu3  1  0.666667  0.333333  0.000000  1
  Ag  Ag4  1  0.000000  0.000000  0.794060  1
  Ag  Ag5  1  0.000000  0.000000  0.205940  1
  Pb  Pb6  1  0.333333  0.666667  0.157866  1
  Pb  Pb7  1  0.333333  0.666667  0.842134  1
  Pb  Pb8  1  0.000000  0.000000  0.500000  1
