# generated using pymatgen
data_Gd11ErRu4
_symmetry_space_group_name_H-M   'P 1'
_cell_length_a   6.39208300
_cell_length_b   7.42878779
_cell_length_c   9.22929200
_cell_angle_alpha   90.00000000
_cell_angle_beta   90.00000000
_cell_angle_gamma   90.02640047
_symmetry_Int_Tables_number   1
_chemical_formula_structural   Gd11ErRu4
_chemical_formula_sum   'Gd11 Er1 Ru4'
_cell_volume   438.25683547
_cell_formula_units_Z   1
loop_
 _symmetry_equiv_pos_site_id
 _symmetry_equiv_pos_as_xyz
  1  'x, y, z'
loop_
 _atom_site_type_symbol
 _atom_site_label
 _atom_site_symmetry_multiplicity
 _atom_site_fract_x
 _atom_site_fract_y
 _atom_site_fract_z
 _atom_site_occupancy
  Gd  Gd0  1  0.331826  0.676925  0.064739  1
  Gd  Gd1  1  0.169003  0.175926  0.435955  1
  Gd  Gd2  1  0.667531  0.322762  0.565167  1
  Gd  Gd3  1  0.830193  0.823173  0.934219  1
  Gd  Gd4  1  0.667531  0.322762  0.934833  1
  Gd  Gd5  1  0.830193  0.823173  0.565781  1
  Gd  Gd6  1  0.331826  0.676925  0.435261  1
  Gd  Gd7  1  0.169003  0.175926  0.064045  1
  Gd  Gd8  1  0.862798  0.542849  0.250000  1
  Gd  Gd9  1  0.637616  0.042159  0.250000  1
  Gd  Gd10  1  0.136468  0.457850  0.750000  1
  Er  Er11  1  0.363973  0.958315  0.750000  1
  Ru  Ru12  1  0.039928  0.885804  0.250000  1
  Ru  Ru13  1  0.460416  0.385328  0.250000  1
  Ru  Ru14  1  0.963844  0.114388  0.750000  1
  Ru  Ru15  1  0.537853  0.615736  0.750000  1
