# generated using pymatgen
data_Tb2Ho8(SnSb)3
_symmetry_space_group_name_H-M   'P 1'
_cell_length_a   8.96945100
_cell_length_b   8.96212408
_cell_length_c   6.39344800
_cell_angle_alpha   90.00000000
_cell_angle_beta   90.00000000
_cell_angle_gamma   120.02705888
_symmetry_Int_Tables_number   1
_chemical_formula_structural   Tb2Ho8(SnSb)3
_chemical_formula_sum   'Tb2 Ho8 Sn3 Sb3'
_cell_volume   444.96320746
_cell_formula_units_Z   1
loop_
 _symmetry_equiv_pos_site_id
 _symmetry_equiv_pos_as_xyz
  1  'x, y, z'
loop_
 _atom_site_type_symbol
 _atom_site_label
 _atom_site_symmetry_multiplicity
 _atom_site_fract_x
 _atom_site_fract_y
 _atom_site_fract_z
 _atom_site_occupancy
  Tb  Tb0  1  0.000041  0.758517  0.000000  1
  Tb  Tb1  1  0.241524  0.241483  0.000000  1
  Ho  Ho2  1  0.758398  0.000000  0.000000  1
  Ho  Ho3  1  0.242183  0.000000  0.500000  1
  Ho  Ho4  1  0.999897  0.241979  0.500000  1
  Ho  Ho5  1  0.757919  0.758021  0.500000  1
  Ho  Ho6  1  0.333328  0.666613  0.250971  1
  Ho  Ho7  1  0.666716  0.333387  0.250971  1
  Ho  Ho8  1  0.666716  0.333387  0.749029  1
  Ho  Ho9  1  0.333328  0.666613  0.749029  1
  Sn  Sn10  1  0.607398  0.000000  0.500000  1
  Sn  Sn11  1  0.999994  0.607396  0.500000  1
  Sn  Sn12  1  0.392598  0.392604  0.500000  1
  Sb  Sb13  1  0.392939  0.000000  0.000000  1
  Sb  Sb14  1  0.999673  0.392322  0.000000  1
  Sb  Sb15  1  0.607351  0.607678  0.000000  1
