# generated using pymatgen
data_NaNb3(SbRh)4
_symmetry_space_group_name_H-M   'P 1'
_cell_length_a   6.24944257
_cell_length_b   6.24944257
_cell_length_c   7.64914439
_cell_angle_alpha   114.11101390
_cell_angle_beta   114.11101802
_cell_angle_gamma   90.00000463
_symmetry_Int_Tables_number   1
_chemical_formula_structural   NaNb3(SbRh)4
_chemical_formula_sum   'Na1 Nb3 Sb4 Rh4'
_cell_volume   243.84431980
_cell_formula_units_Z   1
loop_
 _symmetry_equiv_pos_site_id
 _symmetry_equiv_pos_as_xyz
  1  'x, y, z'
loop_
 _atom_site_type_symbol
 _atom_site_label
 _atom_site_symmetry_multiplicity
 _atom_site_fract_x
 _atom_site_fract_y
 _atom_site_fract_z
 _atom_site_occupancy
  Na  Na0  1  0.500001  0.500001  0.000000  1
  Nb  Nb1  1  0.000000  0.000000  0.000000  1
  Nb  Nb2  1  0.750000  0.250000  0.500000  1
  Nb  Nb3  1  0.250000  0.750000  0.500000  1
  Sb  Sb4  1  0.500000  0.000000  0.000000  1
  Sb  Sb5  1  0.000000  0.500000  0.000000  1
  Sb  Sb6  1  0.740355  0.740355  0.480710  1
  Sb  Sb7  1  0.259644  0.259644  0.519289  1
  Rh  Rh8  1  0.898751  0.365138  0.263890  1
  Rh  Rh9  1  0.365138  0.898751  0.263890  1
  Rh  Rh10  1  0.101247  0.101247  0.736108  1
  Rh  Rh11  1  0.634861  0.634861  0.736110  1
