# generated using pymatgen
data_Na2CrMoH10
_symmetry_space_group_name_H-M   'P 1'
_cell_length_a   4.50323500
_cell_length_b   5.12861998
_cell_length_c   11.48046200
_cell_angle_alpha   89.91307300
_cell_angle_beta   90.00000000
_cell_angle_gamma   90.00000000
_symmetry_Int_Tables_number   1
_chemical_formula_structural   Na2CrMoH10
_chemical_formula_sum   'Na4 Cr2 Mo2 H20'
_cell_volume   265.14533900
_cell_formula_units_Z   2
loop_
 _symmetry_equiv_pos_site_id
 _symmetry_equiv_pos_as_xyz
  1  'x, y, z'
loop_
 _atom_site_type_symbol
 _atom_site_label
 _atom_site_symmetry_multiplicity
 _atom_site_fract_x
 _atom_site_fract_y
 _atom_site_fract_z
 _atom_site_occupancy
  Na  Na0  1  0.288688  0.247797  0.648553  1
  Na  Na1  1  0.788688  0.252203  0.351447  1
  Na  Na2  1  0.236936  0.747683  0.168223  1
  Na  Na3  1  0.736936  0.752317  0.831777  1
  Cr  Cr4  1  0.251634  0.749297  0.460073  1
  Cr  Cr5  1  0.751634  0.750703  0.539927  1
  Mo  Mo6  1  0.228786  0.248839  0.948084  1
  Mo  Mo7  1  0.728786  0.251161  0.051916  1
  H  H8  1  0.506867  0.512155  0.481540  1
  H  H9  1  0.006867  0.987845  0.518460  1
  H  H10  1  0.989578  0.518495  0.984809  1
  H  H11  1  0.489578  0.981505  0.015191  1
  H  H12  1  0.215545  0.039036  0.827309  1
  H  H13  1  0.715545  0.460964  0.172691  1
  H  H14  1  0.269810  0.939333  0.348208  1
  H  H15  1  0.769810  0.560667  0.651792  1
  H  H16  1  0.214875  0.454368  0.825764  1
  H  H17  1  0.714875  0.045632  0.174236  1
  H  H18  1  0.268028  0.556435  0.349205  1
  H  H19  1  0.768028  0.943565  0.650795  1
  H  H20  1  0.639299  0.248218  0.894335  1
  H  H21  1  0.139299  0.251782  0.105665  1
  H  H22  1  0.894240  0.749816  0.398976  1
  H  H23  1  0.394240  0.750184  0.601024  1
  H  H24  1  0.989377  0.980812  0.987334  1
  H  H25  1  0.489377  0.519188  0.012666  1
  H  H26  1  0.506338  0.987316  0.480176  1
  H  H27  1  0.006338  0.512684  0.519824  1
