# generated using pymatgen
data_Pr4Re16Si7Ge
_symmetry_space_group_name_H-M   'P 1'
_cell_length_a   4.16912600
_cell_length_b   7.36088335
_cell_length_c   15.56716200
_cell_angle_alpha   89.79888129
_cell_angle_beta   90.00000000
_cell_angle_gamma   90.00000000
_symmetry_Int_Tables_number   1
_chemical_formula_structural   Pr4Re16Si7Ge
_chemical_formula_sum   'Pr4 Re16 Si7 Ge1'
_cell_volume   477.72913185
_cell_formula_units_Z   1
loop_
 _symmetry_equiv_pos_site_id
 _symmetry_equiv_pos_as_xyz
  1  'x, y, z'
loop_
 _atom_site_type_symbol
 _atom_site_label
 _atom_site_symmetry_multiplicity
 _atom_site_fract_x
 _atom_site_fract_y
 _atom_site_fract_z
 _atom_site_occupancy
  Pr  Pr0  1  0.000000  0.578411  0.118019  1
  Pr  Pr1  1  0.000000  0.419991  0.881787  1
  Pr  Pr2  1  0.500000  0.082349  0.380699  1
  Pr  Pr3  1  0.500000  0.922334  0.620421  1
  Re  Re4  1  0.000000  0.136339  0.051787  1
  Re  Re5  1  0.000000  0.861402  0.948093  1
  Re  Re6  1  0.500000  0.633813  0.446134  1
  Re  Re7  1  0.500000  0.363357  0.552473  1
  Re  Re8  1  0.000000  0.731425  0.319963  1
  Re  Re9  1  0.000000  0.267631  0.680002  1
  Re  Re10  1  0.500000  0.231353  0.178349  1
  Re  Re11  1  0.500000  0.766612  0.821242  1
  Re  Re12  1  0.000000  0.431761  0.417780  1
  Re  Re13  1  0.000000  0.565618  0.581597  1
  Re  Re14  1  0.500000  0.931948  0.081412  1
  Re  Re15  1  0.500000  0.065892  0.918648  1
  Re  Re16  1  0.000000  0.990164  0.205919  1
  Re  Re17  1  0.000000  0.007574  0.794063  1
  Re  Re18  1  0.500000  0.489356  0.292569  1
  Re  Re19  1  0.500000  0.508438  0.706682  1
  Si  Si20  1  0.000000  0.179550  0.525687  1
  Si  Si21  1  0.500000  0.325722  0.024125  1
  Si  Si22  1  0.500000  0.672369  0.975659  1
  Si  Si23  1  0.000000  0.292744  0.272399  1
  Si  Si24  1  0.000000  0.705636  0.726885  1
  Si  Si25  1  0.500000  0.792149  0.226528  1
  Si  Si26  1  0.500000  0.206561  0.773994  1
  Ge  Ge27  1  0.000000  0.839501  0.477087  1
