# generated using pymatgen
data_Tb11LuCo4SnRu
_symmetry_space_group_name_H-M   'P 1'
_cell_length_a   8.32114284
_cell_length_b   8.33240778
_cell_length_c   8.32114343
_cell_angle_alpha   111.21474304
_cell_angle_beta   110.34914011
_cell_angle_gamma   106.82885271
_symmetry_Int_Tables_number   1
_chemical_formula_structural   Tb11LuCo4SnRu
_chemical_formula_sum   'Tb11 Lu1 Co4 Sn1 Ru1'
_cell_volume   443.70660426
_cell_formula_units_Z   1
loop_
 _symmetry_equiv_pos_site_id
 _symmetry_equiv_pos_as_xyz
  1  'x, y, z'
loop_
 _atom_site_type_symbol
 _atom_site_label
 _atom_site_symmetry_multiplicity
 _atom_site_fract_x
 _atom_site_fract_y
 _atom_site_fract_z
 _atom_site_occupancy
  Tb  Tb0  1  0.407296  0.212237  0.193329  1
  Tb  Tb1  1  0.593984  0.787439  0.808431  1
  Tb  Tb2  1  0.018908  0.212237  0.804941  1
  Tb  Tb3  1  0.979007  0.787439  0.193454  1
  Tb  Tb4  1  0.182526  0.287845  0.473063  1
  Tb  Tb5  1  0.814900  0.712212  0.525696  1
  Tb  Tb6  1  0.186517  0.712212  0.897312  1
  Tb  Tb7  1  0.814781  0.287845  0.105318  1
  Tb  Tb8  1  0.314189  0.620743  0.306553  1
  Tb  Tb9  1  0.687188  0.379115  0.691928  1
  Tb  Tb10  1  0.313140  0.005731  0.692590  1
  Lu  Lu11  1  0.685704  0.995201  0.309498  1
  Co  Co12  1  0.380853  0.999826  0.377379  1
  Co  Co13  1  0.622448  0.999826  0.618973  1
  Co  Co14  1  0.110210  0.611112  0.500902  1
  Co  Co15  1  0.887395  0.386499  0.499104  1
  Sn  Sn16  1  0.500749  0.502003  0.001254  1
  Ru  Ru17  1  0.000206  0.000479  0.000273  1
