# generated using pymatgen
data_Tb6Ho4Si5Sn
_symmetry_space_group_name_H-M   'P 1'
_cell_length_a   8.54103700
_cell_length_b   8.56724352
_cell_length_c   6.40325200
_cell_angle_alpha   90.00000000
_cell_angle_beta   90.00000000
_cell_angle_gamma   119.89886705
_symmetry_Int_Tables_number   1
_chemical_formula_structural   Tb6Ho4Si5Sn
_chemical_formula_sum   'Tb6 Ho4 Si5 Sn1'
_cell_volume   406.18569180
_cell_formula_units_Z   1
loop_
 _symmetry_equiv_pos_site_id
 _symmetry_equiv_pos_as_xyz
  1  'x, y, z'
loop_
 _atom_site_type_symbol
 _atom_site_label
 _atom_site_symmetry_multiplicity
 _atom_site_fract_x
 _atom_site_fract_y
 _atom_site_fract_z
 _atom_site_occupancy
  Tb  Tb0  1  0.989530  0.748534  0.750000  1
  Tb  Tb1  1  0.998776  0.243077  0.250000  1
  Tb  Tb2  1  0.755699  0.756923  0.250000  1
  Tb  Tb3  1  0.764742  0.000000  0.750000  1
  Tb  Tb4  1  0.240997  0.251466  0.750000  1
  Tb  Tb5  1  0.241683  0.000000  0.250000  1
  Ho  Ho6  1  0.331501  0.657956  0.496929  1
  Ho  Ho7  1  0.673545  0.342044  0.003071  1
  Ho  Ho8  1  0.673545  0.342044  0.496929  1
  Ho  Ho9  1  0.331501  0.657956  0.003071  1
  Si  Si10  1  0.394033  0.392670  0.250000  1
  Si  Si11  1  0.001362  0.607330  0.250000  1
  Si  Si12  1  0.998651  0.394741  0.750000  1
  Si  Si13  1  0.603910  0.605259  0.750000  1
  Si  Si14  1  0.605137  0.000000  0.250000  1
  Sn  Sn15  1  0.395388  0.000000  0.750000  1
