# generated using pymatgen
data_Tb4Zn2(ReRu)3
_symmetry_space_group_name_H-M   'P 1'
_cell_length_a   5.33471296
_cell_length_b   5.30118649
_cell_length_c   9.03902100
_cell_angle_alpha   90.00000000
_cell_angle_beta   90.00000000
_cell_angle_gamma   119.79233943
_symmetry_Int_Tables_number   1
_chemical_formula_structural   Tb4Zn2(ReRu)3
_chemical_formula_sum   'Tb4 Zn2 Re3 Ru3'
_cell_volume   221.84065595
_cell_formula_units_Z   1
loop_
 _symmetry_equiv_pos_site_id
 _symmetry_equiv_pos_as_xyz
  1  'x, y, z'
loop_
 _atom_site_type_symbol
 _atom_site_label
 _atom_site_symmetry_multiplicity
 _atom_site_fract_x
 _atom_site_fract_y
 _atom_site_fract_z
 _atom_site_occupancy
  Tb  Tb0  1  0.329218  0.664609  0.437124  1
  Tb  Tb1  1  0.660054  0.330026  0.559532  1
  Tb  Tb2  1  0.660054  0.330026  0.940468  1
  Tb  Tb3  1  0.329218  0.664609  0.062876  1
  Zn  Zn4  1  0.180236  0.838752  0.750000  1
  Zn  Zn5  1  0.180236  0.341484  0.750000  1
  Re  Re6  1  0.828879  0.167908  0.250000  1
  Re  Re7  1  0.828879  0.660971  0.250000  1
  Re  Re8  1  0.340183  0.170091  0.250000  1
  Ru  Ru9  1  0.991765  0.995882  0.504637  1
  Ru  Ru10  1  0.991765  0.995882  0.995363  1
  Ru  Ru11  1  0.679513  0.839756  0.750000  1
