# generated using pymatgen
data_Er3Lu7OsRu3
_symmetry_space_group_name_H-M   'P 1'
_cell_length_a   6.23393081
_cell_length_b   7.24008579
_cell_length_c   8.28728401
_cell_angle_alpha   97.10439361
_cell_angle_beta   112.03240813
_cell_angle_gamma   89.90441328
_symmetry_Int_Tables_number   1
_chemical_formula_structural   Er3Lu7OsRu3
_chemical_formula_sum   'Er3 Lu7 Os1 Ru3'
_cell_volume   343.65546655
_cell_formula_units_Z   1
loop_
 _symmetry_equiv_pos_site_id
 _symmetry_equiv_pos_as_xyz
  1  'x, y, z'
loop_
 _atom_site_type_symbol
 _atom_site_label
 _atom_site_symmetry_multiplicity
 _atom_site_fract_x
 _atom_site_fract_y
 _atom_site_fract_z
 _atom_site_occupancy
  Er  Er0  1  0.520147  0.084199  0.813767  1
  Er  Er1  1  0.478791  0.917576  0.186172  1
  Er  Er2  1  0.708778  0.416333  0.185819  1
  Lu  Lu3  1  0.294853  0.584614  0.817750  1
  Lu  Lu4  1  0.296562  0.317507  0.434774  1
  Lu  Lu5  1  0.701781  0.682178  0.564844  1
  Lu  Lu6  1  0.862965  0.182940  0.566064  1
  Lu  Lu7  1  0.137960  0.815708  0.433752  1
  Lu  Lu8  1  0.078804  0.250916  0.000138  1
  Lu  Lu9  1  0.922372  0.749156  0.999897  1
  Os  Os10  1  0.320353  0.577874  0.219275  1
  Ru  Ru11  1  0.675898  0.421934  0.778630  1
  Ru  Ru12  1  0.100784  0.921500  0.777104  1
  Ru  Ru13  1  0.899951  0.077565  0.222012  1
