# generated using pymatgen
data_Tb8Ho8Sc4Si15Ru
_symmetry_space_group_name_H-M   'P 1'
_cell_length_a   7.23411650
_cell_length_b   7.70311893
_cell_length_c   14.38462000
_cell_angle_alpha   90.00000000
_cell_angle_beta   90.00000000
_cell_angle_gamma   90.08816472
_symmetry_Int_Tables_number   1
_chemical_formula_structural   Tb8Ho8Sc4Si15Ru
_chemical_formula_sum   'Tb8 Ho8 Sc4 Si15 Ru1'
_cell_volume   801.58573723
_cell_formula_units_Z   1
loop_
 _symmetry_equiv_pos_site_id
 _symmetry_equiv_pos_as_xyz
  1  'x, y, z'
loop_
 _atom_site_type_symbol
 _atom_site_label
 _atom_site_symmetry_multiplicity
 _atom_site_fract_x
 _atom_site_fract_y
 _atom_site_fract_z
 _atom_site_occupancy
  Tb  Tb0  1  0.016821  0.183962  0.096355  1
  Tb  Tb1  1  0.986042  0.824330  0.903491  1
  Tb  Tb2  1  0.484668  0.682001  0.904079  1
  Tb  Tb3  1  0.986042  0.824330  0.596509  1
  Tb  Tb4  1  0.516640  0.318288  0.096728  1
  Tb  Tb5  1  0.016821  0.183962  0.403645  1
  Tb  Tb6  1  0.516640  0.318288  0.403272  1
  Tb  Tb7  1  0.484668  0.682001  0.595921  1
  Ho  Ho8  1  0.310867  0.172487  0.629070  1
  Ho  Ho9  1  0.676910  0.824330  0.373920  1
  Ho  Ho10  1  0.176114  0.679490  0.373966  1
  Ho  Ho11  1  0.676910  0.824330  0.126080  1
  Ho  Ho12  1  0.832595  0.317006  0.628337  1
  Ho  Ho13  1  0.310867  0.172487  0.870930  1
  Ho  Ho14  1  0.832595  0.317006  0.871663  1
  Ho  Ho15  1  0.176114  0.679490  0.126034  1
  Sc  Sc16  1  0.157505  0.517453  0.750000  1
  Sc  Sc17  1  0.841561  0.484446  0.250000  1
  Sc  Sc18  1  0.341777  0.017897  0.250000  1
  Sc  Sc19  1  0.669435  0.985735  0.750000  1
  Si  Si20  1  0.978334  0.905418  0.250000  1
  Si  Si21  1  0.479650  0.596004  0.250000  1
  Si  Si22  1  0.520562  0.403773  0.750000  1
  Si  Si23  1  0.283036  0.859709  0.750000  1
  Si  Si24  1  0.717204  0.135908  0.250000  1
  Si  Si25  1  0.218738  0.366016  0.250000  1
  Si  Si26  1  0.775742  0.630504  0.750000  1
  Si  Si27  1  0.156683  0.472259  0.538646  1
  Si  Si28  1  0.846574  0.530677  0.460893  1
  Si  Si29  1  0.346144  0.970703  0.460017  1
  Si  Si30  1  0.846574  0.530677  0.039107  1
  Si  Si31  1  0.650777  0.031542  0.539415  1
  Si  Si32  1  0.156683  0.472259  0.961354  1
  Si  Si33  1  0.650777  0.031542  0.960585  1
  Si  Si34  1  0.346144  0.970703  0.039983  1
  Ru  Ru35  1  0.014781  0.082986  0.750000  1
