# generated using pymatgen
data_Zr3Sc2(In2Rh)2
_symmetry_space_group_name_H-M   'P 1'
_cell_length_a   17.68889567
_cell_length_b   7.74002144
_cell_length_c   3.35722000
_cell_angle_alpha   90.00000000
_cell_angle_beta   90.00000000
_cell_angle_gamma   89.48981140
_symmetry_Int_Tables_number   1
_chemical_formula_structural   Zr3Sc2(In2Rh)2
_chemical_formula_sum   'Zr6 Sc4 In8 Rh4'
_cell_volume   459.62693149
_cell_formula_units_Z   2
loop_
 _symmetry_equiv_pos_site_id
 _symmetry_equiv_pos_as_xyz
  1  'x, y, z'
loop_
 _atom_site_type_symbol
 _atom_site_label
 _atom_site_symmetry_multiplicity
 _atom_site_fract_x
 _atom_site_fract_y
 _atom_site_fract_z
 _atom_site_occupancy
  Zr  Zr0  1  0.000640  0.000376  0.000000  1
  Zr  Zr1  1  0.418163  0.127824  0.000000  1
  Zr  Zr2  1  0.720475  0.246203  0.000000  1
  Zr  Zr3  1  0.221650  0.255541  0.000000  1
  Zr  Zr4  1  0.919993  0.364465  0.000000  1
  Zr  Zr5  1  0.079517  0.637345  0.000000  1
  Sc  Sc6  1  0.500113  0.497673  0.000000  1
  Sc  Sc7  1  0.777710  0.743603  0.000000  1
  Sc  Sc8  1  0.278040  0.752286  0.000000  1
  Sc  Sc9  1  0.583896  0.873806  0.000000  1
  In  In10  1  0.849982  0.064287  0.500001  1
  In  In11  1  0.566957  0.201122  0.500001  1
  In  In12  1  0.067457  0.300048  0.500001  1
  In  In13  1  0.350006  0.434060  0.500001  1
  In  In14  1  0.649896  0.571238  0.500001  1
  In  In15  1  0.930962  0.700973  0.500001  1
  In  In16  1  0.433561  0.794764  0.500001  1
  In  In17  1  0.150829  0.933127  0.500001  1
  Rh  Rh18  1  0.306462  0.042012  0.500001  1
  Rh  Rh19  1  0.806646  0.454538  0.500001  1
  Rh  Rh20  1  0.192884  0.541126  0.500001  1
  Rh  Rh21  1  0.694161  0.963582  0.500001  1
