# generated using pymatgen
data_Sm8Er8Sc4Si15Os
_symmetry_space_group_name_H-M   'P 1'
_cell_length_a   7.28000225
_cell_length_b   7.71681324
_cell_length_c   14.45380700
_cell_angle_alpha   90.00000000
_cell_angle_beta   90.00000000
_cell_angle_gamma   90.12849220
_symmetry_Int_Tables_number   1
_chemical_formula_structural   Sm8Er8Sc4Si15Os
_chemical_formula_sum   'Sm8 Er8 Sc4 Si15 Os1'
_cell_volume   811.98996595
_cell_formula_units_Z   1
loop_
 _symmetry_equiv_pos_site_id
 _symmetry_equiv_pos_as_xyz
  1  'x, y, z'
loop_
 _atom_site_type_symbol
 _atom_site_label
 _atom_site_symmetry_multiplicity
 _atom_site_fract_x
 _atom_site_fract_y
 _atom_site_fract_z
 _atom_site_occupancy
  Sm  Sm0  1  0.018219  0.183302  0.097021  1
  Sm  Sm1  1  0.984360  0.825742  0.902012  1
  Sm  Sm2  1  0.482212  0.679768  0.903263  1
  Sm  Sm3  1  0.984360  0.825742  0.597988  1
  Sm  Sm4  1  0.517475  0.320481  0.097139  1
  Sm  Sm5  1  0.018219  0.183302  0.402979  1
  Sm  Sm6  1  0.517475  0.320481  0.402861  1
  Sm  Sm7  1  0.482212  0.679768  0.596737  1
  Er  Er8  1  0.310677  0.172642  0.628166  1
  Er  Er9  1  0.679125  0.825496  0.373436  1
  Er  Er10  1  0.178432  0.678891  0.374052  1
  Er  Er11  1  0.679125  0.825496  0.126564  1
  Er  Er12  1  0.830085  0.315757  0.627710  1
  Er  Er13  1  0.310677  0.172642  0.871834  1
  Er  Er14  1  0.830085  0.315757  0.872290  1
  Er  Er15  1  0.178432  0.678891  0.125948  1
  Sc  Sc16  1  0.151111  0.506285  0.750000  1
  Sc  Sc17  1  0.844173  0.486740  0.250000  1
  Sc  Sc18  1  0.344477  0.015458  0.250000  1
  Sc  Sc19  1  0.668300  0.989098  0.750000  1
  Si  Si20  1  0.980868  0.898374  0.250000  1
  Si  Si21  1  0.480905  0.602192  0.250000  1
  Si  Si22  1  0.518263  0.400002  0.750000  1
  Si  Si23  1  0.278813  0.863654  0.750000  1
  Si  Si24  1  0.718665  0.133781  0.250000  1
  Si  Si25  1  0.219799  0.368379  0.250000  1
  Si  Si26  1  0.772633  0.626375  0.750000  1
  Si  Si27  1  0.153102  0.472719  0.538831  1
  Si  Si28  1  0.850236  0.532807  0.460588  1
  Si  Si29  1  0.350212  0.969070  0.459371  1
  Si  Si30  1  0.850236  0.532807  0.039412  1
  Si  Si31  1  0.647629  0.031048  0.538929  1
  Si  Si32  1  0.153102  0.472719  0.961169  1
  Si  Si33  1  0.647629  0.031048  0.961071  1
  Si  Si34  1  0.350212  0.969070  0.040629  1
  Os  Os35  1  0.018470  0.094220  0.750000  1
