# generated using pymatgen
data_Er2Th(ZnPt)4
_symmetry_space_group_name_H-M   'P 1'
_cell_length_a   8.23581536
_cell_length_b   8.23581481
_cell_length_c   8.23581510
_cell_angle_alpha   151.65352696
_cell_angle_beta   126.07912285
_cell_angle_gamma   62.03096226
_symmetry_Int_Tables_number   1
_chemical_formula_structural   Er2Th(ZnPt)4
_chemical_formula_sum   'Er2 Th1 Zn4 Pt4'
_cell_volume   212.58894601
_cell_formula_units_Z   1
loop_
 _symmetry_equiv_pos_site_id
 _symmetry_equiv_pos_as_xyz
  1  'x, y, z'
loop_
 _atom_site_type_symbol
 _atom_site_label
 _atom_site_symmetry_multiplicity
 _atom_site_fract_x
 _atom_site_fract_y
 _atom_site_fract_z
 _atom_site_occupancy
  Er  Er0  1  0.873823  0.873823  0.000000  1
  Er  Er1  1  0.126177  0.126177  0.000000  1
  Th  Th2  1  0.500000  0.000000  0.500000  1
  Zn  Zn3  1  0.475790  0.674931  0.800859  1
  Zn  Zn4  1  0.874072  0.674931  0.199141  1
  Zn  Zn5  1  0.125928  0.325069  0.800859  1
  Zn  Zn6  1  0.524210  0.325069  0.199141  1
  Pt  Pt7  1  0.279090  0.779090  0.500000  1
  Pt  Pt8  1  0.720910  0.220910  0.500000  1
  Pt  Pt9  1  0.802933  0.500000  0.302933  1
  Pt  Pt10  1  0.197067  0.500000  0.697067  1
