# generated using pymatgen
data_Ce2HoAl2InRu2
_symmetry_space_group_name_H-M   'P 1'
_cell_length_a   8.15143045
_cell_length_b   8.15142949
_cell_length_c   4.97561339
_cell_angle_alpha   82.18929796
_cell_angle_beta   82.18929804
_cell_angle_gamma   32.96851358
_symmetry_Int_Tables_number   1
_chemical_formula_structural   Ce2HoAl2InRu2
_chemical_formula_sum   'Ce2 Ho1 Al2 In1 Ru2'
_cell_volume   178.09396266
_cell_formula_units_Z   1
loop_
 _symmetry_equiv_pos_site_id
 _symmetry_equiv_pos_as_xyz
  1  'x, y, z'
loop_
 _atom_site_type_symbol
 _atom_site_label
 _atom_site_symmetry_multiplicity
 _atom_site_fract_x
 _atom_site_fract_y
 _atom_site_fract_z
 _atom_site_occupancy
  Ce  Ce0  1  0.831991  0.831991  0.574607  1
  Ce  Ce1  1  0.168014  0.168014  0.425273  1
  Ho  Ho2  1  0.000056  0.000056  0.000021  1
  Al  Al3  1  0.363058  0.363058  0.043874  1
  Al  Al4  1  0.636898  0.636898  0.956092  1
  In  In5  1  0.500089  0.500089  0.500021  1
  Ru  Ru6  1  0.794396  0.794396  0.114152  1
  Ru  Ru7  1  0.205500  0.205500  0.885961  1
