# generated using pymatgen
data_Cr4SbW3O16
_symmetry_space_group_name_H-M   'P 1'
_cell_length_a   4.63490659
_cell_length_b   6.31362571
_cell_length_c   9.79315788
_cell_angle_alpha   71.19497093
_cell_angle_beta   91.15198131
_cell_angle_gamma   89.99999701
_symmetry_Int_Tables_number   1
_chemical_formula_structural   Cr4SbW3O16
_chemical_formula_sum   'Cr4 Sb1 W3 O16'
_cell_volume   271.21938469
_cell_formula_units_Z   1
loop_
 _symmetry_equiv_pos_site_id
 _symmetry_equiv_pos_as_xyz
  1  'x, y, z'
loop_
 _atom_site_type_symbol
 _atom_site_label
 _atom_site_symmetry_multiplicity
 _atom_site_fract_x
 _atom_site_fract_y
 _atom_site_fract_z
 _atom_site_occupancy
  Cr  Cr0  1  0.497447  0.124379  0.250111  1
  Cr  Cr1  1  0.502553  0.875621  0.749889  1
  Cr  Cr2  1  0.502553  0.374490  0.749889  1
  Cr  Cr3  1  0.497447  0.625510  0.250111  1
  Sb  Sb4  1  0.000000  0.000000  0.000000  1
  W  W5  1  0.000412  0.750030  0.499939  1
  W  W6  1  0.000000  0.500000  0.000000  1
  W  W7  1  0.999588  0.249970  0.500061  1
  O  O8  1  0.698586  0.575231  0.849538  1
  O  O9  1  0.699460  0.325246  0.349508  1
  O  O10  1  0.693991  0.076482  0.847036  1
  O  O11  1  0.698532  0.825393  0.349215  1
  O  O12  1  0.300540  0.674754  0.650492  1
  O  O13  1  0.301414  0.424769  0.150462  1
  O  O14  1  0.301468  0.174607  0.650785  1
  O  O15  1  0.306009  0.923518  0.152964  1
  O  O16  1  0.193318  0.298226  0.903119  1
  O  O17  1  0.194986  0.048974  0.402738  1
  O  O18  1  0.193318  0.798654  0.903119  1
  O  O19  1  0.194986  0.548287  0.402738  1
  O  O20  1  0.805014  0.451713  0.597262  1
  O  O21  1  0.806682  0.201346  0.096881  1
  O  O22  1  0.805014  0.951026  0.597262  1
  O  O23  1  0.806682  0.701774  0.096881  1
