# generated using pymatgen
data_Zr3Ga3CuRh2
_symmetry_space_group_name_H-M   'P 1'
_cell_length_a   7.27682000
_cell_length_b   7.27681952
_cell_length_c   3.35665100
_cell_angle_alpha   90.00000000
_cell_angle_beta   90.00000000
_cell_angle_gamma   119.99999310
_symmetry_Int_Tables_number   1
_chemical_formula_structural   Zr3Ga3CuRh2
_chemical_formula_sum   'Zr3 Ga3 Cu1 Rh2'
_cell_volume   153.92887192
_cell_formula_units_Z   1
loop_
 _symmetry_equiv_pos_site_id
 _symmetry_equiv_pos_as_xyz
  1  'x, y, z'
loop_
 _atom_site_type_symbol
 _atom_site_label
 _atom_site_symmetry_multiplicity
 _atom_site_fract_x
 _atom_site_fract_y
 _atom_site_fract_z
 _atom_site_occupancy
  Zr  Zr0  1  0.000000  0.393170  0.500000  1
  Zr  Zr1  1  0.606830  0.606830  0.500000  1
  Zr  Zr2  1  0.393170  0.000000  0.500000  1
  Ga  Ga3  1  0.000000  0.733653  0.000000  1
  Ga  Ga4  1  0.266347  0.266347  0.000000  1
  Ga  Ga5  1  0.733653  0.000000  0.000000  1
  Cu  Cu6  1  0.000000  0.000000  0.500000  1
  Rh  Rh7  1  0.333333  0.666667  0.000000  1
  Rh  Rh8  1  0.666667  0.333333  0.000000  1
