# generated using pymatgen
data_Sr(IrO3)3
_symmetry_space_group_name_H-M   'P 1'
_cell_length_a   5.45407072
_cell_length_b   5.45406980
_cell_length_c   12.12607900
_cell_angle_alpha   90.00000000
_cell_angle_beta   90.00000000
_cell_angle_gamma   107.53903110
_symmetry_Int_Tables_number   1
_chemical_formula_structural   Sr(IrO3)3
_chemical_formula_sum   'Sr2 Ir6 O18'
_cell_volume   343.94417578
_cell_formula_units_Z   2
loop_
 _symmetry_equiv_pos_site_id
 _symmetry_equiv_pos_as_xyz
  1  'x, y, z'
loop_
 _atom_site_type_symbol
 _atom_site_label
 _atom_site_symmetry_multiplicity
 _atom_site_fract_x
 _atom_site_fract_y
 _atom_site_fract_z
 _atom_site_occupancy
  Sr  Sr0  1  0.751510  0.248490  0.750000  1
  Sr  Sr1  1  0.248490  0.751510  0.250000  1
  Ir  Ir2  1  0.115785  0.884215  0.906215  1
  Ir  Ir3  1  0.884215  0.115785  0.406215  1
  Ir  Ir4  1  0.884215  0.115785  0.093785  1
  Ir  Ir5  1  0.115785  0.884215  0.593785  1
  Ir  Ir6  1  0.500000  0.500000  0.000000  1
  Ir  Ir7  1  0.500000  0.500000  0.500000  1
  O  O8  1  0.943634  0.056366  0.250000  1
  O  O9  1  0.056366  0.943634  0.750000  1
  O  O10  1  0.104281  0.895719  0.066139  1
  O  O11  1  0.895719  0.104281  0.566139  1
  O  O12  1  0.895719  0.104281  0.933861  1
  O  O13  1  0.104281  0.895719  0.433861  1
  O  O14  1  0.334888  0.665112  0.894253  1
  O  O15  1  0.665112  0.334888  0.394253  1
  O  O16  1  0.411816  0.191490  0.596306  1
  O  O17  1  0.588184  0.808510  0.096306  1
  O  O18  1  0.191490  0.411816  0.403694  1
  O  O19  1  0.808510  0.588184  0.903694  1
  O  O20  1  0.588184  0.808510  0.403694  1
  O  O21  1  0.411816  0.191490  0.903694  1
  O  O22  1  0.808510  0.588184  0.596306  1
  O  O23  1  0.191490  0.411816  0.096306  1
  O  O24  1  0.334888  0.665112  0.605747  1
  O  O25  1  0.665112  0.334888  0.105747  1
