# generated using pymatgen
data_Y2Co5(NiP)7
_symmetry_space_group_name_H-M   'P 1'
_cell_length_a   3.63940700
_cell_length_b   9.04476378
_cell_length_c   9.02480830
_cell_angle_alpha   120.02216122
_cell_angle_beta   90.00000000
_cell_angle_gamma   90.00000000
_symmetry_Int_Tables_number   1
_chemical_formula_structural   Y2Co5(NiP)7
_chemical_formula_sum   'Y2 Co5 Ni7 P7'
_cell_volume   257.21686819
_cell_formula_units_Z   1
loop_
 _symmetry_equiv_pos_site_id
 _symmetry_equiv_pos_as_xyz
  1  'x, y, z'
loop_
 _atom_site_type_symbol
 _atom_site_label
 _atom_site_symmetry_multiplicity
 _atom_site_fract_x
 _atom_site_fract_y
 _atom_site_fract_z
 _atom_site_occupancy
  Y  Y0  1  0.000000  0.666031  0.332948  1
  Y  Y1  1  0.500000  0.334227  0.667103  1
  Co  Co2  1  0.000000  0.880280  0.154701  1
  Co  Co3  1  0.000000  0.272947  0.119019  1
  Co  Co4  1  0.000000  0.846765  0.726959  1
  Co  Co5  1  0.500000  0.430881  0.048194  1
  Co  Co6  1  0.500000  0.617641  0.568632  1
  Ni  Ni7  1  0.000000  0.564540  0.937798  1
  Ni  Ni8  1  0.000000  0.374787  0.434805  1
  Ni  Ni9  1  0.000000  0.061751  0.625196  1
  Ni  Ni10  1  0.500000  0.787126  0.909116  1
  Ni  Ni11  1  0.500000  0.124092  0.215386  1
  Ni  Ni12  1  0.500000  0.090231  0.878856  1
  Ni  Ni13  1  0.500000  0.949860  0.383222  1
  P  P14  1  0.000000  0.999839  0.001023  1
  P  P15  1  0.500000  0.707184  0.109919  1
  P  P16  1  0.500000  0.403187  0.288718  1
  P  P17  1  0.500000  0.885142  0.599879  1
  P  P18  1  0.000000  0.594529  0.703613  1
  P  P19  1  0.000000  0.112930  0.404511  1
  P  P20  1  0.000000  0.296032  0.890399  1
