# generated using pymatgen
data_TbDy15MgIn3Ni4
_symmetry_space_group_name_H-M   'P 1'
_cell_length_a   9.60548825
_cell_length_b   9.57864661
_cell_length_c   9.57864677
_cell_angle_alpha   59.96938060
_cell_angle_beta   60.15960211
_cell_angle_gamma   60.15959203
_symmetry_Int_Tables_number   1
_chemical_formula_structural   TbDy15MgIn3Ni4
_chemical_formula_sum   'Tb1 Dy15 Mg1 In3 Ni4'
_cell_volume   624.53261921
_cell_formula_units_Z   1
loop_
 _symmetry_equiv_pos_site_id
 _symmetry_equiv_pos_as_xyz
  1  'x, y, z'
loop_
 _atom_site_type_symbol
 _atom_site_label
 _atom_site_symmetry_multiplicity
 _atom_site_fract_x
 _atom_site_fract_y
 _atom_site_fract_z
 _atom_site_occupancy
  Tb  Tb0  1  0.344627  0.345605  0.345605  1
  Dy  Dy1  1  0.347899  0.346231  0.957559  1
  Dy  Dy2  1  0.347899  0.957559  0.346231  1
  Dy  Dy3  1  0.953204  0.348734  0.348734  1
  Dy  Dy4  1  0.809855  0.189887  0.189887  1
  Dy  Dy5  1  0.186020  0.813127  0.813127  1
  Dy  Dy6  1  0.186871  0.814286  0.187467  1
  Dy  Dy7  1  0.811638  0.190085  0.810630  1
  Dy  Dy8  1  0.186871  0.187467  0.814286  1
  Dy  Dy9  1  0.811638  0.810630  0.190085  1
  Dy  Dy10  1  0.937309  0.565218  0.565218  1
  Dy  Dy11  1  0.563401  0.937371  0.937371  1
  Dy  Dy12  1  0.563818  0.936084  0.564325  1
  Dy  Dy13  1  0.936379  0.563733  0.937067  1
  Dy  Dy14  1  0.563818  0.564325  0.936084  1
  Dy  Dy15  1  0.936379  0.937067  0.563733  1
  Mg  Mg16  1  0.269962  0.576398  0.576398  1
  In  In17  1  0.583422  0.582219  0.582219  1
  In  In18  1  0.581762  0.581757  0.253995  1
  In  In19  1  0.581762  0.253995  0.581757  1
  Ni  Ni20  1  0.142921  0.142363  0.142363  1
  Ni  Ni21  1  0.139427  0.141479  0.573942  1
  Ni  Ni22  1  0.139427  0.573942  0.141479  1
  Ni  Ni23  1  0.573688  0.140439  0.140439  1
