# generated using pymatgen
data_Hf9Ta3ReRh
_symmetry_space_group_name_H-M   'P 1'
_cell_length_a   8.81749100
_cell_length_b   8.81749057
_cell_length_c   8.61030500
_cell_angle_alpha   90.00000000
_cell_angle_beta   90.00000000
_cell_angle_gamma   119.99999785
_symmetry_Int_Tables_number   1
_chemical_formula_structural   Hf9Ta3ReRh
_chemical_formula_sum   'Hf18 Ta6 Re2 Rh2'
_cell_volume   579.74792889
_cell_formula_units_Z   2
loop_
 _symmetry_equiv_pos_site_id
 _symmetry_equiv_pos_as_xyz
  1  'x, y, z'
loop_
 _atom_site_type_symbol
 _atom_site_label
 _atom_site_symmetry_multiplicity
 _atom_site_fract_x
 _atom_site_fract_y
 _atom_site_fract_z
 _atom_site_occupancy
  Hf  Hf0  1  0.199083  0.800917  0.445925  1
  Hf  Hf1  1  0.199083  0.398166  0.445925  1
  Hf  Hf2  1  0.601834  0.800917  0.445925  1
  Hf  Hf3  1  0.800917  0.199083  0.554075  1
  Hf  Hf4  1  0.800917  0.601834  0.554075  1
  Hf  Hf5  1  0.398166  0.199083  0.554075  1
  Hf  Hf6  1  0.800917  0.199083  0.945925  1
  Hf  Hf7  1  0.800917  0.601834  0.945925  1
  Hf  Hf8  1  0.398166  0.199083  0.945925  1
  Hf  Hf9  1  0.199083  0.800917  0.054075  1
  Hf  Hf10  1  0.199083  0.398166  0.054075  1
  Hf  Hf11  1  0.601834  0.800917  0.054075  1
  Hf  Hf12  1  0.542269  0.457731  0.250000  1
  Hf  Hf13  1  0.542269  0.084538  0.250000  1
  Hf  Hf14  1  0.915462  0.457731  0.250000  1
  Hf  Hf15  1  0.457731  0.542269  0.750000  1
  Hf  Hf16  1  0.457731  0.915462  0.750000  1
  Hf  Hf17  1  0.084538  0.542269  0.750000  1
  Ta  Ta18  1  0.888461  0.111539  0.250000  1
  Ta  Ta19  1  0.888461  0.776921  0.250000  1
  Ta  Ta20  1  0.223079  0.111539  0.250000  1
  Ta  Ta21  1  0.111539  0.888461  0.750000  1
  Ta  Ta22  1  0.111539  0.223079  0.750000  1
  Ta  Ta23  1  0.776921  0.888461  0.750000  1
  Re  Re24  1  0.000000  0.000000  0.500000  1
  Re  Re25  1  0.000000  0.000000  0.000000  1
  Rh  Rh26  1  0.333333  0.666667  0.250000  1
  Rh  Rh27  1  0.666667  0.333333  0.750000  1
