# generated using pymatgen
data_BaCu12Ni
_symmetry_space_group_name_H-M   'P 1'
_cell_length_a   8.35657368
_cell_length_b   8.35657388
_cell_length_c   8.35657300
_cell_angle_alpha   59.99999954
_cell_angle_beta   59.99999872
_cell_angle_gamma   59.99999996
_symmetry_Int_Tables_number   1
_chemical_formula_structural   BaCu12Ni
_chemical_formula_sum   'Ba2 Cu24 Ni2'
_cell_volume   412.63846719
_cell_formula_units_Z   2
loop_
 _symmetry_equiv_pos_site_id
 _symmetry_equiv_pos_as_xyz
  1  'x, y, z'
loop_
 _atom_site_type_symbol
 _atom_site_label
 _atom_site_symmetry_multiplicity
 _atom_site_fract_x
 _atom_site_fract_y
 _atom_site_fract_z
 _atom_site_occupancy
  Ba  Ba0  1  0.750000  0.750000  0.750000  1
  Ba  Ba1  1  0.250000  0.250000  0.250000  1
  Cu  Cu2  1  0.707807  0.934479  0.292193  1
  Cu  Cu3  1  0.934479  0.707807  0.065521  1
  Cu  Cu4  1  0.065521  0.292193  0.934479  1
  Cu  Cu5  1  0.792193  0.565521  0.434479  1
  Cu  Cu6  1  0.565521  0.792193  0.207807  1
  Cu  Cu7  1  0.207807  0.565521  0.792193  1
  Cu  Cu8  1  0.792193  0.434479  0.207807  1
  Cu  Cu9  1  0.565521  0.434479  0.792193  1
  Cu  Cu10  1  0.207807  0.792193  0.434479  1
  Cu  Cu11  1  0.934479  0.065521  0.292193  1
  Cu  Cu12  1  0.292193  0.934479  0.065521  1
  Cu  Cu13  1  0.065521  0.707807  0.292193  1
  Cu  Cu14  1  0.065521  0.934479  0.707807  1
  Cu  Cu15  1  0.292193  0.707807  0.934479  1
  Cu  Cu16  1  0.707807  0.065521  0.934479  1
  Cu  Cu17  1  0.707807  0.292193  0.065521  1
  Cu  Cu18  1  0.934479  0.292193  0.707807  1
  Cu  Cu19  1  0.434479  0.792193  0.565521  1
  Cu  Cu20  1  0.434479  0.207807  0.792193  1
  Cu  Cu21  1  0.792193  0.207807  0.565521  1
  Cu  Cu22  1  0.434479  0.565521  0.207807  1
  Cu  Cu23  1  0.207807  0.434479  0.565521  1
  Cu  Cu24  1  0.565521  0.207807  0.434479  1
  Cu  Cu25  1  0.292193  0.065521  0.707807  1
  Ni  Ni26  1  0.000000  0.000000  0.000000  1
  Ni  Ni27  1  0.500000  0.500000  0.500000  1
