# generated using pymatgen
data_BaGdZn3GaO7
_symmetry_space_group_name_H-M   'P 1'
_cell_length_a   6.44527108
_cell_length_b   6.44602226
_cell_length_c   10.50351800
_cell_angle_alpha   90.00000000
_cell_angle_beta   90.00000000
_cell_angle_gamma   120.01520041
_symmetry_Int_Tables_number   1
_chemical_formula_structural   BaGdZn3GaO7
_chemical_formula_sum   'Ba2 Gd2 Zn6 Ga2 O14'
_cell_volume   377.86082066
_cell_formula_units_Z   2
loop_
 _symmetry_equiv_pos_site_id
 _symmetry_equiv_pos_as_xyz
  1  'x, y, z'
loop_
 _atom_site_type_symbol
 _atom_site_label
 _atom_site_symmetry_multiplicity
 _atom_site_fract_x
 _atom_site_fract_y
 _atom_site_fract_z
 _atom_site_occupancy
  Ba  Ba0  1  0.666675  0.333354  0.469742  1
  Ba  Ba1  1  0.333323  0.666645  0.969742  1
  Gd  Gd2  1  0.333336  0.666664  0.316844  1
  Gd  Gd3  1  0.666664  0.333337  0.816844  1
  Zn  Zn4  1  0.829687  0.659125  0.131792  1
  Zn  Zn5  1  0.829463  0.170317  0.131792  1
  Zn  Zn6  1  0.340877  0.170534  0.131792  1
  Zn  Zn7  1  0.170315  0.340876  0.631792  1
  Zn  Zn8  1  0.170538  0.829683  0.631790  1
  Zn  Zn9  1  0.659122  0.829467  0.631792  1
  Ga  Ga10  1  0.000001  0.000002  0.381979  1
  Ga  Ga11  1  0.999999  0.999998  0.881979  1
  O  O12  1  0.014287  0.507016  0.180054  1
  O  O13  1  0.492986  0.507270  0.180054  1
  O  O14  1  0.492716  0.985710  0.180052  1
  O  O15  1  0.999999  0.999999  0.201436  1
  O  O16  1  0.684256  0.841149  0.439822  1
  O  O17  1  0.156900  0.315736  0.439822  1
  O  O18  1  0.158826  0.843103  0.439819  1
  O  O19  1  0.985714  0.492985  0.680054  1
  O  O20  1  0.507284  0.014290  0.680052  1
  O  O21  1  0.507012  0.492729  0.680054  1
  O  O22  1  0.000001  0.000001  0.701436  1
  O  O23  1  0.843101  0.684265  0.939820  1
  O  O24  1  0.315745  0.158852  0.939822  1
  O  O25  1  0.841177  0.156898  0.939817  1
