# generated using pymatgen
data_Ho16Tm4Ir11Ru
_symmetry_space_group_name_H-M   'P 1'
_cell_length_a   10.80674200
_cell_length_b   10.80674200
_cell_length_c   6.35423800
_cell_angle_alpha   90.00000000
_cell_angle_beta   90.00000000
_cell_angle_gamma   90.00000000
_symmetry_Int_Tables_number   1
_chemical_formula_structural   Ho16Tm4Ir11Ru
_chemical_formula_sum   'Ho16 Tm4 Ir11 Ru1'
_cell_volume   742.08395904
_cell_formula_units_Z   1
loop_
 _symmetry_equiv_pos_site_id
 _symmetry_equiv_pos_as_xyz
  1  'x, y, z'
loop_
 _atom_site_type_symbol
 _atom_site_label
 _atom_site_symmetry_multiplicity
 _atom_site_fract_x
 _atom_site_fract_y
 _atom_site_fract_z
 _atom_site_occupancy
  Ho  Ho0  1  0.291825  0.087035  0.376264  1
  Ho  Ho1  1  0.291990  0.912985  0.878294  1
  Ho  Ho2  1  0.708010  0.087015  0.878294  1
  Ho  Ho3  1  0.708175  0.912965  0.376264  1
  Ho  Ho4  1  0.587015  0.791990  0.878294  1
  Ho  Ho5  1  0.587035  0.208175  0.376264  1
  Ho  Ho6  1  0.412965  0.791825  0.376264  1
  Ho  Ho7  1  0.412985  0.208010  0.878294  1
  Ho  Ho8  1  0.209458  0.412288  0.622561  1
  Ho  Ho9  1  0.209456  0.587687  0.122448  1
  Ho  Ho10  1  0.790544  0.412313  0.122448  1
  Ho  Ho11  1  0.790542  0.587712  0.622561  1
  Ho  Ho12  1  0.912313  0.709456  0.122448  1
  Ho  Ho13  1  0.912288  0.290542  0.622561  1
  Ho  Ho14  1  0.087712  0.709458  0.622561  1
  Ho  Ho15  1  0.087687  0.290544  0.122448  1
  Tm  Tm16  1  0.000000  0.000000  0.499818  1
  Tm  Tm17  1  0.000000  0.000000  0.999868  1
  Tm  Tm18  1  0.500000  0.500000  0.999868  1
  Tm  Tm19  1  0.500000  0.500000  0.499818  1
  Ir  Ir20  1  0.847864  0.152699  0.250143  1
  Ir  Ir21  1  0.847973  0.847476  0.749989  1
  Ir  Ir22  1  0.152027  0.152524  0.749989  1
  Ir  Ir23  1  0.152136  0.847301  0.250143  1
  Ir  Ir24  1  0.652524  0.347973  0.749989  1
  Ir  Ir25  1  0.652699  0.652136  0.250143  1
  Ir  Ir26  1  0.347301  0.347864  0.250143  1
  Ir  Ir27  1  0.347476  0.652027  0.749989  1
  Ir  Ir28  1  0.500000  0.000000  0.622581  1
  Ir  Ir29  1  0.000000  0.500000  0.878076  1
  Ir  Ir30  1  0.000000  0.500000  0.378117  1
  Ru  Ru31  1  0.500000  0.000000  0.123057  1
