# generated using pymatgen
data_LaCe9Sn8
_symmetry_space_group_name_H-M   'P 1'
_cell_length_a   9.57909800
_cell_length_b   9.57909645
_cell_length_c   6.57156700
_cell_angle_alpha   90.00000000
_cell_angle_beta   90.00000000
_cell_angle_gamma   119.99999845
_symmetry_Int_Tables_number   1
_chemical_formula_structural   LaCe9Sn8
_chemical_formula_sum   'La1 Ce9 Sn8'
_cell_volume   522.21427704
_cell_formula_units_Z   1
loop_
 _symmetry_equiv_pos_site_id
 _symmetry_equiv_pos_as_xyz
  1  'x, y, z'
loop_
 _atom_site_type_symbol
 _atom_site_label
 _atom_site_symmetry_multiplicity
 _atom_site_fract_x
 _atom_site_fract_y
 _atom_site_fract_z
 _atom_site_occupancy
  La  La0  1  0.333333  0.666667  0.500000  1
  Ce  Ce1  1  0.333333  0.666667  0.000000  1
  Ce  Ce2  1  0.666667  0.333333  0.500000  1
  Ce  Ce3  1  0.666667  0.333333  0.000000  1
  Ce  Ce4  1  0.280827  0.004121  0.248079  1
  Ce  Ce5  1  0.280827  0.276706  0.751921  1
  Ce  Ce6  1  0.995879  0.719173  0.751921  1
  Ce  Ce7  1  0.995879  0.276706  0.248079  1
  Ce  Ce8  1  0.723294  0.719173  0.248079  1
  Ce  Ce9  1  0.723294  0.004121  0.751921  1
  Sn  Sn10  1  0.000000  0.000000  0.000000  1
  Sn  Sn11  1  0.000000  0.000000  0.500000  1
  Sn  Sn12  1  0.621956  0.997663  0.249908  1
  Sn  Sn13  1  0.621956  0.624294  0.750092  1
  Sn  Sn14  1  0.002337  0.378044  0.750092  1
  Sn  Sn15  1  0.002337  0.624294  0.249908  1
  Sn  Sn16  1  0.375706  0.378044  0.249908  1
  Sn  Sn17  1  0.375706  0.997663  0.750092  1
