# generated using pymatgen
data_Sm2Eu4Cd23Sb
_symmetry_space_group_name_H-M   'P 1'
_cell_length_a   10.16447646
_cell_length_b   10.16447581
_cell_length_c   10.13075700
_cell_angle_alpha   60.10967225
_cell_angle_beta   60.10967435
_cell_angle_gamma   60.07679895
_symmetry_Int_Tables_number   1
_chemical_formula_structural   Sm2Eu4Cd23Sb
_chemical_formula_sum   'Sm2 Eu4 Cd23 Sb1'
_cell_volume   741.76633374
_cell_formula_units_Z   1
loop_
 _symmetry_equiv_pos_site_id
 _symmetry_equiv_pos_as_xyz
  1  'x, y, z'
loop_
 _atom_site_type_symbol
 _atom_site_label
 _atom_site_symmetry_multiplicity
 _atom_site_fract_x
 _atom_site_fract_y
 _atom_site_fract_z
 _atom_site_occupancy
  Sm  Sm0  1  0.782857  0.217143  0.781897  1
  Sm  Sm1  1  0.217143  0.782857  0.781897  1
  Eu  Eu2  1  0.781588  0.781588  0.218151  1
  Eu  Eu3  1  0.216895  0.783105  0.217022  1
  Eu  Eu4  1  0.783105  0.216895  0.217022  1
  Eu  Eu5  1  0.218412  0.218412  0.781327  1
  Cd  Cd6  1  0.835040  0.835040  0.495754  1
  Cd  Cd7  1  0.835212  0.493059  0.835011  1
  Cd  Cd8  1  0.493059  0.835212  0.835011  1
  Cd  Cd9  1  0.836948  0.836948  0.834691  1
  Cd  Cd10  1  0.163052  0.163052  0.508586  1
  Cd  Cd11  1  0.164788  0.506941  0.163281  1
  Cd  Cd12  1  0.506941  0.164788  0.163281  1
  Cd  Cd13  1  0.164960  0.164960  0.165834  1
  Cd  Cd14  1  0.622729  0.622729  0.131824  1
  Cd  Cd15  1  0.623645  0.131986  0.623709  1
  Cd  Cd16  1  0.131986  0.623645  0.623709  1
  Cd  Cd17  1  0.621506  0.621506  0.623755  1
  Cd  Cd18  1  0.378494  0.378494  0.866766  1
  Cd  Cd19  1  0.376355  0.868014  0.379338  1
  Cd  Cd20  1  0.868014  0.376355  0.379338  1
  Cd  Cd21  1  0.377271  0.377271  0.377280  1
  Cd  Cd22  1  0.000000  0.000000  0.501859  1
  Cd  Cd23  1  0.498930  0.999539  0.500671  1
  Cd  Cd24  1  0.999539  0.498930  0.500671  1
  Cd  Cd25  1  0.500000  0.500000  0.999054  1
  Cd  Cd26  1  0.000461  0.501070  0.999141  1
  Cd  Cd27  1  0.501070  0.000461  0.999141  1
  Cd  Cd28  1  0.500000  0.500000  0.500044  1
  Sb  Sb29  1  0.000000  0.000000  0.994933  1
