# generated using pymatgen
data_Cs12PRh3O16
_symmetry_space_group_name_H-M   'P 1'
_cell_length_a   6.69959029
_cell_length_b   9.04053400
_cell_length_c   12.57700888
_cell_angle_alpha   90.00000000
_cell_angle_beta   88.83478505
_cell_angle_gamma   90.00000000
_symmetry_Int_Tables_number   1
_chemical_formula_structural   Cs12PRh3O16
_chemical_formula_sum   'Cs12 P1 Rh3 O16'
_cell_volume   761.60516461
_cell_formula_units_Z   1
loop_
 _symmetry_equiv_pos_site_id
 _symmetry_equiv_pos_as_xyz
  1  'x, y, z'
loop_
 _atom_site_type_symbol
 _atom_site_label
 _atom_site_symmetry_multiplicity
 _atom_site_fract_x
 _atom_site_fract_y
 _atom_site_fract_z
 _atom_site_occupancy
  Cs  Cs0  1  0.361793  0.250000  0.568768  1
  Cs  Cs1  1  0.189594  0.502706  0.355582  1
  Cs  Cs2  1  0.140148  0.250000  0.079401  1
  Cs  Cs3  1  0.682287  0.012325  0.153537  1
  Cs  Cs4  1  0.850074  0.750000  0.927032  1
  Cs  Cs5  1  0.815466  0.011455  0.641201  1
  Cs  Cs6  1  0.815466  0.488545  0.641201  1
  Cs  Cs7  1  0.311181  0.994116  0.850417  1
  Cs  Cs8  1  0.651304  0.750000  0.420350  1
  Cs  Cs9  1  0.682287  0.487675  0.153537  1
  Cs  Cs10  1  0.189594  0.997294  0.355582  1
  Cs  Cs11  1  0.311181  0.505884  0.850417  1
  P  P12  1  0.781512  0.250000  0.386697  1
  Rh  Rh13  1  0.733778  0.250000  0.887023  1
  Rh  Rh14  1  0.234704  0.750000  0.610762  1
  Rh  Rh15  1  0.260175  0.750000  0.114516  1
  O  O16  1  0.648508  0.107549  0.393035  1
  O  O17  1  0.111407  0.922493  0.119570  1
  O  O18  1  0.383113  0.577596  0.604450  1
  O  O19  1  0.883251  0.421901  0.887795  1
  O  O20  1  0.905081  0.250000  0.278884  1
  O  O21  1  0.443219  0.750000  0.000363  1
  O  O22  1  0.542544  0.250000  0.998339  1
  O  O23  1  0.932994  0.250000  0.480890  1
  O  O24  1  0.883251  0.078099  0.887795  1
  O  O25  1  0.111407  0.577507  0.119570  1
  O  O26  1  0.383113  0.922404  0.604450  1
  O  O27  1  0.069509  0.750000  0.733422  1
  O  O28  1  0.648508  0.392451  0.393035  1
  O  O29  1  0.044316  0.750000  0.502513  1
  O  O30  1  0.426657  0.750000  0.234466  1
  O  O31  1  0.572578  0.250000  0.765403  1
