# generated using pymatgen
data_CeMgPaRh2
_symmetry_space_group_name_H-M   'P 1'
_cell_length_a   7.67993876
_cell_length_b   7.67993846
_cell_length_c   3.68058500
_cell_angle_alpha   90.00000000
_cell_angle_beta   90.00000000
_cell_angle_gamma   92.60646426
_symmetry_Int_Tables_number   1
_chemical_formula_structural   CeMgPaRh2
_chemical_formula_sum   'Ce2 Mg2 Pa2 Rh4'
_cell_volume   216.86167836
_cell_formula_units_Z   2
loop_
 _symmetry_equiv_pos_site_id
 _symmetry_equiv_pos_as_xyz
  1  'x, y, z'
loop_
 _atom_site_type_symbol
 _atom_site_label
 _atom_site_symmetry_multiplicity
 _atom_site_fract_x
 _atom_site_fract_y
 _atom_site_fract_z
 _atom_site_occupancy
  Ce  Ce0  1  0.166533  0.333467  0.500000  1
  Ce  Ce1  1  0.833467  0.666533  0.500000  1
  Mg  Mg2  1  0.000000  0.000000  0.000000  1
  Mg  Mg3  1  0.500000  0.500000  0.000000  1
  Pa  Pa4  1  0.664785  0.164785  0.500000  1
  Pa  Pa5  1  0.335215  0.835215  0.500000  1
  Rh  Rh6  1  0.149260  0.649260  0.000000  1
  Rh  Rh7  1  0.850740  0.350740  0.000000  1
  Rh  Rh8  1  0.630019  0.869981  0.000000  1
  Rh  Rh9  1  0.369981  0.130019  0.000000  1
