# generated using pymatgen
data_ZrCo2B2Ru
_symmetry_space_group_name_H-M   'P 1'
_cell_length_a   5.85812273
_cell_length_b   5.85812260
_cell_length_c   5.85812342
_cell_angle_alpha   95.14457383
_cell_angle_beta   95.14457086
_cell_angle_gamma   95.14457745
_symmetry_Int_Tables_number   1
_chemical_formula_structural   ZrCo2B2Ru
_chemical_formula_sum   'Zr3 Co6 B6 Ru3'
_cell_volume   198.45049075
_cell_formula_units_Z   3
loop_
 _symmetry_equiv_pos_site_id
 _symmetry_equiv_pos_as_xyz
  1  'x, y, z'
loop_
 _atom_site_type_symbol
 _atom_site_label
 _atom_site_symmetry_multiplicity
 _atom_site_fract_x
 _atom_site_fract_y
 _atom_site_fract_z
 _atom_site_occupancy
  Zr  Zr0  1  0.000000  0.000000  0.000000  1
  Zr  Zr1  1  0.667866  0.667866  0.667866  1
  Zr  Zr2  1  0.332134  0.332134  0.332134  1
  Co  Co3  1  0.691250  0.204585  0.691250  1
  Co  Co4  1  0.691250  0.691250  0.204585  1
  Co  Co5  1  0.204585  0.691250  0.691250  1
  Co  Co6  1  0.308750  0.795415  0.308750  1
  Co  Co7  1  0.308750  0.308750  0.795415  1
  Co  Co8  1  0.795415  0.308750  0.308750  1
  B  B9  1  0.617576  0.382424  0.000000  1
  B  B10  1  0.000000  0.617576  0.382424  1
  B  B11  1  0.382424  0.000000  0.617576  1
  B  B12  1  0.000000  0.382424  0.617576  1
  B  B13  1  0.617576  0.000000  0.382424  1
  B  B14  1  0.382424  0.617576  0.000000  1
  Ru  Ru15  1  0.000000  0.000000  0.500000  1
  Ru  Ru16  1  0.500000  0.000000  0.000000  1
  Ru  Ru17  1  0.000000  0.500000  0.000000  1
