# generated using pymatgen
data_Tb4Ga4CuRu3
_symmetry_space_group_name_H-M   'P 1'
_cell_length_a   4.51345300
_cell_length_b   7.14807428
_cell_length_c   7.19233239
_cell_angle_alpha   88.97515367
_cell_angle_beta   90.00000000
_cell_angle_gamma   90.00000000
_symmetry_Int_Tables_number   1
_chemical_formula_structural   Tb4Ga4CuRu3
_chemical_formula_sum   'Tb4 Ga4 Cu1 Ru3'
_cell_volume   232.00548514
_cell_formula_units_Z   1
loop_
 _symmetry_equiv_pos_site_id
 _symmetry_equiv_pos_as_xyz
  1  'x, y, z'
loop_
 _atom_site_type_symbol
 _atom_site_label
 _atom_site_symmetry_multiplicity
 _atom_site_fract_x
 _atom_site_fract_y
 _atom_site_fract_z
 _atom_site_occupancy
  Tb  Tb0  1  0.250000  0.022719  0.801690  1
  Tb  Tb1  1  0.250000  0.519446  0.692021  1
  Tb  Tb2  1  0.750000  0.987913  0.202062  1
  Tb  Tb3  1  0.750000  0.479227  0.306430  1
  Ga  Ga4  1  0.250000  0.200338  0.399948  1
  Ga  Ga5  1  0.250000  0.691676  0.110071  1
  Ga  Ga6  1  0.750000  0.795153  0.597840  1
  Ga  Ga7  1  0.750000  0.304997  0.894851  1
  Cu  Cu8  1  0.750000  0.668493  0.931853  1
  Ru  Ru9  1  0.250000  0.840015  0.435067  1
  Ru  Ru10  1  0.250000  0.332566  0.061441  1
  Ru  Ru11  1  0.750000  0.157458  0.566726  1
