# generated using pymatgen
data_Tb3Er17Pt16
_symmetry_space_group_name_H-M   'P 1'
_cell_length_a   7.40509414
_cell_length_b   7.51045361
_cell_length_c   14.75565238
_cell_angle_alpha   90.04476161
_cell_angle_beta   90.02042544
_cell_angle_gamma   89.98927105
_symmetry_Int_Tables_number   1
_chemical_formula_structural   Tb3Er17Pt16
_chemical_formula_sum   'Tb3 Er17 Pt16'
_cell_volume   820.64437951
_cell_formula_units_Z   1
loop_
 _symmetry_equiv_pos_site_id
 _symmetry_equiv_pos_as_xyz
  1  'x, y, z'
loop_
 _atom_site_type_symbol
 _atom_site_label
 _atom_site_symmetry_multiplicity
 _atom_site_fract_x
 _atom_site_fract_y
 _atom_site_fract_z
 _atom_site_occupancy
  Tb  Tb0  1  0.017092  0.174199  0.094586  1
  Tb  Tb1  1  0.482844  0.674222  0.905839  1
  Tb  Tb2  1  0.981791  0.826030  0.594628  1
  Er  Er3  1  0.637433  0.168509  0.621318  1
  Er  Er4  1  0.138598  0.331620  0.878157  1
  Er  Er5  1  0.361176  0.831970  0.122301  1
  Er  Er6  1  0.860840  0.667729  0.378719  1
  Er  Er7  1  0.362592  0.831420  0.379232  1
  Er  Er8  1  0.861831  0.669175  0.121328  1
  Er  Er9  1  0.637985  0.168998  0.878790  1
  Er  Er10  1  0.137749  0.331238  0.620777  1
  Er  Er11  1  0.482087  0.673735  0.595411  1
  Er  Er12  1  0.982127  0.824748  0.904213  1
  Er  Er13  1  0.517546  0.324498  0.095892  1
  Er  Er14  1  0.018481  0.175889  0.403987  1
  Er  Er15  1  0.517747  0.325648  0.404868  1
  Er  Er16  1  0.800557  0.510709  0.749690  1
  Er  Er17  1  0.300269  0.989096  0.750021  1
  Er  Er18  1  0.199553  0.489692  0.250349  1
  Er  Er19  1  0.699861  0.010807  0.250605  1
  Pt  Pt20  1  0.697508  0.975907  0.456269  1
  Pt  Pt21  1  0.197271  0.527141  0.042711  1
  Pt  Pt22  1  0.302586  0.027228  0.957656  1
  Pt  Pt23  1  0.801885  0.471111  0.541523  1
  Pt  Pt24  1  0.305364  0.028165  0.542056  1
  Pt  Pt25  1  0.806291  0.471325  0.958239  1
  Pt  Pt26  1  0.693457  0.971589  0.041775  1
  Pt  Pt27  1  0.197177  0.526562  0.457416  1
  Pt  Pt28  1  0.432729  0.383501  0.749307  1
  Pt  Pt29  1  0.932385  0.116674  0.750145  1
  Pt  Pt30  1  0.567008  0.615950  0.250061  1
  Pt  Pt31  1  0.067840  0.884003  0.251005  1
  Pt  Pt32  1  0.661634  0.857696  0.749380  1
  Pt  Pt33  1  0.161954  0.641922  0.749895  1
  Pt  Pt34  1  0.339368  0.143148  0.250934  1
  Pt  Pt35  1  0.837386  0.358148  0.250918  1
