# generated using pymatgen
data_Ce5Tm11(CdRu)4
_symmetry_space_group_name_H-M   'P 1'
_cell_length_a   9.47949123
_cell_length_b   9.55240702
_cell_length_c   9.55240709
_cell_angle_alpha   59.94842842
_cell_angle_beta   60.25218773
_cell_angle_gamma   60.25218695
_symmetry_Int_Tables_number   1
_chemical_formula_structural   Ce5Tm11(CdRu)4
_chemical_formula_sum   'Ce5 Tm11 Cd4 Ru4'
_cell_volume   613.71935070
_cell_formula_units_Z   1
loop_
 _symmetry_equiv_pos_site_id
 _symmetry_equiv_pos_as_xyz
  1  'x, y, z'
loop_
 _atom_site_type_symbol
 _atom_site_label
 _atom_site_symmetry_multiplicity
 _atom_site_fract_x
 _atom_site_fract_y
 _atom_site_fract_z
 _atom_site_occupancy
  Ce  Ce0  1  0.814214  0.185786  0.185786  1
  Ce  Ce1  1  0.347649  0.347951  0.956752  1
  Ce  Ce2  1  0.347649  0.956752  0.347951  1
  Ce  Ce3  1  0.957726  0.349458  0.349458  1
  Ce  Ce4  1  0.343359  0.349458  0.349458  1
  Tm  Tm5  1  0.561687  0.563494  0.936100  1
  Tm  Tm6  1  0.938720  0.563494  0.936100  1
  Tm  Tm7  1  0.564381  0.935619  0.935619  1
  Tm  Tm8  1  0.938720  0.936100  0.563494  1
  Tm  Tm9  1  0.561687  0.936100  0.563494  1
  Tm  Tm10  1  0.934026  0.565974  0.565974  1
  Tm  Tm11  1  0.192196  0.187075  0.808504  1
  Tm  Tm12  1  0.812224  0.187075  0.808504  1
  Tm  Tm13  1  0.186906  0.813094  0.813093  1
  Tm  Tm14  1  0.812224  0.808505  0.187075  1
  Tm  Tm15  1  0.192195  0.808504  0.187074  1
  Cd  Cd16  1  0.581317  0.583691  0.253675  1
  Cd  Cd17  1  0.581317  0.253675  0.583691  1
  Cd  Cd18  1  0.255153  0.581458  0.581458  1
  Cd  Cd19  1  0.581931  0.581458  0.581458  1
  Ru  Ru20  1  0.146349  0.142077  0.565226  1
  Ru  Ru21  1  0.146349  0.565226  0.142077  1
  Ru  Ru22  1  0.581673  0.148990  0.148990  1
  Ru  Ru23  1  0.120347  0.148990  0.148990  1
