# generated using pymatgen
data_TbTa6Sn5Sb
_symmetry_space_group_name_H-M   'P 1'
_cell_length_a   5.78490400
_cell_length_b   5.78490415
_cell_length_c   9.60199900
_cell_angle_alpha   90.00000000
_cell_angle_beta   90.00000000
_cell_angle_gamma   119.99999912
_symmetry_Int_Tables_number   1
_chemical_formula_structural   TbTa6Sn5Sb
_chemical_formula_sum   'Tb1 Ta6 Sn5 Sb1'
_cell_volume   278.28167966
_cell_formula_units_Z   1
loop_
 _symmetry_equiv_pos_site_id
 _symmetry_equiv_pos_as_xyz
  1  'x, y, z'
loop_
 _atom_site_type_symbol
 _atom_site_label
 _atom_site_symmetry_multiplicity
 _atom_site_fract_x
 _atom_site_fract_y
 _atom_site_fract_z
 _atom_site_occupancy
  Tb  Tb0  1  0.000000  0.000000  0.995793  1
  Ta  Ta1  1  0.000000  0.500000  0.751770  1
  Ta  Ta2  1  0.500000  0.500000  0.751770  1
  Ta  Ta3  1  0.500000  0.000000  0.751770  1
  Ta  Ta4  1  0.000000  0.500000  0.250720  1
  Ta  Ta5  1  0.500000  0.500000  0.250720  1
  Ta  Ta6  1  0.500000  0.000000  0.250720  1
  Sn  Sn7  1  0.666667  0.333333  0.500701  1
  Sn  Sn8  1  0.333333  0.666667  0.500701  1
  Sn  Sn9  1  0.666667  0.333333  0.000963  1
  Sn  Sn10  1  0.333333  0.666667  0.000963  1
  Sn  Sn11  1  0.000000  0.000000  0.335007  1
  Sb  Sb12  1  0.000000  0.000000  0.658399  1
