# generated using pymatgen
data_BaUAg(H6Ir)2
_symmetry_space_group_name_H-M   'P 1'
_cell_length_a   5.01618600
_cell_length_b   5.01618556
_cell_length_c   8.51804000
_cell_angle_alpha   90.00000000
_cell_angle_beta   90.00000000
_cell_angle_gamma   120.00000289
_symmetry_Int_Tables_number   1
_chemical_formula_structural   BaUAg(H6Ir)2
_chemical_formula_sum   'Ba1 U1 Ag1 H12 Ir2'
_cell_volume   185.61690193
_cell_formula_units_Z   1
loop_
 _symmetry_equiv_pos_site_id
 _symmetry_equiv_pos_as_xyz
  1  'x, y, z'
loop_
 _atom_site_type_symbol
 _atom_site_label
 _atom_site_symmetry_multiplicity
 _atom_site_fract_x
 _atom_site_fract_y
 _atom_site_fract_z
 _atom_site_occupancy
  Ba  Ba0  1  0.000000  0.000000  0.032835  1
  U  U1  1  0.333333  0.666667  0.614064  1
  Ag  Ag2  1  0.666667  0.333333  0.354055  1
  H  H3  1  0.170597  0.829403  0.375643  1
  H  H4  1  0.658808  0.829403  0.375643  1
  H  H5  1  0.170597  0.341192  0.375643  1
  H  H6  1  0.833411  0.166589  0.628147  1
  H  H7  1  0.333179  0.166589  0.628147  1
  H  H8  1  0.833411  0.666821  0.628147  1
  H  H9  1  0.508620  0.017239  0.848115  1
  H  H10  1  0.508620  0.491380  0.848115  1
  H  H11  1  0.982761  0.491380  0.848115  1
  H  H12  1  0.486415  0.972830  0.147544  1
  H  H13  1  0.486415  0.513585  0.147544  1
  H  H14  1  0.027170  0.513585  0.147544  1
  Ir  Ir15  1  0.666667  0.333333  0.733068  1
  Ir  Ir16  1  0.333333  0.666667  0.267635  1
