# generated using pymatgen
data_Tm3TiGa4Ir
_symmetry_space_group_name_H-M   'P 1'
_cell_length_a   6.91357800
_cell_length_b   7.07316102
_cell_length_c   4.20613500
_cell_angle_alpha   90.00000000
_cell_angle_beta   90.00000000
_cell_angle_gamma   119.25642750
_symmetry_Int_Tables_number   1
_chemical_formula_structural   Tm3TiGa4Ir
_chemical_formula_sum   'Tm3 Ti1 Ga4 Ir1'
_cell_volume   179.44682546
_cell_formula_units_Z   1
loop_
 _symmetry_equiv_pos_site_id
 _symmetry_equiv_pos_as_xyz
  1  'x, y, z'
loop_
 _atom_site_type_symbol
 _atom_site_label
 _atom_site_symmetry_multiplicity
 _atom_site_fract_x
 _atom_site_fract_y
 _atom_site_fract_z
 _atom_site_occupancy
  Tm  Tm0  1  0.591237  0.000000  0.000000  1
  Tm  Tm1  1  0.996521  0.583305  0.000000  1
  Tm  Tm2  1  0.413216  0.416695  0.000000  1
  Ti  Ti3  1  0.219647  0.000000  0.500000  1
  Ga  Ga4  1  0.007322  0.247264  0.500000  1
  Ga  Ga5  1  0.760058  0.752736  0.500000  1
  Ga  Ga6  1  0.336434  0.678297  0.500000  1
  Ga  Ga7  1  0.658138  0.321703  0.500000  1
  Ir  Ir8  1  0.017427  0.000000  0.000000  1
