# generated using pymatgen
data_Dy12Tc3Ir
_symmetry_space_group_name_H-M   'P 1'
_cell_length_a   6.30895107
_cell_length_b   7.42832512
_cell_length_c   9.16819100
_cell_angle_alpha   90.00000000
_cell_angle_beta   90.00000000
_cell_angle_gamma   89.98082294
_symmetry_Int_Tables_number   1
_chemical_formula_structural   Dy12Tc3Ir
_chemical_formula_sum   'Dy12 Tc3 Ir1'
_cell_volume   429.66669484
_cell_formula_units_Z   1
loop_
 _symmetry_equiv_pos_site_id
 _symmetry_equiv_pos_as_xyz
  1  'x, y, z'
loop_
 _atom_site_type_symbol
 _atom_site_label
 _atom_site_symmetry_multiplicity
 _atom_site_fract_x
 _atom_site_fract_y
 _atom_site_fract_z
 _atom_site_occupancy
  Dy  Dy0  1  0.332980  0.675689  0.064934  1
  Dy  Dy1  1  0.163127  0.175416  0.436295  1
  Dy  Dy2  1  0.664740  0.323251  0.561912  1
  Dy  Dy3  1  0.835590  0.825470  0.937792  1
  Dy  Dy4  1  0.664740  0.323251  0.938088  1
  Dy  Dy5  1  0.835590  0.825470  0.562208  1
  Dy  Dy6  1  0.332980  0.675689  0.435066  1
  Dy  Dy7  1  0.163127  0.175416  0.063705  1
  Dy  Dy8  1  0.874272  0.541891  0.250000  1
  Dy  Dy9  1  0.625276  0.039531  0.250000  1
  Dy  Dy10  1  0.131444  0.457240  0.750000  1
  Dy  Dy11  1  0.371020  0.959005  0.750000  1
  Tc  Tc12  1  0.039691  0.884248  0.250000  1
  Tc  Tc13  1  0.462665  0.386689  0.250000  1
  Tc  Tc14  1  0.959531  0.115844  0.750000  1
  Ir  Ir15  1  0.543228  0.615901  0.750000  1
