# generated using pymatgen
data_YUPa(AlIr)3
_symmetry_space_group_name_H-M   'P 1'
_cell_length_a   6.95936960
_cell_length_b   7.08618807
_cell_length_c   4.04012400
_cell_angle_alpha   90.00000000
_cell_angle_beta   90.00000000
_cell_angle_gamma   119.58541478
_symmetry_Int_Tables_number   1
_chemical_formula_structural   YUPa(AlIr)3
_chemical_formula_sum   'Y1 U1 Pa1 Al3 Ir3'
_cell_volume   173.26351050
_cell_formula_units_Z   1
loop_
 _symmetry_equiv_pos_site_id
 _symmetry_equiv_pos_as_xyz
  1  'x, y, z'
loop_
 _atom_site_type_symbol
 _atom_site_label
 _atom_site_symmetry_multiplicity
 _atom_site_fract_x
 _atom_site_fract_y
 _atom_site_fract_z
 _atom_site_occupancy
  Y  Y0  1  0.582384  0.998959  0.500000  1
  U  U1  1  0.998132  0.578995  0.500000  1
  Pa  Pa2  1  0.420630  0.421972  0.500000  1
  Al  Al3  1  0.766316  0.774748  0.000000  1
  Al  Al4  1  0.245856  0.997626  0.000000  1
  Al  Al5  1  0.990751  0.225955  0.000000  1
  Ir  Ir6  1  0.674186  0.365509  0.000000  1
  Ir  Ir7  1  0.303816  0.636406  0.000000  1
  Ir  Ir8  1  0.017929  0.999830  0.500000  1
