# generated using pymatgen
data_Dy2CdSn2Hg(SbO7)2
_symmetry_space_group_name_H-M   'P 1'
_cell_length_a   7.42252300
_cell_length_b   7.42252300
_cell_length_c   10.45478900
_cell_angle_alpha   90.00000000
_cell_angle_beta   90.00000000
_cell_angle_gamma   90.00000000
_symmetry_Int_Tables_number   1
_chemical_formula_structural   Dy2CdSn2Hg(SbO7)2
_chemical_formula_sum   'Dy4 Cd2 Sn4 Hg2 Sb4 O28'
_cell_volume   575.99455275
_cell_formula_units_Z   2
loop_
 _symmetry_equiv_pos_site_id
 _symmetry_equiv_pos_as_xyz
  1  'x, y, z'
loop_
 _atom_site_type_symbol
 _atom_site_label
 _atom_site_symmetry_multiplicity
 _atom_site_fract_x
 _atom_site_fract_y
 _atom_site_fract_z
 _atom_site_occupancy
  Dy  Dy0  1  0.998015  0.740835  0.999241  1
  Dy  Dy1  1  0.997841  0.258898  0.500919  1
  Dy  Dy2  1  0.259165  0.001985  0.250759  1
  Dy  Dy3  1  0.741102  0.002159  0.749081  1
  Cd  Cd4  1  0.501253  0.261703  0.500447  1
  Cd  Cd5  1  0.738297  0.498747  0.749553  1
  Sn  Sn6  1  0.759039  0.000410  0.250658  1
  Sn  Sn7  1  0.999581  0.758659  0.500645  1
  Sn  Sn8  1  0.241341  0.000419  0.749355  1
  Sn  Sn9  1  0.999590  0.240961  0.999342  1
  Hg  Hg10  1  0.501166  0.741677  0.999545  1
  Hg  Hg11  1  0.258323  0.498834  0.250455  1
  Sb  Sb12  1  0.242930  0.499254  0.749221  1
  Sb  Sb13  1  0.500746  0.757070  0.500779  1
  Sb  Sb14  1  0.500729  0.243376  0.999216  1
  Sb  Sb15  1  0.756624  0.499271  0.250784  1
  O  O16  1  0.255805  0.744195  0.125000  1
  O  O17  1  0.544148  0.950954  0.371527  1
  O  O18  1  0.773125  0.743253  0.174850  1
  O  O19  1  0.747198  0.252802  0.625000  1
  O  O20  1  0.972109  0.972105  0.375443  1
  O  O21  1  0.027895  0.027891  0.874557  1
  O  O22  1  0.049046  0.455852  0.878473  1
  O  O23  1  0.027608  0.972392  0.625000  1
  O  O24  1  0.256747  0.226875  0.075150  1
  O  O25  1  0.233433  0.256725  0.668828  1
  O  O26  1  0.256955  0.772904  0.423955  1
  O  O27  1  0.457162  0.951549  0.629069  1
  O  O28  1  0.457470  0.053180  0.867762  1
  O  O29  1  0.444708  0.439781  0.871454  1
  O  O30  1  0.560219  0.555292  0.378546  1
  O  O31  1  0.543801  0.053734  0.131588  1
  O  O32  1  0.559498  0.440502  0.125000  1
  O  O33  1  0.743275  0.766567  0.581172  1
  O  O34  1  0.766566  0.256481  0.330324  1
  O  O35  1  0.745632  0.746008  0.875732  1
  O  O36  1  0.743519  0.233434  0.919676  1
  O  O37  1  0.946820  0.542530  0.382238  1
  O  O38  1  0.971774  0.028226  0.125000  1
  O  O39  1  0.946266  0.456199  0.118412  1
  O  O40  1  0.048451  0.542838  0.620931  1
  O  O41  1  0.227096  0.743045  0.826045  1
  O  O42  1  0.253992  0.254368  0.374268  1
  O  O43  1  0.443944  0.556056  0.625000  1
