# generated using pymatgen
data_Th4Cd2Co3Pd
_symmetry_space_group_name_H-M   'P 1'
_cell_length_a   7.68168174
_cell_length_b   7.68168174
_cell_length_c   3.70350900
_cell_angle_alpha   90.00000000
_cell_angle_beta   90.00000000
_cell_angle_gamma   91.03733301
_symmetry_Int_Tables_number   1
_chemical_formula_structural   Th4Cd2Co3Pd
_chemical_formula_sum   'Th4 Cd2 Co3 Pd1'
_cell_volume   218.50171126
_cell_formula_units_Z   1
loop_
 _symmetry_equiv_pos_site_id
 _symmetry_equiv_pos_as_xyz
  1  'x, y, z'
loop_
 _atom_site_type_symbol
 _atom_site_label
 _atom_site_symmetry_multiplicity
 _atom_site_fract_x
 _atom_site_fract_y
 _atom_site_fract_z
 _atom_site_occupancy
  Th  Th0  1  0.315098  0.834859  0.500000  1
  Th  Th1  1  0.849357  0.650643  0.500000  1
  Th  Th2  1  0.173824  0.326176  0.500000  1
  Th  Th3  1  0.665141  0.184902  0.500000  1
  Cd  Cd4  1  0.996095  0.002321  0.000000  1
  Cd  Cd5  1  0.497679  0.503905  0.000000  1
  Co  Co6  1  0.367864  0.132136  0.000000  1
  Co  Co7  1  0.873248  0.368800  0.000000  1
  Co  Co8  1  0.131200  0.626752  0.000000  1
  Pd  Pd9  1  0.630495  0.869505  0.000000  1
