# generated using pymatgen
data_Co6Re3Si2W
_symmetry_space_group_name_H-M   'P 1'
_cell_length_a   4.72351500
_cell_length_b   4.72351426
_cell_length_c   7.36776600
_cell_angle_alpha   90.00000000
_cell_angle_beta   90.00000000
_cell_angle_gamma   119.99998415
_symmetry_Int_Tables_number   1
_chemical_formula_structural   Co6Re3Si2W
_chemical_formula_sum   'Co6 Re3 Si2 W1'
_cell_volume   142.36297506
_cell_formula_units_Z   1
loop_
 _symmetry_equiv_pos_site_id
 _symmetry_equiv_pos_as_xyz
  1  'x, y, z'
loop_
 _atom_site_type_symbol
 _atom_site_label
 _atom_site_symmetry_multiplicity
 _atom_site_fract_x
 _atom_site_fract_y
 _atom_site_fract_z
 _atom_site_occupancy
  Co  Co0  1  0.828708  0.171292  0.250109  1
  Co  Co1  1  0.828708  0.657416  0.250109  1
  Co  Co2  1  0.342584  0.171292  0.250109  1
  Co  Co3  1  0.170721  0.829279  0.749506  1
  Co  Co4  1  0.170721  0.341441  0.749506  1
  Co  Co5  1  0.658559  0.829279  0.749506  1
  Re  Re6  1  0.333333  0.666667  0.433967  1
  Re  Re7  1  0.666667  0.333333  0.567280  1
  Re  Re8  1  0.666667  0.333333  0.931620  1
  Si  Si9  1  0.000000  0.000000  0.498979  1
  Si  Si10  1  0.000000  0.000000  0.999759  1
  W  W11  1  0.333333  0.666667  0.069549  1
