# generated using pymatgen
data_Tm3MgZn2Si2Pd
_symmetry_space_group_name_H-M   'P 1'
_cell_length_a   6.88979026
_cell_length_b   6.89948498
_cell_length_c   4.25012900
_cell_angle_alpha   90.00000000
_cell_angle_beta   90.00000000
_cell_angle_gamma   120.04655734
_symmetry_Int_Tables_number   1
_chemical_formula_structural   Tm3MgZn2Si2Pd
_chemical_formula_sum   'Tm3 Mg1 Zn2 Si2 Pd1'
_cell_volume   174.88456489
_cell_formula_units_Z   1
loop_
 _symmetry_equiv_pos_site_id
 _symmetry_equiv_pos_as_xyz
  1  'x, y, z'
loop_
 _atom_site_type_symbol
 _atom_site_label
 _atom_site_symmetry_multiplicity
 _atom_site_fract_x
 _atom_site_fract_y
 _atom_site_fract_z
 _atom_site_occupancy
  Tm  Tm0  1  0.421175  0.422154  0.500000  1
  Tm  Tm1  1  0.578825  0.000979  0.500000  1
  Tm  Tm2  1  0.000000  0.588688  0.500000  1
  Mg  Mg3  1  0.000000  0.231121  0.000000  1
  Zn  Zn4  1  0.751353  0.752727  0.000000  1
  Zn  Zn5  1  0.248647  0.001375  0.000000  1
  Si  Si6  1  0.663868  0.336938  0.000000  1
  Si  Si7  1  0.336132  0.673071  0.000000  1
  Pd  Pd8  1  0.000000  0.992946  0.500000  1
