# generated using pymatgen
data_DyY(ZnP)6
_symmetry_space_group_name_H-M   'P 1'
_cell_length_a   4.00720700
_cell_length_b   4.00720756
_cell_length_c   19.90178200
_cell_angle_alpha   90.00000000
_cell_angle_beta   90.00000000
_cell_angle_gamma   119.99998709
_symmetry_Int_Tables_number   1
_chemical_formula_structural   DyY(ZnP)6
_chemical_formula_sum   'Dy1 Y1 Zn6 P6'
_cell_volume   276.76187789
_cell_formula_units_Z   1
loop_
 _symmetry_equiv_pos_site_id
 _symmetry_equiv_pos_as_xyz
  1  'x, y, z'
loop_
 _atom_site_type_symbol
 _atom_site_label
 _atom_site_symmetry_multiplicity
 _atom_site_fract_x
 _atom_site_fract_y
 _atom_site_fract_z
 _atom_site_occupancy
  Dy  Dy0  1  0.000000  0.000000  0.000000  1
  Y  Y1  1  0.000000  0.000000  0.500000  1
  Zn  Zn2  1  0.333333  0.666667  0.749994  1
  Zn  Zn3  1  0.666667  0.333333  0.250006  1
  Zn  Zn4  1  0.333333  0.666667  0.128325  1
  Zn  Zn5  1  0.666667  0.333333  0.871675  1
  Zn  Zn6  1  0.666667  0.333333  0.628363  1
  Zn  Zn7  1  0.333333  0.666667  0.371637  1
  P  P8  1  0.333333  0.666667  0.584045  1
  P  P9  1  0.666667  0.333333  0.415955  1
  P  P10  1  0.666667  0.333333  0.083865  1
  P  P11  1  0.333333  0.666667  0.916135  1
  P  P12  1  0.333333  0.666667  0.249981  1
  P  P13  1  0.666667  0.333333  0.750019  1
