# generated using pymatgen
data_Pr5GeRhO12
_symmetry_space_group_name_H-M   'P 1'
_cell_length_a   7.09156193
_cell_length_b   7.09156276
_cell_length_c   7.64857116
_cell_angle_alpha   74.46767329
_cell_angle_beta   74.46767320
_cell_angle_gamma   50.61697127
_symmetry_Int_Tables_number   1
_chemical_formula_structural   Pr5GeRhO12
_chemical_formula_sum   'Pr5 Ge1 Rh1 O12'
_cell_volume   283.96081960
_cell_formula_units_Z   1
loop_
 _symmetry_equiv_pos_site_id
 _symmetry_equiv_pos_as_xyz
  1  'x, y, z'
loop_
 _atom_site_type_symbol
 _atom_site_label
 _atom_site_symmetry_multiplicity
 _atom_site_fract_x
 _atom_site_fract_y
 _atom_site_fract_z
 _atom_site_occupancy
  Pr  Pr0  1  0.311011  0.302396  0.357285  1
  Pr  Pr1  1  0.697604  0.688989  0.642715  1
  Pr  Pr2  1  0.691814  0.695438  0.165092  1
  Pr  Pr3  1  0.304562  0.308186  0.834908  1
  Pr  Pr4  1  0.999235  0.000765  0.500000  1
  Ge  Ge5  1  0.755816  0.244184  0.000000  1
  Rh  Rh6  1  0.242829  0.757171  0.000000  1
  O  O7  1  0.096080  0.597235  0.577416  1
  O  O8  1  0.991157  0.007145  0.171002  1
  O  O9  1  0.402765  0.903920  0.422584  1
  O  O10  1  0.507145  0.494102  0.170493  1
  O  O11  1  0.100416  0.583414  0.077999  1
  O  O12  1  0.905985  0.404369  0.420955  1
  O  O13  1  0.992855  0.008843  0.828998  1
  O  O14  1  0.595631  0.094014  0.579045  1
  O  O15  1  0.505898  0.492855  0.829507  1
  O  O16  1  0.585409  0.102799  0.076609  1
  O  O17  1  0.416586  0.899584  0.922001  1
  O  O18  1  0.897201  0.414591  0.923391  1
