# generated using pymatgen
data_Sr4GaRuO8
_symmetry_space_group_name_H-M   'P 1'
_cell_length_a   6.86892144
_cell_length_b   6.86892092
_cell_length_c   5.60888200
_cell_angle_alpha   90.00000000
_cell_angle_beta   90.00000000
_cell_angle_gamma   131.79718494
_symmetry_Int_Tables_number   1
_chemical_formula_structural   Sr4GaRuO8
_chemical_formula_sum   'Sr4 Ga1 Ru1 O8'
_cell_volume   197.29047237
_cell_formula_units_Z   1
loop_
 _symmetry_equiv_pos_site_id
 _symmetry_equiv_pos_as_xyz
  1  'x, y, z'
loop_
 _atom_site_type_symbol
 _atom_site_label
 _atom_site_symmetry_multiplicity
 _atom_site_fract_x
 _atom_site_fract_y
 _atom_site_fract_z
 _atom_site_occupancy
  Sr  Sr0  1  0.642724  0.357276  0.000000  1
  Sr  Sr1  1  0.145512  0.854488  0.500000  1
  Sr  Sr2  1  0.854488  0.145512  0.500000  1
  Sr  Sr3  1  0.357276  0.642724  0.000000  1
  Ga  Ga4  1  0.500000  0.500000  0.500000  1
  Ru  Ru5  1  0.000000  0.000000  0.000000  1
  O  O6  1  0.753606  0.753606  0.753990  1
  O  O7  1  0.246394  0.246394  0.246010  1
  O  O8  1  0.246394  0.246394  0.753990  1
  O  O9  1  0.753606  0.753606  0.246010  1
  O  O10  1  0.838851  0.161149  0.000000  1
  O  O11  1  0.342292  0.657708  0.500000  1
  O  O12  1  0.657708  0.342292  0.500000  1
  O  O13  1  0.161149  0.838851  0.000000  1
