# generated using pymatgen
data_Tb6TiCr(Co4P3)4
_symmetry_space_group_name_H-M   'P 1'
_cell_length_a   3.69904200
_cell_length_b   10.57242700
_cell_length_c   12.25975900
_cell_angle_alpha   90.00000000
_cell_angle_beta   90.00000000
_cell_angle_gamma   90.00000000
_symmetry_Int_Tables_number   1
_chemical_formula_structural   Tb6TiCr(Co4P3)4
_chemical_formula_sum   'Tb6 Ti1 Cr1 Co16 P12'
_cell_volume   479.45283458
_cell_formula_units_Z   1
loop_
 _symmetry_equiv_pos_site_id
 _symmetry_equiv_pos_as_xyz
  1  'x, y, z'
loop_
 _atom_site_type_symbol
 _atom_site_label
 _atom_site_symmetry_multiplicity
 _atom_site_fract_x
 _atom_site_fract_y
 _atom_site_fract_z
 _atom_site_occupancy
  Tb  Tb0  1  0.000000  0.500000  0.522447  1
  Tb  Tb1  1  0.500000  0.000000  0.475187  1
  Tb  Tb2  1  0.500000  0.818111  0.204126  1
  Tb  Tb3  1  0.500000  0.181889  0.204126  1
  Tb  Tb4  1  0.000000  0.680160  0.794800  1
  Tb  Tb5  1  0.000000  0.319840  0.794800  1
  Ti  Ti6  1  0.000000  0.000000  0.848248  1
  Cr  Cr7  1  0.500000  0.500000  0.156455  1
  Co  Co8  1  0.500000  0.500000  0.702816  1
  Co  Co9  1  0.000000  0.000000  0.296816  1
  Co  Co10  1  0.000000  0.500000  0.989024  1
  Co  Co11  1  0.500000  0.000000  0.013544  1
  Co  Co12  1  0.500000  0.335176  0.995428  1
  Co  Co13  1  0.500000  0.664824  0.995428  1
  Co  Co14  1  0.000000  0.170418  0.008011  1
  Co  Co15  1  0.000000  0.829582  0.008011  1
  Co  Co16  1  0.500000  0.296653  0.430017  1
  Co  Co17  1  0.500000  0.703347  0.430017  1
  Co  Co18  1  0.000000  0.204635  0.567668  1
  Co  Co19  1  0.000000  0.795365  0.567668  1
  Co  Co20  1  0.500000  0.878378  0.707059  1
  Co  Co21  1  0.500000  0.121622  0.707059  1
  Co  Co22  1  0.000000  0.619719  0.291892  1
  Co  Co23  1  0.000000  0.380281  0.291892  1
  P  P24  1  0.500000  0.500000  0.883423  1
  P  P25  1  0.000000  0.000000  0.116612  1
  P  P26  1  0.500000  0.500000  0.343156  1
  P  P27  1  0.000000  0.000000  0.647955  1
  P  P28  1  0.500000  0.310889  0.614722  1
  P  P29  1  0.500000  0.689111  0.614722  1
  P  P30  1  0.000000  0.189900  0.383359  1
  P  P31  1  0.000000  0.810100  0.383359  1
  P  P32  1  0.500000  0.841835  0.894782  1
  P  P33  1  0.500000  0.158165  0.894782  1
  P  P34  1  0.000000  0.650473  0.110296  1
  P  P35  1  0.000000  0.349527  0.110296  1
