# generated using pymatgen
data_Dy4HoEr5(CoBi2)2
_symmetry_space_group_name_H-M   'P 1'
_cell_length_a   7.93755543
_cell_length_b   8.87539900
_cell_length_c   12.36631000
_cell_angle_alpha   90.00000000
_cell_angle_beta   90.04448957
_cell_angle_gamma   90.00000000
_symmetry_Int_Tables_number   1
_chemical_formula_structural   Dy4HoEr5(CoBi2)2
_chemical_formula_sum   'Dy8 Ho2 Er10 Co4 Bi8'
_cell_volume   871.19355828
_cell_formula_units_Z   2
loop_
 _symmetry_equiv_pos_site_id
 _symmetry_equiv_pos_as_xyz
  1  'x, y, z'
loop_
 _atom_site_type_symbol
 _atom_site_label
 _atom_site_symmetry_multiplicity
 _atom_site_fract_x
 _atom_site_fract_y
 _atom_site_fract_z
 _atom_site_occupancy
  Dy  Dy0  1  0.847200  0.250000  0.799994  1
  Dy  Dy1  1  0.152800  0.750000  0.200006  1
  Dy  Dy2  1  0.884922  0.750000  0.811253  1
  Dy  Dy3  1  0.115078  0.250000  0.188747  1
  Dy  Dy4  1  0.384485  0.250000  0.688785  1
  Dy  Dy5  1  0.615515  0.750000  0.311215  1
  Dy  Dy6  1  0.053345  0.750000  0.497981  1
  Dy  Dy7  1  0.946655  0.250000  0.502019  1
  Ho  Ho8  1  0.553043  0.250000  0.002230  1
  Ho  Ho9  1  0.446957  0.750000  0.997770  1
  Er  Er10  1  0.347668  0.750000  0.699412  1
  Er  Er11  1  0.652332  0.250000  0.300588  1
  Er  Er12  1  0.674371  0.538301  0.563079  1
  Er  Er13  1  0.325629  0.461699  0.436921  1
  Er  Er14  1  0.174690  0.462014  0.937033  1
  Er  Er15  1  0.325629  0.038301  0.436921  1
  Er  Er16  1  0.825310  0.537986  0.062967  1
  Er  Er17  1  0.674371  0.961699  0.563079  1
  Er  Er18  1  0.825310  0.962014  0.062967  1
  Er  Er19  1  0.174690  0.037986  0.937033  1
  Co  Co20  1  0.065462  0.750000  0.992250  1
  Co  Co21  1  0.934538  0.250000  0.007750  1
  Co  Co22  1  0.565287  0.250000  0.507600  1
  Co  Co23  1  0.434713  0.750000  0.492400  1
  Bi  Bi24  1  0.570791  0.509785  0.826732  1
  Bi  Bi25  1  0.429209  0.490215  0.173268  1
  Bi  Bi26  1  0.072055  0.490929  0.673357  1
  Bi  Bi27  1  0.429209  0.009785  0.173268  1
  Bi  Bi28  1  0.927945  0.509071  0.326643  1
  Bi  Bi29  1  0.570791  0.990215  0.826732  1
  Bi  Bi30  1  0.927945  0.990929  0.326643  1
  Bi  Bi31  1  0.072055  0.009071  0.673357  1
