# generated using pymatgen
data_TbSm2RuI3
_symmetry_space_group_name_H-M   'P 1'
_cell_length_a   4.28612900
_cell_length_b   8.99915848
_cell_length_c   12.47321171
_cell_angle_alpha   86.28237543
_cell_angle_beta   90.00000000
_cell_angle_gamma   90.00000000
_symmetry_Int_Tables_number   1
_chemical_formula_structural   TbSm2RuI3
_chemical_formula_sum   'Tb2 Sm4 Ru2 I6'
_cell_volume   480.09876848
_cell_formula_units_Z   2
loop_
 _symmetry_equiv_pos_site_id
 _symmetry_equiv_pos_as_xyz
  1  'x, y, z'
loop_
 _atom_site_type_symbol
 _atom_site_label
 _atom_site_symmetry_multiplicity
 _atom_site_fract_x
 _atom_site_fract_y
 _atom_site_fract_z
 _atom_site_occupancy
  Tb  Tb0  1  0.750000  0.126342  0.122356  1
  Tb  Tb1  1  0.250000  0.873658  0.877644  1
  Sm  Sm2  1  0.750000  0.096572  0.682472  1
  Sm  Sm3  1  0.250000  0.903428  0.317528  1
  Sm  Sm4  1  0.250000  0.268088  0.899187  1
  Sm  Sm5  1  0.750000  0.731912  0.100813  1
  Ru  Ru6  1  0.750000  0.055843  0.906397  1
  Ru  Ru7  1  0.250000  0.944157  0.093603  1
  I  I8  1  0.250000  0.352081  0.638904  1
  I  I9  1  0.750000  0.647919  0.361096  1
  I  I10  1  0.750000  0.146591  0.390327  1
  I  I11  1  0.250000  0.853409  0.609673  1
  I  I12  1  0.250000  0.423612  0.134304  1
  I  I13  1  0.750000  0.576388  0.865696  1
