# generated using pymatgen
data_Li2AlIO6
_symmetry_space_group_name_H-M   'P 1'
_cell_length_a   5.12474478
_cell_length_b   5.12474589
_cell_length_c   5.06671072
_cell_angle_alpha   96.90411875
_cell_angle_beta   96.90412627
_cell_angle_gamma   122.47906036
_symmetry_Int_Tables_number   1
_chemical_formula_structural   Li2AlIO6
_chemical_formula_sum   'Li2 Al1 I1 O6'
_cell_volume   108.69400541
_cell_formula_units_Z   1
loop_
 _symmetry_equiv_pos_site_id
 _symmetry_equiv_pos_as_xyz
  1  'x, y, z'
loop_
 _atom_site_type_symbol
 _atom_site_label
 _atom_site_symmetry_multiplicity
 _atom_site_fract_x
 _atom_site_fract_y
 _atom_site_fract_z
 _atom_site_occupancy
  Li  Li0  1  0.656264  0.343735  0.500001  1
  Li  Li1  1  0.350635  0.649364  0.500001  1
  Al  Al2  1  0.160910  0.839085  0.000000  1
  I  I3  1  0.837648  0.162347  0.000000  1
  O  O4  1  0.551557  0.945816  0.225213  1
  O  O5  1  0.193128  0.197940  0.211423  1
  O  O6  1  0.943683  0.548051  0.227378  1
  O  O7  1  0.451948  0.056315  0.772622  1
  O  O8  1  0.802062  0.806874  0.788580  1
  O  O9  1  0.054186  0.448445  0.774791  1
