# generated using pymatgen
data_CaFe(ClO4)4
_symmetry_space_group_name_H-M   'P 1'
_cell_length_a   5.10400623
_cell_length_b   7.35735225
_cell_length_c   8.96119100
_cell_angle_alpha   90.08825639
_cell_angle_beta   91.17718186
_cell_angle_gamma   98.46534459
_symmetry_Int_Tables_number   1
_chemical_formula_structural   CaFe(ClO4)4
_chemical_formula_sum   'Ca1 Fe1 Cl4 O16'
_cell_volume   332.77034525
_cell_formula_units_Z   1
loop_
 _symmetry_equiv_pos_site_id
 _symmetry_equiv_pos_as_xyz
  1  'x, y, z'
loop_
 _atom_site_type_symbol
 _atom_site_label
 _atom_site_symmetry_multiplicity
 _atom_site_fract_x
 _atom_site_fract_y
 _atom_site_fract_z
 _atom_site_occupancy
  Ca  Ca0  1  0.500000  0.500000  0.500000  1
  Fe  Fe1  1  0.000000  0.000000  0.000000  1
  Cl  Cl2  1  0.564124  0.244298  0.158602  1
  Cl  Cl3  1  0.944773  0.239443  0.677577  1
  Cl  Cl4  1  0.435876  0.755702  0.841398  1
  Cl  Cl5  1  0.055227  0.760557  0.322423  1
  O  O6  1  0.566393  0.279323  0.319527  1
  O  O7  1  0.943184  0.206686  0.839324  1
  O  O8  1  0.433607  0.720677  0.680473  1
  O  O9  1  0.056816  0.793314  0.160676  1
  O  O10  1  0.283907  0.202689  0.108930  1
  O  O11  1  0.220478  0.269208  0.629066  1
  O  O12  1  0.716093  0.797311  0.891070  1
  O  O13  1  0.779522  0.730792  0.370934  1
  O  O14  1  0.689586  0.077571  0.136759  1
  O  O15  1  0.836611  0.412927  0.654438  1
  O  O16  1  0.310414  0.922429  0.863241  1
  O  O17  1  0.163389  0.587073  0.345562  1
  O  O18  1  0.696733  0.398253  0.080354  1
  O  O19  1  0.791890  0.091043  0.597708  1
  O  O20  1  0.303267  0.601747  0.919646  1
  O  O21  1  0.208110  0.908957  0.402292  1
