# generated using pymatgen
data_Dy9Ho11Ni2(Bi4Os)2
_symmetry_space_group_name_H-M   'P 1'
_cell_length_a   7.97620412
_cell_length_b   8.98237900
_cell_length_c   12.39648229
_cell_angle_alpha   90.00000000
_cell_angle_beta   90.64072992
_cell_angle_gamma   90.00000000
_symmetry_Int_Tables_number   1
_chemical_formula_structural   Dy9Ho11Ni2(Bi4Os)2
_chemical_formula_sum   'Dy9 Ho11 Ni2 Bi8 Os2'
_cell_volume   888.09401479
_cell_formula_units_Z   1
loop_
 _symmetry_equiv_pos_site_id
 _symmetry_equiv_pos_as_xyz
  1  'x, y, z'
loop_
 _atom_site_type_symbol
 _atom_site_label
 _atom_site_symmetry_multiplicity
 _atom_site_fract_x
 _atom_site_fract_y
 _atom_site_fract_z
 _atom_site_occupancy
  Dy  Dy0  1  0.835143  0.750000  0.789597  1
  Dy  Dy1  1  0.164852  0.250000  0.210447  1
  Dy  Dy2  1  0.344264  0.250000  0.704616  1
  Dy  Dy3  1  0.655659  0.750000  0.295350  1
  Dy  Dy4  1  0.377947  0.750000  0.696137  1
  Dy  Dy5  1  0.622023  0.250000  0.303882  1
  Dy  Dy6  1  0.880189  0.250000  0.812783  1
  Dy  Dy7  1  0.119846  0.750000  0.187215  1
  Dy  Dy8  1  0.944455  0.750000  0.503619  1
  Ho  Ho9  1  0.055682  0.250000  0.496372  1
  Ho  Ho10  1  0.450032  0.250000  0.999661  1
  Ho  Ho11  1  0.549935  0.750000  0.000324  1
  Ho  Ho12  1  0.675824  0.043124  0.564142  1
  Ho  Ho13  1  0.324192  0.956977  0.435867  1
  Ho  Ho14  1  0.175701  0.959586  0.935287  1
  Ho  Ho15  1  0.324192  0.543023  0.435867  1
  Ho  Ho16  1  0.824293  0.040435  0.064712  1
  Ho  Ho17  1  0.675824  0.456876  0.564142  1
  Ho  Ho18  1  0.824293  0.459565  0.064712  1
  Ho  Ho19  1  0.175701  0.540414  0.935287  1
  Ni  Ni20  1  0.070692  0.250000  0.994620  1
  Ni  Ni21  1  0.929340  0.750000  0.005376  1
  Bi  Bi22  1  0.571195  0.488974  0.829416  1
  Bi  Bi23  1  0.428805  0.511029  0.170585  1
  Bi  Bi24  1  0.067562  0.507528  0.675050  1
  Bi  Bi25  1  0.428805  0.988971  0.170585  1
  Bi  Bi26  1  0.932479  0.492327  0.324951  1
  Bi  Bi27  1  0.571195  0.011026  0.829416  1
  Bi  Bi28  1  0.932479  0.007673  0.324951  1
  Bi  Bi29  1  0.067562  0.992472  0.675050  1
  Os  Os30  1  0.577249  0.750000  0.513715  1
  Os  Os31  1  0.422590  0.250000  0.486265  1
