# generated using pymatgen
data_HoTmMn6P7Ir6
_symmetry_space_group_name_H-M   'P 1'
_cell_length_a   9.40311400
_cell_length_b   9.40311398
_cell_length_c   3.83699000
_cell_angle_alpha   90.00000000
_cell_angle_beta   90.00000000
_cell_angle_gamma   120.00000710
_symmetry_Int_Tables_number   1
_chemical_formula_structural   HoTmMn6P7Ir6
_chemical_formula_sum   'Ho1 Tm1 Mn6 P7 Ir6'
_cell_volume   293.80871236
_cell_formula_units_Z   1
loop_
 _symmetry_equiv_pos_site_id
 _symmetry_equiv_pos_as_xyz
  1  'x, y, z'
loop_
 _atom_site_type_symbol
 _atom_site_label
 _atom_site_symmetry_multiplicity
 _atom_site_fract_x
 _atom_site_fract_y
 _atom_site_fract_z
 _atom_site_occupancy
  Ho  Ho0  1  0.000000  0.000000  0.000000  1
  Tm  Tm1  1  0.666667  0.333333  0.500000  1
  Mn  Mn2  1  0.221595  0.396253  0.000000  1
  Mn  Mn3  1  0.603747  0.825342  0.000000  1
  Mn  Mn4  1  0.174658  0.778405  0.000000  1
  Mn  Mn5  1  0.452341  0.570157  0.500000  1
  Mn  Mn6  1  0.429843  0.882185  0.500000  1
  Mn  Mn7  1  0.117815  0.547659  0.500000  1
  P  P8  1  0.444541  0.367181  0.000000  1
  P  P9  1  0.632819  0.077360  0.000000  1
  P  P10  1  0.922640  0.555459  0.000000  1
  P  P11  1  0.055067  0.269895  0.500000  1
  P  P12  1  0.730105  0.785173  0.500000  1
  P  P13  1  0.214827  0.944933  0.500000  1
  P  P14  1  0.333333  0.666667  0.000000  1
  Ir  Ir15  1  0.694866  0.600630  0.000000  1
  Ir  Ir16  1  0.399370  0.094237  0.000000  1
  Ir  Ir17  1  0.905763  0.305134  0.000000  1
  Ir  Ir18  1  0.277584  0.224228  0.500000  1
  Ir  Ir19  1  0.775772  0.053355  0.500000  1
  Ir  Ir20  1  0.946645  0.722416  0.500000  1
