# generated using pymatgen
data_NdLu3Th6(Ge3C)2
_symmetry_space_group_name_H-M   'P 1'
_cell_length_a   8.80182100
_cell_length_b   8.80177554
_cell_length_c   6.39055101
_cell_angle_alpha   90.00016812
_cell_angle_beta   90.00010107
_cell_angle_gamma   120.00028261
_symmetry_Int_Tables_number   1
_chemical_formula_structural   NdLu3Th6(Ge3C)2
_chemical_formula_sum   'Nd1 Lu3 Th6 Ge6 C2'
_cell_volume   428.75630742
_cell_formula_units_Z   1
loop_
 _symmetry_equiv_pos_site_id
 _symmetry_equiv_pos_as_xyz
  1  'x, y, z'
loop_
 _atom_site_type_symbol
 _atom_site_label
 _atom_site_symmetry_multiplicity
 _atom_site_fract_x
 _atom_site_fract_y
 _atom_site_fract_z
 _atom_site_occupancy
  Nd  Nd0  1  0.666665  0.333336  0.499998  1
  Lu  Lu1  1  0.333337  0.666670  0.500004  1
  Lu  Lu2  1  0.333332  0.666671  0.000004  1
  Lu  Lu3  1  0.666671  0.333338  0.999993  1
  Th  Th4  1  0.768160  0.768473  0.249276  1
  Th  Th5  1  0.231514  0.999676  0.249283  1
  Th  Th6  1  0.000324  0.231835  0.249287  1
  Th  Th7  1  0.231515  0.231840  0.750719  1
  Th  Th8  1  0.768161  0.999682  0.750718  1
  Th  Th9  1  0.000320  0.768485  0.750715  1
  Ge  Ge10  1  0.400191  0.405793  0.245061  1
  Ge  Ge11  1  0.594218  0.994409  0.245079  1
  Ge  Ge12  1  0.005588  0.599790  0.245084  1
  Ge  Ge13  1  0.594215  0.599801  0.754922  1
  Ge  Ge14  1  0.400196  0.994413  0.754929  1
  Ge  Ge15  1  0.005598  0.405793  0.754932  1
  C  C16  1  0.999998  0.999998  0.499998  1
  C  C17  1  0.999998  0.999996  0.999997  1
