# generated using pymatgen
data_Tb2Dy7Er(In2Ni)4
_symmetry_space_group_name_H-M   'P 1'
_cell_length_a   3.60904700
_cell_length_b   8.00396203
_cell_length_c   17.94868304
_cell_angle_alpha   90.00848207
_cell_angle_beta   90.00000000
_cell_angle_gamma   90.00000000
_symmetry_Int_Tables_number   1
_chemical_formula_structural   Tb2Dy7Er(In2Ni)4
_chemical_formula_sum   'Tb2 Dy7 Er1 In8 Ni4'
_cell_volume   518.47777052
_cell_formula_units_Z   1
loop_
 _symmetry_equiv_pos_site_id
 _symmetry_equiv_pos_as_xyz
  1  'x, y, z'
loop_
 _atom_site_type_symbol
 _atom_site_label
 _atom_site_symmetry_multiplicity
 _atom_site_fract_x
 _atom_site_fract_y
 _atom_site_fract_z
 _atom_site_occupancy
  Tb  Tb0  1  0.500000  0.500020  0.999819  1
  Tb  Tb1  1  0.500000  0.999115  0.500291  1
  Dy  Dy2  1  0.500000  0.882266  0.911080  1
  Dy  Dy3  1  0.500000  0.117775  0.088667  1
  Dy  Dy4  1  0.500000  0.756133  0.720494  1
  Dy  Dy5  1  0.500000  0.256092  0.778831  1
  Dy  Dy6  1  0.500000  0.744377  0.221099  1
  Dy  Dy7  1  0.500000  0.244591  0.279316  1
  Dy  Dy8  1  0.500000  0.617351  0.411496  1
  Er  Er9  1  0.500000  0.382428  0.589044  1
  In  In10  1  0.000000  0.795697  0.068598  1
  In  In11  1  0.000000  0.926247  0.347364  1
  In  In12  1  0.000000  0.075893  0.652486  1
  In  In13  1  0.000000  0.573984  0.846981  1
  In  In14  1  0.000000  0.702024  0.568608  1
  In  In15  1  0.000000  0.204060  0.931268  1
  In  In16  1  0.000000  0.295895  0.432367  1
  In  In17  1  0.000000  0.426272  0.152821  1
  Ni  Ni18  1  0.000000  0.977724  0.803846  1
  Ni  Ni19  1  0.000000  0.522282  0.304352  1
  Ni  Ni20  1  0.000000  0.477069  0.695152  1
  Ni  Ni21  1  0.000000  0.022707  0.196020  1
