# generated using pymatgen
data_Ho4Er6Sn7Pb
_symmetry_space_group_name_H-M   'P 1'
_cell_length_a   8.03880800
_cell_length_b   15.38907355
_cell_length_c   8.11774329
_cell_angle_alpha   89.96946433
_cell_angle_beta   90.00000000
_cell_angle_gamma   90.00000000
_symmetry_Int_Tables_number   1
_chemical_formula_structural   Ho4Er6Sn7Pb
_chemical_formula_sum   'Ho8 Er12 Sn14 Pb2'
_cell_volume   1004.24431720
_cell_formula_units_Z   2
loop_
 _symmetry_equiv_pos_site_id
 _symmetry_equiv_pos_as_xyz
  1  'x, y, z'
loop_
 _atom_site_type_symbol
 _atom_site_label
 _atom_site_symmetry_multiplicity
 _atom_site_fract_x
 _atom_site_fract_y
 _atom_site_fract_z
 _atom_site_occupancy
  Ho  Ho0  1  0.471537  0.600152  0.679660  1
  Ho  Ho1  1  0.971537  0.899848  0.820340  1
  Ho  Ho2  1  0.530121  0.099456  0.325015  1
  Ho  Ho3  1  0.030121  0.400544  0.174985  1
  Ho  Ho4  1  0.533657  0.400342  0.320257  1
  Ho  Ho5  1  0.033657  0.099658  0.179743  1
  Ho  Ho6  1  0.467731  0.900053  0.676458  1
  Ho  Ho7  1  0.967731  0.599947  0.823542  1
  Er  Er8  1  0.622371  0.621570  0.162148  1
  Er  Er9  1  0.122371  0.878430  0.337852  1
  Er  Er10  1  0.374797  0.121937  0.838187  1
  Er  Er11  1  0.874797  0.378063  0.661813  1
  Er  Er12  1  0.377780  0.377689  0.840637  1
  Er  Er13  1  0.877780  0.122311  0.659363  1
  Er  Er14  1  0.622006  0.877617  0.163740  1
  Er  Er15  1  0.122006  0.622383  0.336260  1
  Er  Er16  1  0.791635  0.750066  0.495551  1
  Er  Er17  1  0.291635  0.749934  0.004449  1
  Er  Er18  1  0.207795  0.248733  0.504490  1
  Er  Er19  1  0.707795  0.251267  0.995510  1
  Sn  Sn20  1  0.714642  0.458431  0.965250  1
  Sn  Sn21  1  0.214642  0.041569  0.534750  1
  Sn  Sn22  1  0.285558  0.957641  0.034229  1
  Sn  Sn23  1  0.785558  0.542359  0.465771  1
  Sn  Sn24  1  0.285162  0.542050  0.034103  1
  Sn  Sn25  1  0.785162  0.957950  0.465897  1
  Sn  Sn26  1  0.425098  0.749666  0.379883  1
  Sn  Sn27  1  0.925098  0.750334  0.120117  1
  Sn  Sn28  1  0.573696  0.250018  0.621006  1
  Sn  Sn29  1  0.073696  0.249982  0.878994  1
  Sn  Sn30  1  0.659911  0.750777  0.852631  1
  Sn  Sn31  1  0.159911  0.749223  0.647369  1
  Sn  Sn32  1  0.341123  0.249725  0.149210  1
  Sn  Sn33  1  0.841123  0.250275  0.350790  1
  Pb  Pb34  1  0.715379  0.041437  0.965105  1
  Pb  Pb35  1  0.215379  0.458563  0.534895  1
