# generated using pymatgen
data_Tm10In3Bi2Sb
_symmetry_space_group_name_H-M   'P 1'
_cell_length_a   6.49270500
_cell_length_b   8.94751307
_cell_length_c   8.89723844
_cell_angle_alpha   120.01098273
_cell_angle_beta   90.00008720
_cell_angle_gamma   89.99986177
_symmetry_Int_Tables_number   1
_chemical_formula_structural   Tm10In3Bi2Sb
_chemical_formula_sum   'Tm10 In3 Bi2 Sb1'
_cell_volume   447.57497915
_cell_formula_units_Z   1
loop_
 _symmetry_equiv_pos_site_id
 _symmetry_equiv_pos_as_xyz
  1  'x, y, z'
loop_
 _atom_site_type_symbol
 _atom_site_label
 _atom_site_symmetry_multiplicity
 _atom_site_fract_x
 _atom_site_fract_y
 _atom_site_fract_z
 _atom_site_occupancy
  Tm  Tm0  1  0.495827  0.327395  0.663998  1
  Tm  Tm1  1  0.495837  0.674465  0.341718  1
  Tm  Tm2  1  0.004164  0.674459  0.341714  1
  Tm  Tm3  1  0.004172  0.327397  0.664000  1
  Tm  Tm4  1  0.749998  0.231141  0.990990  1
  Tm  Tm5  1  0.749997  0.772576  0.760300  1
  Tm  Tm6  1  0.750000  0.002903  0.238654  1
  Tm  Tm7  1  0.250001  0.764190  0.000911  1
  Tm  Tm8  1  0.249997  0.232628  0.239937  1
  Tm  Tm9  1  0.249997  0.993799  0.760744  1
  In  In10  1  0.750007  0.002413  0.599300  1
  In  In11  1  0.250001  0.602049  0.606028  1
  In  In12  1  0.249997  0.999852  0.397255  1
  Bi  Bi13  1  0.750001  0.607119  0.998868  1
  Bi  Bi14  1  0.749998  0.395163  0.391988  1
  Sb  Sb15  1  0.250003  0.392450  0.003596  1
