# generated using pymatgen
data_NdNb8AlS16
_symmetry_space_group_name_H-M   'P 1'
_cell_length_a   6.65994900
_cell_length_b   6.65994787
_cell_length_c   13.11994800
_cell_angle_alpha   90.00000000
_cell_angle_beta   90.00000000
_cell_angle_gamma   120.00000067
_symmetry_Int_Tables_number   1
_chemical_formula_structural   NdNb8AlS16
_chemical_formula_sum   'Nd1 Nb8 Al1 S16'
_cell_volume   503.96975705
_cell_formula_units_Z   1
loop_
 _symmetry_equiv_pos_site_id
 _symmetry_equiv_pos_as_xyz
  1  'x, y, z'
loop_
 _atom_site_type_symbol
 _atom_site_label
 _atom_site_symmetry_multiplicity
 _atom_site_fract_x
 _atom_site_fract_y
 _atom_site_fract_z
 _atom_site_occupancy
  Nd  Nd0  1  0.000000  0.000000  0.500000  1
  Nb  Nb1  1  0.000000  0.000000  0.232043  1
  Nb  Nb2  1  0.000000  0.000000  0.767957  1
  Nb  Nb3  1  0.505277  0.010556  0.228500  1
  Nb  Nb4  1  0.989444  0.494723  0.228500  1
  Nb  Nb5  1  0.505277  0.494723  0.228500  1
  Nb  Nb6  1  0.494723  0.989444  0.771500  1
  Nb  Nb7  1  0.010556  0.505277  0.771500  1
  Nb  Nb8  1  0.494723  0.505277  0.771500  1
  Al  Al9  1  0.000000  0.000000  0.000000  1
  S  S10  1  0.333333  0.666667  0.892832  1
  S  S11  1  0.666667  0.333333  0.107168  1
  S  S12  1  0.666667  0.333333  0.352542  1
  S  S13  1  0.333333  0.666667  0.647458  1
  S  S14  1  0.170563  0.829437  0.349108  1
  S  S15  1  0.170563  0.341127  0.349108  1
  S  S16  1  0.658873  0.829437  0.349108  1
  S  S17  1  0.829437  0.170563  0.650892  1
  S  S18  1  0.829437  0.658873  0.650892  1
  S  S19  1  0.341127  0.170563  0.650892  1
  S  S20  1  0.832859  0.167141  0.890578  1
  S  S21  1  0.832859  0.665718  0.890578  1
  S  S22  1  0.334282  0.167141  0.890578  1
  S  S23  1  0.167141  0.832859  0.109422  1
  S  S24  1  0.167141  0.334282  0.109422  1
  S  S25  1  0.665718  0.832859  0.109422  1
