# generated using pymatgen
data_Sc3Se4
_symmetry_space_group_name_H-M   'P 1'
_cell_length_a   6.71001058
_cell_length_b   6.72423056
_cell_length_c   8.56867126
_cell_angle_alpha   120.62970849
_cell_angle_beta   50.23225333
_cell_angle_gamma   146.61822336
_symmetry_Int_Tables_number   1
_chemical_formula_structural   Sc3Se4
_chemical_formula_sum   'Sc3 Se4'
_cell_volume   163.22908927
_cell_formula_units_Z   1
loop_
 _symmetry_equiv_pos_site_id
 _symmetry_equiv_pos_as_xyz
  1  'x, y, z'
loop_
 _atom_site_type_symbol
 _atom_site_label
 _atom_site_symmetry_multiplicity
 _atom_site_fract_x
 _atom_site_fract_y
 _atom_site_fract_z
 _atom_site_occupancy
  Sc  Sc0  1  0.919199  0.801616  0.904215  1
  Sc  Sc1  1  0.937026  0.310504  0.391979  1
  Sc  Sc2  1  0.428177  0.556077  0.648053  1
  Se  Se3  1  0.676993  0.688253  0.277859  1
  Se  Se4  1  0.179459  0.933491  0.521554  1
  Se  Se5  1  0.677112  0.178878  0.774635  1
  Se  Se6  1  0.178749  0.423362  0.018306  1
