# generated using pymatgen
data_Dy3Si6(Pd9Pt)2
_symmetry_space_group_name_H-M   'P 1'
_cell_length_a   8.73764690
_cell_length_b   8.73764668
_cell_length_c   8.73764700
_cell_angle_alpha   59.72850775
_cell_angle_beta   59.72850861
_cell_angle_gamma   59.72850322
_symmetry_Int_Tables_number   1
_chemical_formula_structural   Dy3Si6(Pd9Pt)2
_chemical_formula_sum   'Dy3 Si6 Pd18 Pt2'
_cell_volume   468.79435950
_cell_formula_units_Z   1
loop_
 _symmetry_equiv_pos_site_id
 _symmetry_equiv_pos_as_xyz
  1  'x, y, z'
loop_
 _atom_site_type_symbol
 _atom_site_label
 _atom_site_symmetry_multiplicity
 _atom_site_fract_x
 _atom_site_fract_y
 _atom_site_fract_z
 _atom_site_occupancy
  Dy  Dy0  1  0.250698  0.250698  0.250698  1
  Dy  Dy1  1  0.749302  0.749302  0.749302  1
  Dy  Dy2  1  0.000000  0.000000  0.000000  1
  Si  Si3  1  0.730814  0.267800  0.267800  1
  Si  Si4  1  0.269186  0.732200  0.732200  1
  Si  Si5  1  0.267800  0.730814  0.267800  1
  Si  Si6  1  0.732200  0.269186  0.732200  1
  Si  Si7  1  0.267800  0.267800  0.730814  1
  Si  Si8  1  0.732200  0.732200  0.269186  1
  Pd  Pd9  1  0.381993  0.381993  0.850370  1
  Pd  Pd10  1  0.381993  0.850370  0.381993  1
  Pd  Pd11  1  0.618007  0.618007  0.149630  1
  Pd  Pd12  1  0.618007  0.149630  0.618007  1
  Pd  Pd13  1  0.850370  0.381993  0.381993  1
  Pd  Pd14  1  0.149630  0.618007  0.618007  1
  Pd  Pd15  1  0.345138  0.000141  0.000141  1
  Pd  Pd16  1  0.654862  0.999859  0.999859  1
  Pd  Pd17  1  0.000000  0.345090  0.654910  1
  Pd  Pd18  1  0.000000  0.654910  0.345090  1
  Pd  Pd19  1  0.000141  0.345138  0.000141  1
  Pd  Pd20  1  0.654910  0.000000  0.345090  1
  Pd  Pd21  1  0.999859  0.654862  0.999859  1
  Pd  Pd22  1  0.345090  0.000000  0.654910  1
  Pd  Pd23  1  0.000141  0.000141  0.345138  1
  Pd  Pd24  1  0.999859  0.999859  0.654862  1
  Pd  Pd25  1  0.654910  0.345090  0.000000  1
  Pd  Pd26  1  0.345090  0.654910  0.000000  1
  Pt  Pt27  1  0.384663  0.384663  0.384663  1
  Pt  Pt28  1  0.615337  0.615337  0.615337  1
