# generated using pymatgen
data_Ti4Ga3Pt2
_symmetry_space_group_name_H-M   'P 1'
_cell_length_a   7.60123600
_cell_length_b   7.60123645
_cell_length_c   2.81449500
_cell_angle_alpha   90.00000000
_cell_angle_beta   90.00000000
_cell_angle_gamma   119.99999803
_symmetry_Int_Tables_number   1
_chemical_formula_structural   Ti4Ga3Pt2
_chemical_formula_sum   'Ti4 Ga3 Pt2'
_cell_volume   140.83142730
_cell_formula_units_Z   1
loop_
 _symmetry_equiv_pos_site_id
 _symmetry_equiv_pos_as_xyz
  1  'x, y, z'
loop_
 _atom_site_type_symbol
 _atom_site_label
 _atom_site_symmetry_multiplicity
 _atom_site_fract_x
 _atom_site_fract_y
 _atom_site_fract_z
 _atom_site_occupancy
  Ti  Ti0  1  0.362093  0.000000  0.000000  1
  Ti  Ti1  1  0.000000  0.362093  0.000000  1
  Ti  Ti2  1  0.637907  0.637907  0.000000  1
  Ti  Ti3  1  0.000000  0.000000  0.000000  1
  Ga  Ga4  1  0.306481  0.306481  0.500000  1
  Ga  Ga5  1  0.000000  0.693519  0.500000  1
  Ga  Ga6  1  0.693519  0.000000  0.500000  1
  Pt  Pt7  1  0.333333  0.666667  0.500000  1
  Pt  Pt8  1  0.666667  0.333333  0.500000  1
