# generated using pymatgen
data_Gd5SnRu2
_symmetry_space_group_name_H-M   'P 1'
_cell_length_a   8.85264242
_cell_length_b   8.85264103
_cell_length_c   8.85264200
_cell_angle_alpha   127.79183294
_cell_angle_beta   127.79183418
_cell_angle_gamma   76.96249870
_symmetry_Int_Tables_number   1
_chemical_formula_structural   Gd5SnRu2
_chemical_formula_sum   'Gd10 Sn2 Ru4'
_cell_volume   420.57907355
_cell_formula_units_Z   2
loop_
 _symmetry_equiv_pos_site_id
 _symmetry_equiv_pos_as_xyz
  1  'x, y, z'
loop_
 _atom_site_type_symbol
 _atom_site_label
 _atom_site_symmetry_multiplicity
 _atom_site_fract_x
 _atom_site_fract_y
 _atom_site_fract_z
 _atom_site_occupancy
  Gd  Gd0  1  0.000000  0.000000  0.000000  1
  Gd  Gd1  1  0.500000  0.500000  0.000000  1
  Gd  Gd2  1  0.791878  0.291878  0.818262  1
  Gd  Gd3  1  0.208122  0.708122  0.181738  1
  Gd  Gd4  1  0.473616  0.973616  0.181738  1
  Gd  Gd5  1  0.291878  0.473616  0.500000  1
  Gd  Gd6  1  0.026384  0.208122  0.500000  1
  Gd  Gd7  1  0.526384  0.026384  0.818262  1
  Gd  Gd8  1  0.708122  0.526384  0.500000  1
  Gd  Gd9  1  0.973616  0.791878  0.500000  1
  Sn  Sn10  1  0.250000  0.250000  0.000000  1
  Sn  Sn11  1  0.750000  0.750000  0.000000  1
  Ru  Ru12  1  0.140578  0.640578  0.781154  1
  Ru  Ru13  1  0.859422  0.359422  0.218846  1
  Ru  Ru14  1  0.640578  0.859422  0.500000  1
  Ru  Ru15  1  0.359422  0.140578  0.500000  1
