# generated using pymatgen
data_Tb20Ir5Ru6Pt
_symmetry_space_group_name_H-M   'P 1'
_cell_length_a   10.92151669
_cell_length_b   10.91508824
_cell_length_c   6.43881550
_cell_angle_alpha   90.02198596
_cell_angle_beta   89.89923388
_cell_angle_gamma   90.09860552
_symmetry_Int_Tables_number   1
_chemical_formula_structural   Tb20Ir5Ru6Pt
_chemical_formula_sum   'Tb20 Ir5 Ru6 Pt1'
_cell_volume   767.56442775
_cell_formula_units_Z   1
loop_
 _symmetry_equiv_pos_site_id
 _symmetry_equiv_pos_as_xyz
  1  'x, y, z'
loop_
 _atom_site_type_symbol
 _atom_site_label
 _atom_site_symmetry_multiplicity
 _atom_site_fract_x
 _atom_site_fract_y
 _atom_site_fract_z
 _atom_site_occupancy
  Tb  Tb0  1  0.295129  0.085298  0.375610  1
  Tb  Tb1  1  0.294360  0.910609  0.881211  1
  Tb  Tb2  1  0.708232  0.086812  0.878942  1
  Tb  Tb3  1  0.707088  0.912979  0.378784  1
  Tb  Tb4  1  0.587808  0.793516  0.880391  1
  Tb  Tb5  1  0.587779  0.206585  0.380838  1
  Tb  Tb6  1  0.413188  0.793402  0.379505  1
  Tb  Tb7  1  0.416428  0.206545  0.879175  1
  Tb  Tb8  1  0.206464  0.416586  0.620132  1
  Tb  Tb9  1  0.206472  0.586903  0.119527  1
  Tb  Tb10  1  0.793253  0.412298  0.120431  1
  Tb  Tb11  1  0.793401  0.587905  0.620578  1
  Tb  Tb12  1  0.912884  0.706591  0.120128  1
  Tb  Tb13  1  0.910385  0.294132  0.618862  1
  Tb  Tb14  1  0.086285  0.708230  0.620997  1
  Tb  Tb15  1  0.084938  0.294431  0.125410  1
  Tb  Tb16  1  0.996898  0.999596  0.498372  1
  Tb  Tb17  1  0.997225  0.997516  0.000987  1
  Tb  Tb18  1  0.499982  0.500446  0.000586  1
  Tb  Tb19  1  0.500069  0.499658  0.499996  1
  Ir  Ir20  1  0.153427  0.847423  0.250360  1
  Ir  Ir21  1  0.652070  0.348288  0.749552  1
  Ir  Ir22  1  0.652421  0.652005  0.249751  1
  Ir  Ir23  1  0.346683  0.346101  0.250315  1
  Ir  Ir24  1  0.347704  0.652778  0.750530  1
  Ru  Ru25  1  0.848393  0.152291  0.249313  1
  Ru  Ru26  1  0.847744  0.847580  0.749463  1
  Ru  Ru27  1  0.499646  0.000248  0.122623  1
  Ru  Ru28  1  0.499733  0.000088  0.623102  1
  Ru  Ru29  1  0.999862  0.500060  0.876886  1
  Ru  Ru30  1  0.999813  0.499128  0.377355  1
  Pt  Pt31  1  0.154230  0.153971  0.750290  1
