# generated using pymatgen
data_Rb6Na4ThSnP6
_symmetry_space_group_name_H-M   'P 1'
_cell_length_a   10.92381787
_cell_length_b   10.92381830
_cell_length_c   15.82635700
_cell_angle_alpha   90.00000000
_cell_angle_beta   90.00000000
_cell_angle_gamma   142.74565274
_symmetry_Int_Tables_number   1
_chemical_formula_structural   Rb6Na4ThSnP6
_chemical_formula_sum   'Rb12 Na8 Th2 Sn2 P12'
_cell_volume   1143.24567456
_cell_formula_units_Z   2
loop_
 _symmetry_equiv_pos_site_id
 _symmetry_equiv_pos_as_xyz
  1  'x, y, z'
loop_
 _atom_site_type_symbol
 _atom_site_label
 _atom_site_symmetry_multiplicity
 _atom_site_fract_x
 _atom_site_fract_y
 _atom_site_fract_z
 _atom_site_occupancy
  Rb  Rb0  1  0.937604  0.601238  0.824501  1
  Rb  Rb1  1  0.562396  0.898762  0.324501  1
  Rb  Rb2  1  0.398762  0.062396  0.175499  1
  Rb  Rb3  1  0.044742  0.388537  0.178627  1
  Rb  Rb4  1  0.888537  0.544742  0.321373  1
  Rb  Rb5  1  0.455258  0.111463  0.678627  1
  Rb  Rb6  1  0.611463  0.955258  0.821373  1
  Rb  Rb7  1  0.276237  0.282253  0.316103  1
  Rb  Rb8  1  0.782253  0.776237  0.183897  1
  Rb  Rb9  1  0.223763  0.217747  0.816103  1
  Rb  Rb10  1  0.717747  0.723763  0.683897  1
  Rb  Rb11  1  0.101238  0.437604  0.675499  1
  Na  Na12  1  0.918736  0.081264  0.000000  1
  Na  Na13  1  0.581264  0.418736  0.500000  1
  Na  Na14  1  0.082481  0.917519  0.000000  1
  Na  Na15  1  0.417519  0.582481  0.500000  1
  Na  Na16  1  0.752957  0.247043  0.000000  1
  Na  Na17  1  0.747043  0.252957  0.500000  1
  Na  Na18  1  0.242835  0.757165  0.000000  1
  Na  Na19  1  0.257165  0.742835  0.500000  1
  Th  Th20  1  0.416399  0.583601  0.000000  1
  Th  Th21  1  0.083601  0.916399  0.500000  1
  Sn  Sn22  1  0.588034  0.411966  0.000000  1
  Sn  Sn23  1  0.911966  0.088034  0.500000  1
  P  P24  1  0.873072  0.561192  0.097169  1
  P  P25  1  0.438808  0.126928  0.902831  1
  P  P26  1  0.626928  0.938808  0.597169  1
  P  P27  1  0.932116  0.611396  0.600243  1
  P  P28  1  0.111396  0.432116  0.899757  1
  P  P29  1  0.567884  0.888604  0.100243  1
  P  P30  1  0.388604  0.067884  0.399757  1
  P  P31  1  0.207972  0.219513  0.592596  1
  P  P32  1  0.719513  0.707972  0.907404  1
  P  P33  1  0.292028  0.280487  0.092596  1
  P  P34  1  0.061192  0.373072  0.402831  1
  P  P35  1  0.780487  0.792028  0.407404  1
