# generated using pymatgen
data_Tm8Si16RuW11
_symmetry_space_group_name_H-M   'P 1'
_cell_length_a   6.74152965
_cell_length_b   6.88632051
_cell_length_c   12.83430936
_cell_angle_alpha   89.82116673
_cell_angle_beta   90.02244599
_cell_angle_gamma   89.93919321
_symmetry_Int_Tables_number   1
_chemical_formula_structural   Tm8Si16RuW11
_chemical_formula_sum   'Tm8 Si16 Ru1 W11'
_cell_volume   595.82097877
_cell_formula_units_Z   1
loop_
 _symmetry_equiv_pos_site_id
 _symmetry_equiv_pos_as_xyz
  1  'x, y, z'
loop_
 _atom_site_type_symbol
 _atom_site_label
 _atom_site_symmetry_multiplicity
 _atom_site_fract_x
 _atom_site_fract_y
 _atom_site_fract_z
 _atom_site_occupancy
  Tm  Tm0  1  0.997108  0.166782  0.092763  1
  Tm  Tm1  1  0.002755  0.830370  0.906190  1
  Tm  Tm2  1  0.504936  0.667570  0.906870  1
  Tm  Tm3  1  0.004156  0.831693  0.593195  1
  Tm  Tm4  1  0.500439  0.329560  0.094356  1
  Tm  Tm5  1  0.995226  0.167971  0.407259  1
  Tm  Tm6  1  0.494853  0.333793  0.405323  1
  Tm  Tm7  1  0.503354  0.668563  0.593156  1
  Si  Si8  1  0.032515  0.128372  0.750485  1
  Si  Si9  1  0.970600  0.870302  0.244956  1
  Si  Si10  1  0.464006  0.633217  0.247565  1
  Si  Si11  1  0.533322  0.369842  0.751317  1
  Si  Si12  1  0.301576  0.864133  0.750022  1
  Si  Si13  1  0.699051  0.136974  0.252025  1
  Si  Si14  1  0.196791  0.366868  0.249241  1
  Si  Si15  1  0.799430  0.636063  0.750007  1
  Si  Si16  1  0.161616  0.459383  0.544962  1
  Si  Si17  1  0.835453  0.542726  0.454093  1
  Si  Si18  1  0.339870  0.958620  0.453938  1
  Si  Si19  1  0.838652  0.543625  0.048103  1
  Si  Si20  1  0.662336  0.042474  0.546139  1
  Si  Si21  1  0.163052  0.457611  0.954539  1
  Si  Si22  1  0.661039  0.041623  0.955086  1
  Si  Si23  1  0.340402  0.950144  0.049935  1
  Ru  Ru24  1  0.170380  0.650359  0.119739  1
  W  W25  1  0.163014  0.498805  0.750333  1
  W  W26  1  0.832664  0.500050  0.250579  1
  W  W27  1  0.334354  0.004415  0.250221  1
  W  W28  1  0.664410  0.997887  0.751419  1
  W  W29  1  0.330270  0.163484  0.624964  1
  W  W30  1  0.672138  0.838764  0.375399  1
  W  W31  1  0.165487  0.666166  0.370222  1
  W  W32  1  0.674677  0.842959  0.126929  1
  W  W33  1  0.830428  0.339001  0.624772  1
  W  W34  1  0.327223  0.159031  0.877467  1
  W  W35  1  0.832417  0.340801  0.876433  1
