# generated using pymatgen
data_PrNd7(LuBi)12
_symmetry_space_group_name_H-M   'P 1'
_cell_length_a   8.28353287
_cell_length_b   9.45799800
_cell_length_c   12.22558600
_cell_angle_alpha   90.00000000
_cell_angle_beta   90.02623553
_cell_angle_gamma   90.00000000
_symmetry_Int_Tables_number   1
_chemical_formula_structural   PrNd7(LuBi)12
_chemical_formula_sum   'Pr1 Nd7 Lu12 Bi12'
_cell_volume   957.82122615
_cell_formula_units_Z   1
loop_
 _symmetry_equiv_pos_site_id
 _symmetry_equiv_pos_as_xyz
  1  'x, y, z'
loop_
 _atom_site_type_symbol
 _atom_site_label
 _atom_site_symmetry_multiplicity
 _atom_site_fract_x
 _atom_site_fract_y
 _atom_site_fract_z
 _atom_site_occupancy
  Pr  Pr0  1  0.684891  0.250000  0.720627  1
  Nd  Nd1  1  0.352654  0.250000  0.284253  1
  Nd  Nd2  1  0.647355  0.750000  0.716121  1
  Nd  Nd3  1  0.147573  0.750000  0.783601  1
  Nd  Nd4  1  0.851982  0.250000  0.215995  1
  Nd  Nd5  1  0.185096  0.250000  0.780194  1
  Nd  Nd6  1  0.815441  0.750000  0.220218  1
  Nd  Nd7  1  0.315539  0.750000  0.279241  1
  Lu  Lu8  1  0.023581  0.250000  0.511544  1
  Lu  Lu9  1  0.976079  0.750000  0.489550  1
  Lu  Lu10  1  0.476945  0.750000  0.010274  1
  Lu  Lu11  1  0.522877  0.250000  0.988999  1
  Lu  Lu12  1  0.190619  0.067288  0.057334  1
  Lu  Lu13  1  0.809498  0.932986  0.942410  1
  Lu  Lu14  1  0.308770  0.933341  0.557474  1
  Lu  Lu15  1  0.809498  0.567014  0.942410  1
  Lu  Lu16  1  0.691060  0.066859  0.442398  1
  Lu  Lu17  1  0.190619  0.432712  0.057334  1
  Lu  Lu18  1  0.691060  0.433141  0.442398  1
  Lu  Lu19  1  0.308770  0.566659  0.557474  1
  Bi  Bi20  1  0.401946  0.250000  0.543020  1
  Bi  Bi21  1  0.596595  0.750000  0.456782  1
  Bi  Bi22  1  0.097525  0.750000  0.043075  1
  Bi  Bi23  1  0.902886  0.250000  0.957038  1
  Bi  Bi24  1  0.064607  0.004429  0.333846  1
  Bi  Bi25  1  0.935895  0.994583  0.666967  1
  Bi  Bi26  1  0.435512  0.994983  0.832918  1
  Bi  Bi27  1  0.935895  0.505417  0.666967  1
  Bi  Bi28  1  0.564560  0.004389  0.166384  1
  Bi  Bi29  1  0.064607  0.495571  0.333846  1
  Bi  Bi30  1  0.564560  0.495611  0.166384  1
  Bi  Bi31  1  0.435512  0.505017  0.832918  1
