# generated using pymatgen
data_Ho6Er2Zn(Si4Pd)3
_symmetry_space_group_name_H-M   'P 1'
_cell_length_a   8.12258900
_cell_length_b   8.12018354
_cell_length_c   8.06143600
_cell_angle_alpha   89.99737598
_cell_angle_beta   90.00157897
_cell_angle_gamma   120.01125561
_symmetry_Int_Tables_number   1
_chemical_formula_structural   Ho6Er2Zn(Si4Pd)3
_chemical_formula_sum   'Ho6 Er2 Zn1 Si12 Pd3'
_cell_volume   460.41991237
_cell_formula_units_Z   1
loop_
 _symmetry_equiv_pos_site_id
 _symmetry_equiv_pos_as_xyz
  1  'x, y, z'
loop_
 _atom_site_type_symbol
 _atom_site_label
 _atom_site_symmetry_multiplicity
 _atom_site_fract_x
 _atom_site_fract_y
 _atom_site_fract_z
 _atom_site_occupancy
  Ho  Ho0  1  0.996328  0.498141  0.251081  1
  Ho  Ho1  1  0.003840  0.501914  0.749101  1
  Ho  Ho2  1  0.501816  0.498140  0.251083  1
  Ho  Ho3  1  0.498075  0.501921  0.749097  1
  Ho  Ho4  1  0.999980  0.999964  0.250055  1
  Ho  Ho5  1  0.999979  0.999960  0.748479  1
  Er  Er6  1  0.501992  0.003972  0.251371  1
  Er  Er7  1  0.498262  0.996511  0.748806  1
  Zn  Zn8  1  0.333477  0.666956  0.011615  1
  Si  Si9  1  0.165423  0.330822  0.997685  1
  Si  Si10  1  0.833060  0.666125  0.000967  1
  Si  Si11  1  0.669119  0.834649  0.997678  1
  Si  Si12  1  0.834203  0.668432  0.501547  1
  Si  Si13  1  0.333815  0.166757  0.000980  1
  Si  Si14  1  0.165818  0.331611  0.498078  1
  Si  Si15  1  0.165531  0.834654  0.997678  1
  Si  Si16  1  0.331505  0.165653  0.501532  1
  Si  Si17  1  0.832935  0.166765  0.000980  1
  Si  Si18  1  0.668362  0.834273  0.498093  1
  Si  Si19  1  0.834145  0.165649  0.501529  1
  Si  Si20  1  0.165914  0.834280  0.498096  1
  Pd  Pd21  1  0.666427  0.332873  0.994280  1
  Pd  Pd22  1  0.666448  0.332902  0.504633  1
  Pd  Pd23  1  0.333546  0.667079  0.495558  1
