# generated using pymatgen
data_Li2NdSmSi4
_symmetry_space_group_name_H-M   'P 1'
_cell_length_a   3.85758500
_cell_length_b   7.69636100
_cell_length_c   10.43869600
_cell_angle_alpha   90.00000000
_cell_angle_beta   90.00000000
_cell_angle_gamma   90.00000000
_symmetry_Int_Tables_number   1
_chemical_formula_structural   Li2NdSmSi4
_chemical_formula_sum   'Li4 Nd2 Sm2 Si8'
_cell_volume   309.91827392
_cell_formula_units_Z   2
loop_
 _symmetry_equiv_pos_site_id
 _symmetry_equiv_pos_as_xyz
  1  'x, y, z'
loop_
 _atom_site_type_symbol
 _atom_site_label
 _atom_site_symmetry_multiplicity
 _atom_site_fract_x
 _atom_site_fract_y
 _atom_site_fract_z
 _atom_site_occupancy
  Li  Li0  1  0.250000  0.993114  0.390934  1
  Li  Li1  1  0.250000  0.493114  0.109066  1
  Li  Li2  1  0.750000  0.006195  0.609041  1
  Li  Li3  1  0.750000  0.506195  0.890959  1
  Nd  Nd4  1  0.250000  0.139132  0.865345  1
  Nd  Nd5  1  0.250000  0.639132  0.634655  1
  Sm  Sm6  1  0.750000  0.862512  0.135622  1
  Sm  Sm7  1  0.750000  0.362512  0.364378  1
  Si  Si8  1  0.250000  0.228963  0.568890  1
  Si  Si9  1  0.250000  0.728963  0.931110  1
  Si  Si10  1  0.750000  0.771968  0.426916  1
  Si  Si11  1  0.750000  0.271968  0.073084  1
  Si  Si12  1  0.250000  0.661435  0.320032  1
  Si  Si13  1  0.250000  0.161435  0.179968  1
  Si  Si14  1  0.750000  0.336682  0.677269  1
  Si  Si15  1  0.750000  0.836682  0.822731  1
