# generated using pymatgen
data_Ti16Ir5Pd3O4
_symmetry_space_group_name_H-M   'P 1'
_cell_length_a   8.26316068
_cell_length_b   8.26316024
_cell_length_c   8.26316097
_cell_angle_alpha   60.13541562
_cell_angle_beta   60.13541729
_cell_angle_gamma   60.13542349
_symmetry_Int_Tables_number   1
_chemical_formula_structural   Ti16Ir5Pd3O4
_chemical_formula_sum   'Ti16 Ir5 Pd3 O4'
_cell_volume   400.17855538
_cell_formula_units_Z   1
loop_
 _symmetry_equiv_pos_site_id
 _symmetry_equiv_pos_as_xyz
  1  'x, y, z'
loop_
 _atom_site_type_symbol
 _atom_site_label
 _atom_site_symmetry_multiplicity
 _atom_site_fract_x
 _atom_site_fract_y
 _atom_site_fract_z
 _atom_site_occupancy
  Ti  Ti0  1  0.123001  0.624305  0.624305  1
  Ti  Ti1  1  0.624305  0.123001  0.624305  1
  Ti  Ti2  1  0.624305  0.624305  0.123001  1
  Ti  Ti3  1  0.628243  0.628243  0.628243  1
  Ti  Ti4  1  0.820018  0.820018  0.179889  1
  Ti  Ti5  1  0.181368  0.181368  0.818011  1
  Ti  Ti6  1  0.820018  0.179889  0.820018  1
  Ti  Ti7  1  0.181368  0.818011  0.181368  1
  Ti  Ti8  1  0.179889  0.820018  0.820018  1
  Ti  Ti9  1  0.818011  0.181368  0.181368  1
  Ti  Ti10  1  0.433229  0.433229  0.069478  1
  Ti  Ti11  1  0.065957  0.065957  0.434015  1
  Ti  Ti12  1  0.433229  0.069478  0.433229  1
  Ti  Ti13  1  0.065957  0.434015  0.065957  1
  Ti  Ti14  1  0.069478  0.433229  0.433229  1
  Ti  Ti15  1  0.434015  0.065957  0.065957  1
  Ir  Ir16  1  0.405386  0.405386  0.405386  1
  Ir  Ir17  1  0.472759  0.843855  0.843855  1
  Ir  Ir18  1  0.843855  0.472759  0.843855  1
  Ir  Ir19  1  0.843855  0.843855  0.472759  1
  Ir  Ir20  1  0.842082  0.842082  0.842082  1
  Pd  Pd21  1  0.769507  0.410870  0.410870  1
  Pd  Pd22  1  0.410870  0.769507  0.410870  1
  Pd  Pd23  1  0.410870  0.410870  0.769507  1
  O  O24  1  0.623112  0.124824  0.124824  1
  O  O25  1  0.124824  0.623112  0.124824  1
  O  O26  1  0.124824  0.124824  0.623112  1
  O  O27  1  0.125665  0.125665  0.125665  1
