# generated using pymatgen
data_YTmAg2(Ir2O7)2
_symmetry_space_group_name_H-M   'P 1'
_cell_length_a   7.22493285
_cell_length_b   7.16899061
_cell_length_c   7.21313024
_cell_angle_alpha   60.20221408
_cell_angle_beta   61.11294567
_cell_angle_gamma   60.25580468
_symmetry_Int_Tables_number   1
_chemical_formula_structural   YTmAg2(Ir2O7)2
_chemical_formula_sum   'Y1 Tm1 Ag2 Ir4 O14'
_cell_volume   267.26426370
_cell_formula_units_Z   1
loop_
 _symmetry_equiv_pos_site_id
 _symmetry_equiv_pos_as_xyz
  1  'x, y, z'
loop_
 _atom_site_type_symbol
 _atom_site_label
 _atom_site_symmetry_multiplicity
 _atom_site_fract_x
 _atom_site_fract_y
 _atom_site_fract_z
 _atom_site_occupancy
  Y  Y0  1  0.125000  0.125000  0.625000  1
  Tm  Tm1  1  0.625000  0.125000  0.125000  1
  Ag  Ag2  1  0.125000  0.625000  0.125000  1
  Ag  Ag3  1  0.125000  0.125000  0.125000  1
  Ir  Ir4  1  0.125000  0.625000  0.625000  1
  Ir  Ir5  1  0.625000  0.125000  0.625000  1
  Ir  Ir6  1  0.625000  0.625000  0.125000  1
  Ir  Ir7  1  0.625000  0.625000  0.625000  1
  O  O8  1  0.689807  0.718124  0.298339  1
  O  O9  1  0.299045  0.293749  0.694148  1
  O  O10  1  0.709041  0.287503  0.715952  1
  O  O11  1  0.306668  0.693723  0.305886  1
  O  O12  1  0.299045  0.713058  0.694148  1
  O  O13  1  0.689807  0.293729  0.298339  1
  O  O14  1  0.560193  0.531876  0.951661  1
  O  O15  1  0.950955  0.956251  0.555852  1
  O  O16  1  0.540959  0.962497  0.534048  1
  O  O17  1  0.943332  0.556277  0.944114  1
  O  O18  1  0.950955  0.536942  0.555852  1
  O  O19  1  0.560193  0.956271  0.951661  1
  O  O20  1  0.250986  0.252787  0.243439  1
  O  O21  1  0.999014  0.997213  0.006561  1
