# generated using pymatgen
data_Ta6AlZn5Rh12
_symmetry_space_group_name_H-M   'P 1'
_cell_length_a   4.09892500
_cell_length_b   7.15633600
_cell_length_c   12.28373700
_cell_angle_alpha   90.00000000
_cell_angle_beta   90.00002331
_cell_angle_gamma   90.00000000
_symmetry_Int_Tables_number   1
_chemical_formula_structural   Ta6AlZn5Rh12
_chemical_formula_sum   'Ta6 Al1 Zn5 Rh12'
_cell_volume   360.32235262
_cell_formula_units_Z   1
loop_
 _symmetry_equiv_pos_site_id
 _symmetry_equiv_pos_as_xyz
  1  'x, y, z'
loop_
 _atom_site_type_symbol
 _atom_site_label
 _atom_site_symmetry_multiplicity
 _atom_site_fract_x
 _atom_site_fract_y
 _atom_site_fract_z
 _atom_site_occupancy
  Ta  Ta0  1  0.000001  0.500000  0.000005  1
  Ta  Ta1  1  0.500000  0.000000  0.171074  1
  Ta  Ta2  1  0.000002  0.500000  0.332190  1
  Ta  Ta3  1  0.500000  0.000000  0.500011  1
  Ta  Ta4  1  0.999998  0.500000  0.667798  1
  Ta  Ta5  1  0.500001  0.000000  0.828905  1
  Al  Al6  1  0.000000  0.000000  0.999959  1
  Zn  Zn7  1  0.500001  0.500000  0.164174  1
  Zn  Zn8  1  0.000001  0.000000  0.334912  1
  Zn  Zn9  1  0.500000  0.500000  0.500010  1
  Zn  Zn10  1  0.000000  0.000000  0.665083  1
  Zn  Zn11  1  0.500001  0.500000  0.835841  1
  Rh  Rh12  1  0.499998  0.241347  0.000027  1
  Rh  Rh13  1  0.499998  0.758654  0.000027  1
  Rh  Rh14  1  0.000000  0.247302  0.165654  1
  Rh  Rh15  1  0.000000  0.752697  0.165654  1
  Rh  Rh16  1  0.500000  0.252346  0.333346  1
  Rh  Rh17  1  0.500000  0.747654  0.333346  1
  Rh  Rh18  1  0.000001  0.251714  0.499978  1
  Rh  Rh19  1  0.000001  0.748286  0.499978  1
  Rh  Rh20  1  0.500001  0.252348  0.666621  1
  Rh  Rh21  1  0.500001  0.747652  0.666621  1
  Rh  Rh22  1  0.999999  0.247346  0.834392  1
  Rh  Rh23  1  0.999999  0.752653  0.834392  1
