# generated using pymatgen
data_Er6Mn2Fe13(CoP4)3
_symmetry_space_group_name_H-M   'P 1'
_cell_length_a   3.70832000
_cell_length_b   10.49619937
_cell_length_c   12.14701965
_cell_angle_alpha   89.94091880
_cell_angle_beta   90.00000000
_cell_angle_gamma   90.00000000
_symmetry_Int_Tables_number   1
_chemical_formula_structural   Er6Mn2Fe13(CoP4)3
_chemical_formula_sum   'Er6 Mn2 Fe13 Co3 P12'
_cell_volume   472.80142592
_cell_formula_units_Z   1
loop_
 _symmetry_equiv_pos_site_id
 _symmetry_equiv_pos_as_xyz
  1  'x, y, z'
loop_
 _atom_site_type_symbol
 _atom_site_label
 _atom_site_symmetry_multiplicity
 _atom_site_fract_x
 _atom_site_fract_y
 _atom_site_fract_z
 _atom_site_occupancy
  Er  Er0  1  0.750000  0.250589  0.474184  1
  Er  Er1  1  0.250000  0.750065  0.526385  1
  Er  Er2  1  0.250000  0.928624  0.792842  1
  Er  Er3  1  0.250000  0.571238  0.793322  1
  Er  Er4  1  0.750000  0.071308  0.207070  1
  Er  Er5  1  0.750000  0.428675  0.206266  1
  Mn  Mn6  1  0.250000  0.250249  0.846982  1
  Mn  Mn7  1  0.750000  0.750215  0.151442  1
  Fe  Fe8  1  0.750000  0.248943  0.010645  1
  Fe  Fe9  1  0.250000  0.750834  0.989016  1
  Fe  Fe10  1  0.250000  0.421850  0.002757  1
  Fe  Fe11  1  0.250000  0.077208  0.002331  1
  Fe  Fe12  1  0.750000  0.578865  0.997354  1
  Fe  Fe13  1  0.750000  0.923759  0.996930  1
  Fe  Fe14  1  0.250000  0.451009  0.570872  1
  Fe  Fe15  1  0.250000  0.047884  0.569615  1
  Fe  Fe16  1  0.750000  0.548479  0.430124  1
  Fe  Fe17  1  0.750000  0.950985  0.429866  1
  Fe  Fe18  1  0.250000  0.867781  0.292278  1
  Fe  Fe19  1  0.250000  0.631768  0.291881  1
  Fe  Fe20  1  0.750000  0.131815  0.706931  1
  Co  Co21  1  0.250000  0.249736  0.299627  1
  Co  Co22  1  0.750000  0.749522  0.700583  1
  Co  Co23  1  0.750000  0.369591  0.709907  1
  P  P24  1  0.250000  0.249930  0.114761  1
  P  P25  1  0.750000  0.750403  0.885292  1
  P  P26  1  0.250000  0.248167  0.655575  1
  P  P27  1  0.750000  0.749712  0.344743  1
  P  P28  1  0.250000  0.442738  0.385386  1
  P  P29  1  0.250000  0.056762  0.385248  1
  P  P30  1  0.750000  0.557200  0.614433  1
  P  P31  1  0.750000  0.942820  0.614676  1
  P  P32  1  0.250000  0.902149  0.111578  1
  P  P33  1  0.250000  0.597436  0.110455  1
  P  P34  1  0.750000  0.099048  0.887466  1
  P  P35  1  0.750000  0.402645  0.891177  1
