# generated using pymatgen
data_ErTmFe(Co2B)3
_symmetry_space_group_name_H-M   'P 1'
_cell_length_a   5.04019200
_cell_length_b   5.04019173
_cell_length_c   12.62367600
_cell_angle_alpha   90.00000000
_cell_angle_beta   90.00000000
_cell_angle_gamma   120.00000177
_symmetry_Int_Tables_number   1
_chemical_formula_structural   ErTmFe(Co2B)3
_chemical_formula_sum   'Er2 Tm2 Fe2 Co12 B6'
_cell_volume   277.72220288
_cell_formula_units_Z   2
loop_
 _symmetry_equiv_pos_site_id
 _symmetry_equiv_pos_as_xyz
  1  'x, y, z'
loop_
 _atom_site_type_symbol
 _atom_site_label
 _atom_site_symmetry_multiplicity
 _atom_site_fract_x
 _atom_site_fract_y
 _atom_site_fract_z
 _atom_site_occupancy
  Er  Er0  1  0.000000  0.000000  0.999978  1
  Er  Er1  1  0.000000  0.000000  0.260575  1
  Tm  Tm2  1  0.000000  0.000000  0.500008  1
  Tm  Tm3  1  0.000000  0.000000  0.739424  1
  Fe  Fe4  1  0.666667  0.333333  0.000000  1
  Fe  Fe5  1  0.333333  0.666667  0.000000  1
  Co  Co6  1  0.500000  0.500000  0.844834  1
  Co  Co7  1  0.500000  0.000000  0.844834  1
  Co  Co8  1  0.000000  0.500000  0.844834  1
  Co  Co9  1  0.500000  0.500000  0.155154  1
  Co  Co10  1  0.500000  0.000000  0.155154  1
  Co  Co11  1  0.000000  0.500000  0.155154  1
  Co  Co12  1  0.500000  0.500000  0.615413  1
  Co  Co13  1  0.500000  0.000000  0.615413  1
  Co  Co14  1  0.000000  0.500000  0.615413  1
  Co  Co15  1  0.500000  0.500000  0.384604  1
  Co  Co16  1  0.500000  0.000000  0.384604  1
  Co  Co17  1  0.000000  0.500000  0.384604  1
  B  B18  1  0.666667  0.333333  0.500001  1
  B  B19  1  0.333333  0.666667  0.500001  1
  B  B20  1  0.666667  0.333333  0.731931  1
  B  B21  1  0.333333  0.666667  0.731931  1
  B  B22  1  0.333333  0.666667  0.268068  1
  B  B23  1  0.666667  0.333333  0.268068  1
