# generated using pymatgen
data_Nd3In3Ni2Ag
_symmetry_space_group_name_H-M   'P 1'
_cell_length_a   7.66256600
_cell_length_b   7.66256616
_cell_length_c   4.04392900
_cell_angle_alpha   90.00000000
_cell_angle_beta   90.00000000
_cell_angle_gamma   119.99999931
_symmetry_Int_Tables_number   1
_chemical_formula_structural   Nd3In3Ni2Ag
_chemical_formula_sum   'Nd3 In3 Ni2 Ag1'
_cell_volume   205.62817561
_cell_formula_units_Z   1
loop_
 _symmetry_equiv_pos_site_id
 _symmetry_equiv_pos_as_xyz
  1  'x, y, z'
loop_
 _atom_site_type_symbol
 _atom_site_label
 _atom_site_symmetry_multiplicity
 _atom_site_fract_x
 _atom_site_fract_y
 _atom_site_fract_z
 _atom_site_occupancy
  Nd  Nd0  1  0.398629  0.418932  0.500000  1
  Nd  Nd1  1  0.581068  0.979697  0.500000  1
  Nd  Nd2  1  0.020303  0.601371  0.500000  1
  In  In3  1  0.756804  0.758142  0.000000  1
  In  In4  1  0.241858  0.998662  0.000000  1
  In  In5  1  0.001338  0.243196  0.000000  1
  Ni  Ni6  1  0.000000  0.000000  0.500000  1
  Ni  Ni7  1  0.333333  0.666667  0.000000  1
  Ag  Ag8  1  0.666667  0.333333  0.000000  1
