# generated using pymatgen
data_PrNd5Ho10(CdPt)4
_symmetry_space_group_name_H-M   'P 1'
_cell_length_a   9.77116688
_cell_length_b   9.77482649
_cell_length_c   9.77482530
_cell_angle_alpha   60.02147718
_cell_angle_beta   60.01238286
_cell_angle_gamma   60.01238424
_symmetry_Int_Tables_number   1
_chemical_formula_structural   PrNd5Ho10(CdPt)4
_chemical_formula_sum   'Pr1 Nd5 Ho10 Cd4 Pt4'
_cell_volume   660.39112452
_cell_formula_units_Z   1
loop_
 _symmetry_equiv_pos_site_id
 _symmetry_equiv_pos_as_xyz
  1  'x, y, z'
loop_
 _atom_site_type_symbol
 _atom_site_label
 _atom_site_symmetry_multiplicity
 _atom_site_fract_x
 _atom_site_fract_y
 _atom_site_fract_z
 _atom_site_occupancy
  Pr  Pr0  1  0.938372  0.561628  0.561628  1
  Nd  Nd1  1  0.561435  0.938565  0.938565  1
  Nd  Nd2  1  0.561405  0.938754  0.561370  1
  Nd  Nd3  1  0.938471  0.561370  0.938754  1
  Nd  Nd4  1  0.561405  0.561370  0.938754  1
  Nd  Nd5  1  0.938471  0.938754  0.561370  1
  Ho  Ho6  1  0.350832  0.350552  0.350552  1
  Ho  Ho7  1  0.350733  0.350688  0.947845  1
  Ho  Ho8  1  0.350733  0.947845  0.350688  1
  Ho  Ho9  1  0.948063  0.350552  0.350552  1
  Ho  Ho10  1  0.812044  0.187956  0.187956  1
  Ho  Ho11  1  0.187943  0.812057  0.812057  1
  Ho  Ho12  1  0.188079  0.812236  0.187773  1
  Ho  Ho13  1  0.811911  0.187773  0.812236  1
  Ho  Ho14  1  0.188079  0.187773  0.812236  1
  Ho  Ho15  1  0.811911  0.812236  0.187773  1
  Cd  Cd16  1  0.579586  0.579815  0.579815  1
  Cd  Cd17  1  0.579824  0.579820  0.260534  1
  Cd  Cd18  1  0.579824  0.260534  0.579820  1
  Cd  Cd19  1  0.260785  0.579815  0.579815  1
  Pt  Pt20  1  0.142846  0.142850  0.142850  1
  Pt  Pt21  1  0.142897  0.142669  0.571538  1
  Pt  Pt22  1  0.142897  0.571538  0.142669  1
  Pt  Pt23  1  0.571455  0.142850  0.142850  1
