# generated using pymatgen
data_DyTa2B2Ru5
_symmetry_space_group_name_H-M   'P 1'
_cell_length_a   9.55615506
_cell_length_b   9.55615506
_cell_length_c   3.09061500
_cell_angle_alpha   90.00000000
_cell_angle_beta   90.00000000
_cell_angle_gamma   90.64219013
_symmetry_Int_Tables_number   1
_chemical_formula_structural   DyTa2B2Ru5
_chemical_formula_sum   'Dy2 Ta4 B4 Ru10'
_cell_volume   282.21754164
_cell_formula_units_Z   2
loop_
 _symmetry_equiv_pos_site_id
 _symmetry_equiv_pos_as_xyz
  1  'x, y, z'
loop_
 _atom_site_type_symbol
 _atom_site_label
 _atom_site_symmetry_multiplicity
 _atom_site_fract_x
 _atom_site_fract_y
 _atom_site_fract_z
 _atom_site_occupancy
  Dy  Dy0  1  0.823889  0.676111  0.000000  1
  Dy  Dy1  1  0.176111  0.323889  0.000000  1
  Ta  Ta2  1  0.324109  0.824109  0.000000  1
  Ta  Ta3  1  0.675891  0.175891  0.000000  1
  Ta  Ta4  1  0.500000  0.500000  0.000000  1
  Ta  Ta5  1  0.000000  0.000000  0.000000  1
  B  B6  1  0.620288  0.879712  0.000000  1
  B  B7  1  0.379712  0.120288  0.000000  1
  B  B8  1  0.121321  0.621321  0.000000  1
  B  B9  1  0.878679  0.378679  0.000000  1
  Ru  Ru10  1  0.559146  0.723263  0.500000  1
  Ru  Ru11  1  0.440854  0.276737  0.500000  1
  Ru  Ru12  1  0.082402  0.785647  0.500000  1
  Ru  Ru13  1  0.917598  0.214353  0.500000  1
  Ru  Ru14  1  0.285647  0.582402  0.500000  1
  Ru  Ru15  1  0.714353  0.417598  0.500000  1
  Ru  Ru16  1  0.223263  0.059146  0.500000  1
  Ru  Ru17  1  0.776737  0.940854  0.500000  1
  Ru  Ru18  1  0.500000  0.000000  0.500000  1
  Ru  Ru19  1  0.000000  0.500000  0.500000  1
