# generated using pymatgen
data_Dy5Ga4P8Ir19
_symmetry_space_group_name_H-M   'P 1'
_cell_length_a   12.91484965
_cell_length_b   12.89363774
_cell_length_c   3.96484100
_cell_angle_alpha   90.00000000
_cell_angle_beta   90.00000000
_cell_angle_gamma   120.04916966
_symmetry_Int_Tables_number   1
_chemical_formula_structural   Dy5Ga4P8Ir19
_chemical_formula_sum   'Dy5 Ga4 P8 Ir19'
_cell_volume   571.48631408
_cell_formula_units_Z   1
loop_
 _symmetry_equiv_pos_site_id
 _symmetry_equiv_pos_as_xyz
  1  'x, y, z'
loop_
 _atom_site_type_symbol
 _atom_site_label
 _atom_site_symmetry_multiplicity
 _atom_site_fract_x
 _atom_site_fract_y
 _atom_site_fract_z
 _atom_site_occupancy
  Dy  Dy0  1  0.335992  0.669531  0.500000  1
  Dy  Dy1  1  0.665526  0.331353  0.500000  1
  Dy  Dy2  1  0.181450  0.182051  0.000000  1
  Dy  Dy3  1  0.818184  0.999522  0.000000  1
  Dy  Dy4  1  0.002026  0.816487  0.000000  1
  Ga  Ga5  1  0.317902  0.834388  0.000000  1
  Ga  Ga6  1  0.357744  0.358970  0.500000  1
  Ga  Ga7  1  0.640589  0.000760  0.500000  1
  Ga  Ga8  1  0.997005  0.637631  0.500000  1
  P  P9  1  0.173641  0.484648  0.000000  1
  P  P10  1  0.521566  0.690355  0.000000  1
  P  P11  1  0.822138  0.304653  0.000000  1
  P  P12  1  0.481886  0.175686  0.000000  1
  P  P13  1  0.692843  0.514738  0.000000  1
  P  P14  1  0.822847  0.818829  0.500000  1
  P  P15  1  0.178573  0.001087  0.500000  1
  P  P16  1  0.000112  0.180229  0.500000  1
  Ir  Ir17  1  0.190713  0.825231  0.500000  1
  Ir  Ir18  1  0.174603  0.381828  0.500000  1
  Ir  Ir19  1  0.626803  0.796017  0.500000  1
  Ir  Ir20  1  0.825366  0.205413  0.500000  1
  Ir  Ir21  1  0.385002  0.178440  0.500000  1
  Ir  Ir22  1  0.790696  0.614594  0.500000  1
  Ir  Ir23  1  0.128473  0.633282  0.000000  1
  Ir  Ir24  1  0.362886  0.497490  0.000000  1
  Ir  Ir25  1  0.521832  0.870754  0.000000  1
  Ir  Ir26  1  0.632244  0.131116  0.000000  1
  Ir  Ir27  1  0.497398  0.367035  0.000000  1
  Ir  Ir28  1  0.866740  0.499844  0.000000  1
  Ir  Ir29  1  0.547896  0.551526  0.500000  1
  Ir  Ir30  1  0.442840  0.992630  0.500000  1
  Ir  Ir31  1  0.998581  0.446927  0.500000  1
  Ir  Ir32  1  0.718704  0.714962  0.000000  1
  Ir  Ir33  1  0.280334  0.008205  0.000000  1
  Ir  Ir34  1  0.000025  0.283051  0.000000  1
  Ir  Ir35  1  0.998837  0.000739  0.500000  1
