# generated using pymatgen
data_Ho8Si12PtRh3
_symmetry_space_group_name_H-M   'P 1'
_cell_length_a   8.15997000
_cell_length_b   8.15997023
_cell_length_c   7.86797600
_cell_angle_alpha   90.00000000
_cell_angle_beta   90.00000000
_cell_angle_gamma   120.00000718
_symmetry_Int_Tables_number   1
_chemical_formula_structural   Ho8Si12PtRh3
_chemical_formula_sum   'Ho8 Si12 Pt1 Rh3'
_cell_volume   453.70207244
_cell_formula_units_Z   1
loop_
 _symmetry_equiv_pos_site_id
 _symmetry_equiv_pos_as_xyz
  1  'x, y, z'
loop_
 _atom_site_type_symbol
 _atom_site_label
 _atom_site_symmetry_multiplicity
 _atom_site_fract_x
 _atom_site_fract_y
 _atom_site_fract_z
 _atom_site_occupancy
  Ho  Ho0  1  0.000000  0.000000  0.249220  1
  Ho  Ho1  1  0.000000  0.000000  0.751600  1
  Ho  Ho2  1  0.510395  0.489605  0.247355  1
  Ho  Ho3  1  0.510395  0.020790  0.247355  1
  Ho  Ho4  1  0.979210  0.489605  0.247355  1
  Ho  Ho5  1  0.491544  0.508456  0.752180  1
  Ho  Ho6  1  0.491544  0.983087  0.752180  1
  Ho  Ho7  1  0.016913  0.508456  0.752180  1
  Si  Si8  1  0.164336  0.835664  0.500104  1
  Si  Si9  1  0.164336  0.328671  0.500104  1
  Si  Si10  1  0.671329  0.835664  0.500104  1
  Si  Si11  1  0.832090  0.167910  0.499748  1
  Si  Si12  1  0.832090  0.664182  0.499748  1
  Si  Si13  1  0.335818  0.167910  0.499748  1
  Si  Si14  1  0.833353  0.166647  0.999408  1
  Si  Si15  1  0.833353  0.666707  0.999408  1
  Si  Si16  1  0.333293  0.166647  0.999408  1
  Si  Si17  1  0.166875  0.833125  0.000563  1
  Si  Si18  1  0.166875  0.333749  0.000563  1
  Si  Si19  1  0.666251  0.833125  0.000563  1
  Pt  Pt20  1  0.333333  0.666667  0.466087  1
  Rh  Rh21  1  0.666667  0.333333  0.536811  1
  Rh  Rh22  1  0.666667  0.333333  0.963591  1
  Rh  Rh23  1  0.333333  0.666667  0.034618  1
