# generated using pymatgen
data_Sr2TbDy(BO4)2
_symmetry_space_group_name_H-M   'P 1'
_cell_length_a   3.68803800
_cell_length_b   9.76208975
_cell_length_c   10.99537197
_cell_angle_alpha   89.93138786
_cell_angle_beta   90.00000000
_cell_angle_gamma   90.00000000
_symmetry_Int_Tables_number   1
_chemical_formula_structural   Sr2TbDy(BO4)2
_chemical_formula_sum   'Sr4 Tb2 Dy2 B4 O16'
_cell_volume   395.86563095
_cell_formula_units_Z   2
loop_
 _symmetry_equiv_pos_site_id
 _symmetry_equiv_pos_as_xyz
  1  'x, y, z'
loop_
 _atom_site_type_symbol
 _atom_site_label
 _atom_site_symmetry_multiplicity
 _atom_site_fract_x
 _atom_site_fract_y
 _atom_site_fract_z
 _atom_site_occupancy
  Sr  Sr0  1  0.250000  0.659555  0.083562  1
  Sr  Sr1  1  0.750000  0.340445  0.916438  1
  Sr  Sr2  1  0.750000  0.159810  0.416665  1
  Sr  Sr3  1  0.250000  0.840190  0.583335  1
  Tb  Tb4  1  0.250000  0.081973  0.111055  1
  Tb  Tb5  1  0.750000  0.918027  0.888945  1
  Dy  Dy6  1  0.750000  0.581607  0.389445  1
  Dy  Dy7  1  0.250000  0.418393  0.610555  1
  B  B8  1  0.250000  0.363577  0.204541  1
  B  B9  1  0.750000  0.636423  0.795459  1
  B  B10  1  0.750000  0.863183  0.295690  1
  B  B11  1  0.250000  0.136817  0.704310  1
  O  O12  1  0.250000  0.490134  0.262316  1
  O  O13  1  0.750000  0.509866  0.737684  1
  O  O14  1  0.750000  0.989909  0.237979  1
  O  O15  1  0.250000  0.010091  0.762021  1
  O  O16  1  0.250000  0.241578  0.270921  1
  O  O17  1  0.750000  0.758422  0.729079  1
  O  O18  1  0.750000  0.741051  0.229728  1
  O  O19  1  0.250000  0.258949  0.770272  1
  O  O20  1  0.250000  0.356566  0.077225  1
  O  O21  1  0.750000  0.643434  0.922775  1
  O  O22  1  0.750000  0.856321  0.422996  1
  O  O23  1  0.250000  0.143679  0.577004  1
  O  O24  1  0.250000  0.612371  0.499845  1
  O  O25  1  0.750000  0.387629  0.500155  1
  O  O26  1  0.750000  0.113083  0.999633  1
  O  O27  1  0.250000  0.886917  0.000367  1
