# generated using pymatgen
data_TbLu6Cd(Co3Sn11)2
_symmetry_space_group_name_H-M   'P 1'
_cell_length_a   9.62015500
_cell_length_b   9.62015248
_cell_length_c   9.98046300
_cell_angle_alpha   90.00000000
_cell_angle_beta   90.00000000
_cell_angle_gamma   120.00000522
_symmetry_Int_Tables_number   1
_chemical_formula_structural   TbLu6Cd(Co3Sn11)2
_chemical_formula_sum   'Tb1 Lu6 Cd1 Co6 Sn22'
_cell_volume   799.91773022
_cell_formula_units_Z   1
loop_
 _symmetry_equiv_pos_site_id
 _symmetry_equiv_pos_as_xyz
  1  'x, y, z'
loop_
 _atom_site_type_symbol
 _atom_site_label
 _atom_site_symmetry_multiplicity
 _atom_site_fract_x
 _atom_site_fract_y
 _atom_site_fract_z
 _atom_site_occupancy
  Tb  Tb0  1  0.000000  0.000000  0.000000  1
  Lu  Lu1  1  0.481930  0.518070  0.305868  1
  Lu  Lu2  1  0.518070  0.481930  0.694132  1
  Lu  Lu3  1  0.481930  0.963861  0.305868  1
  Lu  Lu4  1  0.518070  0.036139  0.694132  1
  Lu  Lu5  1  0.036139  0.518070  0.305868  1
  Lu  Lu6  1  0.963861  0.481930  0.694132  1
  Cd  Cd7  1  0.000000  0.000000  0.500000  1
  Co  Co8  1  0.830172  0.169828  0.198598  1
  Co  Co9  1  0.169828  0.830172  0.801402  1
  Co  Co10  1  0.830172  0.660344  0.198598  1
  Co  Co11  1  0.169828  0.339656  0.801402  1
  Co  Co12  1  0.339656  0.169828  0.198598  1
  Co  Co13  1  0.660344  0.830172  0.801402  1
  Sn  Sn14  1  0.346677  0.000000  0.000000  1
  Sn  Sn15  1  0.653323  0.000000  0.000000  1
  Sn  Sn16  1  0.000000  0.346677  0.000000  1
  Sn  Sn17  1  0.000000  0.653323  0.000000  1
  Sn  Sn18  1  0.653323  0.653323  0.000000  1
  Sn  Sn19  1  0.346677  0.346677  0.000000  1
  Sn  Sn20  1  0.333333  0.666667  0.820135  1
  Sn  Sn21  1  0.666667  0.333333  0.179865  1
  Sn  Sn22  1  0.782606  0.217394  0.456241  1
  Sn  Sn23  1  0.217394  0.782606  0.543759  1
  Sn  Sn24  1  0.782606  0.565212  0.456241  1
  Sn  Sn25  1  0.217394  0.434788  0.543759  1
  Sn  Sn26  1  0.434788  0.217394  0.456241  1
  Sn  Sn27  1  0.565212  0.782606  0.543759  1
  Sn  Sn28  1  0.333333  0.666667  0.126526  1
  Sn  Sn29  1  0.666667  0.333333  0.873474  1
  Sn  Sn30  1  0.117662  0.882338  0.270138  1
  Sn  Sn31  1  0.882338  0.117662  0.729862  1
  Sn  Sn32  1  0.117662  0.235325  0.270138  1
  Sn  Sn33  1  0.882338  0.764675  0.729862  1
  Sn  Sn34  1  0.764675  0.882338  0.270138  1
  Sn  Sn35  1  0.235325  0.117662  0.729862  1
