# generated using pymatgen
data_Hf10CuSi(Sn2Sb)2
_symmetry_space_group_name_H-M   'P 1'
_cell_length_a   8.60487622
_cell_length_b   8.60487706
_cell_length_c   5.77124949
_cell_angle_alpha   90.02359234
_cell_angle_beta   90.02359178
_cell_angle_gamma   120.02532317
_symmetry_Int_Tables_number   1
_chemical_formula_structural   Hf10CuSi(Sn2Sb)2
_chemical_formula_sum   'Hf10 Cu1 Si1 Sn4 Sb2'
_cell_volume   369.98043105
_cell_formula_units_Z   1
loop_
 _symmetry_equiv_pos_site_id
 _symmetry_equiv_pos_as_xyz
  1  'x, y, z'
loop_
 _atom_site_type_symbol
 _atom_site_label
 _atom_site_symmetry_multiplicity
 _atom_site_fract_x
 _atom_site_fract_y
 _atom_site_fract_z
 _atom_site_occupancy
  Hf  Hf0  1  0.666887  0.332291  0.999196  1
  Hf  Hf1  1  0.332291  0.666887  0.999196  1
  Hf  Hf2  1  0.332700  0.666825  0.501160  1
  Hf  Hf3  1  0.666825  0.332700  0.501160  1
  Hf  Hf4  1  0.735661  0.735661  0.746539  1
  Hf  Hf5  1  0.265630  0.000616  0.747942  1
  Hf  Hf6  1  0.000616  0.265630  0.747942  1
  Hf  Hf7  1  0.259338  0.259338  0.253108  1
  Hf  Hf8  1  0.739554  0.999897  0.253205  1
  Hf  Hf9  1  0.999897  0.739554  0.253205  1
  Cu  Cu10  1  0.999178  0.999178  0.990257  1
  Si  Si11  1  0.999976  0.999976  0.506968  1
  Sn  Sn12  1  0.389521  0.389521  0.753982  1
  Sn  Sn13  1  0.612361  0.999412  0.752849  1
  Sn  Sn14  1  0.999412  0.612361  0.752849  1
  Sn  Sn15  1  0.608571  0.608571  0.246933  1
  Sb  Sb16  1  0.391596  0.999985  0.246755  1
  Sb  Sb17  1  0.999985  0.391596  0.246755  1
