# generated using pymatgen
data_Pa2NiSnOs
_symmetry_space_group_name_H-M   'P 1'
_cell_length_a   7.58139200
_cell_length_b   7.56290300
_cell_length_c   3.60111300
_cell_angle_alpha   90.00000000
_cell_angle_beta   90.00000000
_cell_angle_gamma   90.00000000
_symmetry_Int_Tables_number   1
_chemical_formula_structural   Pa2NiSnOs
_chemical_formula_sum   'Pa4 Ni2 Sn2 Os2'
_cell_volume   206.47821273
_cell_formula_units_Z   2
loop_
 _symmetry_equiv_pos_site_id
 _symmetry_equiv_pos_as_xyz
  1  'x, y, z'
loop_
 _atom_site_type_symbol
 _atom_site_label
 _atom_site_symmetry_multiplicity
 _atom_site_fract_x
 _atom_site_fract_y
 _atom_site_fract_z
 _atom_site_occupancy
  Pa  Pa0  1  0.674511  0.169443  0.500000  1
  Pa  Pa1  1  0.329093  0.826092  0.500000  1
  Pa  Pa2  1  0.829093  0.673908  0.500000  1
  Pa  Pa3  1  0.174511  0.330557  0.500000  1
  Ni  Ni4  1  0.866479  0.364443  0.000000  1
  Ni  Ni5  1  0.366479  0.135557  0.000000  1
  Sn  Sn6  1  0.502502  0.496605  0.000000  1
  Sn  Sn7  1  0.002502  0.003395  0.000000  1
  Os  Os8  1  0.627415  0.878857  0.000000  1
  Os  Os9  1  0.127415  0.621143  0.000000  1
