# generated using pymatgen
data_Ca3Sc7(Si5Ir2)4
_symmetry_space_group_name_H-M   'P 1'
_cell_length_a   12.51189968
_cell_length_b   12.51189968
_cell_length_c   4.14938300
_cell_angle_alpha   90.00000000
_cell_angle_beta   90.00000000
_cell_angle_gamma   90.21330406
_symmetry_Int_Tables_number   1
_chemical_formula_structural   Ca3Sc7(Si5Ir2)4
_chemical_formula_sum   'Ca3 Sc7 Si20 Ir8'
_cell_volume   649.57158773
_cell_formula_units_Z   1
loop_
 _symmetry_equiv_pos_site_id
 _symmetry_equiv_pos_as_xyz
  1  'x, y, z'
loop_
 _atom_site_type_symbol
 _atom_site_label
 _atom_site_symmetry_multiplicity
 _atom_site_fract_x
 _atom_site_fract_y
 _atom_site_fract_z
 _atom_site_occupancy
  Ca  Ca0  1  0.116082  0.615726  0.500000  1
  Ca  Ca1  1  0.884274  0.383918  0.500000  1
  Ca  Ca2  1  0.614566  0.885434  0.500000  1
  Sc  Sc3  1  0.383539  0.116461  0.500000  1
  Sc  Sc4  1  0.672702  0.172591  0.500000  1
  Sc  Sc5  1  0.327409  0.827298  0.500000  1
  Sc  Sc6  1  0.174886  0.325114  0.500000  1
  Sc  Sc7  1  0.826998  0.673002  0.500000  1
  Sc  Sc8  1  0.000500  0.000046  0.000000  1
  Sc  Sc9  1  0.499954  0.499500  0.000000  1
  Si  Si10  1  0.566049  0.068086  0.000000  1
  Si  Si11  1  0.431914  0.933951  0.000000  1
  Si  Si12  1  0.068897  0.431103  0.000000  1
  Si  Si13  1  0.931693  0.568307  0.000000  1
  Si  Si14  1  0.202181  0.164712  0.000000  1
  Si  Si15  1  0.799205  0.835416  0.000000  1
  Si  Si16  1  0.165712  0.801060  0.000000  1
  Si  Si17  1  0.698940  0.334288  0.000000  1
  Si  Si18  1  0.834603  0.200545  0.000000  1
  Si  Si19  1  0.299455  0.665397  0.000000  1
  Si  Si20  1  0.664584  0.700795  0.000000  1
  Si  Si21  1  0.335288  0.297819  0.000000  1
  Si  Si22  1  0.007728  0.149000  0.500000  1
  Si  Si23  1  0.992467  0.850853  0.500000  1
  Si  Si24  1  0.151799  0.992401  0.500000  1
  Si  Si25  1  0.507599  0.348201  0.500000  1
  Si  Si26  1  0.849912  0.009212  0.500000  1
  Si  Si27  1  0.490788  0.650088  0.500000  1
  Si  Si28  1  0.649147  0.507533  0.500000  1
  Si  Si29  1  0.351000  0.492272  0.500000  1
  Ir  Ir30  1  0.022807  0.241922  0.000000  1
  Ir  Ir31  1  0.977990  0.757880  0.000000  1
  Ir  Ir32  1  0.245934  0.980945  0.000000  1
  Ir  Ir33  1  0.519055  0.254066  0.000000  1
  Ir  Ir34  1  0.756000  0.021858  0.000000  1
  Ir  Ir35  1  0.478142  0.744000  0.000000  1
  Ir  Ir36  1  0.742120  0.522010  0.000000  1
  Ir  Ir37  1  0.258078  0.477193  0.000000  1
