# generated using pymatgen
data_CoI27
_symmetry_space_group_name_H-M   'P 1'
_cell_length_a   12.31719291
_cell_length_b   12.47620245
_cell_length_c   17.09608432
_cell_angle_alpha   128.90098112
_cell_angle_beta   79.60244888
_cell_angle_gamma   112.55032819
_symmetry_Int_Tables_number   1
_chemical_formula_structural   CoI27
_chemical_formula_sum   'Co1 I27'
_cell_volume   1881.57223177
_cell_formula_units_Z   1
loop_
 _symmetry_equiv_pos_site_id
 _symmetry_equiv_pos_as_xyz
  1  'x, y, z'
loop_
 _atom_site_type_symbol
 _atom_site_label
 _atom_site_symmetry_multiplicity
 _atom_site_fract_x
 _atom_site_fract_y
 _atom_site_fract_z
 _atom_site_occupancy
  Co  Co0  1  0.325831  0.856523  0.946191  1
  I  I1  1  0.665347  0.134057  0.085906  1
  I  I2  1  0.346546  0.666754  0.955093  1
  I  I3  1  0.654434  0.361485  0.003551  1
  I  I4  1  0.551961  0.776957  0.383981  1
  I  I5  1  0.441573  0.214864  0.599960  1
  I  I6  1  0.747710  0.719371  0.024622  1
  I  I7  1  0.274362  0.304870  0.985546  1
  I  I8  1  0.716614  0.961238  0.205375  1
  I  I9  1  0.292115  0.029921  0.876389  1
  I  I10  1  0.402945  0.080472  0.127372  1
  I  I11  1  0.533695  0.897744  0.882435  1
  I  I12  1  0.240033  0.668854  0.758799  1
  I  I13  1  0.757467  0.364280  0.302316  1
  I  I14  1  0.112790  0.819645  0.997083  1
  I  I15  1  0.899145  0.146809  0.996709  1
  I  I16  1  0.108441  0.086082  0.216923  1
  I  I17  1  0.896171  0.884972  0.770117  1
  I  I18  1  0.283723  0.917612  0.443171  1
  I  I19  1  0.722368  0.083518  0.528741  1
  I  I20  1  0.338198  0.428001  0.663944  1
  I  I21  1  0.658806  0.582818  0.344863  1
  I  I22  1  0.874030  0.382009  0.672324  1
  I  I23  1  0.147373  0.615279  0.278256  1
  I  I24  1  0.933573  0.670837  0.571977  1
  I  I25  1  0.074523  0.317203  0.409994  1
  I  I26  1  0.240895  0.641473  0.114653  1
  I  I27  1  0.759331  0.386352  0.853708  1
