# generated using pymatgen
data_Lu2Al2IrPt
_symmetry_space_group_name_H-M   'P 1'
_cell_length_a   4.27725200
_cell_length_b   6.70891400
_cell_length_c   7.85562100
_cell_angle_alpha   90.00000000
_cell_angle_beta   90.00000000
_cell_angle_gamma   90.00000000
_symmetry_Int_Tables_number   1
_chemical_formula_structural   Lu2Al2IrPt
_chemical_formula_sum   'Lu4 Al4 Ir2 Pt2'
_cell_volume   225.42266784
_cell_formula_units_Z   2
loop_
 _symmetry_equiv_pos_site_id
 _symmetry_equiv_pos_as_xyz
  1  'x, y, z'
loop_
 _atom_site_type_symbol
 _atom_site_label
 _atom_site_symmetry_multiplicity
 _atom_site_fract_x
 _atom_site_fract_y
 _atom_site_fract_z
 _atom_site_occupancy
  Lu  Lu0  1  0.250000  0.034805  0.675900  1
  Lu  Lu1  1  0.250000  0.534805  0.824100  1
  Lu  Lu2  1  0.750000  0.970040  0.321257  1
  Lu  Lu3  1  0.750000  0.470040  0.178743  1
  Al  Al4  1  0.250000  0.137599  0.061619  1
  Al  Al5  1  0.250000  0.637599  0.438381  1
  Al  Al6  1  0.750000  0.859254  0.942877  1
  Al  Al7  1  0.750000  0.359254  0.557123  1
  Ir  Ir8  1  0.250000  0.262362  0.376976  1
  Ir  Ir9  1  0.250000  0.762362  0.123024  1
  Pt  Pt10  1  0.750000  0.735940  0.625760  1
  Pt  Pt11  1  0.750000  0.235940  0.874240  1
