# generated using pymatgen
data_ThNi3PtAu
_symmetry_space_group_name_H-M   'P 1'
_cell_length_a   5.17079657
_cell_length_b   5.17079694
_cell_length_c   5.17079788
_cell_angle_alpha   58.88268882
_cell_angle_beta   58.88268480
_cell_angle_gamma   58.88268424
_symmetry_Int_Tables_number   1
_chemical_formula_structural   ThNi3PtAu
_chemical_formula_sum   'Th1 Ni3 Pt1 Au1'
_cell_volume   95.26593425
_cell_formula_units_Z   1
loop_
 _symmetry_equiv_pos_site_id
 _symmetry_equiv_pos_as_xyz
  1  'x, y, z'
loop_
 _atom_site_type_symbol
 _atom_site_label
 _atom_site_symmetry_multiplicity
 _atom_site_fract_x
 _atom_site_fract_y
 _atom_site_fract_z
 _atom_site_occupancy
  Th  Th0  1  0.249119  0.249119  0.249119  1
  Ni  Ni1  1  0.624732  0.624732  0.119922  1
  Ni  Ni2  1  0.624732  0.119922  0.624732  1
  Ni  Ni3  1  0.119922  0.624732  0.624732  1
  Pt  Pt4  1  0.623891  0.623891  0.623891  1
  Au  Au5  1  0.007607  0.007607  0.007607  1
