# generated using pymatgen
data_Dy10Cd3Co
_symmetry_space_group_name_H-M   'P 1'
_cell_length_a   9.58274900
_cell_length_b   9.58274236
_cell_length_c   9.79018900
_cell_angle_alpha   90.00000000
_cell_angle_beta   90.00000000
_cell_angle_gamma   119.99996795
_symmetry_Int_Tables_number   1
_chemical_formula_structural   Dy10Cd3Co
_chemical_formula_sum   'Dy20 Cd6 Co2'
_cell_volume   778.57736315
_cell_formula_units_Z   2
loop_
 _symmetry_equiv_pos_site_id
 _symmetry_equiv_pos_as_xyz
  1  'x, y, z'
loop_
 _atom_site_type_symbol
 _atom_site_label
 _atom_site_symmetry_multiplicity
 _atom_site_fract_x
 _atom_site_fract_y
 _atom_site_fract_z
 _atom_site_occupancy
  Dy  Dy0  1  0.000000  0.000000  0.500000  1
  Dy  Dy1  1  0.000000  0.000000  0.000000  1
  Dy  Dy2  1  0.542792  0.457208  0.250000  1
  Dy  Dy3  1  0.542792  0.085584  0.250000  1
  Dy  Dy4  1  0.914415  0.457208  0.250000  1
  Dy  Dy5  1  0.457208  0.542792  0.750000  1
  Dy  Dy6  1  0.457208  0.914416  0.750000  1
  Dy  Dy7  1  0.085585  0.542792  0.750000  1
  Dy  Dy8  1  0.211956  0.788044  0.436070  1
  Dy  Dy9  1  0.211956  0.423914  0.436070  1
  Dy  Dy10  1  0.576087  0.788044  0.436071  1
  Dy  Dy11  1  0.788044  0.211956  0.563930  1
  Dy  Dy12  1  0.788044  0.576086  0.563930  1
  Dy  Dy13  1  0.423913  0.211956  0.563929  1
  Dy  Dy14  1  0.788044  0.211956  0.936070  1
  Dy  Dy15  1  0.788044  0.576086  0.936070  1
  Dy  Dy16  1  0.423913  0.211956  0.936071  1
  Dy  Dy17  1  0.211956  0.788044  0.063930  1
  Dy  Dy18  1  0.211956  0.423914  0.063930  1
  Dy  Dy19  1  0.576087  0.788044  0.063929  1
  Cd  Cd20  1  0.884962  0.115038  0.250000  1
  Cd  Cd21  1  0.884962  0.769925  0.250000  1
  Cd  Cd22  1  0.230076  0.115038  0.250000  1
  Cd  Cd23  1  0.115038  0.884962  0.750000  1
  Cd  Cd24  1  0.115038  0.230075  0.750000  1
  Cd  Cd25  1  0.769924  0.884962  0.750000  1
  Co  Co26  1  0.333334  0.666667  0.250000  1
  Co  Co27  1  0.666666  0.333333  0.750000  1
