# generated using pymatgen
data_PrYCCl
_symmetry_space_group_name_H-M   'P 1'
_cell_length_a   3.72279400
_cell_length_b   3.72279571
_cell_length_c   14.17004600
_cell_angle_alpha   90.00000000
_cell_angle_beta   90.00000000
_cell_angle_gamma   120.00002032
_symmetry_Int_Tables_number   1
_chemical_formula_structural   PrYCCl
_chemical_formula_sum   'Pr2 Y2 C2 Cl2'
_cell_volume   170.07481735
_cell_formula_units_Z   2
loop_
 _symmetry_equiv_pos_site_id
 _symmetry_equiv_pos_as_xyz
  1  'x, y, z'
loop_
 _atom_site_type_symbol
 _atom_site_label
 _atom_site_symmetry_multiplicity
 _atom_site_fract_x
 _atom_site_fract_y
 _atom_site_fract_z
 _atom_site_occupancy
  Pr  Pr0  1  0.666667  0.333333  0.905515  1
  Pr  Pr1  1  0.333333  0.666667  0.405515  1
  Y  Y2  1  0.333333  0.666667  0.094799  1
  Y  Y3  1  0.666667  0.333333  0.594799  1
  C  C4  1  0.000000  0.000000  0.009566  1
  C  C5  1  0.000000  0.000000  0.509566  1
  Cl  Cl6  1  0.666667  0.333333  0.240119  1
  Cl  Cl7  1  0.333333  0.666667  0.740119  1
