# generated using pymatgen
data_Nd4Al18RePd5
_symmetry_space_group_name_H-M   'P 1'
_cell_length_a   7.70008581
_cell_length_b   7.70008526
_cell_length_c   9.64605169
_cell_angle_alpha   89.85144447
_cell_angle_beta   89.85144728
_cell_angle_gamma   119.37865917
_symmetry_Int_Tables_number   1
_chemical_formula_structural   Nd4Al18RePd5
_chemical_formula_sum   'Nd4 Al18 Re1 Pd5'
_cell_volume   498.36876151
_cell_formula_units_Z   1
loop_
 _symmetry_equiv_pos_site_id
 _symmetry_equiv_pos_as_xyz
  1  'x, y, z'
loop_
 _atom_site_type_symbol
 _atom_site_label
 _atom_site_symmetry_multiplicity
 _atom_site_fract_x
 _atom_site_fract_y
 _atom_site_fract_z
 _atom_site_occupancy
  Nd  Nd0  1  0.995527  0.672031  0.249153  1
  Nd  Nd1  1  0.004473  0.327969  0.750847  1
  Nd  Nd2  1  0.672031  0.995527  0.249153  1
  Nd  Nd3  1  0.327969  0.004473  0.750847  1
  Al  Al4  1  0.133325  0.133325  0.246703  1
  Al  Al5  1  0.866675  0.866675  0.753297  1
  Al  Al6  1  0.002275  0.330379  0.072973  1
  Al  Al7  1  0.997725  0.669621  0.927027  1
  Al  Al8  1  0.996327  0.663218  0.576970  1
  Al  Al9  1  0.336782  0.003673  0.423030  1
  Al  Al10  1  0.003673  0.336782  0.423030  1
  Al  Al11  1  0.663218  0.996327  0.576970  1
  Al  Al12  1  0.669621  0.997725  0.927027  1
  Al  Al13  1  0.330379  0.002275  0.072973  1
  Al  Al14  1  0.335716  0.335716  0.553399  1
  Al  Al15  1  0.664284  0.664284  0.446601  1
  Al  Al16  1  0.669214  0.669214  0.049432  1
  Al  Al17  1  0.330786  0.330786  0.950568  1
  Al  Al18  1  0.342181  0.546640  0.249399  1
  Al  Al19  1  0.657819  0.453360  0.750601  1
  Al  Al20  1  0.546640  0.342181  0.249399  1
  Al  Al21  1  0.453360  0.657819  0.750601  1
  Re  Re22  1  0.000000  0.000000  0.000000  1
  Pd  Pd23  1  0.671070  0.328930  0.000000  1
  Pd  Pd24  1  0.328930  0.671070  0.000000  1
  Pd  Pd25  1  0.328497  0.671503  0.500000  1
  Pd  Pd26  1  0.671503  0.328497  0.500000  1
  Pd  Pd27  1  0.000000  0.000000  0.500000  1
