# generated using pymatgen
data_Y3In3IrAu2
_symmetry_space_group_name_H-M   'P 1'
_cell_length_a   7.74778400
_cell_length_b   7.74778384
_cell_length_c   3.95469200
_cell_angle_alpha   90.00000000
_cell_angle_beta   90.00000000
_cell_angle_gamma   120.00000924
_symmetry_Int_Tables_number   1
_chemical_formula_structural   Y3In3IrAu2
_chemical_formula_sum   'Y3 In3 Ir1 Au2'
_cell_volume   205.58823425
_cell_formula_units_Z   1
loop_
 _symmetry_equiv_pos_site_id
 _symmetry_equiv_pos_as_xyz
  1  'x, y, z'
loop_
 _atom_site_type_symbol
 _atom_site_label
 _atom_site_symmetry_multiplicity
 _atom_site_fract_x
 _atom_site_fract_y
 _atom_site_fract_z
 _atom_site_occupancy
  Y  Y0  1  0.979046  0.581084  0.500000  1
  Y  Y1  1  0.602038  0.020954  0.500000  1
  Y  Y2  1  0.418916  0.397962  0.500000  1
  In  In3  1  0.997601  0.262626  0.000000  1
  In  In4  1  0.265025  0.002399  0.000000  1
  In  In5  1  0.737374  0.734975  0.000000  1
  Ir  Ir6  1  0.666667  0.333333  0.000000  1
  Au  Au7  1  0.000000  0.000000  0.500000  1
  Au  Au8  1  0.333333  0.666667  0.000000  1
