# generated using pymatgen
data_LaDy4Bi3O14
_symmetry_space_group_name_H-M   'P 1'
_cell_length_a   6.63167381
_cell_length_b   6.68815206
_cell_length_c   7.78872464
_cell_angle_alpha   106.85255584
_cell_angle_beta   89.65337766
_cell_angle_gamma   98.79040426
_symmetry_Int_Tables_number   1
_chemical_formula_structural   LaDy4Bi3O14
_chemical_formula_sum   'La1 Dy4 Bi3 O14'
_cell_volume   326.47139327
_cell_formula_units_Z   1
loop_
 _symmetry_equiv_pos_site_id
 _symmetry_equiv_pos_as_xyz
  1  'x, y, z'
loop_
 _atom_site_type_symbol
 _atom_site_label
 _atom_site_symmetry_multiplicity
 _atom_site_fract_x
 _atom_site_fract_y
 _atom_site_fract_z
 _atom_site_occupancy
  La  La0  1  0.752285  0.486407  0.621117  1
  Dy  Dy1  1  0.461621  0.007649  0.253132  1
  Dy  Dy2  1  0.534080  0.998866  0.751107  1
  Dy  Dy3  1  0.271262  0.533908  0.886113  1
  Dy  Dy4  1  0.736745  0.459356  0.111553  1
  Bi  Bi5  1  0.995421  0.998673  0.499211  1
  Bi  Bi6  1  0.999825  0.998032  0.998825  1
  Bi  Bi7  1  0.283491  0.534132  0.384023  1
  O  O8  1  0.452541  0.655335  0.166350  1
  O  O9  1  0.547542  0.349429  0.843805  1
  O  O10  1  0.300656  0.920028  0.951837  1
  O  O11  1  0.699592  0.075526  0.050592  1
  O  O12  1  0.297813  0.929568  0.514737  1
  O  O13  1  0.697461  0.076827  0.489284  1
  O  O14  1  0.544996  0.360060  0.333529  1
  O  O15  1  0.452755  0.641532  0.659266  1
  O  O16  1  0.927928  0.663208  0.952559  1
  O  O17  1  0.067429  0.326831  0.030150  1
  O  O18  1  0.079203  0.331423  0.631429  1
  O  O19  1  0.905370  0.667654  0.374760  1
  O  O20  1  0.870811  0.908008  0.727360  1
  O  O21  1  0.121173  0.077548  0.269260  1
