# generated using pymatgen
data_Nd3TmIr2(RhO7)2
_symmetry_space_group_name_H-M   'P 1'
_cell_length_a   7.32477756
_cell_length_b   7.36338347
_cell_length_c   7.36141500
_cell_angle_alpha   60.00884739
_cell_angle_beta   59.83440625
_cell_angle_gamma   59.90055470
_symmetry_Int_Tables_number   1
_chemical_formula_structural   Nd3TmIr2(RhO7)2
_chemical_formula_sum   'Nd3 Tm1 Ir2 Rh2 O14'
_cell_volume   280.20376778
_cell_formula_units_Z   1
loop_
 _symmetry_equiv_pos_site_id
 _symmetry_equiv_pos_as_xyz
  1  'x, y, z'
loop_
 _atom_site_type_symbol
 _atom_site_label
 _atom_site_symmetry_multiplicity
 _atom_site_fract_x
 _atom_site_fract_y
 _atom_site_fract_z
 _atom_site_occupancy
  Nd  Nd0  1  0.125000  0.625000  0.125000  1
  Nd  Nd1  1  0.125000  0.125000  0.625000  1
  Nd  Nd2  1  0.125000  0.125000  0.125000  1
  Tm  Tm3  1  0.625000  0.125000  0.125000  1
  Ir  Ir4  1  0.625000  0.625000  0.125000  1
  Ir  Ir5  1  0.625000  0.625000  0.625000  1
  Rh  Rh6  1  0.125000  0.625000  0.625000  1
  Rh  Rh7  1  0.625000  0.125000  0.625000  1
  O  O8  1  0.696036  0.715205  0.294379  1
  O  O9  1  0.288248  0.287298  0.712227  1
  O  O10  1  0.696003  0.294444  0.720741  1
  O  O11  1  0.294822  0.705968  0.287754  1
  O  O12  1  0.294822  0.705968  0.711457  1
  O  O13  1  0.696003  0.294444  0.288812  1
  O  O14  1  0.553964  0.534795  0.955621  1
  O  O15  1  0.961752  0.962702  0.537773  1
  O  O16  1  0.553997  0.955556  0.529259  1
  O  O17  1  0.955178  0.544032  0.962246  1
  O  O18  1  0.955178  0.544032  0.538543  1
  O  O19  1  0.553997  0.955556  0.961188  1
  O  O20  1  0.266369  0.246185  0.243723  1
  O  O21  1  0.983631  0.003815  0.006277  1
