# generated using pymatgen
data_Ho4Ni13Ge
_symmetry_space_group_name_H-M   'P 1'
_cell_length_a   4.89336850
_cell_length_b   4.97343708
_cell_length_c   12.39754165
_cell_angle_alpha   78.42903459
_cell_angle_beta   78.66286446
_cell_angle_gamma   59.45723936
_symmetry_Int_Tables_number   1
_chemical_formula_structural   Ho4Ni13Ge
_chemical_formula_sum   'Ho4 Ni13 Ge1'
_cell_volume   252.96617194
_cell_formula_units_Z   1
loop_
 _symmetry_equiv_pos_site_id
 _symmetry_equiv_pos_as_xyz
  1  'x, y, z'
loop_
 _atom_site_type_symbol
 _atom_site_label
 _atom_site_symmetry_multiplicity
 _atom_site_fract_x
 _atom_site_fract_y
 _atom_site_fract_z
 _atom_site_occupancy
  Ho  Ho0  1  0.947211  0.947280  0.158227  1
  Ho  Ho1  1  0.052789  0.052720  0.841773  1
  Ho  Ho2  1  0.853724  0.852191  0.441894  1
  Ho  Ho3  1  0.146276  0.147809  0.558106  1
  Ni  Ni4  1  0.500000  0.500000  0.500000  1
  Ni  Ni5  1  0.724098  0.721716  0.832470  1
  Ni  Ni6  1  0.275902  0.278284  0.167530  1
  Ni  Ni7  1  0.613044  0.609943  0.167069  1
  Ni  Ni8  1  0.386956  0.390057  0.832931  1
  Ni  Ni9  1  0.500000  0.000000  0.000000  1
  Ni  Ni10  1  0.500000  0.500000  0.000000  1
  Ni  Ni11  1  0.390184  0.389831  0.329648  1
  Ni  Ni12  1  0.891352  0.388427  0.331795  1
  Ni  Ni13  1  0.390184  0.890339  0.329648  1
  Ni  Ni14  1  0.609816  0.610169  0.670352  1
  Ni  Ni15  1  0.108648  0.611573  0.668205  1
  Ni  Ni16  1  0.609816  0.109661  0.670352  1
  Ge  Ge17  1  0.000000  0.500000  0.000000  1
