# generated using pymatgen
data_Tm2Nb6Fe3Co13P12
_symmetry_space_group_name_H-M   'P 1'
_cell_length_a   11.97609200
_cell_length_b   11.97609294
_cell_length_c   3.63749200
_cell_angle_alpha   90.00000000
_cell_angle_beta   90.00000000
_cell_angle_gamma   119.99999739
_symmetry_Int_Tables_number   1
_chemical_formula_structural   Tm2Nb6Fe3Co13P12
_chemical_formula_sum   'Tm2 Nb6 Fe3 Co13 P12'
_cell_volume   451.81742005
_cell_formula_units_Z   1
loop_
 _symmetry_equiv_pos_site_id
 _symmetry_equiv_pos_as_xyz
  1  'x, y, z'
loop_
 _atom_site_type_symbol
 _atom_site_label
 _atom_site_symmetry_multiplicity
 _atom_site_fract_x
 _atom_site_fract_y
 _atom_site_fract_z
 _atom_site_occupancy
  Tm  Tm0  1  0.333333  0.666667  0.000000  1
  Tm  Tm1  1  0.666667  0.333333  0.000000  1
  Nb  Nb2  1  0.820821  0.000000  0.500000  1
  Nb  Nb3  1  0.000000  0.820821  0.500000  1
  Nb  Nb4  1  0.179179  0.179179  0.500000  1
  Nb  Nb5  1  0.445267  0.000000  0.000000  1
  Nb  Nb6  1  0.000000  0.445267  0.000000  1
  Nb  Nb7  1  0.554733  0.554733  0.000000  1
  Fe  Fe8  1  0.273807  0.000000  0.500000  1
  Fe  Fe9  1  0.000000  0.273807  0.500000  1
  Fe  Fe10  1  0.726193  0.726193  0.500000  1
  Co  Co11  1  0.634436  0.810564  0.000000  1
  Co  Co12  1  0.189436  0.823873  0.000000  1
  Co  Co13  1  0.176127  0.365564  0.000000  1
  Co  Co14  1  0.365564  0.176127  0.000000  1
  Co  Co15  1  0.810564  0.634436  0.000000  1
  Co  Co16  1  0.823873  0.189436  0.000000  1
  Co  Co17  1  0.520647  0.873422  0.500000  1
  Co  Co18  1  0.126578  0.647226  0.500000  1
  Co  Co19  1  0.352774  0.479353  0.500000  1
  Co  Co20  1  0.479353  0.352774  0.500000  1
  Co  Co21  1  0.873422  0.520647  0.500000  1
  Co  Co22  1  0.647226  0.126578  0.500000  1
  Co  Co23  1  0.000000  0.000000  0.000000  1
  P  P24  1  0.173080  0.000000  0.000000  1
  P  P25  1  0.000000  0.173080  0.000000  1
  P  P26  1  0.826920  0.826920  0.000000  1
  P  P27  1  0.522716  0.690248  0.500000  1
  P  P28  1  0.309752  0.832468  0.500000  1
  P  P29  1  0.167532  0.477284  0.500000  1
  P  P30  1  0.477284  0.167532  0.500000  1
  P  P31  1  0.690248  0.522716  0.500000  1
  P  P32  1  0.832468  0.309752  0.500000  1
  P  P33  1  0.648321  0.000000  0.000000  1
  P  P34  1  0.000000  0.648321  0.000000  1
  P  P35  1  0.351679  0.351679  0.000000  1
