# generated using pymatgen
data_Hf4Al2(VOs)3
_symmetry_space_group_name_H-M   'P 1'
_cell_length_a   5.19027986
_cell_length_b   5.16683859
_cell_length_c   8.53530700
_cell_angle_alpha   90.00000000
_cell_angle_beta   90.00000000
_cell_angle_gamma   119.85070839
_symmetry_Int_Tables_number   1
_chemical_formula_structural   Hf4Al2(VOs)3
_chemical_formula_sum   'Hf4 Al2 V3 Os3'
_cell_volume   198.52573875
_cell_formula_units_Z   1
loop_
 _symmetry_equiv_pos_site_id
 _symmetry_equiv_pos_as_xyz
  1  'x, y, z'
loop_
 _atom_site_type_symbol
 _atom_site_label
 _atom_site_symmetry_multiplicity
 _atom_site_fract_x
 _atom_site_fract_y
 _atom_site_fract_z
 _atom_site_occupancy
  Hf  Hf0  1  0.340808  0.670404  0.446135  1
  Hf  Hf1  1  0.671063  0.335530  0.567062  1
  Hf  Hf2  1  0.671063  0.335530  0.932938  1
  Hf  Hf3  1  0.340808  0.670404  0.053865  1
  Al  Al4  1  0.818515  0.162635  0.250000  1
  Al  Al5  1  0.818515  0.655880  0.250000  1
  V  V6  1  0.320681  0.160341  0.250000  1
  V  V7  1  0.167458  0.831205  0.750000  1
  V  V8  1  0.167458  0.336254  0.750000  1
  Os  Os9  1  0.017407  0.008704  0.496272  1
  Os  Os10  1  0.017407  0.008704  0.003728  1
  Os  Os11  1  0.648817  0.824409  0.750000  1
