# generated using pymatgen
data_TbDy7Sc12Si15Ru
_symmetry_space_group_name_H-M   'P 1'
_cell_length_a   7.09201664
_cell_length_b   7.45980180
_cell_length_c   13.96941411
_cell_angle_alpha   90.00358373
_cell_angle_beta   90.01396580
_cell_angle_gamma   90.16376493
_symmetry_Int_Tables_number   1
_chemical_formula_structural   TbDy7Sc12Si15Ru
_chemical_formula_sum   'Tb1 Dy7 Sc12 Si15 Ru1'
_cell_volume   739.04934943
_cell_formula_units_Z   1
loop_
 _symmetry_equiv_pos_site_id
 _symmetry_equiv_pos_as_xyz
  1  'x, y, z'
loop_
 _atom_site_type_symbol
 _atom_site_label
 _atom_site_symmetry_multiplicity
 _atom_site_fract_x
 _atom_site_fract_y
 _atom_site_fract_z
 _atom_site_occupancy
  Tb  Tb0  1  0.011000  0.178523  0.095654  1
  Dy  Dy1  1  0.991132  0.826604  0.904352  1
  Dy  Dy2  1  0.489352  0.676597  0.904297  1
  Dy  Dy3  1  0.991126  0.826641  0.595582  1
  Dy  Dy4  1  0.510958  0.323043  0.095918  1
  Dy  Dy5  1  0.011152  0.178882  0.404020  1
  Dy  Dy6  1  0.511030  0.322948  0.404147  1
  Dy  Dy7  1  0.489269  0.676599  0.595632  1
  Sc  Sc8  1  0.157681  0.501634  0.750090  1
  Sc  Sc9  1  0.838480  0.495791  0.250029  1
  Sc  Sc10  1  0.338912  0.005675  0.249953  1
  Sc  Sc11  1  0.669648  0.998768  0.750085  1
  Sc  Sc12  1  0.316320  0.171521  0.628312  1
  Sc  Sc13  1  0.671558  0.825982  0.373846  1
  Sc  Sc14  1  0.171504  0.677761  0.374054  1
  Sc  Sc15  1  0.671611  0.825841  0.126157  1
  Sc  Sc16  1  0.837605  0.319724  0.627894  1
  Sc  Sc17  1  0.316414  0.171491  0.871680  1
  Sc  Sc18  1  0.837480  0.319884  0.872153  1
  Sc  Sc19  1  0.171372  0.677630  0.126027  1
  Si  Si20  1  0.968571  0.884727  0.250106  1
  Si  Si21  1  0.469504  0.614062  0.249987  1
  Si  Si22  1  0.529294  0.387968  0.750003  1
  Si  Si23  1  0.286605  0.866868  0.750009  1
  Si  Si24  1  0.713078  0.129429  0.250221  1
  Si  Si25  1  0.214395  0.371713  0.250223  1
  Si  Si26  1  0.780075  0.626926  0.750013  1
  Si  Si27  1  0.159702  0.468213  0.537438  1
  Si  Si28  1  0.844177  0.535815  0.461454  1
  Si  Si29  1  0.344445  0.965807  0.460262  1
  Si  Si30  1  0.843851  0.536346  0.038424  1
  Si  Si31  1  0.655684  0.034909  0.538842  1
  Si  Si32  1  0.159902  0.468695  0.962415  1
  Si  Si33  1  0.655611  0.034817  0.961123  1
  Si  Si34  1  0.345007  0.965363  0.039622  1
  Ru  Ru35  1  0.026494  0.106808  0.749976  1
