# generated using pymatgen
data_LaNd(Sn2Rh)2
_symmetry_space_group_name_H-M   'P 1'
_cell_length_a   8.86486560
_cell_length_b   8.86486612
_cell_length_c   9.74733200
_cell_angle_alpha   90.00000000
_cell_angle_beta   90.00000000
_cell_angle_gamma   149.36061025
_symmetry_Int_Tables_number   1
_chemical_formula_structural   LaNd(Sn2Rh)2
_chemical_formula_sum   'La2 Nd2 Sn8 Rh4'
_cell_volume   390.38009951
_cell_formula_units_Z   2
loop_
 _symmetry_equiv_pos_site_id
 _symmetry_equiv_pos_as_xyz
  1  'x, y, z'
loop_
 _atom_site_type_symbol
 _atom_site_label
 _atom_site_symmetry_multiplicity
 _atom_site_fract_x
 _atom_site_fract_y
 _atom_site_fract_z
 _atom_site_occupancy
  La  La0  1  0.500000  0.500000  0.500000  1
  La  La1  1  0.500000  0.500000  0.000000  1
  Nd  Nd2  1  0.296565  0.703435  0.250000  1
  Nd  Nd3  1  0.703435  0.296565  0.750000  1
  Sn  Sn4  1  0.907893  0.092107  0.750000  1
  Sn  Sn5  1  0.924870  0.075130  0.250000  1
  Sn  Sn6  1  0.092107  0.907893  0.250000  1
  Sn  Sn7  1  0.075130  0.924870  0.750000  1
  Sn  Sn8  1  0.697819  0.302181  0.410311  1
  Sn  Sn9  1  0.302181  0.697819  0.589689  1
  Sn  Sn10  1  0.302181  0.697819  0.910311  1
  Sn  Sn11  1  0.697819  0.302181  0.089689  1
  Rh  Rh12  1  0.147192  0.852808  0.504947  1
  Rh  Rh13  1  0.852808  0.147192  0.004947  1
  Rh  Rh14  1  0.147192  0.852808  0.995053  1
  Rh  Rh15  1  0.852808  0.147192  0.495053  1
