# generated using pymatgen
data_Nd8In(Pd11Au)2
_symmetry_space_group_name_H-M   'P 1'
_cell_length_a   8.57092200
_cell_length_b   8.58862000
_cell_length_c   8.58862000
_cell_angle_alpha   90.00000000
_cell_angle_beta   90.00000000
_cell_angle_gamma   90.00000000
_symmetry_Int_Tables_number   1
_chemical_formula_structural   Nd8In(Pd11Au)2
_chemical_formula_sum   'Nd8 In1 Pd22 Au2'
_cell_volume   632.22886310
_cell_formula_units_Z   1
loop_
 _symmetry_equiv_pos_site_id
 _symmetry_equiv_pos_as_xyz
  1  'x, y, z'
loop_
 _atom_site_type_symbol
 _atom_site_label
 _atom_site_symmetry_multiplicity
 _atom_site_fract_x
 _atom_site_fract_y
 _atom_site_fract_z
 _atom_site_occupancy
  Nd  Nd0  1  0.248866  0.248147  0.248147  1
  Nd  Nd1  1  0.749281  0.749097  0.749097  1
  Nd  Nd2  1  0.749281  0.749097  0.250903  1
  Nd  Nd3  1  0.749281  0.250903  0.749097  1
  Nd  Nd4  1  0.248866  0.248147  0.751853  1
  Nd  Nd5  1  0.248866  0.751853  0.248147  1
  Nd  Nd6  1  0.248866  0.751853  0.751853  1
  Nd  Nd7  1  0.749281  0.250903  0.250903  1
  In  In8  1  0.998129  0.000000  0.000000  1
  Pd  Pd9  1  0.266523  0.500000  0.000000  1
  Pd  Pd10  1  0.732460  0.500000  0.000000  1
  Pd  Pd11  1  0.000539  0.266399  0.500000  1
  Pd  Pd12  1  0.501418  0.269883  0.000000  1
  Pd  Pd13  1  0.000539  0.733601  0.500000  1
  Pd  Pd14  1  0.501418  0.730117  0.000000  1
  Pd  Pd15  1  0.501418  0.000000  0.269883  1
  Pd  Pd16  1  0.266523  0.000000  0.500000  1
  Pd  Pd17  1  0.501418  0.000000  0.730117  1
  Pd  Pd18  1  0.732460  0.000000  0.500000  1
  Pd  Pd19  1  0.000539  0.500000  0.266399  1
  Pd  Pd20  1  0.000539  0.500000  0.733601  1
  Pd  Pd21  1  0.745144  0.500000  0.500000  1
  Pd  Pd22  1  0.499119  0.253830  0.500000  1
  Pd  Pd23  1  0.499119  0.746170  0.500000  1
  Pd  Pd24  1  0.499119  0.500000  0.253830  1
  Pd  Pd25  1  0.499119  0.500000  0.746170  1
  Pd  Pd26  1  0.686287  0.000000  0.000000  1
  Pd  Pd27  1  0.999020  0.315652  0.000000  1
  Pd  Pd28  1  0.999020  0.684348  0.000000  1
  Pd  Pd29  1  0.999020  0.000000  0.315652  1
  Pd  Pd30  1  0.999020  0.000000  0.684348  1
  Au  Au31  1  0.257461  0.500000  0.500000  1
  Au  Au32  1  0.322043  0.000000  0.000000  1
