# generated using pymatgen
data_Tb7Dy4In9Ru4
_symmetry_space_group_name_H-M   'P 1'
_cell_length_a   3.78126300
_cell_length_b   13.00846414
_cell_length_c   13.00846419
_cell_angle_alpha   112.97290685
_cell_angle_beta   90.00000000
_cell_angle_gamma   90.00000000
_symmetry_Int_Tables_number   1
_chemical_formula_structural   Tb7Dy4In9Ru4
_chemical_formula_sum   'Tb7 Dy4 In9 Ru4'
_cell_volume   589.11778192
_cell_formula_units_Z   1
loop_
 _symmetry_equiv_pos_site_id
 _symmetry_equiv_pos_as_xyz
  1  'x, y, z'
loop_
 _atom_site_type_symbol
 _atom_site_label
 _atom_site_symmetry_multiplicity
 _atom_site_fract_x
 _atom_site_fract_y
 _atom_site_fract_z
 _atom_site_occupancy
  Tb  Tb0  1  0.000000  0.161769  0.838231  1
  Tb  Tb1  1  0.000000  0.838231  0.161769  1
  Tb  Tb2  1  0.000000  0.374428  0.625572  1
  Tb  Tb3  1  0.000000  0.625572  0.374428  1
  Tb  Tb4  1  0.000000  0.690183  0.690183  1
  Tb  Tb5  1  0.000000  0.309817  0.309817  1
  Tb  Tb6  1  0.000000  0.000000  0.000000  1
  Dy  Dy7  1  0.000000  0.916933  0.581457  1
  Dy  Dy8  1  0.000000  0.083067  0.418543  1
  Dy  Dy9  1  0.000000  0.581457  0.916933  1
  Dy  Dy10  1  0.000000  0.418543  0.083067  1
  In  In11  1  0.500000  0.156836  0.631486  1
  In  In12  1  0.500000  0.843164  0.368514  1
  In  In13  1  0.500000  0.631486  0.156836  1
  In  In14  1  0.500000  0.368514  0.843164  1
  In  In15  1  0.500000  0.925362  0.780072  1
  In  In16  1  0.500000  0.074638  0.219928  1
  In  In17  1  0.500000  0.780072  0.925362  1
  In  In18  1  0.500000  0.219928  0.074638  1
  In  In19  1  0.500000  0.500000  0.500000  1
  Ru  Ru20  1  0.500000  0.747670  0.551082  1
  Ru  Ru21  1  0.500000  0.252330  0.448918  1
  Ru  Ru22  1  0.500000  0.551082  0.747670  1
  Ru  Ru23  1  0.500000  0.448918  0.252330  1
