# generated using pymatgen
data_ThSc2Al7Cu2
_symmetry_space_group_name_H-M   'P 1'
_cell_length_a   8.97020709
_cell_length_b   8.97020789
_cell_length_c   8.97020674
_cell_angle_alpha   35.10505787
_cell_angle_beta   35.10505231
_cell_angle_gamma   35.10505812
_symmetry_Int_Tables_number   1
_chemical_formula_structural   ThSc2Al7Cu2
_chemical_formula_sum   'Th1 Sc2 Al7 Cu2'
_cell_volume   213.17270254
_cell_formula_units_Z   1
loop_
 _symmetry_equiv_pos_site_id
 _symmetry_equiv_pos_as_xyz
  1  'x, y, z'
loop_
 _atom_site_type_symbol
 _atom_site_label
 _atom_site_symmetry_multiplicity
 _atom_site_fract_x
 _atom_site_fract_y
 _atom_site_fract_z
 _atom_site_occupancy
  Th  Th0  1  0.000000  0.000000  0.000000  1
  Sc  Sc1  1  0.858196  0.858196  0.858196  1
  Sc  Sc2  1  0.141804  0.141804  0.141804  1
  Al  Al3  1  0.414773  0.414773  0.924737  1
  Al  Al4  1  0.924737  0.414773  0.414773  1
  Al  Al5  1  0.414773  0.924737  0.414773  1
  Al  Al6  1  0.500000  0.500000  0.500000  1
  Al  Al7  1  0.585227  0.075263  0.585227  1
  Al  Al8  1  0.075263  0.585227  0.585227  1
  Al  Al9  1  0.585227  0.585227  0.075263  1
  Cu  Cu10  1  0.664835  0.664835  0.664835  1
  Cu  Cu11  1  0.335165  0.335165  0.335165  1
