# generated using pymatgen
data_Ce7Mg3Si8N3
_symmetry_space_group_name_H-M   'P 1'
_cell_length_a   10.17973000
_cell_length_b   10.17973019
_cell_length_c   4.38886800
_cell_angle_alpha   90.00000000
_cell_angle_beta   90.00000000
_cell_angle_gamma   119.99999939
_symmetry_Int_Tables_number   1
_chemical_formula_structural   Ce7Mg3Si8N3
_chemical_formula_sum   'Ce7 Mg3 Si8 N3'
_cell_volume   393.87251846
_cell_formula_units_Z   1
loop_
 _symmetry_equiv_pos_site_id
 _symmetry_equiv_pos_as_xyz
  1  'x, y, z'
loop_
 _atom_site_type_symbol
 _atom_site_label
 _atom_site_symmetry_multiplicity
 _atom_site_fract_x
 _atom_site_fract_y
 _atom_site_fract_z
 _atom_site_occupancy
  Ce  Ce0  1  0.215893  0.784107  0.000000  1
  Ce  Ce1  1  0.215893  0.431785  0.000000  1
  Ce  Ce2  1  0.784107  0.568215  0.000000  1
  Ce  Ce3  1  0.431785  0.215893  0.000000  1
  Ce  Ce4  1  0.000000  0.000000  0.000000  1
  Ce  Ce5  1  0.568215  0.784107  0.000000  1
  Ce  Ce6  1  0.784107  0.215893  0.000000  1
  Mg  Mg7  1  0.500000  0.000000  0.500000  1
  Mg  Mg8  1  0.000000  0.500000  0.500000  1
  Mg  Mg9  1  0.500000  0.500000  0.500000  1
  Si  Si10  1  0.666667  0.333333  0.500000  1
  Si  Si11  1  0.000000  0.772952  0.500000  1
  Si  Si12  1  0.333333  0.666667  0.500000  1
  Si  Si13  1  0.227048  0.227048  0.500000  1
  Si  Si14  1  0.772952  0.772952  0.500000  1
  Si  Si15  1  0.772952  0.000000  0.500000  1
  Si  Si16  1  0.227048  0.000000  0.500000  1
  Si  Si17  1  0.000000  0.227048  0.500000  1
  N  N18  1  0.500000  0.500000  0.000000  1
  N  N19  1  0.500000  0.000000  0.000000  1
  N  N20  1  0.000000  0.500000  0.000000  1
