# generated using pymatgen
data_Pr3Nd2Sn2Bi
_symmetry_space_group_name_H-M   'P 1'
_cell_length_a   9.42966012
_cell_length_b   9.44127364
_cell_length_c   6.76235800
_cell_angle_alpha   90.00000000
_cell_angle_beta   90.00000000
_cell_angle_gamma   120.04075451
_symmetry_Int_Tables_number   1
_chemical_formula_structural   Pr3Nd2Sn2Bi
_chemical_formula_sum   'Pr6 Nd4 Sn4 Bi2'
_cell_volume   521.16700992
_cell_formula_units_Z   2
loop_
 _symmetry_equiv_pos_site_id
 _symmetry_equiv_pos_as_xyz
  1  'x, y, z'
loop_
 _atom_site_type_symbol
 _atom_site_label
 _atom_site_symmetry_multiplicity
 _atom_site_fract_x
 _atom_site_fract_y
 _atom_site_fract_z
 _atom_site_occupancy
  Pr  Pr0  1  0.237913  0.999845  0.250000  1
  Pr  Pr1  1  0.237913  0.238067  0.750000  1
  Pr  Pr2  1  0.004805  0.759838  0.750000  1
  Pr  Pr3  1  0.004805  0.244967  0.250000  1
  Pr  Pr4  1  0.760115  0.755345  0.250000  1
  Pr  Pr5  1  0.760115  0.004771  0.750000  1
  Nd  Nd6  1  0.327609  0.663805  0.000000  1
  Nd  Nd7  1  0.668304  0.334152  0.500000  1
  Nd  Nd8  1  0.668304  0.334152  0.000000  1
  Nd  Nd9  1  0.327609  0.663805  0.500000  1
  Sn  Sn10  1  0.999396  0.394020  0.750000  1
  Sn  Sn11  1  0.999396  0.605377  0.250000  1
  Sn  Sn12  1  0.394997  0.394396  0.250000  1
  Sn  Sn13  1  0.394997  0.000601  0.750000  1
  Bi  Bi14  1  0.606859  0.999019  0.250000  1
  Bi  Bi15  1  0.606859  0.607840  0.750000  1
