# generated using pymatgen
data_Th4GaPd7Rh5
_symmetry_space_group_name_H-M   'P 1'
_cell_length_a   7.38151093
_cell_length_b   7.38150977
_cell_length_c   7.38151100
_cell_angle_alpha   109.18650152
_cell_angle_beta   109.18650662
_cell_angle_gamma   110.04216700
_symmetry_Int_Tables_number   1
_chemical_formula_structural   Th4GaPd7Rh5
_chemical_formula_sum   'Th4 Ga1 Pd7 Rh5'
_cell_volume   309.58610744
_cell_formula_units_Z   1
loop_
 _symmetry_equiv_pos_site_id
 _symmetry_equiv_pos_as_xyz
  1  'x, y, z'
loop_
 _atom_site_type_symbol
 _atom_site_label
 _atom_site_symmetry_multiplicity
 _atom_site_fract_x
 _atom_site_fract_y
 _atom_site_fract_z
 _atom_site_occupancy
  Th  Th0  1  0.004645  0.004645  0.508349  1
  Th  Th1  1  0.004645  0.496295  0.000000  1
  Th  Th2  1  0.496295  0.004645  0.000000  1
  Th  Th3  1  0.496295  0.496295  0.491651  1
  Ga  Ga4  1  0.998742  0.998742  0.000000  1
  Pd  Pd5  1  0.749838  0.249838  0.500000  1
  Pd  Pd6  1  0.754249  0.501765  0.252484  1
  Pd  Pd7  1  0.501765  0.249280  0.747516  1
  Pd  Pd8  1  0.249280  0.501765  0.747516  1
  Pd  Pd9  1  0.249838  0.749838  0.500000  1
  Pd  Pd10  1  0.501765  0.754249  0.252484  1
  Pd  Pd11  1  0.712096  0.712096  0.000000  1
  Rh  Rh12  1  0.279628  0.999175  0.280452  1
  Rh  Rh13  1  0.999175  0.279628  0.280452  1
  Rh  Rh14  1  0.283850  0.283850  0.000000  1
  Rh  Rh15  1  0.718723  0.999175  0.719548  1
  Rh  Rh16  1  0.999175  0.718723  0.719548  1
