# generated using pymatgen
data_Tb2Er2Ga3SiRu4
_symmetry_space_group_name_H-M   'P 1'
_cell_length_a   4.45400300
_cell_length_b   7.12052110
_cell_length_c   7.15180208
_cell_angle_alpha   90.21939980
_cell_angle_beta   90.00000000
_cell_angle_gamma   90.00000000
_symmetry_Int_Tables_number   1
_chemical_formula_structural   Tb2Er2Ga3SiRu4
_chemical_formula_sum   'Tb2 Er2 Ga3 Si1 Ru4'
_cell_volume   226.81646944
_cell_formula_units_Z   1
loop_
 _symmetry_equiv_pos_site_id
 _symmetry_equiv_pos_as_xyz
  1  'x, y, z'
loop_
 _atom_site_type_symbol
 _atom_site_label
 _atom_site_symmetry_multiplicity
 _atom_site_fract_x
 _atom_site_fract_y
 _atom_site_fract_z
 _atom_site_occupancy
  Tb  Tb0  1  0.750000  0.015473  0.195673  1
  Tb  Tb1  1  0.750000  0.514350  0.306433  1
  Er  Er2  1  0.250000  0.985634  0.806239  1
  Er  Er3  1  0.250000  0.477612  0.695386  1
  Ga  Ga4  1  0.250000  0.301739  0.106275  1
  Ga  Ga5  1  0.750000  0.695463  0.891659  1
  Ga  Ga6  1  0.250000  0.800340  0.397366  1
  Si  Si7  1  0.750000  0.196582  0.602805  1
  Ru  Ru8  1  0.750000  0.857160  0.566030  1
  Ru  Ru9  1  0.250000  0.163265  0.448154  1
  Ru  Ru10  1  0.750000  0.331806  0.920643  1
  Ru  Ru11  1  0.250000  0.660576  0.063337  1
