# generated using pymatgen
data_Ti4CrB2As
_symmetry_space_group_name_H-M   'P 1'
_cell_length_a   7.16229990
_cell_length_b   7.16229956
_cell_length_c   7.16229858
_cell_angle_alpha   130.87546526
_cell_angle_beta   130.87545497
_cell_angle_gamma   72.01102028
_symmetry_Int_Tables_number   1
_chemical_formula_structural   Ti4CrB2As
_chemical_formula_sum   'Ti8 Cr2 B4 As2'
_cell_volume   205.43150223
_cell_formula_units_Z   2
loop_
 _symmetry_equiv_pos_site_id
 _symmetry_equiv_pos_as_xyz
  1  'x, y, z'
loop_
 _atom_site_type_symbol
 _atom_site_label
 _atom_site_symmetry_multiplicity
 _atom_site_fract_x
 _atom_site_fract_y
 _atom_site_fract_z
 _atom_site_occupancy
  Ti  Ti0  1  0.196034  0.696034  0.149808  1
  Ti  Ti1  1  0.453774  0.953774  0.149808  1
  Ti  Ti2  1  0.546226  0.046226  0.850192  1
  Ti  Ti3  1  0.046226  0.196034  0.500000  1
  Ti  Ti4  1  0.696034  0.546226  0.500000  1
  Ti  Ti5  1  0.953774  0.803966  0.500000  1
  Ti  Ti6  1  0.303966  0.453774  0.500000  1
  Ti  Ti7  1  0.803966  0.303966  0.850192  1
  Cr  Cr8  1  0.000000  0.000000  0.000000  1
  Cr  Cr9  1  0.500000  0.500000  0.000000  1
  B  B10  1  0.886838  0.386838  0.273677  1
  B  B11  1  0.386838  0.113162  0.500000  1
  B  B12  1  0.613162  0.886838  0.500000  1
  B  B13  1  0.113162  0.613162  0.726323  1
  As  As14  1  0.750000  0.750000  0.000000  1
  As  As15  1  0.250000  0.250000  0.000000  1
