# generated using pymatgen
data_Lu(Zn5Cu)2
_symmetry_space_group_name_H-M   'P 1'
_cell_length_a   6.72031669
_cell_length_b   6.79306203
_cell_length_c   6.79306162
_cell_angle_alpha   98.38834742
_cell_angle_beta   97.80025918
_cell_angle_gamma   136.68921734
_symmetry_Int_Tables_number   1
_chemical_formula_structural   Lu(Zn5Cu)2
_chemical_formula_sum   'Lu1 Zn10 Cu2'
_cell_volume   196.62766985
_cell_formula_units_Z   1
loop_
 _symmetry_equiv_pos_site_id
 _symmetry_equiv_pos_as_xyz
  1  'x, y, z'
loop_
 _atom_site_type_symbol
 _atom_site_label
 _atom_site_symmetry_multiplicity
 _atom_site_fract_x
 _atom_site_fract_y
 _atom_site_fract_z
 _atom_site_occupancy
  Lu  Lu0  1  0.000000  0.000000  0.000000  1
  Zn  Zn1  1  0.500000  0.500000  0.500000  1
  Zn  Zn2  1  0.500000  0.000000  0.000000  1
  Zn  Zn3  1  0.000000  0.349623  0.349623  1
  Zn  Zn4  1  0.000000  0.650377  0.650377  1
  Zn  Zn5  1  0.655999  0.005790  0.650209  1
  Zn  Zn6  1  0.344001  0.994210  0.349791  1
  Zn  Zn7  1  0.500000  0.284419  0.784419  1
  Zn  Zn8  1  0.500000  0.715581  0.215581  1
  Zn  Zn9  1  0.721174  0.506175  0.214999  1
  Zn  Zn10  1  0.278826  0.493825  0.785001  1
  Cu  Cu11  1  0.000000  0.000000  0.500000  1
  Cu  Cu12  1  0.000000  0.500000  0.000000  1
