# generated using pymatgen
data_NaNp3Tl4O12
_symmetry_space_group_name_H-M   'P 1'
_cell_length_a   7.41908228
_cell_length_b   7.41908273
_cell_length_c   7.41908200
_cell_angle_alpha   109.47121591
_cell_angle_beta   109.47121715
_cell_angle_gamma   109.47122287
_symmetry_Int_Tables_number   1
_chemical_formula_structural   NaNp3Tl4O12
_chemical_formula_sum   'Na1 Np3 Tl4 O12'
_cell_volume   314.36103773
_cell_formula_units_Z   1
loop_
 _symmetry_equiv_pos_site_id
 _symmetry_equiv_pos_as_xyz
  1  'x, y, z'
loop_
 _atom_site_type_symbol
 _atom_site_label
 _atom_site_symmetry_multiplicity
 _atom_site_fract_x
 _atom_site_fract_y
 _atom_site_fract_z
 _atom_site_occupancy
  Na  Na0  1  0.000000  0.000000  0.000000  1
  Np  Np1  1  0.000000  0.500000  0.500000  1
  Np  Np2  1  0.500000  0.500000  0.000000  1
  Np  Np3  1  0.500000  0.000000  0.500000  1
  Tl  Tl4  1  0.000000  0.500000  0.000000  1
  Tl  Tl5  1  0.500000  0.000000  0.000000  1
  Tl  Tl6  1  0.000000  0.000000  0.500000  1
  Tl  Tl7  1  0.500000  0.500000  0.500000  1
  O  O8  1  0.720528  0.720528  0.000000  1
  O  O9  1  0.279472  0.000000  0.279472  1
  O  O10  1  0.720528  0.000000  0.720528  1
  O  O11  1  0.000000  0.720528  0.720528  1
  O  O12  1  0.000000  0.279472  0.279472  1
  O  O13  1  0.279472  0.279472  0.000000  1
  O  O14  1  0.250000  0.750000  0.500000  1
  O  O15  1  0.750000  0.500000  0.250000  1
  O  O16  1  0.750000  0.250000  0.500000  1
  O  O17  1  0.500000  0.250000  0.750000  1
  O  O18  1  0.500000  0.750000  0.250000  1
  O  O19  1  0.250000  0.500000  0.750000  1
