# generated using pymatgen
data_LaTb6Ho13Pt16
_symmetry_space_group_name_H-M   'P 1'
_cell_length_a   7.47656804
_cell_length_b   7.55438803
_cell_length_c   14.73471600
_cell_angle_alpha   90.00524843
_cell_angle_beta   90.00613070
_cell_angle_gamma   89.99965814
_symmetry_Int_Tables_number   1
_chemical_formula_structural   LaTb6Ho13Pt16
_chemical_formula_sum   'La1 Tb6 Ho13 Pt16'
_cell_volume   832.22995580
_cell_formula_units_Z   1
loop_
 _symmetry_equiv_pos_site_id
 _symmetry_equiv_pos_as_xyz
  1  'x, y, z'
loop_
 _atom_site_type_symbol
 _atom_site_label
 _atom_site_symmetry_multiplicity
 _atom_site_fract_x
 _atom_site_fract_y
 _atom_site_fract_z
 _atom_site_occupancy
  La  La0  1  0.000061  0.822389  0.092403  1
  Tb  Tb1  1  0.498494  0.677215  0.093692  1
  Tb  Tb2  1  0.501924  0.320802  0.593103  1
  Tb  Tb3  1  0.002153  0.181089  0.905592  1
  Tb  Tb4  1  0.001536  0.178390  0.593049  1
  Tb  Tb5  1  0.501465  0.320874  0.906722  1
  Tb  Tb6  1  0.498144  0.679334  0.407182  1
  Ho  Ho7  1  0.679471  0.989487  0.251711  1
  Ho  Ho8  1  0.181398  0.510117  0.251300  1
  Ho  Ho9  1  0.819425  0.489169  0.749475  1
  Ho  Ho10  1  0.319150  0.010972  0.749716  1
  Ho  Ho11  1  0.656780  0.832629  0.622302  1
  Ho  Ho12  1  0.158462  0.666252  0.876308  1
  Ho  Ho13  1  0.843114  0.332598  0.378256  1
  Ho  Ho14  1  0.345937  0.169387  0.123055  1
  Ho  Ho15  1  0.343133  0.167478  0.378447  1
  Ho  Ho16  1  0.843268  0.332338  0.122837  1
  Ho  Ho17  1  0.155744  0.668324  0.622021  1
  Ho  Ho18  1  0.655680  0.831752  0.877012  1
  Ho  Ho19  1  0.997732  0.820910  0.406653  1
  Pt  Pt20  1  0.815211  0.641131  0.252363  1
  Pt  Pt21  1  0.317747  0.857385  0.251389  1
  Pt  Pt22  1  0.683032  0.142495  0.749771  1
  Pt  Pt23  1  0.183141  0.357538  0.749741  1
  Pt  Pt24  1  0.546592  0.385022  0.250131  1
  Pt  Pt25  1  0.047187  0.116115  0.251484  1
  Pt  Pt26  1  0.952973  0.885627  0.749909  1
  Pt  Pt27  1  0.452977  0.614525  0.749732  1
  Pt  Pt28  1  0.817172  0.533145  0.541854  1
  Pt  Pt29  1  0.318183  0.968705  0.956542  1
  Pt  Pt30  1  0.684352  0.031514  0.457626  1
  Pt  Pt31  1  0.184352  0.463621  0.041081  1
  Pt  Pt32  1  0.182840  0.468352  0.457526  1
  Pt  Pt33  1  0.678742  0.035918  0.041267  1
  Pt  Pt34  1  0.316771  0.966916  0.541785  1
  Pt  Pt35  1  0.815655  0.530488  0.956957  1
