# generated using pymatgen
data_La3Th(Si5Tc3)2
_symmetry_space_group_name_H-M   'P 1'
_cell_length_a   8.49570679
_cell_length_b   8.49592419
_cell_length_c   8.49592352
_cell_angle_alpha   140.45653128
_cell_angle_beta   108.78233620
_cell_angle_gamma   84.65746771
_symmetry_Int_Tables_number   1
_chemical_formula_structural   La3Th(Si5Tc3)2
_chemical_formula_sum   'La3 Th1 Si10 Tc6'
_cell_volume   357.16927433
_cell_formula_units_Z   1
loop_
 _symmetry_equiv_pos_site_id
 _symmetry_equiv_pos_as_xyz
  1  'x, y, z'
loop_
 _atom_site_type_symbol
 _atom_site_label
 _atom_site_symmetry_multiplicity
 _atom_site_fract_x
 _atom_site_fract_y
 _atom_site_fract_z
 _atom_site_occupancy
  La  La0  1  0.366190  0.130318  0.235870  1
  La  La1  1  0.896288  0.631902  0.264386  1
  La  La2  1  0.104087  0.368476  0.735611  1
  Th  Th3  1  0.633220  0.867910  0.765311  1
  Si  Si4  1  0.000198  0.251419  0.251256  1
  Si  Si5  1  0.000198  0.748942  0.748779  1
  Si  Si6  1  0.290728  0.541301  0.250025  1
  Si  Si7  1  0.708233  0.959177  0.249588  1
  Si  Si8  1  0.708233  0.458645  0.749057  1
  Si  Si9  1  0.290728  0.040703  0.749427  1
  Si  Si10  1  0.432820  0.600338  0.832482  1
  Si  Si11  1  0.769593  0.100105  0.669488  1
  Si  Si12  1  0.230702  0.899505  0.331197  1
  Si  Si13  1  0.568574  0.400621  0.167953  1
  Tc  Tc14  1  0.057602  0.147102  0.910499  1
  Tc  Tc15  1  0.501023  0.749782  0.251921  1
  Tc  Tc16  1  0.241247  0.649236  0.592011  1
  Tc  Tc17  1  0.758965  0.352787  0.406177  1
  Tc  Tc18  1  0.940348  0.852628  0.087721  1
  Tc  Tc19  1  0.501023  0.249102  0.751241  1
