# generated using pymatgen
data_HoTm6Zn(Co3Sn11)2
_symmetry_space_group_name_H-M   'P 1'
_cell_length_a   9.61850800
_cell_length_b   9.61850776
_cell_length_c   9.93735300
_cell_angle_alpha   90.00000000
_cell_angle_beta   90.00000000
_cell_angle_gamma   120.00000082
_symmetry_Int_Tables_number   1
_chemical_formula_structural   HoTm6Zn(Co3Sn11)2
_chemical_formula_sum   'Ho1 Tm6 Zn1 Co6 Sn22'
_cell_volume   796.19006815
_cell_formula_units_Z   1
loop_
 _symmetry_equiv_pos_site_id
 _symmetry_equiv_pos_as_xyz
  1  'x, y, z'
loop_
 _atom_site_type_symbol
 _atom_site_label
 _atom_site_symmetry_multiplicity
 _atom_site_fract_x
 _atom_site_fract_y
 _atom_site_fract_z
 _atom_site_occupancy
  Ho  Ho0  1  0.000000  0.000000  0.000000  1
  Tm  Tm1  1  0.519498  0.480502  0.693987  1
  Tm  Tm2  1  0.519498  0.038996  0.693987  1
  Tm  Tm3  1  0.961004  0.480502  0.693987  1
  Tm  Tm4  1  0.038996  0.519498  0.306013  1
  Tm  Tm5  1  0.480502  0.961004  0.306013  1
  Tm  Tm6  1  0.480502  0.519498  0.306013  1
  Zn  Zn7  1  0.000000  0.000000  0.500000  1
  Co  Co8  1  0.168629  0.831371  0.802072  1
  Co  Co9  1  0.168629  0.337257  0.802072  1
  Co  Co10  1  0.662743  0.831371  0.802072  1
  Co  Co11  1  0.337257  0.168629  0.197928  1
  Co  Co12  1  0.831371  0.662743  0.197928  1
  Co  Co13  1  0.831371  0.168629  0.197928  1
  Sn  Sn14  1  0.666667  0.333333  0.180395  1
  Sn  Sn15  1  0.666667  0.333333  0.876419  1
  Sn  Sn16  1  0.333333  0.666667  0.123581  1
  Sn  Sn17  1  0.346034  0.346034  0.000000  1
  Sn  Sn18  1  0.000000  0.653966  0.000000  1
  Sn  Sn19  1  0.653966  0.000000  0.000000  1
  Sn  Sn20  1  0.653966  0.653966  0.000000  1
  Sn  Sn21  1  0.333333  0.666667  0.819605  1
  Sn  Sn22  1  0.433766  0.216884  0.454806  1
  Sn  Sn23  1  0.216884  0.783116  0.545194  1
  Sn  Sn24  1  0.216884  0.433766  0.545194  1
  Sn  Sn25  1  0.566234  0.783116  0.545194  1
  Sn  Sn26  1  0.114336  0.885664  0.276823  1
  Sn  Sn27  1  0.783116  0.566234  0.454806  1
  Sn  Sn28  1  0.783116  0.216884  0.454806  1
  Sn  Sn29  1  0.346034  0.000000  0.000000  1
  Sn  Sn30  1  0.114336  0.228671  0.276823  1
  Sn  Sn31  1  0.771329  0.885664  0.276823  1
  Sn  Sn32  1  0.228671  0.114336  0.723177  1
  Sn  Sn33  1  0.885664  0.771329  0.723177  1
  Sn  Sn34  1  0.885664  0.114336  0.723177  1
  Sn  Sn35  1  0.000000  0.346034  0.000000  1
