# generated using pymatgen
data_Lu2Pa(Co3As2)3
_symmetry_space_group_name_H-M   'P 1'
_cell_length_a   3.81287800
_cell_length_b   10.88104500
_cell_length_c   12.59588000
_cell_angle_alpha   90.00000000
_cell_angle_beta   90.00000000
_cell_angle_gamma   90.00000000
_symmetry_Int_Tables_number   1
_chemical_formula_structural   Lu2Pa(Co3As2)3
_chemical_formula_sum   'Lu4 Pa2 Co18 As12'
_cell_volume   522.57909247
_cell_formula_units_Z   2
loop_
 _symmetry_equiv_pos_site_id
 _symmetry_equiv_pos_as_xyz
  1  'x, y, z'
loop_
 _atom_site_type_symbol
 _atom_site_label
 _atom_site_symmetry_multiplicity
 _atom_site_fract_x
 _atom_site_fract_y
 _atom_site_fract_z
 _atom_site_occupancy
  Lu  Lu0  1  0.500000  0.816514  0.205970  1
  Lu  Lu1  1  0.500000  0.183486  0.205970  1
  Lu  Lu2  1  0.000000  0.683486  0.794030  1
  Lu  Lu3  1  0.000000  0.316514  0.794030  1
  Pa  Pa4  1  0.000000  0.500000  0.530904  1
  Pa  Pa5  1  0.500000  0.000000  0.469096  1
  Co  Co6  1  0.500000  0.500000  0.154802  1
  Co  Co7  1  0.000000  0.000000  0.845198  1
  Co  Co8  1  0.500000  0.500000  0.694994  1
  Co  Co9  1  0.000000  0.000000  0.305006  1
  Co  Co10  1  0.000000  0.500000  0.983520  1
  Co  Co11  1  0.500000  0.000000  0.016480  1
  Co  Co12  1  0.500000  0.333743  0.994307  1
  Co  Co13  1  0.500000  0.666257  0.994307  1
  Co  Co14  1  0.000000  0.166257  0.005693  1
  Co  Co15  1  0.000000  0.833743  0.005693  1
  Co  Co16  1  0.500000  0.303843  0.431658  1
  Co  Co17  1  0.500000  0.696157  0.431658  1
  Co  Co18  1  0.000000  0.196157  0.568342  1
  Co  Co19  1  0.000000  0.803843  0.568342  1
  Co  Co20  1  0.500000  0.880624  0.710136  1
  Co  Co21  1  0.500000  0.119376  0.710136  1
  Co  Co22  1  0.000000  0.619376  0.289864  1
  Co  Co23  1  0.000000  0.380624  0.289864  1
  As  As24  1  0.500000  0.500000  0.876020  1
  As  As25  1  0.000000  0.000000  0.123980  1
  As  As26  1  0.500000  0.500000  0.345209  1
  As  As27  1  0.000000  0.000000  0.654791  1
  As  As28  1  0.500000  0.307139  0.618248  1
  As  As29  1  0.500000  0.692861  0.618248  1
  As  As30  1  0.000000  0.192861  0.381752  1
  As  As31  1  0.000000  0.807139  0.381752  1
  As  As32  1  0.500000  0.846351  0.891605  1
  As  As33  1  0.500000  0.153649  0.891605  1
  As  As34  1  0.000000  0.653649  0.108395  1
  As  As35  1  0.000000  0.346351  0.108395  1
