# generated using pymatgen
data_Dy2Er3ReRuC7
_symmetry_space_group_name_H-M   'P 1'
_cell_length_a   8.22594257
_cell_length_b   8.21561770
_cell_length_c   3.45334400
_cell_angle_alpha   90.00000000
_cell_angle_beta   90.00000000
_cell_angle_gamma   122.11857692
_symmetry_Int_Tables_number   1
_chemical_formula_structural   Dy2Er3ReRuC7
_chemical_formula_sum   'Dy2 Er3 Re1 Ru1 C7'
_cell_volume   197.66205018
_cell_formula_units_Z   1
loop_
 _symmetry_equiv_pos_site_id
 _symmetry_equiv_pos_as_xyz
  1  'x, y, z'
loop_
 _atom_site_type_symbol
 _atom_site_label
 _atom_site_symmetry_multiplicity
 _atom_site_fract_x
 _atom_site_fract_y
 _atom_site_fract_z
 _atom_site_occupancy
  Dy  Dy0  1  0.501058  0.499555  0.000000  1
  Dy  Dy1  1  0.074150  0.334453  0.500000  1
  Er  Er2  1  0.921089  0.660768  0.500000  1
  Er  Er3  1  0.662462  0.924108  0.500000  1
  Er  Er4  1  0.340413  0.078444  0.500000  1
  Re  Re5  1  0.284775  0.715545  0.000000  1
  Ru  Ru6  1  0.712976  0.286852  0.000000  1
  C  C7  1  0.629742  0.370654  0.500000  1
  C  C8  1  0.373483  0.626824  0.500000  1
  C  C9  1  0.999917  0.000386  0.000000  1
  C  C10  1  0.171978  0.169050  0.000000  1
  C  C11  1  0.829041  0.830071  0.000000  1
  C  C12  1  0.001358  0.504470  0.000000  1
  C  C13  1  0.497559  0.998816  0.000000  1
