# generated using pymatgen
data_Dy20(Ir3Ru)3
_symmetry_space_group_name_H-M   'P 1'
_cell_length_a   10.84430100
_cell_length_b   10.84430100
_cell_length_c   6.42159500
_cell_angle_alpha   90.00000000
_cell_angle_beta   90.00000000
_cell_angle_gamma   90.00000000
_symmetry_Int_Tables_number   1
_chemical_formula_structural   Dy20(Ir3Ru)3
_chemical_formula_sum   'Dy20 Ir9 Ru3'
_cell_volume   755.17227821
_cell_formula_units_Z   1
loop_
 _symmetry_equiv_pos_site_id
 _symmetry_equiv_pos_as_xyz
  1  'x, y, z'
loop_
 _atom_site_type_symbol
 _atom_site_label
 _atom_site_symmetry_multiplicity
 _atom_site_fract_x
 _atom_site_fract_y
 _atom_site_fract_z
 _atom_site_occupancy
  Dy  Dy0  1  0.293752  0.086874  0.378455  1
  Dy  Dy1  1  0.293760  0.913287  0.878637  1
  Dy  Dy2  1  0.706240  0.086713  0.878637  1
  Dy  Dy3  1  0.706248  0.913126  0.378455  1
  Dy  Dy4  1  0.586713  0.793760  0.878637  1
  Dy  Dy5  1  0.586874  0.206248  0.378455  1
  Dy  Dy6  1  0.413126  0.793752  0.378455  1
  Dy  Dy7  1  0.413287  0.206240  0.878637  1
  Dy  Dy8  1  0.207750  0.412504  0.622856  1
  Dy  Dy9  1  0.207566  0.587476  0.120206  1
  Dy  Dy10  1  0.792434  0.412524  0.120206  1
  Dy  Dy11  1  0.792250  0.587496  0.622856  1
  Dy  Dy12  1  0.912524  0.707566  0.120206  1
  Dy  Dy13  1  0.912504  0.292250  0.622856  1
  Dy  Dy14  1  0.087496  0.707750  0.622856  1
  Dy  Dy15  1  0.087476  0.292434  0.120206  1
  Dy  Dy16  1  0.000000  0.000000  0.499619  1
  Dy  Dy17  1  0.000000  0.000000  0.999600  1
  Dy  Dy18  1  0.500000  0.500000  0.999600  1
  Dy  Dy19  1  0.500000  0.500000  0.499619  1
  Ir  Ir20  1  0.847511  0.152986  0.250052  1
  Ir  Ir21  1  0.847301  0.846999  0.749803  1
  Ir  Ir22  1  0.152699  0.153001  0.749803  1
  Ir  Ir23  1  0.152489  0.847014  0.250052  1
  Ir  Ir24  1  0.653001  0.347301  0.749803  1
  Ir  Ir25  1  0.652986  0.652489  0.250052  1
  Ir  Ir26  1  0.347014  0.347511  0.250052  1
  Ir  Ir27  1  0.346999  0.652699  0.749803  1
  Ir  Ir28  1  0.000000  0.500000  0.377082  1
  Ru  Ru29  1  0.500000  0.000000  0.123864  1
  Ru  Ru30  1  0.500000  0.000000  0.623918  1
  Ru  Ru31  1  0.000000  0.500000  0.876662  1
