# generated using pymatgen
data_Na3Sr(Al3Pt)6
_symmetry_space_group_name_H-M   'P 1'
_cell_length_a   7.65033400
_cell_length_b   7.65703021
_cell_length_c   9.52927400
_cell_angle_alpha   90.00000000
_cell_angle_beta   90.00000000
_cell_angle_gamma   119.58540726
_symmetry_Int_Tables_number   1
_chemical_formula_structural   Na3Sr(Al3Pt)6
_chemical_formula_sum   'Na3 Sr1 Al18 Pt6'
_cell_volume   485.43428038
_cell_formula_units_Z   1
loop_
 _symmetry_equiv_pos_site_id
 _symmetry_equiv_pos_as_xyz
  1  'x, y, z'
loop_
 _atom_site_type_symbol
 _atom_site_label
 _atom_site_symmetry_multiplicity
 _atom_site_fract_x
 _atom_site_fract_y
 _atom_site_fract_z
 _atom_site_occupancy
  Na  Na0  1  0.003479  0.327292  0.750000  1
  Na  Na1  1  0.671215  0.995617  0.250000  1
  Na  Na2  1  0.330048  0.005598  0.750000  1
  Sr  Sr3  1  0.996307  0.670598  0.250000  1
  Al  Al4  1  0.132298  0.134354  0.250000  1
  Al  Al5  1  0.870298  0.873499  0.750000  1
  Al  Al6  1  0.999122  0.329472  0.068106  1
  Al  Al7  1  0.002350  0.665493  0.916755  1
  Al  Al8  1  0.002350  0.665493  0.583245  1
  Al  Al9  1  0.339569  0.003958  0.431761  1
  Al  Al10  1  0.999122  0.329472  0.431894  1
  Al  Al11  1  0.665639  0.002428  0.576453  1
  Al  Al12  1  0.665639  0.002428  0.923547  1
  Al  Al13  1  0.339569  0.003958  0.068239  1
  Al  Al14  1  0.330230  0.330387  0.560019  1
  Al  Al15  1  0.664332  0.668414  0.450957  1
  Al  Al16  1  0.664332  0.668414  0.049043  1
  Al  Al17  1  0.330230  0.330387  0.939981  1
  Al  Al18  1  0.340899  0.543590  0.250000  1
  Al  Al19  1  0.659393  0.452405  0.750000  1
  Al  Al20  1  0.539369  0.334077  0.250000  1
  Al  Al21  1  0.453433  0.662632  0.750000  1
  Pt  Pt22  1  0.671541  0.331533  0.999783  1
  Pt  Pt23  1  0.328893  0.669997  0.999866  1
  Pt  Pt24  1  0.328893  0.669997  0.500134  1
  Pt  Pt25  1  0.671541  0.331533  0.500217  1
  Pt  Pt26  1  0.999956  0.998489  0.999818  1
  Pt  Pt27  1  0.999956  0.998489  0.500182  1
