# generated using pymatgen
data_Er4MnFe2Ru5
_symmetry_space_group_name_H-M   'P 1'
_cell_length_a   5.30292068
_cell_length_b   5.18553341
_cell_length_c   8.78927100
_cell_angle_alpha   90.00000000
_cell_angle_beta   90.00000000
_cell_angle_gamma   121.71295698
_symmetry_Int_Tables_number   1
_chemical_formula_structural   Er4MnFe2Ru5
_chemical_formula_sum   'Er4 Mn1 Fe2 Ru5'
_cell_volume   205.60510930
_cell_formula_units_Z   1
loop_
 _symmetry_equiv_pos_site_id
 _symmetry_equiv_pos_as_xyz
  1  'x, y, z'
loop_
 _atom_site_type_symbol
 _atom_site_label
 _atom_site_symmetry_multiplicity
 _atom_site_fract_x
 _atom_site_fract_y
 _atom_site_fract_z
 _atom_site_occupancy
  Er  Er0  1  0.331268  0.662138  0.433144  1
  Er  Er1  1  0.667301  0.337185  0.563982  1
  Er  Er2  1  0.667301  0.337185  0.936018  1
  Er  Er3  1  0.331268  0.662138  0.066856  1
  Mn  Mn4  1  0.165743  0.329432  0.750000  1
  Fe  Fe5  1  0.341116  0.169959  0.250000  1
  Fe  Fe6  1  0.835227  0.668609  0.250000  1
  Ru  Ru7  1  0.176638  0.828420  0.750000  1
  Ru  Ru8  1  0.659178  0.831882  0.750000  1
  Ru  Ru9  1  0.001042  0.998110  0.003858  1
  Ru  Ru10  1  0.822878  0.176835  0.250000  1
  Ru  Ru11  1  0.001042  0.998110  0.496142  1
