# generated using pymatgen
data_Sc6Ti4Al12Ru7
_symmetry_space_group_name_H-M   'P 1'
_cell_length_a   8.83150726
_cell_length_b   8.83150750
_cell_length_c   8.83150700
_cell_angle_alpha   60.00000561
_cell_angle_beta   60.00000470
_cell_angle_gamma   60.00000188
_symmetry_Int_Tables_number   1
_chemical_formula_structural   Sc6Ti4Al12Ru7
_chemical_formula_sum   'Sc6 Ti4 Al12 Ru7'
_cell_volume   487.06792612
_cell_formula_units_Z   1
loop_
 _symmetry_equiv_pos_site_id
 _symmetry_equiv_pos_as_xyz
  1  'x, y, z'
loop_
 _atom_site_type_symbol
 _atom_site_label
 _atom_site_symmetry_multiplicity
 _atom_site_fract_x
 _atom_site_fract_y
 _atom_site_fract_z
 _atom_site_occupancy
  Sc  Sc0  1  0.709174  0.709174  0.290826  1
  Sc  Sc1  1  0.290826  0.709174  0.290826  1
  Sc  Sc2  1  0.709174  0.290826  0.290826  1
  Sc  Sc3  1  0.290826  0.290826  0.709174  1
  Sc  Sc4  1  0.709174  0.290826  0.709174  1
  Sc  Sc5  1  0.290826  0.709174  0.709174  1
  Ti  Ti6  1  0.880156  0.880156  0.359532  1
  Ti  Ti7  1  0.880156  0.359532  0.880156  1
  Ti  Ti8  1  0.359532  0.880156  0.880156  1
  Ti  Ti9  1  0.880156  0.880156  0.880156  1
  Al  Al10  1  0.119643  0.119643  0.641070  1
  Al  Al11  1  0.119643  0.641070  0.119643  1
  Al  Al12  1  0.641070  0.119643  0.119643  1
  Al  Al13  1  0.119643  0.119643  0.119643  1
  Al  Al14  1  0.666457  0.666457  0.000629  1
  Al  Al15  1  0.666457  0.000629  0.666457  1
  Al  Al16  1  0.000629  0.666457  0.666457  1
  Al  Al17  1  0.666457  0.666457  0.666457  1
  Al  Al18  1  0.334522  0.334522  0.996433  1
  Al  Al19  1  0.334522  0.996433  0.334522  1
  Al  Al20  1  0.996433  0.334522  0.334522  1
  Al  Al21  1  0.334522  0.334522  0.334522  1
  Ru  Ru22  1  0.000000  0.000000  0.000000  1
  Ru  Ru23  1  0.998538  0.998538  0.501462  1
  Ru  Ru24  1  0.501462  0.998538  0.501462  1
  Ru  Ru25  1  0.998538  0.501462  0.501462  1
  Ru  Ru26  1  0.501462  0.501462  0.998538  1
  Ru  Ru27  1  0.998538  0.501462  0.998538  1
  Ru  Ru28  1  0.501462  0.998538  0.998538  1
