# generated using pymatgen
data_Y2Zn12Cu5
_symmetry_space_group_name_H-M   'P 1'
_cell_length_a   6.67774785
_cell_length_b   6.67183483
_cell_length_c   6.67774716
_cell_angle_alpha   82.97191029
_cell_angle_beta   82.94286865
_cell_angle_gamma   82.97190154
_symmetry_Int_Tables_number   1
_chemical_formula_structural   Y2Zn12Cu5
_chemical_formula_sum   'Y2 Zn12 Cu5'
_cell_volume   291.29536490
_cell_formula_units_Z   1
loop_
 _symmetry_equiv_pos_site_id
 _symmetry_equiv_pos_as_xyz
  1  'x, y, z'
loop_
 _atom_site_type_symbol
 _atom_site_label
 _atom_site_symmetry_multiplicity
 _atom_site_fract_x
 _atom_site_fract_y
 _atom_site_fract_z
 _atom_site_occupancy
  Y  Y0  1  0.657189  0.654184  0.657189  1
  Y  Y1  1  0.339861  0.340396  0.339861  1
  Zn  Zn2  1  0.102417  0.107638  0.102417  1
  Zn  Zn3  1  0.894866  0.895286  0.894866  1
  Zn  Zn4  1  0.299872  0.697017  0.998758  1
  Zn  Zn5  1  0.706018  0.004659  0.296857  1
  Zn  Zn6  1  0.001392  0.299571  0.699699  1
  Zn  Zn7  1  0.699699  0.299571  0.001392  1
  Zn  Zn8  1  0.296857  0.004659  0.706018  1
  Zn  Zn9  1  0.998758  0.697017  0.299872  1
  Zn  Zn10  1  0.157963  0.649530  0.653976  1
  Zn  Zn11  1  0.653976  0.649530  0.157963  1
  Zn  Zn12  1  0.650345  0.162214  0.650345  1
  Zn  Zn13  1  0.347779  0.847000  0.347779  1
  Cu  Cu14  1  0.347823  0.347432  0.843618  1
  Cu  Cu15  1  0.843618  0.347432  0.347823  1
  Cu  Cu16  1  0.999609  0.999719  0.500803  1
  Cu  Cu17  1  0.001157  0.497424  0.001157  1
  Cu  Cu18  1  0.500803  0.999719  0.999609  1
