# generated using pymatgen
data_CaLa3(Re2Si)8
_symmetry_space_group_name_H-M   'P 1'
_cell_length_a   4.18276300
_cell_length_b   7.38175565
_cell_length_c   15.57268104
_cell_angle_alpha   89.72275545
_cell_angle_beta   90.00000000
_cell_angle_gamma   90.00000000
_symmetry_Int_Tables_number   1
_chemical_formula_structural   CaLa3(Re2Si)8
_chemical_formula_sum   'Ca1 La3 Re16 Si8'
_cell_volume   480.81856419
_cell_formula_units_Z   1
loop_
 _symmetry_equiv_pos_site_id
 _symmetry_equiv_pos_as_xyz
  1  'x, y, z'
loop_
 _atom_site_type_symbol
 _atom_site_label
 _atom_site_symmetry_multiplicity
 _atom_site_fract_x
 _atom_site_fract_y
 _atom_site_fract_z
 _atom_site_occupancy
  Ca  Ca0  1  0.500000  0.921353  0.618612  1
  La  La1  1  0.000000  0.579423  0.117848  1
  La  La2  1  0.000000  0.423732  0.879698  1
  La  La3  1  0.500000  0.076483  0.384135  1
  Re  Re4  1  0.000000  0.137044  0.051905  1
  Re  Re5  1  0.000000  0.864507  0.947850  1
  Re  Re6  1  0.500000  0.633349  0.449339  1
  Re  Re7  1  0.500000  0.357881  0.553648  1
  Re  Re8  1  0.000000  0.729879  0.321494  1
  Re  Re9  1  0.000000  0.265450  0.678733  1
  Re  Re10  1  0.500000  0.232165  0.179921  1
  Re  Re11  1  0.500000  0.772270  0.818764  1
  Re  Re12  1  0.000000  0.430343  0.419649  1
  Re  Re13  1  0.000000  0.562956  0.582949  1
  Re  Re14  1  0.500000  0.933956  0.081569  1
  Re  Re15  1  0.500000  0.068488  0.917405  1
  Re  Re16  1  0.000000  0.991556  0.206875  1
  Re  Re17  1  0.000000  0.010543  0.792987  1
  Re  Re18  1  0.500000  0.490935  0.294534  1
  Re  Re19  1  0.500000  0.514650  0.705462  1
  Si  Si20  1  0.000000  0.821891  0.477340  1
  Si  Si21  1  0.000000  0.169434  0.525879  1
  Si  Si22  1  0.500000  0.323709  0.024488  1
  Si  Si23  1  0.500000  0.678451  0.974056  1
  Si  Si24  1  0.000000  0.292353  0.274410  1
  Si  Si25  1  0.000000  0.715784  0.722953  1
  Si  Si26  1  0.500000  0.793195  0.227003  1
  Si  Si27  1  0.500000  0.208214  0.770495  1
