# generated using pymatgen
data_Dy15HoCd4Ru3Au
_symmetry_space_group_name_H-M   'P 1'
_cell_length_a   9.65661661
_cell_length_b   9.65661561
_cell_length_c   9.65341091
_cell_angle_alpha   60.09141640
_cell_angle_beta   60.09142526
_cell_angle_gamma   60.08471509
_symmetry_Int_Tables_number   1
_chemical_formula_structural   Dy15HoCd4Ru3Au
_chemical_formula_sum   'Dy15 Ho1 Cd4 Ru3 Au1'
_cell_volume   637.81174686
_cell_formula_units_Z   1
loop_
 _symmetry_equiv_pos_site_id
 _symmetry_equiv_pos_as_xyz
  1  'x, y, z'
loop_
 _atom_site_type_symbol
 _atom_site_label
 _atom_site_symmetry_multiplicity
 _atom_site_fract_x
 _atom_site_fract_y
 _atom_site_fract_z
 _atom_site_occupancy
  Dy  Dy0  1  0.938417  0.938417  0.561046  1
  Dy  Dy1  1  0.563305  0.563305  0.932904  1
  Dy  Dy2  1  0.689155  0.689155  0.311740  1
  Dy  Dy3  1  0.146285  0.549139  0.146249  1
  Dy  Dy4  1  0.688842  0.311678  0.689186  1
  Dy  Dy5  1  0.152141  0.152141  0.151645  1
  Dy  Dy6  1  0.549139  0.146285  0.146249  1
  Dy  Dy7  1  0.700448  0.309546  0.309774  1
  Dy  Dy8  1  0.146236  0.146236  0.549337  1
  Dy  Dy9  1  0.309546  0.700448  0.309774  1
  Dy  Dy10  1  0.311678  0.688842  0.689186  1
  Dy  Dy11  1  0.933065  0.563174  0.563379  1
  Dy  Dy12  1  0.938592  0.560968  0.938211  1
  Dy  Dy13  1  0.563174  0.933065  0.563379  1
  Dy  Dy14  1  0.560968  0.938592  0.938211  1
  Ho  Ho15  1  0.309659  0.309659  0.700333  1
  Cd  Cd16  1  0.919298  0.919298  0.242098  1
  Cd  Cd17  1  0.242094  0.919418  0.919228  1
  Cd  Cd18  1  0.919139  0.919139  0.919171  1
  Cd  Cd19  1  0.919418  0.242094  0.919228  1
  Ru  Ru20  1  0.359184  0.359184  0.923168  1
  Ru  Ru21  1  0.359233  0.923369  0.359158  1
  Ru  Ru22  1  0.923369  0.359233  0.359158  1
  Au  Au23  1  0.357610  0.357610  0.358184  1
