# generated using pymatgen
data_Hf10Zn2(BiPb)3
_symmetry_space_group_name_H-M   'P 1'
_cell_length_a   8.79533400
_cell_length_b   8.79097420
_cell_length_c   5.86906500
_cell_angle_alpha   90.00000000
_cell_angle_beta   90.00000000
_cell_angle_gamma   120.01640693
_symmetry_Int_Tables_number   1
_chemical_formula_structural   Hf10Zn2(BiPb)3
_chemical_formula_sum   'Hf10 Zn2 Bi3 Pb3'
_cell_volume   392.93170115
_cell_formula_units_Z   1
loop_
 _symmetry_equiv_pos_site_id
 _symmetry_equiv_pos_as_xyz
  1  'x, y, z'
loop_
 _atom_site_type_symbol
 _atom_site_label
 _atom_site_symmetry_multiplicity
 _atom_site_fract_x
 _atom_site_fract_y
 _atom_site_fract_z
 _atom_site_occupancy
  Hf  Hf0  1  0.333129  0.666585  0.000577  1
  Hf  Hf1  1  0.666544  0.333415  0.499423  1
  Hf  Hf2  1  0.666544  0.333415  0.000577  1
  Hf  Hf3  1  0.333129  0.666585  0.499423  1
  Hf  Hf4  1  0.263850  0.000000  0.250000  1
  Hf  Hf5  1  0.265054  0.263398  0.750000  1
  Hf  Hf6  1  0.001656  0.736602  0.750000  1
  Hf  Hf7  1  0.001614  0.266086  0.250000  1
  Hf  Hf8  1  0.735527  0.733914  0.250000  1
  Hf  Hf9  1  0.734312  0.000000  0.750000  1
  Zn  Zn10  1  0.000331  0.000000  0.000308  1
  Zn  Zn11  1  0.000331  0.000000  0.499692  1
  Bi  Bi12  1  0.613014  0.000000  0.250000  1
  Bi  Bi13  1  0.613412  0.612910  0.750000  1
  Bi  Bi14  1  0.000503  0.387090  0.750000  1
  Pb  Pb15  1  0.000276  0.614681  0.250000  1
  Pb  Pb16  1  0.385594  0.385319  0.250000  1
  Pb  Pb17  1  0.385181  0.000000  0.750000  1
