# generated using pymatgen
data_Mn2Be8AlW
_symmetry_space_group_name_H-M   'P 1'
_cell_length_a   4.28769900
_cell_length_b   4.28769766
_cell_length_c   7.02758600
_cell_angle_alpha   90.00000000
_cell_angle_beta   90.00000000
_cell_angle_gamma   120.00000262
_symmetry_Int_Tables_number   1
_chemical_formula_structural   Mn2Be8AlW
_chemical_formula_sum   'Mn2 Be8 Al1 W1'
_cell_volume   111.88844378
_cell_formula_units_Z   1
loop_
 _symmetry_equiv_pos_site_id
 _symmetry_equiv_pos_as_xyz
  1  'x, y, z'
loop_
 _atom_site_type_symbol
 _atom_site_label
 _atom_site_symmetry_multiplicity
 _atom_site_fract_x
 _atom_site_fract_y
 _atom_site_fract_z
 _atom_site_occupancy
  Mn  Mn0  1  0.666667  0.333333  0.927919  1
  Mn  Mn1  1  0.333333  0.666667  0.449170  1
  Be  Be2  1  0.000000  0.000000  0.000397  1
  Be  Be3  1  0.000000  0.000000  0.491767  1
  Be  Be4  1  0.829744  0.659486  0.246478  1
  Be  Be5  1  0.168248  0.831752  0.754334  1
  Be  Be6  1  0.663505  0.831752  0.754334  1
  Be  Be7  1  0.340514  0.170256  0.246478  1
  Be  Be8  1  0.829744  0.170256  0.246478  1
  Be  Be9  1  0.168248  0.336495  0.754334  1
  Al  Al10  1  0.333333  0.666667  0.064124  1
  W  W11  1  0.666667  0.333333  0.564184  1
