# generated using pymatgen
data_Yb6FeN5
_symmetry_space_group_name_H-M   'P 1'
_cell_length_a   6.15671400
_cell_length_b   6.15664759
_cell_length_c   12.04099900
_cell_angle_alpha   90.00000000
_cell_angle_beta   90.00000000
_cell_angle_gamma   120.00049720
_symmetry_Int_Tables_number   1
_chemical_formula_structural   Yb6FeN5
_chemical_formula_sum   'Yb12 Fe2 N10'
_cell_volume   395.26125992
_cell_formula_units_Z   2
loop_
 _symmetry_equiv_pos_site_id
 _symmetry_equiv_pos_as_xyz
  1  'x, y, z'
loop_
 _atom_site_type_symbol
 _atom_site_label
 _atom_site_symmetry_multiplicity
 _atom_site_fract_x
 _atom_site_fract_y
 _atom_site_fract_z
 _atom_site_occupancy
  Yb  Yb0  1  0.999999  0.397540  0.878403  1
  Yb  Yb1  1  0.602459  0.602459  0.878404  1
  Yb  Yb2  1  0.602462  0.000000  0.121597  1
  Yb  Yb3  1  0.397538  0.000000  0.621597  1
  Yb  Yb4  1  0.397541  0.397541  0.378404  1
  Yb  Yb5  1  0.602462  0.000000  0.378403  1
  Yb  Yb6  1  0.397541  0.397541  0.121596  1
  Yb  Yb7  1  0.000001  0.602460  0.121597  1
  Yb  Yb8  1  0.999999  0.397540  0.621597  1
  Yb  Yb9  1  0.602459  0.602459  0.621596  1
  Yb  Yb10  1  0.397538  0.000000  0.878403  1
  Yb  Yb11  1  0.000001  0.602460  0.378403  1
  Fe  Fe12  1  0.000009  0.000000  0.750000  1
  Fe  Fe13  1  0.999991  0.000000  0.250000  1
  N  N14  1  0.708885  0.000000  0.750000  1
  N  N15  1  0.291107  0.291106  0.750000  1
  N  N16  1  0.291115  0.000000  0.250000  1
  N  N17  1  0.666667  0.333334  0.500000  1
  N  N18  1  0.333333  0.666666  0.000000  1
  N  N19  1  0.333333  0.666666  0.500000  1
  N  N20  1  0.666667  0.333334  0.000000  1
  N  N21  1  0.708893  0.708894  0.250000  1
  N  N22  1  0.000000  0.291108  0.250000  1
  N  N23  1  0.000000  0.708892  0.750000  1
