# generated using pymatgen
data_Ca4SmSn3H
_symmetry_space_group_name_H-M   'P 1'
_cell_length_a   9.46730861
_cell_length_b   9.46730811
_cell_length_c   9.47180910
_cell_angle_alpha   128.99442432
_cell_angle_beta   128.99442164
_cell_angle_gamma   74.98405871
_symmetry_Int_Tables_number   1
_chemical_formula_structural   Ca4SmSn3H
_chemical_formula_sum   'Ca8 Sm2 Sn6 H2'
_cell_volume   499.47767127
_cell_formula_units_Z   2
loop_
 _symmetry_equiv_pos_site_id
 _symmetry_equiv_pos_as_xyz
  1  'x, y, z'
loop_
 _atom_site_type_symbol
 _atom_site_label
 _atom_site_symmetry_multiplicity
 _atom_site_fract_x
 _atom_site_fract_y
 _atom_site_fract_z
 _atom_site_occupancy
  Ca  Ca0  1  0.501605  0.501605  0.000000  1
  Ca  Ca1  1  0.001605  0.001605  0.000000  1
  Ca  Ca2  1  0.008333  0.186517  0.500000  1
  Ca  Ca3  1  0.686517  0.508333  0.500000  1
  Ca  Ca4  1  0.489317  0.989317  0.179864  1
  Ca  Ca5  1  0.809453  0.309453  0.820136  1
  Ca  Ca6  1  0.988148  0.811955  0.500000  1
  Ca  Ca7  1  0.311955  0.488148  0.500000  1
  Sm  Sm8  1  0.519071  0.019071  0.833363  1
  Sm  Sm9  1  0.185709  0.685709  0.166637  1
  Sn  Sn10  1  0.253263  0.253263  0.000000  1
  Sn  Sn11  1  0.753263  0.753263  0.000000  1
  Sn  Sn12  1  0.870199  0.370199  0.242805  1
  Sn  Sn13  1  0.127395  0.627395  0.757195  1
  Sn  Sn14  1  0.367345  0.123501  0.500000  1
  Sn  Sn15  1  0.623501  0.867345  0.500000  1
  H  H16  1  0.255408  0.755408  0.500000  1
  H  H17  1  0.747916  0.247916  0.500000  1
