# generated using pymatgen
data_LiOs2Cl11
_symmetry_space_group_name_H-M   'P 1'
_cell_length_a   7.50254778
_cell_length_b   6.55024747
_cell_length_c   18.92999074
_cell_angle_alpha   76.88417875
_cell_angle_beta   76.05941636
_cell_angle_gamma   88.97020873
_symmetry_Int_Tables_number   1
_chemical_formula_structural   LiOs2Cl11
_chemical_formula_sum   'Li2 Os4 Cl22'
_cell_volume   878.67004986
_cell_formula_units_Z   2
loop_
 _symmetry_equiv_pos_site_id
 _symmetry_equiv_pos_as_xyz
  1  'x, y, z'
loop_
 _atom_site_type_symbol
 _atom_site_label
 _atom_site_symmetry_multiplicity
 _atom_site_fract_x
 _atom_site_fract_y
 _atom_site_fract_z
 _atom_site_occupancy
  Li  Li0  1  0.902156  0.728521  0.542210  1
  Li  Li1  1  0.097844  0.271479  0.457790  1
  Os  Os2  1  0.283127  0.824838  0.372635  1
  Os  Os3  1  0.716873  0.175162  0.627365  1
  Os  Os4  1  0.840758  0.327192  0.082100  1
  Os  Os5  1  0.159242  0.672808  0.917900  1
  Cl  Cl6  1  0.225045  0.894744  0.494889  1
  Cl  Cl7  1  0.774955  0.105256  0.505111  1
  Cl  Cl8  1  0.568614  0.973136  0.345769  1
  Cl  Cl9  1  0.431386  0.026864  0.654231  1
  Cl  Cl10  1  0.390842  0.498866  0.419530  1
  Cl  Cl11  1  0.609158  0.501134  0.580470  1
  Cl  Cl12  1  0.318882  0.763045  0.257361  1
  Cl  Cl13  1  0.681118  0.236955  0.742639  1
  Cl  Cl14  1  0.983559  0.659220  0.409684  1
  Cl  Cl15  1  0.016441  0.340780  0.590316  1
  Cl  Cl16  1  0.153616  0.145399  0.336135  1
  Cl  Cl17  1  0.846384  0.854601  0.663865  1
  Cl  Cl18  1  0.870755  0.000310  0.146387  1
  Cl  Cl19  1  0.129245  0.999690  0.853613  1
  Cl  Cl20  1  0.558218  0.378233  0.148017  1
  Cl  Cl21  1  0.441782  0.621767  0.851983  1
  Cl  Cl22  1  0.719435  0.204224  0.998874  1
  Cl  Cl23  1  0.280565  0.795776  0.001126  1
  Cl  Cl24  1  0.976544  0.467930  0.157361  1
  Cl  Cl25  1  0.023456  0.532070  0.842639  1
  Cl  Cl26  1  0.146810  0.320816  0.999460  1
  Cl  Cl27  1  0.853190  0.679184  0.000540  1
