# generated using pymatgen
data_Ce8Er11ScSi15Ge
_symmetry_space_group_name_H-M   'P 1'
_cell_length_a   7.39586948
_cell_length_b   7.72432765
_cell_length_c   14.64325300
_cell_angle_alpha   90.00000000
_cell_angle_beta   90.00000000
_cell_angle_gamma   90.04413556
_symmetry_Int_Tables_number   1
_chemical_formula_structural   Ce8Er11ScSi15Ge
_chemical_formula_sum   'Ce8 Er11 Sc1 Si15 Ge1'
_cell_volume   836.54125345
_cell_formula_units_Z   1
loop_
 _symmetry_equiv_pos_site_id
 _symmetry_equiv_pos_as_xyz
  1  'x, y, z'
loop_
 _atom_site_type_symbol
 _atom_site_label
 _atom_site_symmetry_multiplicity
 _atom_site_fract_x
 _atom_site_fract_y
 _atom_site_fract_z
 _atom_site_occupancy
  Ce  Ce0  1  0.982954  0.174302  0.094750  1
  Ce  Ce1  1  0.479279  0.322956  0.403533  1
  Ce  Ce2  1  0.518601  0.678115  0.901440  1
  Ce  Ce3  1  0.020064  0.823780  0.598580  1
  Ce  Ce4  1  0.020064  0.823780  0.901420  1
  Ce  Ce5  1  0.518601  0.678115  0.598560  1
  Ce  Ce6  1  0.479279  0.322956  0.096467  1
  Ce  Ce7  1  0.982954  0.174302  0.405250  1
  Er  Er8  1  0.654580  0.011246  0.250000  1
  Er  Er9  1  0.158937  0.486172  0.250000  1
  Er  Er10  1  0.844228  0.515124  0.750000  1
  Er  Er11  1  0.823009  0.679953  0.122209  1
  Er  Er12  1  0.321311  0.821464  0.378463  1
  Er  Er13  1  0.676219  0.178072  0.875893  1
  Er  Er14  1  0.178307  0.320497  0.623921  1
  Er  Er15  1  0.178307  0.320497  0.876079  1
  Er  Er16  1  0.676219  0.178072  0.624107  1
  Er  Er17  1  0.321311  0.821464  0.121537  1
  Er  Er18  1  0.823009  0.679953  0.377791  1
  Sc  Sc19  1  0.344250  0.985573  0.750000  1
  Si  Si20  1  0.274854  0.122058  0.250000  1
  Si  Si21  1  0.718217  0.877684  0.750000  1
  Si  Si22  1  0.225693  0.628712  0.750000  1
  Si  Si23  1  0.029107  0.890864  0.250000  1
  Si  Si24  1  0.527404  0.615361  0.250000  1
  Si  Si25  1  0.471193  0.392074  0.750000  1
  Si  Si26  1  0.975508  0.105292  0.750000  1
  Si  Si27  1  0.849681  0.469223  0.960879  1
  Si  Si28  1  0.350436  0.029884  0.540925  1
  Si  Si29  1  0.649144  0.970538  0.038072  1
  Si  Si30  1  0.149260  0.529469  0.461952  1
  Si  Si31  1  0.149260  0.529469  0.038048  1
  Si  Si32  1  0.649144  0.970538  0.461928  1
  Si  Si33  1  0.350436  0.029884  0.959075  1
  Si  Si34  1  0.849681  0.469223  0.539121  1
  Ge  Ge35  1  0.779501  0.373337  0.250000  1
