# generated using pymatgen
data_Lu2Si14NiIr5
_symmetry_space_group_name_H-M   'P 1'
_cell_length_a   7.94453932
_cell_length_b   7.94453966
_cell_length_c   7.98185200
_cell_angle_alpha   56.85471922
_cell_angle_beta   56.85472621
_cell_angle_gamma   57.06773739
_symmetry_Int_Tables_number   1
_chemical_formula_structural   Lu2Si14NiIr5
_chemical_formula_sum   'Lu2 Si14 Ni1 Ir5'
_cell_volume   330.96246245
_cell_formula_units_Z   1
loop_
 _symmetry_equiv_pos_site_id
 _symmetry_equiv_pos_as_xyz
  1  'x, y, z'
loop_
 _atom_site_type_symbol
 _atom_site_label
 _atom_site_symmetry_multiplicity
 _atom_site_fract_x
 _atom_site_fract_y
 _atom_site_fract_z
 _atom_site_occupancy
  Lu  Lu0  1  0.999815  0.999316  0.001564  1
  Lu  Lu1  1  0.500684  0.500185  0.498436  1
  Si  Si2  1  0.756301  0.743699  0.750000  1
  Si  Si3  1  0.250095  0.249905  0.250000  1
  Si  Si4  1  0.851716  0.069683  0.669650  1
  Si  Si5  1  0.669889  0.853177  0.065824  1
  Si  Si6  1  0.058326  0.670649  0.849226  1
  Si  Si7  1  0.646823  0.830111  0.434176  1
  Si  Si8  1  0.430317  0.648284  0.830350  1
  Si  Si9  1  0.829351  0.441674  0.650774  1
  Si  Si10  1  0.177639  0.557436  0.352568  1
  Si  Si11  1  0.573076  0.351365  0.167530  1
  Si  Si12  1  0.345665  0.175668  0.576083  1
  Si  Si13  1  0.942564  0.322361  0.147432  1
  Si  Si14  1  0.324332  0.154335  0.923917  1
  Si  Si15  1  0.148635  0.926924  0.332470  1
  Ni  Ni16  1  0.068927  0.431073  0.750000  1
  Ir  Ir17  1  0.247270  0.929307  0.573924  1
  Ir  Ir18  1  0.570693  0.252730  0.926076  1
  Ir  Ir19  1  0.927271  0.572729  0.250000  1
  Ir  Ir20  1  0.430245  0.749634  0.070082  1
  Ir  Ir21  1  0.750366  0.069755  0.429918  1
