# generated using pymatgen
data_La3Nd13(CdRu)4
_symmetry_space_group_name_H-M   'P 1'
_cell_length_a   9.99332186
_cell_length_b   10.00318506
_cell_length_c   9.99578968
_cell_angle_alpha   59.40587455
_cell_angle_beta   59.46886536
_cell_angle_gamma   59.88909534
_symmetry_Int_Tables_number   1
_chemical_formula_structural   La3Nd13(CdRu)4
_chemical_formula_sum   'La3 Nd13 Cd4 Ru4'
_cell_volume   699.91432315
_cell_formula_units_Z   1
loop_
 _symmetry_equiv_pos_site_id
 _symmetry_equiv_pos_as_xyz
  1  'x, y, z'
loop_
 _atom_site_type_symbol
 _atom_site_label
 _atom_site_symmetry_multiplicity
 _atom_site_fract_x
 _atom_site_fract_y
 _atom_site_fract_z
 _atom_site_occupancy
  La  La0  1  0.060542  0.439959  0.434682  1
  La  La1  1  0.439511  0.060098  0.435367  1
  La  La2  1  0.687016  0.312757  0.686472  1
  Nd  Nd3  1  0.906344  0.905055  0.905986  1
  Nd  Nd4  1  0.440877  0.441530  0.055108  1
  Nd  Nd5  1  0.058495  0.056800  0.439987  1
  Nd  Nd6  1  0.439998  0.058525  0.058684  1
  Nd  Nd7  1  0.311867  0.687000  0.310713  1
  Nd  Nd8  1  0.687629  0.688653  0.309770  1
  Nd  Nd9  1  0.687364  0.311486  0.309357  1
  Nd  Nd10  1  0.288356  0.903762  0.906059  1
  Nd  Nd11  1  0.904294  0.288400  0.906346  1
  Nd  Nd12  1  0.312656  0.686760  0.685461  1
  Nd  Nd13  1  0.904403  0.904400  0.291672  1
  Nd  Nd14  1  0.059427  0.440081  0.058013  1
  Nd  Nd15  1  0.308405  0.309467  0.689561  1
  Cd  Cd16  1  0.671359  0.670972  0.988478  1
  Cd  Cd17  1  0.988077  0.671899  0.672740  1
  Cd  Cd18  1  0.671596  0.987164  0.671954  1
  Cd  Cd19  1  0.669735  0.671566  0.673083  1
  Ru  Ru20  1  0.119789  0.120313  0.656078  1
  Ru  Ru21  1  0.112448  0.113042  0.110159  1
  Ru  Ru22  1  0.108566  0.661275  0.122270  1
  Ru  Ru23  1  0.661244  0.109034  0.121999  1
