# generated using pymatgen
data_YTm2Ga5Ir
_symmetry_space_group_name_H-M   'P 1'
_cell_length_a   6.91490100
_cell_length_b   6.93664420
_cell_length_c   4.25386400
_cell_angle_alpha   90.00000000
_cell_angle_beta   90.00000000
_cell_angle_gamma   119.89635949
_symmetry_Int_Tables_number   1
_chemical_formula_structural   YTm2Ga5Ir
_chemical_formula_sum   'Y1 Tm2 Ga5 Ir1'
_cell_volume   176.88957043
_cell_formula_units_Z   1
loop_
 _symmetry_equiv_pos_site_id
 _symmetry_equiv_pos_as_xyz
  1  'x, y, z'
loop_
 _atom_site_type_symbol
 _atom_site_label
 _atom_site_symmetry_multiplicity
 _atom_site_fract_x
 _atom_site_fract_y
 _atom_site_fract_z
 _atom_site_occupancy
  Y  Y0  1  0.585891  0.000000  0.000000  1
  Tm  Tm1  1  0.999521  0.588949  0.000000  1
  Tm  Tm2  1  0.410572  0.411051  0.000000  1
  Ga  Ga3  1  0.236637  0.000000  0.500000  1
  Ga  Ga4  1  0.000276  0.236924  0.500000  1
  Ga  Ga5  1  0.763352  0.763076  0.500000  1
  Ga  Ga6  1  0.331825  0.664371  0.500000  1
  Ga  Ga7  1  0.667454  0.335629  0.500000  1
  Ir  Ir8  1  0.004472  0.000000  0.000000  1
