# generated using pymatgen
data_Tb8Hf3Si16(MoW2)3
_symmetry_space_group_name_H-M   'P 1'
_cell_length_a   6.97657937
_cell_length_b   6.97119996
_cell_length_c   12.93107559
_cell_angle_alpha   89.94800708
_cell_angle_beta   90.00311566
_cell_angle_gamma   89.90725986
_symmetry_Int_Tables_number   1
_chemical_formula_structural   Tb8Hf3Si16(MoW2)3
_chemical_formula_sum   'Tb8 Hf3 Si16 Mo3 W6'
_cell_volume   628.90345577
_cell_formula_units_Z   1
loop_
 _symmetry_equiv_pos_site_id
 _symmetry_equiv_pos_as_xyz
  1  'x, y, z'
loop_
 _atom_site_type_symbol
 _atom_site_label
 _atom_site_symmetry_multiplicity
 _atom_site_fract_x
 _atom_site_fract_y
 _atom_site_fract_z
 _atom_site_occupancy
  Tb  Tb0  1  0.000868  0.336147  0.217044  1
  Tb  Tb1  1  0.003210  0.662797  0.720257  1
  Tb  Tb2  1  0.162345  0.498325  0.468513  1
  Tb  Tb3  1  0.500185  0.839053  0.030958  1
  Tb  Tb4  1  0.839054  0.499555  0.969105  1
  Tb  Tb5  1  0.497723  0.162032  0.531534  1
  Tb  Tb6  1  0.336314  0.000713  0.783097  1
  Tb  Tb7  1  0.662561  0.003667  0.279594  1
  Hf  Hf8  1  0.832635  0.832679  0.499964  1
  Hf  Hf9  1  0.331245  0.667605  0.247766  1
  Hf  Hf10  1  0.667571  0.330962  0.752151  1
  Si  Si11  1  0.373170  0.294806  0.317310  1
  Si  Si12  1  0.625533  0.706408  0.817462  1
  Si  Si13  1  0.204880  0.873789  0.568029  1
  Si  Si14  1  0.124134  0.802231  0.933922  1
  Si  Si15  1  0.802098  0.124416  0.066129  1
  Si  Si16  1  0.873783  0.205392  0.432239  1
  Si  Si17  1  0.294264  0.373037  0.682881  1
  Si  Si18  1  0.706737  0.625378  0.182448  1
  Si  Si19  1  0.289457  0.044003  0.184092  1
  Si  Si20  1  0.708383  0.959985  0.688538  1
  Si  Si21  1  0.458623  0.790934  0.437496  1
  Si  Si22  1  0.210780  0.532967  0.059372  1
  Si  Si23  1  0.532516  0.210642  0.940711  1
  Si  Si24  1  0.790652  0.458110  0.562237  1
  Si  Si25  1  0.044567  0.288474  0.815837  1
  Si  Si26  1  0.959424  0.708641  0.311309  1
  Mo  Mo27  1  0.162279  0.995302  0.375094  1
  Mo  Mo28  1  0.832775  0.005227  0.877388  1
  Mo  Mo29  1  0.506270  0.661371  0.626535  1
  W  W30  1  0.167520  0.166628  0.000272  1
  W  W31  1  0.340439  0.496352  0.874063  1
  W  W32  1  0.496638  0.340613  0.126015  1
  W  W33  1  0.661557  0.506023  0.373644  1
  W  W34  1  0.994719  0.161881  0.624630  1
  W  W35  1  0.005095  0.833861  0.122364  1
