# generated using pymatgen
data_Th10Tl3ZnBi4
_symmetry_space_group_name_H-M   'P 1'
_cell_length_a   9.68749200
_cell_length_b   9.68749185
_cell_length_c   6.62102400
_cell_angle_alpha   90.00000000
_cell_angle_beta   90.00000000
_cell_angle_gamma   120.00000051
_symmetry_Int_Tables_number   1
_chemical_formula_structural   Th10Tl3ZnBi4
_chemical_formula_sum   'Th10 Tl3 Zn1 Bi4'
_cell_volume   538.11921343
_cell_formula_units_Z   1
loop_
 _symmetry_equiv_pos_site_id
 _symmetry_equiv_pos_as_xyz
  1  'x, y, z'
loop_
 _atom_site_type_symbol
 _atom_site_label
 _atom_site_symmetry_multiplicity
 _atom_site_fract_x
 _atom_site_fract_y
 _atom_site_fract_z
 _atom_site_occupancy
  Th  Th0  1  0.000000  0.722929  0.762349  1
  Th  Th1  1  0.277071  0.277071  0.762349  1
  Th  Th2  1  0.333333  0.666667  0.496042  1
  Th  Th3  1  0.666667  0.333333  0.496042  1
  Th  Th4  1  0.721264  0.721264  0.238218  1
  Th  Th5  1  0.722929  0.000000  0.762349  1
  Th  Th6  1  0.000000  0.278736  0.238218  1
  Th  Th7  1  0.278736  0.000000  0.238218  1
  Th  Th8  1  0.333333  0.666667  0.002952  1
  Th  Th9  1  0.666667  0.333333  0.002952  1
  Tl  Tl10  1  0.623312  0.000000  0.253251  1
  Tl  Tl11  1  0.376688  0.376688  0.253251  1
  Tl  Tl12  1  0.000000  0.623312  0.253251  1
  Zn  Zn13  1  0.000000  0.000000  0.004813  1
  Bi  Bi14  1  0.619848  0.619848  0.745615  1
  Bi  Bi15  1  0.000000  0.380152  0.745615  1
  Bi  Bi16  1  0.380152  0.000000  0.745615  1
  Bi  Bi17  1  0.000000  0.000000  0.498902  1
