# generated using pymatgen
data_Y4GaSi3Ni8
_symmetry_space_group_name_H-M   'P 1'
_cell_length_a   5.43377305
_cell_length_b   6.44838700
_cell_length_c   7.10737662
_cell_angle_alpha   90.00000000
_cell_angle_beta   89.30102780
_cell_angle_gamma   90.00000000
_symmetry_Int_Tables_number   1
_chemical_formula_structural   Y4GaSi3Ni8
_chemical_formula_sum   'Y4 Ga1 Si3 Ni8'
_cell_volume   249.01734649
_cell_formula_units_Z   1
loop_
 _symmetry_equiv_pos_site_id
 _symmetry_equiv_pos_as_xyz
  1  'x, y, z'
loop_
 _atom_site_type_symbol
 _atom_site_label
 _atom_site_symmetry_multiplicity
 _atom_site_fract_x
 _atom_site_fract_y
 _atom_site_fract_z
 _atom_site_occupancy
  Y  Y0  1  0.154199  0.250000  0.966337  1
  Y  Y1  1  0.352108  0.250000  0.470740  1
  Y  Y2  1  0.644418  0.750000  0.529152  1
  Y  Y3  1  0.846282  0.750000  0.032441  1
  Ga  Ga4  1  0.345490  0.750000  0.875560  1
  Si  Si5  1  0.651851  0.250000  0.124774  1
  Si  Si6  1  0.851719  0.250000  0.620738  1
  Si  Si7  1  0.145519  0.750000  0.374197  1
  Ni  Ni8  1  0.075418  0.557473  0.663602  1
  Ni  Ni9  1  0.075418  0.942527  0.663602  1
  Ni  Ni10  1  0.414201  0.555521  0.179274  1
  Ni  Ni11  1  0.908363  0.441038  0.328191  1
  Ni  Ni12  1  0.606225  0.438515  0.831964  1
  Ni  Ni13  1  0.908363  0.058962  0.328191  1
  Ni  Ni14  1  0.414201  0.944479  0.179274  1
  Ni  Ni15  1  0.606225  0.061485  0.831964  1
