# generated using pymatgen
data_Tb15Yb3(ErIr6)2
_symmetry_space_group_name_H-M   'P 1'
_cell_length_a   10.90809797
_cell_length_b   10.95477240
_cell_length_c   6.36269001
_cell_angle_alpha   89.96116646
_cell_angle_beta   90.21611322
_cell_angle_gamma   90.01135137
_symmetry_Int_Tables_number   1
_chemical_formula_structural   Tb15Yb3(ErIr6)2
_chemical_formula_sum   'Tb15 Yb3 Er2 Ir12'
_cell_volume   760.30869282
_cell_formula_units_Z   1
loop_
 _symmetry_equiv_pos_site_id
 _symmetry_equiv_pos_as_xyz
  1  'x, y, z'
loop_
 _atom_site_type_symbol
 _atom_site_label
 _atom_site_symmetry_multiplicity
 _atom_site_fract_x
 _atom_site_fract_y
 _atom_site_fract_z
 _atom_site_occupancy
  Tb  Tb0  1  0.708346  0.087550  0.879842  1
  Tb  Tb1  1  0.710495  0.914199  0.379610  1
  Tb  Tb2  1  0.587467  0.791891  0.878050  1
  Tb  Tb3  1  0.586353  0.207743  0.377559  1
  Tb  Tb4  1  0.411895  0.793010  0.379041  1
  Tb  Tb5  1  0.410995  0.207407  0.879813  1
  Tb  Tb6  1  0.209812  0.413126  0.623472  1
  Tb  Tb7  1  0.210293  0.588024  0.122518  1
  Tb  Tb8  1  0.790442  0.411351  0.120302  1
  Tb  Tb9  1  0.790816  0.587626  0.620931  1
  Tb  Tb10  1  0.911912  0.709130  0.122212  1
  Tb  Tb11  1  0.913334  0.288952  0.622668  1
  Tb  Tb12  1  0.086969  0.710655  0.620909  1
  Tb  Tb13  1  0.088652  0.291409  0.120676  1
  Tb  Tb14  1  0.001063  0.000333  0.999419  1
  Yb  Yb15  1  0.288003  0.086617  0.375745  1
  Yb  Yb16  1  0.290387  0.911792  0.875901  1
  Yb  Yb17  1  0.001773  0.999823  0.499151  1
  Er  Er18  1  0.500228  0.499681  0.998749  1
  Er  Er19  1  0.500154  0.500361  0.498917  1
  Ir  Ir20  1  0.846421  0.156197  0.246568  1
  Ir  Ir21  1  0.845960  0.844383  0.754411  1
  Ir  Ir22  1  0.151258  0.160887  0.756916  1
  Ir  Ir23  1  0.150404  0.837857  0.248306  1
  Ir  Ir24  1  0.651174  0.347097  0.748946  1
  Ir  Ir25  1  0.650801  0.653280  0.251206  1
  Ir  Ir26  1  0.348696  0.351720  0.248351  1
  Ir  Ir27  1  0.348270  0.648064  0.745660  1
  Ir  Ir28  1  0.503793  0.000348  0.121961  1
  Ir  Ir29  1  0.503745  0.999533  0.621192  1
  Ir  Ir30  1  0.000035  0.500217  0.880033  1
  Ir  Ir31  1  0.000054  0.499737  0.380963  1
