# generated using pymatgen
data_Ti8MnFe7
_symmetry_space_group_name_H-M   'P 1'
_cell_length_a   4.18355002
_cell_length_b   11.83383801
_cell_length_c   4.18425100
_cell_angle_alpha   90.00000000
_cell_angle_beta   90.00000000
_cell_angle_gamma   89.99732182
_symmetry_Int_Tables_number   1
_chemical_formula_structural   Ti8MnFe7
_chemical_formula_sum   'Ti8 Mn1 Fe7'
_cell_volume   207.15161052
_cell_formula_units_Z   1
loop_
 _symmetry_equiv_pos_site_id
 _symmetry_equiv_pos_as_xyz
  1  'x, y, z'
loop_
 _atom_site_type_symbol
 _atom_site_label
 _atom_site_symmetry_multiplicity
 _atom_site_fract_x
 _atom_site_fract_y
 _atom_site_fract_z
 _atom_site_occupancy
  Ti  Ti0  1  0.917035  0.000899  0.000000  1
  Ti  Ti1  1  0.916253  0.248884  0.000000  1
  Ti  Ti2  1  0.916347  0.499759  0.000000  1
  Ti  Ti3  1  0.917021  0.750463  0.000000  1
  Ti  Ti4  1  0.417036  0.000898  0.500000  1
  Ti  Ti5  1  0.416255  0.248887  0.500000  1
  Ti  Ti6  1  0.416348  0.499762  0.500000  1
  Ti  Ti7  1  0.417016  0.750465  0.500000  1
  Mn  Mn8  1  0.416596  0.124776  0.000000  1
  Fe  Fe9  1  0.416250  0.377036  0.000000  1
  Fe  Fe10  1  0.416686  0.625106  0.000000  1
  Fe  Fe11  1  0.417087  0.873052  0.000000  1
  Fe  Fe12  1  0.916634  0.124810  0.500000  1
  Fe  Fe13  1  0.916253  0.376235  0.500000  1
  Fe  Fe14  1  0.916688  0.625108  0.500000  1
  Fe  Fe15  1  0.917084  0.873865  0.500000  1
