# generated using pymatgen
data_Tm15Lu
_symmetry_space_group_name_H-M   'P 1'
_cell_length_a   7.14643200
_cell_length_b   7.14643230
_cell_length_c   11.01125100
_cell_angle_alpha   90.00000000
_cell_angle_beta   90.00000000
_cell_angle_gamma   119.99999863
_symmetry_Int_Tables_number   1
_chemical_formula_structural   Tm15Lu
_chemical_formula_sum   'Tm15 Lu1'
_cell_volume   487.01893809
_cell_formula_units_Z   1
loop_
 _symmetry_equiv_pos_site_id
 _symmetry_equiv_pos_as_xyz
  1  'x, y, z'
loop_
 _atom_site_type_symbol
 _atom_site_label
 _atom_site_symmetry_multiplicity
 _atom_site_fract_x
 _atom_site_fract_y
 _atom_site_fract_z
 _atom_site_occupancy
  Tm  Tm0  1  0.000000  0.000000  0.000000  1
  Tm  Tm1  1  0.001551  0.500776  0.500000  1
  Tm  Tm2  1  0.999244  0.499622  0.000000  1
  Tm  Tm3  1  0.499224  0.500776  0.500000  1
  Tm  Tm4  1  0.500378  0.499622  0.000000  1
  Tm  Tm5  1  0.499224  0.998449  0.500000  1
  Tm  Tm6  1  0.500378  0.000756  0.000000  1
  Tm  Tm7  1  0.166799  0.333598  0.249136  1
  Tm  Tm8  1  0.166799  0.333598  0.750864  1
  Tm  Tm9  1  0.166799  0.833201  0.249136  1
  Tm  Tm10  1  0.166799  0.833201  0.750864  1
  Tm  Tm11  1  0.666402  0.833201  0.249136  1
  Tm  Tm12  1  0.666402  0.833201  0.750864  1
  Tm  Tm13  1  0.666667  0.333333  0.251378  1
  Tm  Tm14  1  0.666667  0.333333  0.748622  1
  Lu  Lu15  1  0.000000  0.000000  0.500000  1
