# generated using pymatgen
data_K4Sm2Si8O21
_symmetry_space_group_name_H-M   'P 1'
_cell_length_a   11.66705100
_cell_length_b   8.54030227
_cell_length_c   13.60743500
_cell_angle_alpha   51.38041066
_cell_angle_beta   90.00000000
_cell_angle_gamma   90.00000000
_symmetry_Int_Tables_number   1
_chemical_formula_structural   K4Sm2Si8O21
_chemical_formula_sum   'K8 Sm4 Si16 O42'
_cell_volume   1059.33272999
_cell_formula_units_Z   2
loop_
 _symmetry_equiv_pos_site_id
 _symmetry_equiv_pos_as_xyz
  1  'x, y, z'
loop_
 _atom_site_type_symbol
 _atom_site_label
 _atom_site_symmetry_multiplicity
 _atom_site_fract_x
 _atom_site_fract_y
 _atom_site_fract_z
 _atom_site_occupancy
  K  K0  1  0.354039  0.216274  0.798388  1
  K  K1  1  0.466281  0.793729  0.698812  1
  K  K2  1  0.645961  0.783726  0.201612  1
  K  K3  1  0.854039  0.783726  0.701612  1
  K  K4  1  0.033719  0.793729  0.198812  1
  K  K5  1  0.966281  0.206271  0.801188  1
  K  K6  1  0.533719  0.206271  0.301188  1
  K  K7  1  0.145961  0.216274  0.298388  1
  Sm  Sm8  1  0.662464  0.267287  0.545064  1
  Sm  Sm9  1  0.837536  0.267287  0.045064  1
  Sm  Sm10  1  0.162464  0.732713  0.954936  1
  Sm  Sm11  1  0.337536  0.732713  0.454936  1
  Si  Si12  1  0.461555  0.686163  0.998871  1
  Si  Si13  1  0.538445  0.313837  0.001129  1
  Si  Si14  1  0.328294  0.613994  0.214531  1
  Si  Si15  1  0.961555  0.313837  0.501129  1
  Si  Si16  1  0.368214  0.275281  0.499071  1
  Si  Si17  1  0.338036  0.029328  0.156579  1
  Si  Si18  1  0.661964  0.970672  0.843421  1
  Si  Si19  1  0.838036  0.970672  0.343421  1
  Si  Si20  1  0.131786  0.275281  0.999071  1
  Si  Si21  1  0.171706  0.613994  0.714531  1
  Si  Si22  1  0.828294  0.386006  0.285469  1
  Si  Si23  1  0.631786  0.724719  0.500929  1
  Si  Si24  1  0.671706  0.386006  0.785469  1
  Si  Si25  1  0.868214  0.724719  0.000929  1
  Si  Si26  1  0.038445  0.686163  0.498871  1
  Si  Si27  1  0.161964  0.029328  0.656579  1
  O  O28  1  0.069921  0.160765  0.540342  1
  O  O29  1  0.859253  0.589415  0.956203  1
  O  O30  1  0.863491  0.216871  0.265964  1
  O  O31  1  0.439582  0.593360  0.147210  1
  O  O32  1  0.848143  0.941993  0.238496  1
  O  O33  1  0.713748  0.927050  0.411095  1
  O  O34  1  0.359253  0.410585  0.543797  1
  O  O35  1  0.993746  0.805299  0.996396  1
  O  O36  1  0.939582  0.406640  0.352790  1
  O  O37  1  0.060418  0.593360  0.647210  1
  O  O38  1  0.140747  0.410585  0.043797  1
  O  O39  1  0.363491  0.783129  0.234036  1
  O  O40  1  0.787914  0.337464  0.860925  1
  O  O41  1  0.560418  0.406640  0.852790  1
  O  O42  1  0.145148  0.803930  0.407749  1
  O  O43  1  0.651857  0.941993  0.738496  1
  O  O44  1  0.506254  0.805299  0.496396  1
  O  O45  1  0.493746  0.194701  0.503604  1
  O  O46  1  0.212086  0.662536  0.139075  1
  O  O47  1  0.854852  0.196070  0.592251  1
  O  O48  1  0.213748  0.072950  0.088905  1
  O  O49  1  0.136509  0.783129  0.734036  1
  O  O50  1  0.814799  0.602438  0.145453  1
  O  O51  1  0.569921  0.839235  0.959658  1
  O  O52  1  0.354852  0.803930  0.907749  1
  O  O53  1  0.287914  0.662536  0.639075  1
  O  O54  1  0.712086  0.337464  0.360925  1
  O  O55  1  0.006254  0.194701  0.003604  1
  O  O56  1  0.151857  0.058007  0.761504  1
  O  O57  1  0.286252  0.072950  0.588905  1
  O  O58  1  0.500000  0.500000  0.000000  1
  O  O59  1  0.930079  0.839235  0.459658  1
  O  O60  1  0.314799  0.397562  0.354547  1
  O  O61  1  0.685201  0.602438  0.645453  1
  O  O62  1  0.786252  0.927050  0.911095  1
  O  O63  1  0.348143  0.058007  0.261504  1
  O  O64  1  0.185201  0.397562  0.854547  1
  O  O65  1  0.636509  0.216871  0.765964  1
  O  O66  1  0.645148  0.196070  0.092251  1
  O  O67  1  0.640747  0.589415  0.456203  1
  O  O68  1  0.430079  0.160765  0.040342  1
  O  O69  1  0.000000  0.500000  0.500000  1
