# generated using pymatgen
data_Fe4Mo3P4W
_symmetry_space_group_name_H-M   'P 1'
_cell_length_a   3.67972500
_cell_length_b   5.90661800
_cell_length_c   6.73583200
_cell_angle_alpha   90.00011387
_cell_angle_beta   90.00000000
_cell_angle_gamma   90.00000000
_symmetry_Int_Tables_number   1
_chemical_formula_structural   Fe4Mo3P4W
_chemical_formula_sum   'Fe4 Mo3 P4 W1'
_cell_volume   146.40148931
_cell_formula_units_Z   1
loop_
 _symmetry_equiv_pos_site_id
 _symmetry_equiv_pos_as_xyz
  1  'x, y, z'
loop_
 _atom_site_type_symbol
 _atom_site_label
 _atom_site_symmetry_multiplicity
 _atom_site_fract_x
 _atom_site_fract_y
 _atom_site_fract_z
 _atom_site_occupancy
  Fe  Fe0  1  0.250000  0.860942  0.938231  1
  Fe  Fe1  1  0.250000  0.359128  0.561714  1
  Fe  Fe2  1  0.750000  0.138853  0.065211  1
  Fe  Fe3  1  0.750000  0.641165  0.436528  1
  Mo  Mo4  1  0.250000  0.472214  0.172053  1
  Mo  Mo5  1  0.750000  0.027855  0.672758  1
  Mo  Mo6  1  0.750000  0.527591  0.826856  1
  P  P7  1  0.250000  0.231113  0.879116  1
  P  P8  1  0.250000  0.728817  0.623137  1
  P  P9  1  0.750000  0.767863  0.118592  1
  P  P10  1  0.750000  0.271551  0.379061  1
  W  W11  1  0.250000  0.972908  0.326745  1
