# generated using pymatgen
data_Y2Th(CoSn)3
_symmetry_space_group_name_H-M   'P 1'
_cell_length_a   7.44103900
_cell_length_b   7.26579012
_cell_length_c   3.93425000
_cell_angle_alpha   90.00000000
_cell_angle_beta   90.00000000
_cell_angle_gamma   120.80112932
_symmetry_Int_Tables_number   1
_chemical_formula_structural   Y2Th(CoSn)3
_chemical_formula_sum   'Y2 Th1 Co3 Sn3'
_cell_volume   182.70320585
_cell_formula_units_Z   1
loop_
 _symmetry_equiv_pos_site_id
 _symmetry_equiv_pos_as_xyz
  1  'x, y, z'
loop_
 _atom_site_type_symbol
 _atom_site_label
 _atom_site_symmetry_multiplicity
 _atom_site_fract_x
 _atom_site_fract_y
 _atom_site_fract_z
 _atom_site_occupancy
  Y  Y0  1  0.998710  0.592053  0.500000  1
  Y  Y1  1  0.406657  0.407947  0.500000  1
  Th  Th2  1  0.583275  0.000000  0.500000  1
  Co  Co3  1  0.354462  0.689384  0.000000  1
  Co  Co4  1  0.993019  0.000000  0.500000  1
  Co  Co5  1  0.665078  0.310616  0.000000  1
  Sn  Sn6  1  0.746681  0.736166  0.000000  1
  Sn  Sn7  1  0.010515  0.263834  0.000000  1
  Sn  Sn8  1  0.241603  0.000000  0.000000  1
