# generated using pymatgen
data_PuSc(Nb2N3)4
_symmetry_space_group_name_H-M   'P 1'
_cell_length_a   5.30885100
_cell_length_b   5.30885276
_cell_length_c   10.57576600
_cell_angle_alpha   90.00000000
_cell_angle_beta   90.00000000
_cell_angle_gamma   120.00000771
_symmetry_Int_Tables_number   1
_chemical_formula_structural   PuSc(Nb2N3)4
_chemical_formula_sum   'Pu1 Sc1 Nb8 N12'
_cell_volume   258.13307091
_cell_formula_units_Z   1
loop_
 _symmetry_equiv_pos_site_id
 _symmetry_equiv_pos_as_xyz
  1  'x, y, z'
loop_
 _atom_site_type_symbol
 _atom_site_label
 _atom_site_symmetry_multiplicity
 _atom_site_fract_x
 _atom_site_fract_y
 _atom_site_fract_z
 _atom_site_occupancy
  Pu  Pu0  1  0.666667  0.333333  0.000000  1
  Sc  Sc1  1  0.333333  0.666667  0.500000  1
  Nb  Nb2  1  0.666667  0.333333  0.500000  1
  Nb  Nb3  1  0.333333  0.666667  0.000000  1
  Nb  Nb4  1  0.675933  0.998059  0.747581  1
  Nb  Nb5  1  0.675933  0.677875  0.252419  1
  Nb  Nb6  1  0.001941  0.324067  0.252419  1
  Nb  Nb7  1  0.001941  0.677875  0.747581  1
  Nb  Nb8  1  0.322125  0.324067  0.747581  1
  Nb  Nb9  1  0.322125  0.998059  0.252419  1
  N  N10  1  0.349380  0.343293  0.376897  1
  N  N11  1  0.656707  0.006088  0.376897  1
  N  N12  1  0.993912  0.650620  0.376897  1
  N  N13  1  0.003561  0.346310  0.871778  1
  N  N14  1  0.653690  0.996439  0.128222  1
  N  N15  1  0.653690  0.657251  0.871778  1
  N  N16  1  0.342749  0.996439  0.871778  1
  N  N17  1  0.656707  0.650620  0.623103  1
  N  N18  1  0.993912  0.343293  0.623103  1
  N  N19  1  0.003561  0.657251  0.128222  1
  N  N20  1  0.349380  0.006088  0.623103  1
  N  N21  1  0.342749  0.346310  0.128222  1
