# generated using pymatgen
data_Yb2DyYNi14
_symmetry_space_group_name_H-M   'P 1'
_cell_length_a   4.89012170
_cell_length_b   4.89012212
_cell_length_c   12.31093006
_cell_angle_alpha   78.54438028
_cell_angle_beta   78.54438096
_cell_angle_gamma   59.99999738
_symmetry_Int_Tables_number   1
_chemical_formula_structural   Yb2DyYNi14
_chemical_formula_sum   'Yb2 Dy1 Y1 Ni14'
_cell_volume   248.15837170
_cell_formula_units_Z   1
loop_
 _symmetry_equiv_pos_site_id
 _symmetry_equiv_pos_as_xyz
  1  'x, y, z'
loop_
 _atom_site_type_symbol
 _atom_site_label
 _atom_site_symmetry_multiplicity
 _atom_site_fract_x
 _atom_site_fract_y
 _atom_site_fract_z
 _atom_site_occupancy
  Yb  Yb0  1  0.851110  0.851110  0.446668  1
  Yb  Yb1  1  0.148932  0.148932  0.553206  1
  Dy  Dy2  1  0.947708  0.947708  0.156876  1
  Y  Y3  1  0.052275  0.052275  0.843175  1
  Ni  Ni4  1  0.500001  0.500001  0.499997  1
  Ni  Ni5  1  0.722242  0.722242  0.833273  1
  Ni  Ni6  1  0.277768  0.277768  0.166697  1
  Ni  Ni7  1  0.611450  0.611450  0.165650  1
  Ni  Ni8  1  0.388554  0.388554  0.834339  1
  Ni  Ni9  1  0.999953  0.499990  0.000067  1
  Ni  Ni10  1  0.499990  0.999953  0.000067  1
  Ni  Ni11  1  0.499990  0.499990  0.000067  1
  Ni  Ni12  1  0.389185  0.389185  0.331402  1
  Ni  Ni13  1  0.890228  0.389185  0.331402  1
  Ni  Ni14  1  0.389185  0.890228  0.331402  1
  Ni  Ni15  1  0.610842  0.610842  0.668571  1
  Ni  Ni16  1  0.109744  0.610842  0.668571  1
  Ni  Ni17  1  0.610842  0.109744  0.668571  1
