# generated using pymatgen
data_Ho3Er5Os3WC8
_symmetry_space_group_name_H-M   'P 1'
_cell_length_a   5.07423000
_cell_length_b   6.51487329
_cell_length_c   9.76283555
_cell_angle_alpha   89.63440424
_cell_angle_beta   90.00000000
_cell_angle_gamma   90.00000000
_symmetry_Int_Tables_number   1
_chemical_formula_structural   Ho3Er5Os3WC8
_chemical_formula_sum   'Ho3 Er5 Os3 W1 C8'
_cell_volume   322.73291057
_cell_formula_units_Z   1
loop_
 _symmetry_equiv_pos_site_id
 _symmetry_equiv_pos_as_xyz
  1  'x, y, z'
loop_
 _atom_site_type_symbol
 _atom_site_label
 _atom_site_symmetry_multiplicity
 _atom_site_fract_x
 _atom_site_fract_y
 _atom_site_fract_z
 _atom_site_occupancy
  Ho  Ho0  1  0.250000  0.531551  0.213904  1
  Ho  Ho1  1  0.750000  0.970128  0.716215  1
  Ho  Ho2  1  0.250000  0.029797  0.285358  1
  Er  Er3  1  0.250000  0.678330  0.554782  1
  Er  Er4  1  0.750000  0.322721  0.444281  1
  Er  Er5  1  0.750000  0.824307  0.055815  1
  Er  Er6  1  0.250000  0.180381  0.943659  1
  Er  Er7  1  0.750000  0.466830  0.780267  1
  Os  Os8  1  0.750000  0.279483  0.134443  1
  Os  Os9  1  0.750000  0.777891  0.364994  1
  Os  Os10  1  0.250000  0.223208  0.631662  1
  W  W11  1  0.250000  0.720291  0.868486  1
  C  C12  1  0.250000  0.452289  0.759617  1
  C  C13  1  0.750000  0.543519  0.242217  1
  C  C14  1  0.750000  0.044571  0.259067  1
  C  C15  1  0.250000  0.957221  0.739882  1
  C  C16  1  0.250000  0.826212  0.058222  1
  C  C17  1  0.750000  0.174059  0.948892  1
  C  C18  1  0.750000  0.671511  0.552006  1
  C  C19  1  0.250000  0.325700  0.446233  1
