# generated using pymatgen
data_Cs4Yb(NbS4)2
_symmetry_space_group_name_H-M   'P 1'
_cell_length_a   9.81431412
_cell_length_b   9.93926728
_cell_length_c   12.02834553
_cell_angle_alpha   105.65742050
_cell_angle_beta   104.29579544
_cell_angle_gamma   93.06640008
_symmetry_Int_Tables_number   1
_chemical_formula_structural   Cs4Yb(NbS4)2
_chemical_formula_sum   'Cs8 Yb2 Nb4 S16'
_cell_volume   1085.69333121
_cell_formula_units_Z   2
loop_
 _symmetry_equiv_pos_site_id
 _symmetry_equiv_pos_as_xyz
  1  'x, y, z'
loop_
 _atom_site_type_symbol
 _atom_site_label
 _atom_site_symmetry_multiplicity
 _atom_site_fract_x
 _atom_site_fract_y
 _atom_site_fract_z
 _atom_site_occupancy
  Cs  Cs0  1  0.936250  0.525719  0.253167  1
  Cs  Cs1  1  0.063750  0.474281  0.746833  1
  Cs  Cs2  1  0.762764  0.988753  0.460839  1
  Cs  Cs3  1  0.237236  0.011247  0.539161  1
  Cs  Cs4  1  0.601268  0.742956  0.018126  1
  Cs  Cs5  1  0.398732  0.257044  0.981874  1
  Cs  Cs6  1  0.618758  0.679222  0.619190  1
  Cs  Cs7  1  0.381242  0.320778  0.380810  1
  Yb  Yb8  1  0.852110  0.134485  0.925022  1
  Yb  Yb9  1  0.147890  0.865515  0.074978  1
  Nb  Nb10  1  0.951108  0.108762  0.224050  1
  Nb  Nb11  1  0.048892  0.891238  0.775950  1
  Nb  Nb12  1  0.368577  0.690869  0.255425  1
  Nb  Nb13  1  0.631423  0.309131  0.744575  1
  S  S14  1  0.965573  0.880588  0.228380  1
  S  S15  1  0.034427  0.119412  0.771620  1
  S  S16  1  0.594697  0.074282  0.737881  1
  S  S17  1  0.405303  0.925718  0.262119  1
  S  S18  1  0.289232  0.668017  0.413043  1
  S  S19  1  0.710768  0.331983  0.586957  1
  S  S20  1  0.801990  0.411766  0.922469  1
  S  S21  1  0.198010  0.588234  0.077531  1
  S  S22  1  0.016079  0.254723  0.413605  1
  S  S23  1  0.983921  0.745277  0.586395  1
  S  S24  1  0.106490  0.160348  0.119822  1
  S  S25  1  0.893510  0.839652  0.880178  1
  S  S26  1  0.730512  0.132582  0.115906  1
  S  S27  1  0.269488  0.867418  0.884094  1
  S  S28  1  0.570830  0.586479  0.260510  1
  S  S29  1  0.429170  0.413521  0.739490  1
