# generated using pymatgen
data_GdSc(BiO4)2
_symmetry_space_group_name_H-M   'P 1'
_cell_length_a   5.47242945
_cell_length_b   7.77488529
_cell_length_c   7.78515600
_cell_angle_alpha   82.21787357
_cell_angle_beta   87.12844400
_cell_angle_gamma   91.66106541
_symmetry_Int_Tables_number   1
_chemical_formula_structural   GdSc(BiO4)2
_chemical_formula_sum   'Gd2 Sc2 Bi4 O16'
_cell_volume   327.56203112
_cell_formula_units_Z   2
loop_
 _symmetry_equiv_pos_site_id
 _symmetry_equiv_pos_as_xyz
  1  'x, y, z'
loop_
 _atom_site_type_symbol
 _atom_site_label
 _atom_site_symmetry_multiplicity
 _atom_site_fract_x
 _atom_site_fract_y
 _atom_site_fract_z
 _atom_site_occupancy
  Gd  Gd0  1  0.743520  0.871747  0.379930  1
  Gd  Gd1  1  0.256480  0.128253  0.620070  1
  Sc  Sc2  1  0.726546  0.356702  0.334294  1
  Sc  Sc3  1  0.273454  0.643298  0.665706  1
  Bi  Bi4  1  0.773262  0.822637  0.846137  1
  Bi  Bi5  1  0.226738  0.177363  0.153863  1
  Bi  Bi6  1  0.241894  0.670711  0.175873  1
  Bi  Bi7  1  0.758106  0.329289  0.824127  1
  O  O8  1  0.900180  0.314954  0.077954  1
  O  O9  1  0.099820  0.685046  0.922046  1
  O  O10  1  0.408895  0.424954  0.183103  1
  O  O11  1  0.591105  0.575046  0.816897  1
  O  O12  1  0.074067  0.921401  0.175733  1
  O  O13  1  0.925933  0.078599  0.824267  1
  O  O14  1  0.576966  0.822702  0.088028  1
  O  O15  1  0.423034  0.177298  0.911972  1
  O  O16  1  0.002209  0.822510  0.609419  1
  O  O17  1  0.997791  0.177490  0.390581  1
  O  O18  1  0.410643  0.682686  0.414311  1
  O  O19  1  0.589357  0.317314  0.585689  1
  O  O20  1  0.496382  0.110793  0.335418  1
  O  O21  1  0.503618  0.889207  0.664582  1
  O  O22  1  0.908360  0.594473  0.312572  1
  O  O23  1  0.091640  0.405527  0.687428  1
