# generated using pymatgen
data_Nd6Er10Cd4Ru3Pt
_symmetry_space_group_name_H-M   'P 1'
_cell_length_a   9.65546008
_cell_length_b   9.75112422
_cell_length_c   9.75112400
_cell_angle_alpha   60.00000075
_cell_angle_beta   59.67170934
_cell_angle_gamma   59.67171360
_symmetry_Int_Tables_number   1
_chemical_formula_structural   Nd6Er10Cd4Ru3Pt
_chemical_formula_sum   'Nd6 Er10 Cd4 Ru3 Pt1'
_cell_volume   645.94333914
_cell_formula_units_Z   1
loop_
 _symmetry_equiv_pos_site_id
 _symmetry_equiv_pos_as_xyz
  1  'x, y, z'
loop_
 _atom_site_type_symbol
 _atom_site_label
 _atom_site_symmetry_multiplicity
 _atom_site_fract_x
 _atom_site_fract_y
 _atom_site_fract_z
 _atom_site_occupancy
  Nd  Nd0  1  0.938290  0.560405  0.560405  1
  Nd  Nd1  1  0.556268  0.940854  0.940854  1
  Nd  Nd2  1  0.556268  0.940854  0.562023  1
  Nd  Nd3  1  0.938290  0.560405  0.940900  1
  Nd  Nd4  1  0.556268  0.562023  0.940854  1
  Nd  Nd5  1  0.938290  0.940900  0.560405  1
  Er  Er6  1  0.342922  0.348221  0.348221  1
  Er  Er7  1  0.342922  0.348221  0.960637  1
  Er  Er8  1  0.342922  0.960637  0.348221  1
  Er  Er9  1  0.968167  0.343945  0.343945  1
  Er  Er10  1  0.817098  0.186921  0.186921  1
  Er  Er11  1  0.185792  0.814343  0.814343  1
  Er  Er12  1  0.185792  0.814343  0.185523  1
  Er  Er13  1  0.817098  0.186921  0.809060  1
  Er  Er14  1  0.185792  0.185523  0.814343  1
  Er  Er15  1  0.817098  0.809060  0.186921  1
  Cd  Cd16  1  0.579623  0.578498  0.578498  1
  Cd  Cd17  1  0.579623  0.578498  0.263382  1
  Cd  Cd18  1  0.579623  0.263382  0.578498  1
  Cd  Cd19  1  0.261869  0.579377  0.579377  1
  Ru  Ru20  1  0.144556  0.138187  0.138187  1
  Ru  Ru21  1  0.144556  0.138187  0.579069  1
  Ru  Ru22  1  0.144556  0.579069  0.138187  1
  Pt  Pt23  1  0.576317  0.141227  0.141227  1
