# generated using pymatgen
data_Li4Ac3PrIn8
_symmetry_space_group_name_H-M   'P 1'
_cell_length_a   5.04106400
_cell_length_b   7.26483799
_cell_length_c   11.55479601
_cell_angle_alpha   90.38151781
_cell_angle_beta   90.00000000
_cell_angle_gamma   90.00000000
_symmetry_Int_Tables_number   1
_chemical_formula_structural   Li4Ac3PrIn8
_chemical_formula_sum   'Li4 Ac3 Pr1 In8'
_cell_volume   423.15628855
_cell_formula_units_Z   1
loop_
 _symmetry_equiv_pos_site_id
 _symmetry_equiv_pos_as_xyz
  1  'x, y, z'
loop_
 _atom_site_type_symbol
 _atom_site_label
 _atom_site_symmetry_multiplicity
 _atom_site_fract_x
 _atom_site_fract_y
 _atom_site_fract_z
 _atom_site_occupancy
  Li  Li0  1  0.750000  0.546644  0.110289  1
  Li  Li1  1  0.750000  0.060367  0.383272  1
  Li  Li2  1  0.250000  0.956259  0.612364  1
  Li  Li3  1  0.250000  0.437120  0.882366  1
  Ac  Ac4  1  0.250000  0.241697  0.154356  1
  Ac  Ac5  1  0.250000  0.751906  0.347225  1
  Ac  Ac6  1  0.750000  0.261416  0.655179  1
  Pr  Pr7  1  0.750000  0.749052  0.849420  1
  In  In8  1  0.250000  0.740357  0.046431  1
  In  In9  1  0.750000  0.929346  0.145315  1
  In  In10  1  0.750000  0.445903  0.353581  1
  In  In11  1  0.250000  0.258941  0.450813  1
  In  In12  1  0.750000  0.760812  0.555761  1
  In  In13  1  0.250000  0.578339  0.655060  1
  In  In14  1  0.250000  0.042748  0.850440  1
  In  In15  1  0.750000  0.239092  0.948130  1
