# generated using pymatgen
data_Tm9Zn(Ni2Bi)2
_symmetry_space_group_name_H-M   'P 1'
_cell_length_a   8.76099512
_cell_length_b   8.76099457
_cell_length_c   8.76099563
_cell_angle_alpha   130.90942740
_cell_angle_beta   130.90942560
_cell_angle_gamma   71.95702373
_symmetry_Int_Tables_number   1
_chemical_formula_structural   Tm9Zn(Ni2Bi)2
_chemical_formula_sum   'Tm9 Zn1 Ni4 Bi2'
_cell_volume   375.62548084
_cell_formula_units_Z   1
loop_
 _symmetry_equiv_pos_site_id
 _symmetry_equiv_pos_as_xyz
  1  'x, y, z'
loop_
 _atom_site_type_symbol
 _atom_site_label
 _atom_site_symmetry_multiplicity
 _atom_site_fract_x
 _atom_site_fract_y
 _atom_site_fract_z
 _atom_site_occupancy
  Tm  Tm0  1  0.000000  0.000000  0.000000  1
  Tm  Tm1  1  0.776019  0.307360  0.833362  1
  Tm  Tm2  1  0.223981  0.692640  0.166638  1
  Tm  Tm3  1  0.473998  0.942657  0.166638  1
  Tm  Tm4  1  0.307360  0.473998  0.531340  1
  Tm  Tm5  1  0.057343  0.223981  0.531340  1
  Tm  Tm6  1  0.526002  0.057343  0.833362  1
  Tm  Tm7  1  0.692640  0.526002  0.468660  1
  Tm  Tm8  1  0.942657  0.776019  0.468660  1
  Zn  Zn9  1  0.500000  0.500000  0.000000  1
  Ni  Ni10  1  0.126612  0.627881  0.754494  1
  Ni  Ni11  1  0.873388  0.372119  0.245506  1
  Ni  Ni12  1  0.627881  0.873388  0.501269  1
  Ni  Ni13  1  0.372119  0.126612  0.498731  1
  Bi  Bi14  1  0.232686  0.232686  0.000000  1
  Bi  Bi15  1  0.767314  0.767314  0.000000  1
