# generated using pymatgen
data_SmEr2Al7Cu2
_symmetry_space_group_name_H-M   'P 1'
_cell_length_a   9.06638279
_cell_length_b   9.06638329
_cell_length_c   9.06638235
_cell_angle_alpha   35.18262014
_cell_angle_beta   35.18261583
_cell_angle_gamma   35.18261910
_symmetry_Int_Tables_number   1
_chemical_formula_structural   SmEr2Al7Cu2
_chemical_formula_sum   'Sm1 Er2 Al7 Cu2'
_cell_volume   220.98072552
_cell_formula_units_Z   1
loop_
 _symmetry_equiv_pos_site_id
 _symmetry_equiv_pos_as_xyz
  1  'x, y, z'
loop_
 _atom_site_type_symbol
 _atom_site_label
 _atom_site_symmetry_multiplicity
 _atom_site_fract_x
 _atom_site_fract_y
 _atom_site_fract_z
 _atom_site_occupancy
  Sm  Sm0  1  0.000000  0.000000  0.000000  1
  Er  Er1  1  0.142259  0.142259  0.142259  1
  Er  Er2  1  0.857741  0.857741  0.857741  1
  Al  Al3  1  0.582479  0.582479  0.073153  1
  Al  Al4  1  0.926848  0.417520  0.417522  1
  Al  Al5  1  0.417520  0.926848  0.417522  1
  Al  Al6  1  0.500000  0.500000  0.500000  1
  Al  Al7  1  0.582480  0.073152  0.582478  1
  Al  Al8  1  0.073152  0.582480  0.582478  1
  Al  Al9  1  0.417521  0.417521  0.926847  1
  Cu  Cu10  1  0.335240  0.335240  0.335240  1
  Cu  Cu11  1  0.664761  0.664761  0.664761  1
