# generated using pymatgen
data_Dy14ErTh(CdCo)4
_symmetry_space_group_name_H-M   'P 1'
_cell_length_a   9.49358260
_cell_length_b   9.51601948
_cell_length_c   9.49358342
_cell_angle_alpha   60.07009818
_cell_angle_beta   60.05625860
_cell_angle_gamma   60.07010156
_symmetry_Int_Tables_number   1
_chemical_formula_structural   Dy14ErTh(CdCo)4
_chemical_formula_sum   'Dy14 Er1 Th1 Cd4 Co4'
_cell_volume   607.35789290
_cell_formula_units_Z   1
loop_
 _symmetry_equiv_pos_site_id
 _symmetry_equiv_pos_as_xyz
  1  'x, y, z'
loop_
 _atom_site_type_symbol
 _atom_site_label
 _atom_site_symmetry_multiplicity
 _atom_site_fract_x
 _atom_site_fract_y
 _atom_site_fract_z
 _atom_site_occupancy
  Dy  Dy0  1  0.688983  0.311823  0.312210  1
  Dy  Dy1  1  0.937872  0.563016  0.562578  1
  Dy  Dy2  1  0.543317  0.150638  0.150758  1
  Dy  Dy3  1  0.150758  0.150638  0.543317  1
  Dy  Dy4  1  0.937363  0.938836  0.560869  1
  Dy  Dy5  1  0.311990  0.689846  0.311990  1
  Dy  Dy6  1  0.560869  0.938836  0.937363  1
  Dy  Dy7  1  0.560678  0.940885  0.560678  1
  Dy  Dy8  1  0.686935  0.688617  0.315007  1
  Dy  Dy9  1  0.562578  0.563016  0.937872  1
  Dy  Dy10  1  0.937550  0.562221  0.937550  1
  Dy  Dy11  1  0.315007  0.688617  0.686935  1
  Dy  Dy12  1  0.153870  0.151573  0.153870  1
  Dy  Dy13  1  0.312210  0.311823  0.688983  1
  Er  Er14  1  0.688821  0.313903  0.688821  1
  Th  Th15  1  0.156533  0.529212  0.156533  1
  Cd  Cd16  1  0.919231  0.242272  0.919231  1
  Cd  Cd17  1  0.918976  0.920536  0.918976  1
  Cd  Cd18  1  0.918878  0.919796  0.243342  1
  Cd  Cd19  1  0.243342  0.919796  0.918878  1
  Co  Co20  1  0.355057  0.360695  0.926070  1
  Co  Co21  1  0.357505  0.922927  0.357505  1
  Co  Co22  1  0.926070  0.360695  0.355057  1
  Co  Co23  1  0.355612  0.359782  0.355612  1
