# generated using pymatgen
data_Tb7ZrAlPd24
_symmetry_space_group_name_H-M   'P 1'
_cell_length_a   8.33519900
_cell_length_b   8.33519868
_cell_length_c   8.33519826
_cell_angle_alpha   89.74279196
_cell_angle_beta   90.25720431
_cell_angle_gamma   90.25720720
_symmetry_Int_Tables_number   1
_chemical_formula_structural   Tb7ZrAlPd24
_chemical_formula_sum   'Tb7 Zr1 Al1 Pd24'
_cell_volume   579.07494468
_cell_formula_units_Z   1
loop_
 _symmetry_equiv_pos_site_id
 _symmetry_equiv_pos_as_xyz
  1  'x, y, z'
loop_
 _atom_site_type_symbol
 _atom_site_label
 _atom_site_symmetry_multiplicity
 _atom_site_fract_x
 _atom_site_fract_y
 _atom_site_fract_z
 _atom_site_occupancy
  Tb  Tb0  1  0.251240  0.252310  0.252310  1
  Tb  Tb1  1  0.748208  0.748063  0.748063  1
  Tb  Tb2  1  0.747690  0.748760  0.252310  1
  Tb  Tb3  1  0.747690  0.252310  0.748760  1
  Tb  Tb4  1  0.251937  0.251792  0.748063  1
  Tb  Tb5  1  0.251937  0.748063  0.251792  1
  Tb  Tb6  1  0.252716  0.747284  0.747284  1
  Zr  Zr7  1  0.745526  0.254474  0.254474  1
  Al  Al8  1  0.001838  0.998162  0.998162  1
  Pd  Pd9  1  0.259375  0.498439  0.000460  1
  Pd  Pd10  1  0.740539  0.496744  0.005751  1
  Pd  Pd11  1  0.994249  0.259461  0.496744  1
  Pd  Pd12  1  0.503256  0.259461  0.005751  1
  Pd  Pd13  1  0.999540  0.740625  0.498439  1
  Pd  Pd14  1  0.501561  0.740625  0.000460  1
  Pd  Pd15  1  0.503256  0.005751  0.259461  1
  Pd  Pd16  1  0.259375  0.000460  0.498439  1
  Pd  Pd17  1  0.501561  0.000460  0.740625  1
  Pd  Pd18  1  0.740539  0.005751  0.496744  1
  Pd  Pd19  1  0.994249  0.496744  0.259461  1
  Pd  Pd20  1  0.999540  0.498439  0.740625  1
  Pd  Pd21  1  0.252524  0.499002  0.499002  1
  Pd  Pd22  1  0.746911  0.496337  0.496337  1
  Pd  Pd23  1  0.503663  0.253089  0.496337  1
  Pd  Pd24  1  0.500998  0.747476  0.499002  1
  Pd  Pd25  1  0.503663  0.496337  0.253089  1
  Pd  Pd26  1  0.500998  0.499002  0.747476  1
  Pd  Pd27  1  0.290456  0.999833  0.999833  1
  Pd  Pd28  1  0.713468  0.004416  0.004416  1
  Pd  Pd29  1  0.995584  0.286532  0.004416  1
  Pd  Pd30  1  0.000167  0.709544  0.999833  1
  Pd  Pd31  1  0.995584  0.004416  0.286532  1
  Pd  Pd32  1  0.000167  0.999833  0.709544  1
