# generated using pymatgen
data_Pr8In2OsRh
_symmetry_space_group_name_H-M   'P 1'
_cell_length_a   10.04281027
_cell_length_b   10.09931167
_cell_length_c   10.04282922
_cell_angle_alpha   59.81378783
_cell_angle_beta   59.62566488
_cell_angle_gamma   59.81371412
_symmetry_Int_Tables_number   1
_chemical_formula_structural   Pr8In2OsRh
_chemical_formula_sum   'Pr16 In4 Os2 Rh2'
_cell_volume   716.18126588
_cell_formula_units_Z   2
loop_
 _symmetry_equiv_pos_site_id
 _symmetry_equiv_pos_as_xyz
  1  'x, y, z'
loop_
 _atom_site_type_symbol
 _atom_site_label
 _atom_site_symmetry_multiplicity
 _atom_site_fract_x
 _atom_site_fract_y
 _atom_site_fract_z
 _atom_site_occupancy
  Pr  Pr0  1  0.810870  0.805927  0.189943  1
  Pr  Pr1  1  0.808941  0.191060  0.808939  1
  Pr  Pr2  1  0.189944  0.193260  0.810869  1
  Pr  Pr3  1  0.651335  0.045024  0.651334  1
  Pr  Pr4  1  0.059536  0.058327  0.445190  1
  Pr  Pr5  1  0.445186  0.436949  0.059537  1
  Pr  Pr6  1  0.651335  0.652309  0.651334  1
  Pr  Pr7  1  0.810870  0.193260  0.189943  1
  Pr  Pr8  1  0.189944  0.805927  0.810869  1
  Pr  Pr9  1  0.042291  0.652795  0.652119  1
  Pr  Pr10  1  0.445186  0.058328  0.059537  1
  Pr  Pr11  1  0.437755  0.062245  0.437754  1
  Pr  Pr12  1  0.056625  0.443375  0.056624  1
  Pr  Pr13  1  0.652121  0.652794  0.042290  1
  Pr  Pr14  1  0.193993  0.806007  0.193992  1
  Pr  Pr15  1  0.059536  0.436948  0.445190  1
  In  In16  1  0.419649  0.418691  0.419649  1
  In  In17  1  0.418943  0.418829  0.743397  1
  In  In18  1  0.419649  0.742011  0.419649  1
  In  In19  1  0.743395  0.418830  0.418942  1
  Os  Os20  1  0.857971  0.420608  0.857968  1
  Os  Os21  1  0.857971  0.863454  0.857968  1
  Rh  Rh22  1  0.857335  0.861517  0.419632  1
  Rh  Rh23  1  0.419622  0.861525  0.857331  1
