# generated using pymatgen
data_La5Cu2Ni17
_symmetry_space_group_name_H-M   'P 1'
_cell_length_a   5.04402337
_cell_length_b   5.04402404
_cell_length_c   16.69031765
_cell_angle_alpha   81.30895659
_cell_angle_beta   81.30895454
_cell_angle_gamma   60.00000563
_symmetry_Int_Tables_number   1
_chemical_formula_structural   La5Cu2Ni17
_chemical_formula_sum   'La5 Cu2 Ni17'
_cell_volume   362.10615795
_cell_formula_units_Z   1
loop_
 _symmetry_equiv_pos_site_id
 _symmetry_equiv_pos_as_xyz
  1  'x, y, z'
loop_
 _atom_site_type_symbol
 _atom_site_label
 _atom_site_symmetry_multiplicity
 _atom_site_fract_x
 _atom_site_fract_y
 _atom_site_fract_z
 _atom_site_occupancy
  La  La0  1  0.000000  0.000000  0.000000  1
  La  La1  1  0.922707  0.922707  0.231879  1
  La  La2  1  0.077293  0.077293  0.768121  1
  La  La3  1  0.849074  0.849074  0.452781  1
  La  La4  1  0.150926  0.150926  0.547219  1
  Cu  Cu5  1  0.748473  0.748474  0.754582  1
  Cu  Cu6  1  0.251526  0.251526  0.245419  1
  Ni  Ni7  1  0.500000  0.500000  0.500000  1
  Ni  Ni8  1  0.666787  0.666787  0.999641  1
  Ni  Ni9  1  0.333213  0.333213  0.000359  1
  Ni  Ni10  1  0.584929  0.584929  0.245214  1
  Ni  Ni11  1  0.415071  0.415071  0.754786  1
  Ni  Ni12  1  0.378597  0.378597  0.368043  1
  Ni  Ni13  1  0.874762  0.378597  0.368043  1
  Ni  Ni14  1  0.378597  0.874762  0.368043  1
  Ni  Ni15  1  0.621403  0.621403  0.631957  1
  Ni  Ni16  1  0.125238  0.621403  0.631957  1
  Ni  Ni17  1  0.621403  0.125238  0.631957  1
  Ni  Ni18  1  0.460330  0.460330  0.120615  1
  Ni  Ni19  1  0.958724  0.460330  0.120615  1
  Ni  Ni20  1  0.460330  0.958724  0.120615  1
  Ni  Ni21  1  0.539670  0.539670  0.879385  1
  Ni  Ni22  1  0.041276  0.539670  0.879385  1
  Ni  Ni23  1  0.539670  0.041276  0.879385  1
