# generated using pymatgen
data_Sc4VMo2Os5
_symmetry_space_group_name_H-M   'P 1'
_cell_length_a   5.31647762
_cell_length_b   5.19272724
_cell_length_c   8.69674400
_cell_angle_alpha   90.00000000
_cell_angle_beta   90.00000000
_cell_angle_gamma   121.52744660
_symmetry_Int_Tables_number   1
_chemical_formula_structural   Sc4VMo2Os5
_chemical_formula_sum   'Sc4 V1 Mo2 Os5'
_cell_volume   204.65125735
_cell_formula_units_Z   1
loop_
 _symmetry_equiv_pos_site_id
 _symmetry_equiv_pos_as_xyz
  1  'x, y, z'
loop_
 _atom_site_type_symbol
 _atom_site_label
 _atom_site_symmetry_multiplicity
 _atom_site_fract_x
 _atom_site_fract_y
 _atom_site_fract_z
 _atom_site_occupancy
  Sc  Sc0  1  0.330275  0.659617  0.440189  1
  Sc  Sc1  1  0.669063  0.338082  0.566672  1
  Sc  Sc2  1  0.669063  0.338082  0.933328  1
  Sc  Sc3  1  0.330275  0.659617  0.059811  1
  V  V4  1  0.168613  0.336555  0.750000  1
  Mo  Mo5  1  0.343054  0.171036  0.250000  1
  Mo  Mo6  1  0.833729  0.666626  0.250000  1
  Os  Os7  1  0.174910  0.824468  0.750000  1
  Os  Os8  1  0.650500  0.826146  0.750000  1
  Os  Os9  1  0.002307  0.002703  0.994671  1
  Os  Os10  1  0.825901  0.174369  0.250000  1
  Os  Os11  1  0.002307  0.002703  0.505329  1
