# generated using pymatgen
data_HoErMoWC3
_symmetry_space_group_name_H-M   'P 1'
_cell_length_a   6.08308853
_cell_length_b   6.08308897
_cell_length_c   5.69680037
_cell_angle_alpha   68.84484981
_cell_angle_beta   68.84484661
_cell_angle_gamma   31.74446600
_symmetry_Int_Tables_number   1
_chemical_formula_structural   HoErMoWC3
_chemical_formula_sum   'Ho1 Er1 Mo1 W1 C3'
_cell_volume   102.80811008
_cell_formula_units_Z   1
loop_
 _symmetry_equiv_pos_site_id
 _symmetry_equiv_pos_as_xyz
  1  'x, y, z'
loop_
 _atom_site_type_symbol
 _atom_site_label
 _atom_site_symmetry_multiplicity
 _atom_site_fract_x
 _atom_site_fract_y
 _atom_site_fract_z
 _atom_site_occupancy
  Ho  Ho0  1  0.610173  0.610173  0.177633  1
  Er  Er1  1  0.389203  0.389203  0.827428  1
  Mo  Mo2  1  0.844543  0.844543  0.325815  1
  W  W3  1  0.156696  0.156696  0.671585  1
  C  C4  1  0.750741  0.750741  0.736827  1
  C  C5  1  0.248185  0.248185  0.264379  1
  C  C6  1  0.000461  0.000461  0.996334  1
