# generated using pymatgen
data_LaTb2Si5PPd20
_symmetry_space_group_name_H-M   'P 1'
_cell_length_a   8.75112277
_cell_length_b   8.75112322
_cell_length_c   8.75087300
_cell_angle_alpha   60.00094962
_cell_angle_beta   60.00094793
_cell_angle_gamma   60.01282786
_symmetry_Int_Tables_number   1
_chemical_formula_structural   LaTb2Si5PPd20
_chemical_formula_sum   'La1 Tb2 Si5 P1 Pd20'
_cell_volume   473.92789721
_cell_formula_units_Z   1
loop_
 _symmetry_equiv_pos_site_id
 _symmetry_equiv_pos_as_xyz
  1  'x, y, z'
loop_
 _atom_site_type_symbol
 _atom_site_label
 _atom_site_symmetry_multiplicity
 _atom_site_fract_x
 _atom_site_fract_y
 _atom_site_fract_z
 _atom_site_occupancy
  La  La0  1  0.248895  0.248895  0.251105  1
  Tb  Tb1  1  0.748713  0.748713  0.751287  1
  Tb  Tb2  1  0.000910  0.000910  0.999090  1
  Si  Si3  1  0.732816  0.265273  0.267235  1
  Si  Si4  1  0.265273  0.732816  0.734676  1
  Si  Si5  1  0.265273  0.732816  0.267235  1
  Si  Si6  1  0.732816  0.265273  0.734676  1
  Si  Si7  1  0.267318  0.267318  0.732682  1
  P  P8  1  0.735229  0.735229  0.264771  1
  Pd  Pd9  1  0.385430  0.385430  0.385188  1
  Pd  Pd10  1  0.616293  0.616293  0.614858  1
  Pd  Pd11  1  0.385430  0.385430  0.843952  1
  Pd  Pd12  1  0.387265  0.841495  0.385620  1
  Pd  Pd13  1  0.616293  0.616293  0.152554  1
  Pd  Pd14  1  0.616623  0.150310  0.616533  1
  Pd  Pd15  1  0.841495  0.387265  0.385620  1
  Pd  Pd16  1  0.150310  0.616623  0.616533  1
  Pd  Pd17  1  0.346622  0.999246  0.998711  1
  Pd  Pd18  1  0.655461  0.997304  0.000638  1
  Pd  Pd19  1  0.999246  0.346622  0.655421  1
  Pd  Pd20  1  0.997304  0.655461  0.346598  1
  Pd  Pd21  1  0.999246  0.346622  0.998711  1
  Pd  Pd22  1  0.655461  0.997304  0.346598  1
  Pd  Pd23  1  0.997304  0.655461  0.000638  1
  Pd  Pd24  1  0.346622  0.999246  0.655421  1
  Pd  Pd25  1  0.000550  0.000550  0.345435  1
  Pd  Pd26  1  0.000550  0.000550  0.653465  1
  Pd  Pd27  1  0.656557  0.348694  0.997374  1
  Pd  Pd28  1  0.348694  0.656557  0.997374  1
