# generated using pymatgen
data_Pr6TmCoBr12
_symmetry_space_group_name_H-M   'P 1'
_cell_length_a   9.57917243
_cell_length_b   9.57917234
_cell_length_c   9.57917438
_cell_angle_alpha   107.09988659
_cell_angle_beta   107.09987419
_cell_angle_gamma   107.09987145
_symmetry_Int_Tables_number   1
_chemical_formula_structural   Pr6TmCoBr12
_chemical_formula_sum   'Pr6 Tm1 Co1 Br12'
_cell_volume   730.02785860
_cell_formula_units_Z   1
loop_
 _symmetry_equiv_pos_site_id
 _symmetry_equiv_pos_as_xyz
  1  'x, y, z'
loop_
 _atom_site_type_symbol
 _atom_site_label
 _atom_site_symmetry_multiplicity
 _atom_site_fract_x
 _atom_site_fract_y
 _atom_site_fract_z
 _atom_site_occupancy
  Pr  Pr0  1  0.975817  0.898058  0.691137  1
  Pr  Pr1  1  0.024183  0.101942  0.308863  1
  Pr  Pr2  1  0.101942  0.308863  0.024183  1
  Pr  Pr3  1  0.308863  0.024183  0.101942  1
  Pr  Pr4  1  0.898058  0.691137  0.975817  1
  Pr  Pr5  1  0.691137  0.975817  0.898058  1
  Tm  Tm6  1  0.500000  0.500000  0.500000  1
  Co  Co7  1  0.000000  0.000000  0.000000  1
  Br  Br8  1  0.532843  0.607832  0.816090  1
  Br  Br9  1  0.467157  0.392168  0.183910  1
  Br  Br10  1  0.317369  0.929838  0.777580  1
  Br  Br11  1  0.392168  0.183910  0.467157  1
  Br  Br12  1  0.929838  0.777580  0.317369  1
  Br  Br13  1  0.682631  0.070162  0.222420  1
  Br  Br14  1  0.070162  0.222420  0.682631  1
  Br  Br15  1  0.777580  0.317369  0.929838  1
  Br  Br16  1  0.222420  0.682631  0.070162  1
  Br  Br17  1  0.816090  0.532843  0.607832  1
  Br  Br18  1  0.183910  0.467157  0.392168  1
  Br  Br19  1  0.607832  0.816090  0.532843  1
