# generated using pymatgen
data_Sm3Y5Cu4(As3O)4
_symmetry_space_group_name_H-M   'P 1'
_cell_length_a   34.35475391
_cell_length_b   3.95385300
_cell_length_c   3.95591211
_cell_angle_alpha   90.00000000
_cell_angle_beta   90.11077578
_cell_angle_gamma   90.00000000
_symmetry_Int_Tables_number   1
_chemical_formula_structural   Sm3Y5Cu4(As3O)4
_chemical_formula_sum   'Sm3 Y5 Cu4 As12 O4'
_cell_volume   537.34496444
_cell_formula_units_Z   1
loop_
 _symmetry_equiv_pos_site_id
 _symmetry_equiv_pos_as_xyz
  1  'x, y, z'
loop_
 _atom_site_type_symbol
 _atom_site_label
 _atom_site_symmetry_multiplicity
 _atom_site_fract_x
 _atom_site_fract_y
 _atom_site_fract_z
 _atom_site_occupancy
  Sm  Sm0  1  0.174110  0.750002  0.303898  1
  Sm  Sm1  1  0.826759  0.250002  0.695611  1
  Sm  Sm2  1  0.673360  0.750002  0.196637  1
  Y  Y3  1  0.467168  0.750002  0.251070  1
  Y  Y4  1  0.032125  0.250002  0.751151  1
  Y  Y5  1  0.968540  0.750002  0.248752  1
  Y  Y6  1  0.530936  0.250002  0.749120  1
  Y  Y7  1  0.326259  0.250002  0.803638  1
  Cu  Cu8  1  0.251075  0.250002  0.307044  1
  Cu  Cu9  1  0.250753  0.750002  0.807033  1
  Cu  Cu10  1  0.750113  0.250002  0.193089  1
  Cu  Cu11  1  0.750255  0.750002  0.692872  1
  As  As12  1  0.394582  0.250002  0.311260  1
  As  As13  1  0.104453  0.750002  0.813213  1
  As  As14  1  0.896252  0.250002  0.187315  1
  As  As15  1  0.603476  0.750002  0.687219  1
  As  As16  1  0.394535  0.750002  0.771466  1
  As  As17  1  0.104406  0.250002  0.267350  1
  As  As18  1  0.896298  0.750002  0.731965  1
  As  As19  1  0.603487  0.250002  0.231653  1
  As  As20  1  0.205432  0.250002  0.805371  1
  As  As21  1  0.296361  0.750002  0.305030  1
  As  As22  1  0.705045  0.250002  0.694809  1
  As  As23  1  0.795474  0.750002  0.193415  1
  O  O24  1  0.499023  0.750002  0.751572  1
  O  O25  1  0.000337  0.250002  0.251367  1
  O  O26  1  0.000330  0.750002  0.748526  1
  O  O27  1  0.499055  0.250002  0.248554  1
