# generated using pymatgen
data_SrPr6SCl12
_symmetry_space_group_name_H-M   'P 1'
_cell_length_a   9.03918177
_cell_length_b   9.03708704
_cell_length_c   9.03810600
_cell_angle_alpha   106.02967717
_cell_angle_beta   106.03886802
_cell_angle_gamma   106.02410650
_symmetry_Int_Tables_number   1
_chemical_formula_structural   SrPr6SCl12
_chemical_formula_sum   'Sr1 Pr6 S1 Cl12'
_cell_volume   630.41544181
_cell_formula_units_Z   1
loop_
 _symmetry_equiv_pos_site_id
 _symmetry_equiv_pos_as_xyz
  1  'x, y, z'
loop_
 _atom_site_type_symbol
 _atom_site_label
 _atom_site_symmetry_multiplicity
 _atom_site_fract_x
 _atom_site_fract_y
 _atom_site_fract_z
 _atom_site_occupancy
  Sr  Sr0  1  0.500000  0.500000  0.500000  1
  Pr  Pr1  1  0.104213  0.319092  0.019684  1
  Pr  Pr2  1  0.319018  0.019659  0.104246  1
  Pr  Pr3  1  0.019671  0.104250  0.319036  1
  Pr  Pr4  1  0.980328  0.895750  0.680964  1
  Pr  Pr5  1  0.680982  0.980340  0.895753  1
  Pr  Pr6  1  0.895787  0.680908  0.980316  1
  S  S7  1  0.000000  0.000000  0.000000  1
  Cl  Cl8  1  0.223161  0.678940  0.074267  1
  Cl  Cl9  1  0.448120  0.365340  0.148944  1
  Cl  Cl10  1  0.678959  0.074301  0.223131  1
  Cl  Cl11  1  0.925779  0.776836  0.321056  1
  Cl  Cl12  1  0.148988  0.448225  0.365361  1
  Cl  Cl13  1  0.365303  0.148937  0.448202  1
  Cl  Cl14  1  0.634697  0.851063  0.551798  1
  Cl  Cl15  1  0.851011  0.551775  0.634639  1
  Cl  Cl16  1  0.074222  0.223165  0.678945  1
  Cl  Cl17  1  0.321042  0.925700  0.776869  1
  Cl  Cl18  1  0.551879  0.634659  0.851056  1
  Cl  Cl19  1  0.776839  0.321061  0.925733  1
