# generated using pymatgen
data_TmThIr6
_symmetry_space_group_name_H-M   'P 1'
_cell_length_a   5.33893983
_cell_length_b   5.33894043
_cell_length_c   17.86376500
_cell_angle_alpha   98.59418365
_cell_angle_beta   98.59418543
_cell_angle_gamma   60.00000939
_symmetry_Int_Tables_number   1
_chemical_formula_structural   TmThIr6
_chemical_formula_sum   'Tm3 Th3 Ir18'
_cell_volume   434.36030648
_cell_formula_units_Z   3
loop_
 _symmetry_equiv_pos_site_id
 _symmetry_equiv_pos_as_xyz
  1  'x, y, z'
loop_
 _atom_site_type_symbol
 _atom_site_label
 _atom_site_symmetry_multiplicity
 _atom_site_fract_x
 _atom_site_fract_y
 _atom_site_fract_z
 _atom_site_occupancy
  Tm  Tm0  1  0.429093  0.429093  0.287279  1
  Tm  Tm1  1  0.931386  0.931386  0.794159  1
  Tm  Tm2  1  0.070474  0.070474  0.211423  1
  Th  Th3  1  0.570142  0.570142  0.710425  1
  Th  Th4  1  0.000805  0.000805  0.002415  1
  Th  Th5  1  0.498243  0.498243  0.494728  1
  Ir  Ir6  1  0.457106  0.958425  0.373956  1
  Ir  Ir7  1  0.959315  0.458928  0.877171  1
  Ir  Ir8  1  0.958425  0.958425  0.373956  1
  Ir  Ir9  1  0.458928  0.458928  0.877171  1
  Ir  Ir10  1  0.958425  0.457106  0.373956  1
  Ir  Ir11  1  0.458928  0.959315  0.877171  1
  Ir  Ir12  1  0.042455  0.541644  0.125742  1
  Ir  Ir13  1  0.541014  0.040798  0.622611  1
  Ir  Ir14  1  0.541644  0.541644  0.125742  1
  Ir  Ir15  1  0.040798  0.040798  0.622611  1
  Ir  Ir16  1  0.541644  0.042455  0.125742  1
  Ir  Ir17  1  0.040798  0.541014  0.622611  1
  Ir  Ir18  1  0.333947  0.333947  0.001842  1
  Ir  Ir19  1  0.833038  0.833038  0.499113  1
  Ir  Ir20  1  0.166178  0.166178  0.498536  1
  Ir  Ir21  1  0.666871  0.666871  0.000611  1
  Ir  Ir22  1  0.750013  0.750013  0.250039  1
  Ir  Ir23  1  0.250333  0.250333  0.750999  1
