# generated using pymatgen
data_LuBi4Pt3F28
_symmetry_space_group_name_H-M   'P 1'
_cell_length_a   5.71290500
_cell_length_b   9.25374268
_cell_length_c   12.39653517
_cell_angle_alpha   62.24455135
_cell_angle_beta   89.85975254
_cell_angle_gamma   90.04905137
_symmetry_Int_Tables_number   1
_chemical_formula_structural   LuBi4Pt3F28
_chemical_formula_sum   'Lu1 Bi4 Pt3 F28'
_cell_volume   579.94632987
_cell_formula_units_Z   1
loop_
 _symmetry_equiv_pos_site_id
 _symmetry_equiv_pos_as_xyz
  1  'x, y, z'
loop_
 _atom_site_type_symbol
 _atom_site_label
 _atom_site_symmetry_multiplicity
 _atom_site_fract_x
 _atom_site_fract_y
 _atom_site_fract_z
 _atom_site_occupancy
  Lu  Lu0  1  0.755289  0.279347  0.953621  1
  Bi  Bi1  1  0.765517  0.813466  0.765512  1
  Bi  Bi2  1  0.261976  0.182737  0.740368  1
  Bi  Bi3  1  0.246732  0.194108  0.226248  1
  Bi  Bi4  1  0.735125  0.827424  0.252409  1
  Pt  Pt5  1  0.259520  0.730645  0.540821  1
  Pt  Pt6  1  0.236846  0.728466  0.042239  1
  Pt  Pt7  1  0.743892  0.272739  0.457237  1
  F  F8  1  0.420867  0.703661  0.917670  1
  F  F9  1  0.924567  0.294390  0.582588  1
  F  F10  1  0.544203  0.285788  0.092969  1
  F  F11  1  0.075276  0.708039  0.417211  1
  F  F12  1  0.450991  0.280072  0.537369  1
  F  F13  1  0.938924  0.726288  0.960751  1
  F  F14  1  0.550666  0.724142  0.458476  1
  F  F15  1  0.067670  0.271763  0.051067  1
  F  F16  1  0.783016  0.533552  0.857924  1
  F  F17  1  0.268422  0.493101  0.634440  1
  F  F18  1  0.216748  0.490354  0.141158  1
  F  F19  1  0.734990  0.508684  0.362544  1
  F  F20  1  0.758356  0.017183  0.062755  1
  F  F21  1  0.260165  0.968288  0.451727  1
  F  F22  1  0.246491  0.969355  0.949849  1
  F  F23  1  0.743864  0.033466  0.549168  1
  F  F24  1  0.970005  0.733322  0.626319  1
  F  F25  1  0.460691  0.267265  0.856027  1
  F  F26  1  0.032823  0.269417  0.374331  1
  F  F27  1  0.525424  0.723255  0.130131  1
  F  F28  1  0.059881  0.744460  0.173325  1
  F  F29  1  0.566397  0.255008  0.328491  1
  F  F30  1  0.958431  0.241447  0.826324  1
  F  F31  1  0.441393  0.747235  0.669548  1
  F  F32  1  0.402328  0.968759  0.229595  1
  F  F33  1  0.910173  0.025781  0.270869  1
  F  F34  1  0.591015  0.024993  0.774641  1
  F  F35  1  0.091326  0.961999  0.734280  1
