# generated using pymatgen
data_Ca20Ga11Bi
_symmetry_space_group_name_H-M   'P 1'
_cell_length_a   8.04761300
_cell_length_b   8.04761300
_cell_length_c   14.69051900
_cell_angle_alpha   90.00000000
_cell_angle_beta   90.00000000
_cell_angle_gamma   90.00000000
_symmetry_Int_Tables_number   1
_chemical_formula_structural   Ca20Ga11Bi
_chemical_formula_sum   'Ca20 Ga11 Bi1'
_cell_volume   951.41787427
_cell_formula_units_Z   1
loop_
 _symmetry_equiv_pos_site_id
 _symmetry_equiv_pos_as_xyz
  1  'x, y, z'
loop_
 _atom_site_type_symbol
 _atom_site_label
 _atom_site_symmetry_multiplicity
 _atom_site_fract_x
 _atom_site_fract_y
 _atom_site_fract_z
 _atom_site_occupancy
  Ca  Ca0  1  0.670229  0.181511  0.108776  1
  Ca  Ca1  1  0.177483  0.675412  0.606745  1
  Ca  Ca2  1  0.329771  0.818489  0.108776  1
  Ca  Ca3  1  0.822517  0.324588  0.606745  1
  Ca  Ca4  1  0.818489  0.670229  0.108776  1
  Ca  Ca5  1  0.324588  0.177483  0.606745  1
  Ca  Ca6  1  0.181511  0.329771  0.108776  1
  Ca  Ca7  1  0.675412  0.822517  0.606745  1
  Ca  Ca8  1  0.818489  0.329771  0.891224  1
  Ca  Ca9  1  0.324588  0.822517  0.393255  1
  Ca  Ca10  1  0.181511  0.670229  0.891224  1
  Ca  Ca11  1  0.675412  0.177483  0.393255  1
  Ca  Ca12  1  0.670229  0.818489  0.891224  1
  Ca  Ca13  1  0.177483  0.324588  0.393255  1
  Ca  Ca14  1  0.329771  0.181511  0.891224  1
  Ca  Ca15  1  0.822517  0.675412  0.393255  1
  Ca  Ca16  1  0.500000  0.500000  0.747610  1
  Ca  Ca17  1  0.000000  0.000000  0.253442  1
  Ca  Ca18  1  0.000000  0.000000  0.746558  1
  Ca  Ca19  1  0.500000  0.500000  0.252390  1
  Ga  Ga20  1  0.500000  0.500000  0.500000  1
  Ga  Ga21  1  0.500000  0.500000  0.000000  1
  Ga  Ga22  1  0.000000  0.000000  0.500000  1
  Ga  Ga23  1  0.612343  0.110752  0.750279  1
  Ga  Ga24  1  0.110752  0.612343  0.249721  1
  Ga  Ga25  1  0.889248  0.387657  0.249721  1
  Ga  Ga26  1  0.387657  0.889248  0.750279  1
  Ga  Ga27  1  0.889248  0.612343  0.750279  1
  Ga  Ga28  1  0.387657  0.110752  0.249721  1
  Ga  Ga29  1  0.110752  0.387657  0.750279  1
  Ga  Ga30  1  0.612343  0.889248  0.249721  1
  Bi  Bi31  1  0.000000  0.000000  0.000000  1
