# generated using pymatgen
data_Ba3CaTc2O9
_symmetry_space_group_name_H-M   'P 1'
_cell_length_a   6.00374043
_cell_length_b   6.00373960
_cell_length_c   14.54788618
_cell_angle_alpha   89.61182547
_cell_angle_beta   89.61182583
_cell_angle_gamma   119.94466324
_symmetry_Int_Tables_number   1
_chemical_formula_structural   Ba3CaTc2O9
_chemical_formula_sum   'Ba6 Ca2 Tc4 O18'
_cell_volume   454.33518783
_cell_formula_units_Z   2
loop_
 _symmetry_equiv_pos_site_id
 _symmetry_equiv_pos_as_xyz
  1  'x, y, z'
loop_
 _atom_site_type_symbol
 _atom_site_label
 _atom_site_symmetry_multiplicity
 _atom_site_fract_x
 _atom_site_fract_y
 _atom_site_fract_z
 _atom_site_occupancy
  Ba  Ba0  1  0.002934  0.997066  0.250000  1
  Ba  Ba1  1  0.335073  0.669893  0.904367  1
  Ba  Ba2  1  0.330107  0.664927  0.595633  1
  Ba  Ba3  1  0.669893  0.335073  0.404367  1
  Ba  Ba4  1  0.664927  0.330107  0.095633  1
  Ba  Ba5  1  0.997066  0.002934  0.750000  1
  Ca  Ca6  1  0.000000  0.000000  0.000000  1
  Ca  Ca7  1  0.000000  0.000000  0.500000  1
  Tc  Tc8  1  0.325946  0.657109  0.162683  1
  Tc  Tc9  1  0.657109  0.325946  0.662683  1
  Tc  Tc10  1  0.342891  0.674054  0.337317  1
  Tc  Tc11  1  0.674054  0.342891  0.837317  1
  O  O12  1  0.979429  0.490020  0.744330  1
  O  O13  1  0.161279  0.802156  0.090901  1
  O  O14  1  0.802156  0.161279  0.590901  1
  O  O15  1  0.838948  0.661850  0.902141  1
  O  O16  1  0.020571  0.509980  0.255670  1
  O  O17  1  0.161052  0.338150  0.097859  1
  O  O18  1  0.490020  0.979429  0.244330  1
  O  O19  1  0.197924  0.374738  0.415193  1
  O  O20  1  0.508304  0.491696  0.750000  1
  O  O21  1  0.625262  0.802076  0.084807  1
  O  O22  1  0.661850  0.838948  0.402141  1
  O  O23  1  0.838721  0.197844  0.909099  1
  O  O24  1  0.509980  0.020571  0.755670  1
  O  O25  1  0.374738  0.197924  0.915193  1
  O  O26  1  0.802076  0.625262  0.584807  1
  O  O27  1  0.338150  0.161052  0.597859  1
  O  O28  1  0.197844  0.838721  0.409099  1
  O  O29  1  0.491696  0.508304  0.250000  1
