# generated using pymatgen
data_Dy2HoTm2Sb3
_symmetry_space_group_name_H-M   'P 1'
_cell_length_a   6.24938600
_cell_length_b   8.94784530
_cell_length_c   8.94602200
_cell_angle_alpha   119.99157649
_cell_angle_beta   90.00000000
_cell_angle_gamma   90.00000000
_symmetry_Int_Tables_number   1
_chemical_formula_structural   Dy2HoTm2Sb3
_chemical_formula_sum   'Dy4 Ho2 Tm4 Sb6'
_cell_volume   433.26466102
_cell_formula_units_Z   2
loop_
 _symmetry_equiv_pos_site_id
 _symmetry_equiv_pos_as_xyz
  1  'x, y, z'
loop_
 _atom_site_type_symbol
 _atom_site_label
 _atom_site_symmetry_multiplicity
 _atom_site_fract_x
 _atom_site_fract_y
 _atom_site_fract_z
 _atom_site_occupancy
  Dy  Dy0  1  0.750001  0.000003  0.246719  1
  Dy  Dy1  1  0.249999  0.753243  0.999964  1
  Dy  Dy2  1  0.250001  0.246792  0.246761  1
  Dy  Dy3  1  0.250001  0.999997  0.753262  1
  Ho  Ho4  1  0.749999  0.246696  0.000009  1
  Ho  Ho5  1  0.750001  0.753267  0.753276  1
  Tm  Tm6  1  0.499970  0.333325  0.666675  1
  Tm  Tm7  1  0.499973  0.666670  0.333331  1
  Tm  Tm8  1  0.000025  0.666674  0.333331  1
  Tm  Tm9  1  0.000028  0.333329  0.666675  1
  Sb  Sb10  1  0.749999  0.610360  0.999894  1
  Sb  Sb11  1  0.750001  0.389643  0.389545  1
  Sb  Sb12  1  0.750001  0.999993  0.610533  1
  Sb  Sb13  1  0.249999  0.389577  0.000007  1
  Sb  Sb14  1  0.250001  0.610422  0.610422  1
  Sb  Sb15  1  0.250001  0.000009  0.389593  1
