# generated using pymatgen
data_Ac(TbSi2)2
_symmetry_space_group_name_H-M   'P 1'
_cell_length_a   3.95804289
_cell_length_b   4.49660642
_cell_length_c   9.36448332
_cell_angle_alpha   75.98555035
_cell_angle_beta   77.84784928
_cell_angle_gamma   90.00478180
_symmetry_Int_Tables_number   1
_chemical_formula_structural   Ac(TbSi2)2
_chemical_formula_sum   'Ac1 Tb2 Si4'
_cell_volume   157.85320625
_cell_formula_units_Z   1
loop_
 _symmetry_equiv_pos_site_id
 _symmetry_equiv_pos_as_xyz
  1  'x, y, z'
loop_
 _atom_site_type_symbol
 _atom_site_label
 _atom_site_symmetry_multiplicity
 _atom_site_fract_x
 _atom_site_fract_y
 _atom_site_fract_z
 _atom_site_occupancy
  Ac  Ac0  1  0.000000  0.000000  0.000000  1
  Tb  Tb1  1  0.683731  0.183942  0.633341  1
  Tb  Tb2  1  0.316269  0.816058  0.366658  1
  Si  Si3  1  0.849768  0.349213  0.302584  1
  Si  Si4  1  0.150233  0.650786  0.697416  1
  Si  Si5  1  0.568584  0.569888  0.861109  1
  Si  Si6  1  0.431415  0.430113  0.138891  1
