# generated using pymatgen
data_Ho2V3Co9P7
_symmetry_space_group_name_H-M   'P 1'
_cell_length_a   9.05280500
_cell_length_b   9.05280566
_cell_length_c   3.63960300
_cell_angle_alpha   90.00000000
_cell_angle_beta   90.00000000
_cell_angle_gamma   120.00000856
_symmetry_Int_Tables_number   1
_chemical_formula_structural   Ho2V3Co9P7
_chemical_formula_sum   'Ho2 V3 Co9 P7'
_cell_volume   258.31580040
_cell_formula_units_Z   1
loop_
 _symmetry_equiv_pos_site_id
 _symmetry_equiv_pos_as_xyz
  1  'x, y, z'
loop_
 _atom_site_type_symbol
 _atom_site_label
 _atom_site_symmetry_multiplicity
 _atom_site_fract_x
 _atom_site_fract_y
 _atom_site_fract_z
 _atom_site_occupancy
  Ho  Ho0  1  0.666667  0.333333  0.000000  1
  Ho  Ho1  1  0.333333  0.666667  0.500000  1
  V  V2  1  0.099623  0.219023  0.500000  1
  V  V3  1  0.780977  0.880602  0.500000  1
  V  V4  1  0.119398  0.900377  0.500000  1
  Co  Co5  1  0.060914  0.431658  0.000000  1
  Co  Co6  1  0.568342  0.629256  0.000000  1
  Co  Co7  1  0.370744  0.939086  0.000000  1
  Co  Co8  1  0.278310  0.158041  0.000000  1
  Co  Co9  1  0.841959  0.120269  0.000000  1
  Co  Co10  1  0.879731  0.721690  0.000000  1
  Co  Co11  1  0.435825  0.385869  0.500000  1
  Co  Co12  1  0.614131  0.049956  0.500000  1
  Co  Co13  1  0.950044  0.564175  0.500000  1
  P  P14  1  0.299610  0.412018  0.000000  1
  P  P15  1  0.587982  0.887591  0.000000  1
  P  P16  1  0.112409  0.700390  0.000000  1
  P  P17  1  0.407536  0.117077  0.500000  1
  P  P18  1  0.882923  0.290459  0.500000  1
  P  P19  1  0.709541  0.592464  0.500000  1
  P  P20  1  0.000000  0.000000  0.000000  1
