# generated using pymatgen
data_TlSiSbS4
_symmetry_space_group_name_H-M   'P 1'
_cell_length_a   7.02483200
_cell_length_b   6.53456394
_cell_length_c   8.75265600
_cell_angle_alpha   72.76988405
_cell_angle_beta   90.00000000
_cell_angle_gamma   90.00000000
_symmetry_Int_Tables_number   1
_chemical_formula_structural   TlSiSbS4
_chemical_formula_sum   'Tl2 Si2 Sb2 S8'
_cell_volume   383.75286090
_cell_formula_units_Z   2
loop_
 _symmetry_equiv_pos_site_id
 _symmetry_equiv_pos_as_xyz
  1  'x, y, z'
loop_
 _atom_site_type_symbol
 _atom_site_label
 _atom_site_symmetry_multiplicity
 _atom_site_fract_x
 _atom_site_fract_y
 _atom_site_fract_z
 _atom_site_occupancy
  Tl  Tl0  1  0.965180  0.723936  0.068028  1
  Tl  Tl1  1  0.465180  0.276064  0.931972  1
  Si  Si2  1  0.444840  0.796831  0.312653  1
  Si  Si3  1  0.944840  0.203169  0.687347  1
  Sb  Sb4  1  0.562994  0.242590  0.438423  1
  Sb  Sb5  1  0.062994  0.757410  0.561577  1
  S  S6  1  0.496856  0.576998  0.179029  1
  S  S7  1  0.204185  0.994929  0.251208  1
  S  S8  1  0.693871  0.996531  0.282892  1
  S  S9  1  0.899075  0.386319  0.438827  1
  S  S10  1  0.399075  0.613681  0.561173  1
  S  S11  1  0.193871  0.003469  0.717108  1
  S  S12  1  0.704185  0.005071  0.748792  1
  S  S13  1  0.996856  0.423002  0.820971  1
