# generated using pymatgen
data_Li8Cu(SbO5)2
_symmetry_space_group_name_H-M   'P 1'
_cell_length_a   5.28900682
_cell_length_b   5.28900819
_cell_length_c   10.89095907
_cell_angle_alpha   75.05130576
_cell_angle_beta   75.05130421
_cell_angle_gamma   45.29738337
_symmetry_Int_Tables_number   1
_chemical_formula_structural   Li8Cu(SbO5)2
_chemical_formula_sum   'Li8 Cu1 Sb2 O10'
_cell_volume   207.91122635
_cell_formula_units_Z   1
loop_
 _symmetry_equiv_pos_site_id
 _symmetry_equiv_pos_as_xyz
  1  'x, y, z'
loop_
 _atom_site_type_symbol
 _atom_site_label
 _atom_site_symmetry_multiplicity
 _atom_site_fract_x
 _atom_site_fract_y
 _atom_site_fract_z
 _atom_site_occupancy
  Li  Li0  1  0.630687  0.630687  0.537682  1
  Li  Li1  1  0.240497  0.240497  0.093347  1
  Li  Li2  1  0.087727  0.087727  0.387141  1
  Li  Li3  1  0.912273  0.912273  0.612859  1
  Li  Li4  1  0.759503  0.759503  0.906653  1
  Li  Li5  1  0.369313  0.369313  0.462318  1
  Li  Li6  1  0.554283  0.554283  0.201946  1
  Li  Li7  1  0.445717  0.445717  0.798054  1
  Cu  Cu8  1  0.000000  0.000000  0.000000  1
  Sb  Sb9  1  0.176413  0.176413  0.727295  1
  Sb  Sb10  1  0.823587  0.823587  0.272705  1
  O  O11  1  0.968388  0.968388  0.833422  1
  O  O12  1  0.669539  0.669539  0.739391  1
  O  O13  1  0.330461  0.330461  0.260609  1
  O  O14  1  0.382410  0.382410  0.644847  1
  O  O15  1  0.617590  0.617590  0.355153  1
  O  O16  1  0.209106  0.209106  0.905977  1
  O  O17  1  0.031612  0.031612  0.166578  1
  O  O18  1  0.125517  0.125517  0.565807  1
  O  O19  1  0.874483  0.874483  0.434193  1
  O  O20  1  0.790894  0.790894  0.094023  1
