# generated using pymatgen
data_Rb7Na9(GeSe4)4
_symmetry_space_group_name_H-M   'P 1'
_cell_length_a   7.51782045
_cell_length_b   10.15918500
_cell_length_c   15.29683700
_cell_angle_alpha   90.00000000
_cell_angle_beta   90.27635807
_cell_angle_gamma   90.00000000
_symmetry_Int_Tables_number   1
_chemical_formula_structural   Rb7Na9(GeSe4)4
_chemical_formula_sum   'Rb7 Na9 Ge4 Se16'
_cell_volume   1168.28124592
_cell_formula_units_Z   1
loop_
 _symmetry_equiv_pos_site_id
 _symmetry_equiv_pos_as_xyz
  1  'x, y, z'
loop_
 _atom_site_type_symbol
 _atom_site_label
 _atom_site_symmetry_multiplicity
 _atom_site_fract_x
 _atom_site_fract_y
 _atom_site_fract_z
 _atom_site_occupancy
  Rb  Rb0  1  0.006338  0.997132  0.000006  1
  Rb  Rb1  1  0.499113  0.001025  0.500964  1
  Rb  Rb2  1  0.006338  0.502868  0.000006  1
  Rb  Rb3  1  0.499113  0.498975  0.500964  1
  Rb  Rb4  1  0.997278  0.750000  0.434458  1
  Rb  Rb5  1  0.501602  0.250000  0.068608  1
  Rb  Rb6  1  0.002575  0.250000  0.569801  1
  Na  Na7  1  0.555654  0.750000  0.946545  1
  Na  Na8  1  0.826294  0.056369  0.251757  1
  Na  Na9  1  0.327260  0.940589  0.241802  1
  Na  Na10  1  0.170819  0.561713  0.748938  1
  Na  Na11  1  0.675750  0.440735  0.759559  1
  Na  Na12  1  0.170819  0.938287  0.748938  1
  Na  Na13  1  0.675750  0.059265  0.759559  1
  Na  Na14  1  0.826294  0.443631  0.251757  1
  Na  Na15  1  0.327260  0.559411  0.241802  1
  Ge  Ge16  1  0.762708  0.750000  0.685897  1
  Ge  Ge17  1  0.220162  0.250000  0.312581  1
  Ge  Ge18  1  0.717111  0.750000  0.180790  1
  Ge  Ge19  1  0.286102  0.250000  0.817603  1
  Se  Se20  1  0.967741  0.250000  0.823137  1
  Se  Se21  1  0.538819  0.250000  0.317630  1
  Se  Se22  1  0.446595  0.750000  0.669835  1
  Se  Se23  1  0.034795  0.750000  0.178241  1
  Se  Se24  1  0.604976  0.564025  0.103657  1
  Se  Se25  1  0.112053  0.440939  0.384986  1
  Se  Se26  1  0.393393  0.054896  0.889100  1
  Se  Se27  1  0.884608  0.939481  0.616567  1
  Se  Se28  1  0.393393  0.445104  0.889100  1
  Se  Se29  1  0.884608  0.560519  0.616567  1
  Se  Se30  1  0.604976  0.935975  0.103657  1
  Se  Se31  1  0.112053  0.059061  0.384986  1
  Se  Se32  1  0.592420  0.750000  0.325762  1
  Se  Se33  1  0.090101  0.250000  0.167731  1
  Se  Se34  1  0.410423  0.250000  0.672144  1
  Se  Se35  1  0.874709  0.750000  0.834566  1
