# generated using pymatgen
data_PrEr(NbSe2)8
_symmetry_space_group_name_H-M   'P 1'
_cell_length_a   7.01345000
_cell_length_b   7.01345011
_cell_length_c   14.61859100
_cell_angle_alpha   90.00000000
_cell_angle_beta   90.00000000
_cell_angle_gamma   119.99999946
_symmetry_Int_Tables_number   1
_chemical_formula_structural   PrEr(NbSe2)8
_chemical_formula_sum   'Pr1 Er1 Nb8 Se16'
_cell_volume   622.72968266
_cell_formula_units_Z   1
loop_
 _symmetry_equiv_pos_site_id
 _symmetry_equiv_pos_as_xyz
  1  'x, y, z'
loop_
 _atom_site_type_symbol
 _atom_site_label
 _atom_site_symmetry_multiplicity
 _atom_site_fract_x
 _atom_site_fract_y
 _atom_site_fract_z
 _atom_site_occupancy
  Pr  Pr0  1  0.000000  0.000000  0.000000  1
  Er  Er1  1  0.000000  0.000000  0.500000  1
  Nb  Nb2  1  0.000000  0.000000  0.255832  1
  Nb  Nb3  1  0.000000  0.000000  0.744168  1
  Nb  Nb4  1  0.507840  0.015681  0.257498  1
  Nb  Nb5  1  0.984319  0.492160  0.257498  1
  Nb  Nb6  1  0.507840  0.492160  0.257498  1
  Nb  Nb7  1  0.492160  0.984319  0.742502  1
  Nb  Nb8  1  0.015681  0.507840  0.742502  1
  Nb  Nb9  1  0.492160  0.507840  0.742502  1
  Se  Se10  1  0.333333  0.666667  0.861466  1
  Se  Se11  1  0.666667  0.333333  0.138534  1
  Se  Se12  1  0.666667  0.333333  0.376697  1
  Se  Se13  1  0.333333  0.666667  0.623303  1
  Se  Se14  1  0.169217  0.830783  0.370147  1
  Se  Se15  1  0.169217  0.338434  0.370147  1
  Se  Se16  1  0.661566  0.830783  0.370147  1
  Se  Se17  1  0.830783  0.169217  0.629853  1
  Se  Se18  1  0.830783  0.661566  0.629853  1
  Se  Se19  1  0.338434  0.169217  0.629853  1
  Se  Se20  1  0.829248  0.170752  0.856279  1
  Se  Se21  1  0.829248  0.658496  0.856279  1
  Se  Se22  1  0.341504  0.170752  0.856279  1
  Se  Se23  1  0.170752  0.829248  0.143721  1
  Se  Se24  1  0.170752  0.341504  0.143721  1
  Se  Se25  1  0.658496  0.829248  0.143721  1
