# generated using pymatgen
data_DyYCl6
_symmetry_space_group_name_H-M   'P 1'
_cell_length_a   6.98430911
_cell_length_b   6.98430941
_cell_length_c   7.05945612
_cell_angle_alpha   80.24191768
_cell_angle_beta   80.24191522
_cell_angle_gamma   119.84693875
_symmetry_Int_Tables_number   1
_chemical_formula_structural   DyYCl6
_chemical_formula_sum   'Dy1 Y1 Cl6'
_cell_volume   281.08734470
_cell_formula_units_Z   1
loop_
 _symmetry_equiv_pos_site_id
 _symmetry_equiv_pos_as_xyz
  1  'x, y, z'
loop_
 _atom_site_type_symbol
 _atom_site_label
 _atom_site_symmetry_multiplicity
 _atom_site_fract_x
 _atom_site_fract_y
 _atom_site_fract_z
 _atom_site_occupancy
  Dy  Dy0  1  0.166529  0.833471  0.000000  1
  Y  Y1  1  0.833472  0.166528  0.000000  1
  Cl  Cl2  1  0.949863  0.576678  0.775962  1
  Cl  Cl3  1  0.423322  0.050137  0.224038  1
  Cl  Cl4  1  0.801607  0.801413  0.228931  1
  Cl  Cl5  1  0.198587  0.198393  0.771069  1
  Cl  Cl6  1  0.576292  0.949671  0.775956  1
  Cl  Cl7  1  0.050329  0.423708  0.224044  1
