# generated using pymatgen
data_Li4Tb3HoPt4
_symmetry_space_group_name_H-M   'P 1'
_cell_length_a   4.00590500
_cell_length_b   7.07113089
_cell_length_c   8.39942300
_cell_angle_alpha   90.16092131
_cell_angle_beta   90.00000000
_cell_angle_gamma   90.00000000
_symmetry_Int_Tables_number   1
_chemical_formula_structural   Li4Tb3HoPt4
_chemical_formula_sum   'Li4 Tb3 Ho1 Pt4'
_cell_volume   237.92345745
_cell_formula_units_Z   1
loop_
 _symmetry_equiv_pos_site_id
 _symmetry_equiv_pos_as_xyz
  1  'x, y, z'
loop_
 _atom_site_type_symbol
 _atom_site_label
 _atom_site_symmetry_multiplicity
 _atom_site_fract_x
 _atom_site_fract_y
 _atom_site_fract_z
 _atom_site_occupancy
  Li  Li0  1  0.250000  0.629072  0.560532  1
  Li  Li1  1  0.250000  0.130560  0.939601  1
  Li  Li2  1  0.750000  0.370714  0.440708  1
  Li  Li3  1  0.750000  0.869062  0.059276  1
  Tb  Tb4  1  0.250000  0.043534  0.317725  1
  Tb  Tb5  1  0.250000  0.542943  0.181669  1
  Tb  Tb6  1  0.750000  0.957653  0.683545  1
  Ho  Ho7  1  0.750000  0.456765  0.817962  1
  Pt  Pt8  1  0.250000  0.249870  0.623838  1
  Pt  Pt9  1  0.250000  0.745538  0.876901  1
  Pt  Pt10  1  0.750000  0.752465  0.378013  1
  Pt  Pt11  1  0.750000  0.251826  0.120229  1
