# generated using pymatgen
data_Sc6Mn6Al13GaSi10
_symmetry_space_group_name_H-M   'P 1'
_cell_length_a   8.30476700
_cell_length_b   8.30476658
_cell_length_c   8.98314800
_cell_angle_alpha   90.00000000
_cell_angle_beta   90.00000000
_cell_angle_gamma   119.99999768
_symmetry_Int_Tables_number   1
_chemical_formula_structural   Sc6Mn6Al13GaSi10
_chemical_formula_sum   'Sc6 Mn6 Al13 Ga1 Si10'
_cell_volume   536.55479388
_cell_formula_units_Z   1
loop_
 _symmetry_equiv_pos_site_id
 _symmetry_equiv_pos_as_xyz
  1  'x, y, z'
loop_
 _atom_site_type_symbol
 _atom_site_label
 _atom_site_symmetry_multiplicity
 _atom_site_fract_x
 _atom_site_fract_y
 _atom_site_fract_z
 _atom_site_occupancy
  Sc  Sc0  1  0.199495  0.800505  0.250000  1
  Sc  Sc1  1  0.199495  0.398988  0.250000  1
  Sc  Sc2  1  0.601012  0.800505  0.250000  1
  Sc  Sc3  1  0.799634  0.200366  0.750000  1
  Sc  Sc4  1  0.799634  0.599270  0.750000  1
  Sc  Sc5  1  0.400730  0.200366  0.750000  1
  Mn  Mn6  1  0.500086  0.499914  0.499501  1
  Mn  Mn7  1  0.500086  0.000171  0.499501  1
  Mn  Mn8  1  0.999829  0.499914  0.499501  1
  Mn  Mn9  1  0.500086  0.499914  0.000499  1
  Mn  Mn10  1  0.500086  0.000171  0.000499  1
  Mn  Mn11  1  0.999829  0.499914  0.000499  1
  Al  Al12  1  0.164365  0.835635  0.919646  1
  Al  Al13  1  0.164365  0.328731  0.919646  1
  Al  Al14  1  0.671269  0.835635  0.919646  1
  Al  Al15  1  0.836052  0.163948  0.078827  1
  Al  Al16  1  0.836052  0.672103  0.078827  1
  Al  Al17  1  0.327897  0.163948  0.078827  1
  Al  Al18  1  0.836052  0.163948  0.421173  1
  Al  Al19  1  0.836052  0.672103  0.421173  1
  Al  Al20  1  0.327897  0.163948  0.421173  1
  Al  Al21  1  0.164365  0.835635  0.580354  1
  Al  Al22  1  0.164365  0.328731  0.580354  1
  Al  Al23  1  0.671269  0.835635  0.580354  1
  Al  Al24  1  0.000000  0.000000  0.750000  1
  Ga  Ga25  1  0.000000  0.000000  0.250000  1
  Si  Si26  1  0.559761  0.440239  0.250000  1
  Si  Si27  1  0.559761  0.119520  0.250000  1
  Si  Si28  1  0.880480  0.440239  0.250000  1
  Si  Si29  1  0.440347  0.559653  0.750000  1
  Si  Si30  1  0.440347  0.880696  0.750000  1
  Si  Si31  1  0.119304  0.559653  0.750000  1
  Si  Si32  1  0.333333  0.666667  0.459286  1
  Si  Si33  1  0.666667  0.333333  0.539775  1
  Si  Si34  1  0.666667  0.333333  0.960225  1
  Si  Si35  1  0.333333  0.666667  0.040714  1
