# generated using pymatgen
data_ZrSc7(TcB6)4
_symmetry_space_group_name_H-M   'P 1'
_cell_length_a   8.89666918
_cell_length_b   11.19647323
_cell_length_c   3.51475100
_cell_angle_alpha   90.00000000
_cell_angle_beta   90.00000000
_cell_angle_gamma   90.02312269
_symmetry_Int_Tables_number   1
_chemical_formula_structural   ZrSc7(TcB6)4
_chemical_formula_sum   'Zr1 Sc7 Tc4 B24'
_cell_volume   350.10895211
_cell_formula_units_Z   1
loop_
 _symmetry_equiv_pos_site_id
 _symmetry_equiv_pos_as_xyz
  1  'x, y, z'
loop_
 _atom_site_type_symbol
 _atom_site_label
 _atom_site_symmetry_multiplicity
 _atom_site_fract_x
 _atom_site_fract_y
 _atom_site_fract_z
 _atom_site_occupancy
  Zr  Zr0  1  0.677953  0.086152  0.000000  1
  Sc  Sc1  1  0.056394  0.128985  0.000000  1
  Sc  Sc2  1  0.556693  0.371106  0.000000  1
  Sc  Sc3  1  0.178004  0.414593  0.000000  1
  Sc  Sc4  1  0.822119  0.586228  0.000000  1
  Sc  Sc5  1  0.443178  0.629470  0.000000  1
  Sc  Sc6  1  0.943868  0.870723  0.000000  1
  Sc  Sc7  1  0.321476  0.913313  0.000000  1
  Tc  Tc8  1  0.362946  0.178997  0.000000  1
  Tc  Tc9  1  0.860257  0.319214  0.000000  1
  Tc  Tc10  1  0.138860  0.679586  0.000000  1
  Tc  Tc11  1  0.638387  0.821512  0.000000  1
  B  B12  1  0.901246  0.027211  0.500001  1
  B  B13  1  0.446408  0.064842  0.500001  1
  B  B14  1  0.246613  0.078753  0.500001  1
  B  B15  1  0.870649  0.182398  0.500001  1
  B  B16  1  0.520667  0.212961  0.500001  1
  B  B17  1  0.205543  0.236261  0.500001  1
  B  B18  1  0.705195  0.264434  0.500001  1
  B  B19  1  0.021237  0.287706  0.500001  1
  B  B20  1  0.370144  0.318403  0.500001  1
  B  B21  1  0.746787  0.421791  0.500001  1
  B  B22  1  0.946605  0.434706  0.500001  1
  B  B23  1  0.401709  0.473037  0.500001  1
  B  B24  1  0.598356  0.527443  0.500001  1
  B  B25  1  0.053026  0.564772  0.500001  1
  B  B26  1  0.253283  0.578671  0.500001  1
  B  B27  1  0.629821  0.682393  0.500001  1
  B  B28  1  0.979066  0.712001  0.500001  1
  B  B29  1  0.294784  0.736325  0.500001  1
  B  B30  1  0.795027  0.763475  0.500001  1
  B  B31  1  0.478746  0.787459  0.500001  1
  B  B32  1  0.129692  0.817598  0.500001  1
  B  B33  1  0.753670  0.920411  0.500001  1
  B  B34  1  0.552805  0.934435  0.500001  1
  B  B35  1  0.098790  0.972630  0.500001  1
