# generated using pymatgen
data_Pr4NdPb4
_symmetry_space_group_name_H-M   'P 1'
_cell_length_a   8.49097766
_cell_length_b   8.59532317
_cell_length_c   16.31714000
_cell_angle_alpha   90.05240084
_cell_angle_beta   89.53414407
_cell_angle_gamma   90.04473966
_symmetry_Int_Tables_number   1
_chemical_formula_structural   Pr4NdPb4
_chemical_formula_sum   'Pr16 Nd4 Pb16'
_cell_volume   1190.82866712
_cell_formula_units_Z   4
loop_
 _symmetry_equiv_pos_site_id
 _symmetry_equiv_pos_as_xyz
  1  'x, y, z'
loop_
 _atom_site_type_symbol
 _atom_site_label
 _atom_site_symmetry_multiplicity
 _atom_site_fract_x
 _atom_site_fract_y
 _atom_site_fract_z
 _atom_site_occupancy
  Pr  Pr0  1  0.124464  0.340711  0.881216  1
  Pr  Pr1  1  0.375185  0.840982  0.118816  1
  Pr  Pr2  1  0.872409  0.659341  0.380804  1
  Pr  Pr3  1  0.373227  0.840042  0.380590  1
  Pr  Pr4  1  0.875593  0.658575  0.118925  1
  Pr  Pr5  1  0.624226  0.158426  0.881700  1
  Pr  Pr6  1  0.126201  0.340555  0.618938  1
  Pr  Pr7  1  0.472900  0.679140  0.599699  1
  Pr  Pr8  1  0.969918  0.821498  0.899367  1
  Pr  Pr9  1  0.529726  0.321198  0.100958  1
  Pr  Pr10  1  0.027809  0.178924  0.399940  1
  Pr  Pr11  1  0.526284  0.320274  0.400716  1
  Pr  Pr12  1  0.030210  0.178934  0.101146  1
  Pr  Pr13  1  0.470476  0.678703  0.898841  1
  Pr  Pr14  1  0.973772  0.821348  0.599389  1
  Pr  Pr15  1  0.704199  0.996419  0.250285  1
  Nd  Nd16  1  0.628158  0.159182  0.619443  1
  Nd  Nd17  1  0.794959  0.497179  0.749956  1
  Nd  Nd18  1  0.295179  0.002983  0.749575  1
  Nd  Nd19  1  0.204424  0.503047  0.249978  1
  Pb  Pb20  1  0.715371  0.967022  0.456669  1
  Pb  Pb21  1  0.218065  0.532429  0.044125  1
  Pb  Pb22  1  0.281538  0.031639  0.955961  1
  Pb  Pb23  1  0.784193  0.465491  0.543800  1
  Pb  Pb24  1  0.287625  0.035602  0.543461  1
  Pb  Pb25  1  0.782100  0.468035  0.955831  1
  Pb  Pb26  1  0.718356  0.968355  0.044718  1
  Pb  Pb27  1  0.213807  0.534852  0.455959  1
  Pb  Pb28  1  0.429881  0.375432  0.749666  1
  Pb  Pb29  1  0.928905  0.123457  0.749778  1
  Pb  Pb30  1  0.570509  0.622241  0.249765  1
  Pb  Pb31  1  0.070987  0.877253  0.250032  1
  Pb  Pb32  1  0.664259  0.851854  0.749207  1
  Pb  Pb33  1  0.163894  0.648704  0.749454  1
  Pb  Pb34  1  0.335928  0.148986  0.250536  1
  Pb  Pb35  1  0.835264  0.351192  0.250752  1
