# generated using pymatgen
data_ErZr(ZnRh2)2
_symmetry_space_group_name_H-M   'P 1'
_cell_length_a   6.06339400
_cell_length_b   6.06408800
_cell_length_c   7.02931400
_cell_angle_alpha   90.00000000
_cell_angle_beta   90.00016655
_cell_angle_gamma   90.00000000
_symmetry_Int_Tables_number   1
_chemical_formula_structural   ErZr(ZnRh2)2
_chemical_formula_sum   'Er2 Zr2 Zn4 Rh8'
_cell_volume   258.46052870
_cell_formula_units_Z   2
loop_
 _symmetry_equiv_pos_site_id
 _symmetry_equiv_pos_as_xyz
  1  'x, y, z'
loop_
 _atom_site_type_symbol
 _atom_site_label
 _atom_site_symmetry_multiplicity
 _atom_site_fract_x
 _atom_site_fract_y
 _atom_site_fract_z
 _atom_site_occupancy
  Er  Er0  1  0.750126  0.249999  0.000006  1
  Er  Er1  1  0.249874  0.750000  0.999994  1
  Zr  Zr2  1  0.250090  0.750000  0.499998  1
  Zr  Zr3  1  0.749910  0.249999  0.500001  1
  Zn  Zn4  1  0.250043  0.249999  0.999991  1
  Zn  Zn5  1  0.749957  0.750000  0.000009  1
  Zn  Zn6  1  0.749977  0.750000  0.499976  1
  Zn  Zn7  1  0.250023  0.249999  0.500023  1
  Rh  Rh8  1  0.499949  0.000025  0.257658  1
  Rh  Rh9  1  0.499949  0.499972  0.257658  1
  Rh  Rh10  1  0.999976  0.000000  0.257734  1
  Rh  Rh11  1  0.999976  0.499999  0.257734  1
  Rh  Rh12  1  0.000025  0.000000  0.742266  1
  Rh  Rh13  1  0.000025  0.500002  0.742266  1
  Rh  Rh14  1  0.500051  0.999975  0.742342  1
  Rh  Rh15  1  0.500051  0.500029  0.742342  1
