# generated using pymatgen
data_PrGd2CCl3
_symmetry_space_group_name_H-M   'P 1'
_cell_length_a   9.47132554
_cell_length_b   9.47132432
_cell_length_c   9.47132422
_cell_angle_alpha   109.32759128
_cell_angle_beta   109.32758555
_cell_angle_gamma   109.75886133
_symmetry_Int_Tables_number   1
_chemical_formula_structural   PrGd2CCl3
_chemical_formula_sum   'Pr4 Gd8 C4 Cl12'
_cell_volume   654.03668647
_cell_formula_units_Z   4
loop_
 _symmetry_equiv_pos_site_id
 _symmetry_equiv_pos_as_xyz
  1  'x, y, z'
loop_
 _atom_site_type_symbol
 _atom_site_label
 _atom_site_symmetry_multiplicity
 _atom_site_fract_x
 _atom_site_fract_y
 _atom_site_fract_z
 _atom_site_occupancy
  Pr  Pr0  1  0.485374  0.235374  0.470748  1
  Pr  Pr1  1  0.014626  0.485374  0.750000  1
  Pr  Pr2  1  0.264626  0.014626  0.029252  1
  Pr  Pr3  1  0.235374  0.264626  0.750000  1
  Gd  Gd4  1  0.462593  0.478217  0.231933  1
  Gd  Gd5  1  0.746284  0.230659  0.268067  1
  Gd  Gd6  1  0.753716  0.021783  0.484375  1
  Gd  Gd7  1  0.230659  0.462593  0.484375  1
  Gd  Gd8  1  0.269341  0.753716  0.231933  1
  Gd  Gd9  1  0.037407  0.269341  0.015625  1
  Gd  Gd10  1  0.021783  0.037407  0.268067  1
  Gd  Gd11  1  0.478217  0.746284  0.015625  1
  C  C12  1  0.243593  0.256407  0.250000  1
  C  C13  1  0.506407  0.993593  0.250000  1
  C  C14  1  0.993593  0.243593  0.487184  1
  C  C15  1  0.256407  0.506407  0.012816  1
  Cl  Cl16  1  0.261438  0.758579  0.740601  1
  Cl  Cl17  1  0.517978  0.520837  0.759399  1
  Cl  Cl18  1  0.982022  0.741421  0.002859  1
  Cl  Cl19  1  0.741421  0.238562  0.759399  1
  Cl  Cl20  1  0.979163  0.982022  0.740601  1
  Cl  Cl21  1  0.238562  0.979163  0.497141  1
  Cl  Cl22  1  0.758579  0.517978  0.497141  1
  Cl  Cl23  1  0.520837  0.261438  0.002859  1
  Cl  Cl24  1  0.752223  0.747777  0.250000  1
  Cl  Cl25  1  0.747777  0.997777  0.995555  1
  Cl  Cl26  1  0.997777  0.502223  0.250000  1
  Cl  Cl27  1  0.502223  0.752223  0.504445  1
