# generated using pymatgen
data_Sr2ZrCu2S5
_symmetry_space_group_name_H-M   'P 1'
_cell_length_a   3.88024903
_cell_length_b   6.98853347
_cell_length_c   8.73734400
_cell_angle_alpha   103.94101071
_cell_angle_beta   102.82944829
_cell_angle_gamma   106.11793693
_symmetry_Int_Tables_number   1
_chemical_formula_structural   Sr2ZrCu2S5
_chemical_formula_sum   'Sr2 Zr1 Cu2 S5'
_cell_volume   210.04014184
_cell_formula_units_Z   1
loop_
 _symmetry_equiv_pos_site_id
 _symmetry_equiv_pos_as_xyz
  1  'x, y, z'
loop_
 _atom_site_type_symbol
 _atom_site_label
 _atom_site_symmetry_multiplicity
 _atom_site_fract_x
 _atom_site_fract_y
 _atom_site_fract_z
 _atom_site_occupancy
  Sr  Sr0  1  0.478736  0.652968  0.304504  1
  Sr  Sr1  1  0.521264  0.347032  0.695496  1
  Zr  Zr2  1  0.000000  0.000000  0.000000  1
  Cu  Cu3  1  0.734468  0.180689  0.288249  1
  Cu  Cu4  1  0.265532  0.819311  0.711751  1
  S  S5  1  0.671252  0.286018  0.056487  1
  S  S6  1  0.151275  0.997530  0.305020  1
  S  S7  1  0.000001  0.500001  0.500000  1
  S  S8  1  0.848725  0.002470  0.694981  1
  S  S9  1  0.328749  0.713984  0.943513  1
