# generated using pymatgen
data_Y8Ta11TiSi16
_symmetry_space_group_name_H-M   'P 1'
_cell_length_a   7.05043606
_cell_length_b   7.04705111
_cell_length_c   12.99860902
_cell_angle_alpha   89.95597154
_cell_angle_beta   90.00941337
_cell_angle_gamma   89.98356607
_symmetry_Int_Tables_number   1
_chemical_formula_structural   Y8Ta11TiSi16
_chemical_formula_sum   'Y8 Ta11 Ti1 Si16'
_cell_volume   645.83284590
_cell_formula_units_Z   1
loop_
 _symmetry_equiv_pos_site_id
 _symmetry_equiv_pos_as_xyz
  1  'x, y, z'
loop_
 _atom_site_type_symbol
 _atom_site_label
 _atom_site_symmetry_multiplicity
 _atom_site_fract_x
 _atom_site_fract_y
 _atom_site_fract_z
 _atom_site_occupancy
  Y  Y0  1  0.342210  0.002209  0.467740  1
  Y  Y1  1  0.497923  0.842133  0.717911  1
  Y  Y2  1  0.502223  0.158269  0.218129  1
  Y  Y3  1  0.841650  0.497582  0.281951  1
  Y  Y4  1  0.157860  0.502070  0.782252  1
  Y  Y5  1  0.658436  0.997100  0.967898  1
  Y  Y6  1  0.002903  0.341520  0.532166  1
  Y  Y7  1  0.997242  0.659052  0.031928  1
  Ta  Ta8  1  0.328506  0.328784  0.999811  1
  Ta  Ta9  1  0.171546  0.828108  0.250054  1
  Ta  Ta10  1  0.827113  0.172903  0.750047  1
  Ta  Ta11  1  0.671178  0.671263  0.499828  1
  Ta  Ta12  1  0.152142  0.006958  0.873691  1
  Ta  Ta13  1  0.492595  0.652556  0.124504  1
  Ta  Ta14  1  0.507577  0.347243  0.624221  1
  Ta  Ta15  1  0.652915  0.491401  0.875963  1
  Ta  Ta16  1  0.347933  0.507607  0.375655  1
  Ta  Ta17  1  0.846438  0.991806  0.373841  1
  Ta  Ta18  1  0.007978  0.152779  0.126073  1
  Ti  Ti19  1  0.992370  0.846423  0.626346  1
  Si  Si20  1  0.202302  0.132001  0.682125  1
  Si  Si21  1  0.366174  0.704014  0.931856  1
  Si  Si22  1  0.634332  0.296292  0.432494  1
  Si  Si23  1  0.703480  0.365970  0.068074  1
  Si  Si24  1  0.295779  0.635101  0.567935  1
  Si  Si25  1  0.796507  0.865858  0.181851  1
  Si  Si26  1  0.134080  0.203482  0.318297  1
  Si  Si27  1  0.865834  0.797324  0.817026  1
  Si  Si28  1  0.294127  0.954087  0.063693  1
  Si  Si29  1  0.545761  0.794210  0.313989  1
  Si  Si30  1  0.453436  0.206112  0.813654  1
  Si  Si31  1  0.795241  0.547531  0.685208  1
  Si  Si32  1  0.205924  0.454145  0.186143  1
  Si  Si33  1  0.708590  0.044987  0.564456  1
  Si  Si34  1  0.954109  0.294209  0.936053  1
  Si  Si35  1  0.045582  0.706913  0.437135  1
