# generated using pymatgen
data_Sr3Ga24RePd8
_symmetry_space_group_name_H-M   'P 1'
_cell_length_a   8.57881141
_cell_length_b   8.58354057
_cell_length_c   8.57579566
_cell_angle_alpha   90.34134942
_cell_angle_beta   90.27060005
_cell_angle_gamma   90.29369738
_symmetry_Int_Tables_number   1
_chemical_formula_structural   Sr3Ga24RePd8
_chemical_formula_sum   'Sr3 Ga24 Re1 Pd8'
_cell_volume   631.46558893
_cell_formula_units_Z   1
loop_
 _symmetry_equiv_pos_site_id
 _symmetry_equiv_pos_as_xyz
  1  'x, y, z'
loop_
 _atom_site_type_symbol
 _atom_site_label
 _atom_site_symmetry_multiplicity
 _atom_site_fract_x
 _atom_site_fract_y
 _atom_site_fract_z
 _atom_site_occupancy
  Sr  Sr0  1  0.000000  0.500000  0.000000  1
  Sr  Sr1  1  0.500000  0.000000  0.000000  1
  Sr  Sr2  1  0.000000  0.000000  0.500000  1
  Ga  Ga3  1  0.989552  0.641091  0.641225  1
  Ga  Ga4  1  0.641030  0.641000  0.989597  1
  Ga  Ga5  1  0.640983  0.989529  0.641070  1
  Ga  Ga6  1  0.010448  0.358909  0.358775  1
  Ga  Ga7  1  0.358970  0.359000  0.010403  1
  Ga  Ga8  1  0.359017  0.010471  0.358930  1
  Ga  Ga9  1  0.734143  0.499867  0.266028  1
  Ga  Ga10  1  0.265857  0.500133  0.733972  1
  Ga  Ga11  1  0.499989  0.265888  0.734341  1
  Ga  Ga12  1  0.500011  0.734112  0.265659  1
  Ga  Ga13  1  0.265583  0.734057  0.500171  1
  Ga  Ga14  1  0.734417  0.265943  0.499829  1
  Ga  Ga15  1  0.840170  0.143188  0.839884  1
  Ga  Ga16  1  0.143468  0.840005  0.839836  1
  Ga  Ga17  1  0.840059  0.839938  0.143673  1
  Ga  Ga18  1  0.159830  0.856812  0.160116  1
  Ga  Ga19  1  0.856532  0.159995  0.160164  1
  Ga  Ga20  1  0.159941  0.160062  0.856327  1
  Ga  Ga21  1  0.727387  0.488441  0.727233  1
  Ga  Ga22  1  0.487947  0.727452  0.727225  1
  Ga  Ga23  1  0.727307  0.727454  0.487866  1
  Ga  Ga24  1  0.272613  0.511559  0.272767  1
  Ga  Ga25  1  0.512053  0.272548  0.272775  1
  Ga  Ga26  1  0.272693  0.272546  0.512134  1
  Re  Re27  1  0.500000  0.500000  0.500000  1
  Pd  Pd28  1  0.833952  0.834077  0.833959  1
  Pd  Pd29  1  0.166048  0.165923  0.166041  1
  Pd  Pd30  1  0.662290  0.337765  0.999981  1
  Pd  Pd31  1  0.000002  0.337555  0.662380  1
  Pd  Pd32  1  0.337364  0.000034  0.662472  1
  Pd  Pd33  1  0.337710  0.662235  0.000019  1
  Pd  Pd34  1  0.999998  0.662445  0.337620  1
  Pd  Pd35  1  0.662636  0.999966  0.337528  1
