# generated using pymatgen
data_TbLuMn12P7
_symmetry_space_group_name_H-M   'P 1'
_cell_length_a   9.28855700
_cell_length_b   9.28855747
_cell_length_c   3.59363700
_cell_angle_alpha   90.00000000
_cell_angle_beta   90.00000000
_cell_angle_gamma   120.00000285
_symmetry_Int_Tables_number   1
_chemical_formula_structural   TbLuMn12P7
_chemical_formula_sum   'Tb1 Lu1 Mn12 P7'
_cell_volume   268.51054632
_cell_formula_units_Z   1
loop_
 _symmetry_equiv_pos_site_id
 _symmetry_equiv_pos_as_xyz
  1  'x, y, z'
loop_
 _atom_site_type_symbol
 _atom_site_label
 _atom_site_symmetry_multiplicity
 _atom_site_fract_x
 _atom_site_fract_y
 _atom_site_fract_z
 _atom_site_occupancy
  Tb  Tb0  1  0.000000  0.000000  0.500000  1
  Lu  Lu1  1  0.666667  0.333333  0.000000  1
  Mn  Mn2  1  0.757935  0.714615  0.000000  1
  Mn  Mn3  1  0.285385  0.043321  0.000000  1
  Mn  Mn4  1  0.956679  0.242065  0.000000  1
  Mn  Mn5  1  0.489959  0.943247  0.000000  1
  Mn  Mn6  1  0.056753  0.546713  0.000000  1
  Mn  Mn7  1  0.453287  0.510041  0.000000  1
  Mn  Mn8  1  0.725699  0.105469  0.500000  1
  Mn  Mn9  1  0.894531  0.620231  0.500000  1
  Mn  Mn10  1  0.379769  0.274301  0.500000  1
  Mn  Mn11  1  0.560157  0.769043  0.500000  1
  Mn  Mn12  1  0.230957  0.791114  0.500000  1
  Mn  Mn13  1  0.208886  0.439843  0.500000  1
  P  P14  1  0.463501  0.077473  0.500000  1
  P  P15  1  0.922527  0.386029  0.500000  1
  P  P16  1  0.613971  0.536499  0.500000  1
  P  P17  1  0.743416  0.957607  0.000000  1
  P  P18  1  0.042393  0.785809  0.000000  1
  P  P19  1  0.214191  0.256584  0.000000  1
  P  P20  1  0.333333  0.666667  0.000000  1
