# generated using pymatgen
data_Yb3Er(TcB4)4
_symmetry_space_group_name_H-M   'P 1'
_cell_length_a   3.56370500
_cell_length_b   5.97105393
_cell_length_c   11.54761600
_cell_angle_alpha   89.95301497
_cell_angle_beta   90.00000000
_cell_angle_gamma   90.00000000
_symmetry_Int_Tables_number   1
_chemical_formula_structural   Yb3Er(TcB4)4
_chemical_formula_sum   'Yb3 Er1 Tc4 B16'
_cell_volume   245.72250154
_cell_formula_units_Z   1
loop_
 _symmetry_equiv_pos_site_id
 _symmetry_equiv_pos_as_xyz
  1  'x, y, z'
loop_
 _atom_site_type_symbol
 _atom_site_label
 _atom_site_symmetry_multiplicity
 _atom_site_fract_x
 _atom_site_fract_y
 _atom_site_fract_z
 _atom_site_occupancy
  Yb  Yb0  1  0.000000  0.629151  0.349823  1
  Yb  Yb1  1  0.000000  0.371498  0.649262  1
  Yb  Yb2  1  0.000000  0.129307  0.151387  1
  Er  Er3  1  0.000000  0.870886  0.849260  1
  Tc  Tc4  1  0.000000  0.631571  0.082717  1
  Tc  Tc5  1  0.000000  0.369781  0.915519  1
  Tc  Tc6  1  0.000000  0.130890  0.417161  1
  Tc  Tc7  1  0.000000  0.870221  0.583960  1
  B  B8  1  0.500000  0.785021  0.185139  1
  B  B9  1  0.500000  0.213754  0.814967  1
  B  B10  1  0.500000  0.285774  0.315216  1
  B  B11  1  0.500000  0.713202  0.684984  1
  B  B12  1  0.500000  0.865146  0.031888  1
  B  B13  1  0.500000  0.134728  0.968154  1
  B  B14  1  0.500000  0.365617  0.467823  1
  B  B15  1  0.500000  0.634082  0.532251  1
  B  B16  1  0.500000  0.885668  0.452927  1
  B  B17  1  0.500000  0.113760  0.547986  1
  B  B18  1  0.500000  0.385872  0.047513  1
  B  B19  1  0.500000  0.612903  0.952089  1
  B  B20  1  0.500000  0.977863  0.307374  1
  B  B21  1  0.500000  0.022539  0.693158  1
  B  B22  1  0.500000  0.478026  0.192553  1
  B  B23  1  0.500000  0.522741  0.806888  1
