# generated using pymatgen
data_Y2MnCoSi2C
_symmetry_space_group_name_H-M   'P 1'
_cell_length_a   5.66181555
_cell_length_b   5.66181545
_cell_length_c   6.77501818
_cell_angle_alpha   126.62051006
_cell_angle_beta   126.62051085
_cell_angle_gamma   40.65972569
_symmetry_Int_Tables_number   1
_chemical_formula_structural   Y2MnCoSi2C
_chemical_formula_sum   'Y2 Mn1 Co1 Si2 C1'
_cell_volume   109.18372562
_cell_formula_units_Z   1
loop_
 _symmetry_equiv_pos_site_id
 _symmetry_equiv_pos_as_xyz
  1  'x, y, z'
loop_
 _atom_site_type_symbol
 _atom_site_label
 _atom_site_symmetry_multiplicity
 _atom_site_fract_x
 _atom_site_fract_y
 _atom_site_fract_z
 _atom_site_occupancy
  Y  Y0  1  0.560189  0.560189  0.295038  1
  Y  Y1  1  0.438726  0.438726  0.705638  1
  Mn  Mn2  1  0.199981  0.199981  0.093531  1
  Co  Co3  1  0.796861  0.796861  0.903170  1
  Si  Si4  1  0.841383  0.841383  0.286470  1
  Si  Si5  1  0.159541  0.159541  0.711591  1
  C  C6  1  0.003317  0.003317  0.004558  1
