# generated using pymatgen
data_Hf15Zr3Ta2(ReO)6
_symmetry_space_group_name_H-M   'P 1'
_cell_length_a   8.57884102
_cell_length_b   8.57048569
_cell_length_c   8.49238803
_cell_angle_alpha   90.20058838
_cell_angle_beta   89.90603194
_cell_angle_gamma   120.09155368
_symmetry_Int_Tables_number   1
_chemical_formula_structural   Hf15Zr3Ta2(ReO)6
_chemical_formula_sum   'Hf15 Zr3 Ta2 Re6 O6'
_cell_volume   540.24461878
_cell_formula_units_Z   1
loop_
 _symmetry_equiv_pos_site_id
 _symmetry_equiv_pos_as_xyz
  1  'x, y, z'
loop_
 _atom_site_type_symbol
 _atom_site_label
 _atom_site_symmetry_multiplicity
 _atom_site_fract_x
 _atom_site_fract_y
 _atom_site_fract_z
 _atom_site_occupancy
  Hf  Hf0  1  0.453003  0.906512  0.249900  1
  Hf  Hf1  1  0.547017  0.094069  0.750146  1
  Hf  Hf2  1  0.093455  0.546957  0.249740  1
  Hf  Hf3  1  0.906581  0.453057  0.750238  1
  Hf  Hf4  1  0.453542  0.546382  0.249626  1
  Hf  Hf5  1  0.546490  0.452994  0.750399  1
  Hf  Hf6  1  0.797201  0.594224  0.062667  1
  Hf  Hf7  1  0.405710  0.202837  0.436874  1
  Hf  Hf8  1  0.203249  0.406235  0.937233  1
  Hf  Hf9  1  0.202510  0.797363  0.563327  1
  Hf  Hf10  1  0.406592  0.203329  0.063787  1
  Hf  Hf11  1  0.797026  0.202854  0.436809  1
  Hf  Hf12  1  0.593556  0.796728  0.937194  1
  Hf  Hf13  1  0.796742  0.203523  0.063782  1
  Hf  Hf14  1  0.203709  0.796478  0.936063  1
  Zr  Zr15  1  0.204264  0.408755  0.564867  1
  Zr  Zr16  1  0.795271  0.590647  0.435195  1
  Zr  Zr17  1  0.591146  0.795625  0.564786  1
  Ta  Ta18  1  0.000301  0.000143  0.999789  1
  Ta  Ta19  1  0.000337  0.000195  0.500085  1
  Re  Re20  1  0.112981  0.226138  0.248915  1
  Re  Re21  1  0.888275  0.774007  0.751304  1
  Re  Re22  1  0.774443  0.888616  0.248515  1
  Re  Re23  1  0.226503  0.111897  0.750417  1
  Re  Re24  1  0.114356  0.888241  0.249375  1
  Re  Re25  1  0.886910  0.112901  0.750831  1
  O  O26  1  0.500119  0.000147  0.999979  1
  O  O27  1  0.000169  0.500093  0.999957  1
  O  O28  1  0.499227  0.002404  0.499167  1
  O  O29  1  0.500113  0.499998  0.999981  1
  O  O30  1  0.000097  0.500054  0.499902  1
  O  O31  1  0.499106  0.496596  0.499151  1
