# generated using pymatgen
data_Nb3Te6As
_symmetry_space_group_name_H-M   'P 1'
_cell_length_a   6.46508100
_cell_length_b   11.58051300
_cell_length_c   15.24180700
_cell_angle_alpha   90.00000000
_cell_angle_beta   90.00000000
_cell_angle_gamma   90.00000000
_symmetry_Int_Tables_number   1
_chemical_formula_structural   Nb3Te6As
_chemical_formula_sum   'Nb12 Te24 As4'
_cell_volume   1141.13815580
_cell_formula_units_Z   4
loop_
 _symmetry_equiv_pos_site_id
 _symmetry_equiv_pos_as_xyz
  1  'x, y, z'
loop_
 _atom_site_type_symbol
 _atom_site_label
 _atom_site_symmetry_multiplicity
 _atom_site_fract_x
 _atom_site_fract_y
 _atom_site_fract_z
 _atom_site_occupancy
  Nb  Nb0  1  0.174612  0.829849  0.750000  1
  Nb  Nb1  1  0.674612  0.670151  0.750000  1
  Nb  Nb2  1  0.325388  0.329849  0.250000  1
  Nb  Nb3  1  0.825388  0.170151  0.250000  1
  Nb  Nb4  1  0.695651  0.968381  0.750000  1
  Nb  Nb5  1  0.195651  0.531619  0.750000  1
  Nb  Nb6  1  0.804349  0.468381  0.250000  1
  Nb  Nb7  1  0.304349  0.031619  0.250000  1
  Nb  Nb8  1  0.963016  0.314851  0.750000  1
  Nb  Nb9  1  0.463016  0.185149  0.750000  1
  Nb  Nb10  1  0.536984  0.814851  0.250000  1
  Nb  Nb11  1  0.036984  0.685149  0.250000  1
  Te  Te12  1  0.852619  0.818246  0.623619  1
  Te  Te13  1  0.352619  0.681754  0.876381  1
  Te  Te14  1  0.647381  0.318246  0.376381  1
  Te  Te15  1  0.147381  0.181754  0.123619  1
  Te  Te16  1  0.147381  0.181754  0.376381  1
  Te  Te17  1  0.647381  0.318246  0.123619  1
  Te  Te18  1  0.352619  0.681754  0.623619  1
  Te  Te19  1  0.852619  0.818246  0.876381  1
  Te  Te20  1  0.783700  0.160665  0.623954  1
  Te  Te21  1  0.283700  0.339335  0.876046  1
  Te  Te22  1  0.716300  0.660665  0.376046  1
  Te  Te23  1  0.216300  0.839335  0.123954  1
  Te  Te24  1  0.216300  0.839335  0.376046  1
  Te  Te25  1  0.716300  0.660665  0.123954  1
  Te  Te26  1  0.283700  0.339335  0.623954  1
  Te  Te27  1  0.783700  0.160665  0.876046  1
  Te  Te28  1  0.364696  0.991675  0.627542  1
  Te  Te29  1  0.864696  0.508325  0.872458  1
  Te  Te30  1  0.135304  0.491675  0.372458  1
  Te  Te31  1  0.635304  0.008325  0.127542  1
  Te  Te32  1  0.635304  0.008325  0.372458  1
  Te  Te33  1  0.135304  0.491675  0.127542  1
  Te  Te34  1  0.864696  0.508325  0.627542  1
  Te  Te35  1  0.364696  0.991675  0.872458  1
  As  As36  1  0.076652  0.072408  0.750000  1
  As  As37  1  0.576652  0.427592  0.750000  1
  As  As38  1  0.423348  0.572408  0.250000  1
  As  As39  1  0.923348  0.927592  0.250000  1
