# generated using pymatgen
data_Pr5Nd2Pa(ZnRh)8
_symmetry_space_group_name_H-M   'P 1'
_cell_length_a   3.99082000
_cell_length_b   7.40759329
_cell_length_c   16.68687406
_cell_angle_alpha   89.52100624
_cell_angle_beta   90.00000000
_cell_angle_gamma   90.00000000
_symmetry_Int_Tables_number   1
_chemical_formula_structural   Pr5Nd2Pa(ZnRh)8
_chemical_formula_sum   'Pr5 Nd2 Pa1 Zn8 Rh8'
_cell_volume   493.28633081
_cell_formula_units_Z   1
loop_
 _symmetry_equiv_pos_site_id
 _symmetry_equiv_pos_as_xyz
  1  'x, y, z'
loop_
 _atom_site_type_symbol
 _atom_site_label
 _atom_site_symmetry_multiplicity
 _atom_site_fract_x
 _atom_site_fract_y
 _atom_site_fract_z
 _atom_site_occupancy
  Pr  Pr0  1  0.750000  0.946704  0.282952  1
  Pr  Pr1  1  0.750000  0.822199  0.060105  1
  Pr  Pr2  1  0.250000  0.549124  0.784536  1
  Pr  Pr3  1  0.750000  0.334807  0.440162  1
  Pr  Pr4  1  0.250000  0.674126  0.561000  1
  Nd  Nd5  1  0.250000  0.050872  0.715811  1
  Nd  Nd6  1  0.250000  0.168721  0.939588  1
  Pa  Pa7  1  0.750000  0.442587  0.214088  1
  Zn  Zn8  1  0.250000  0.004550  0.439088  1
  Zn  Zn9  1  0.750000  0.500463  0.939925  1
  Zn  Zn10  1  0.750000  0.005472  0.560859  1
  Zn  Zn11  1  0.250000  0.622029  0.350421  1
  Zn  Zn12  1  0.750000  0.378123  0.651427  1
  Zn  Zn13  1  0.750000  0.883218  0.848701  1
  Zn  Zn14  1  0.250000  0.497085  0.056933  1
  Zn  Zn15  1  0.250000  0.115288  0.151245  1
  Rh  Rh16  1  0.250000  0.247430  0.565412  1
  Rh  Rh17  1  0.750000  0.266863  0.075625  1
  Rh  Rh18  1  0.250000  0.265860  0.299994  1
  Rh  Rh19  1  0.750000  0.252829  0.816696  1
  Rh  Rh20  1  0.250000  0.749808  0.934355  1
  Rh  Rh21  1  0.750000  0.756911  0.686750  1
  Rh  Rh22  1  0.750000  0.764195  0.434213  1
  Rh  Rh23  1  0.250000  0.700734  0.190113  1
