# generated using pymatgen
data_Sm3ErAl18CuRh5
_symmetry_space_group_name_H-M   'P 1'
_cell_length_a   7.59243460
_cell_length_b   7.59602057
_cell_length_c   9.50171800
_cell_angle_alpha   90.02828576
_cell_angle_beta   90.05576058
_cell_angle_gamma   119.47998330
_symmetry_Int_Tables_number   1
_chemical_formula_structural   Sm3ErAl18CuRh5
_chemical_formula_sum   'Sm3 Er1 Al18 Cu1 Rh5'
_cell_volume   477.03630691
_cell_formula_units_Z   1
loop_
 _symmetry_equiv_pos_site_id
 _symmetry_equiv_pos_as_xyz
  1  'x, y, z'
loop_
 _atom_site_type_symbol
 _atom_site_label
 _atom_site_symmetry_multiplicity
 _atom_site_fract_x
 _atom_site_fract_y
 _atom_site_fract_z
 _atom_site_occupancy
  Sm  Sm0  1  0.994979  0.673183  0.749385  1
  Sm  Sm1  1  0.004908  0.326680  0.250822  1
  Sm  Sm2  1  0.672896  0.994682  0.749289  1
  Er  Er3  1  0.326555  0.004966  0.250508  1
  Al  Al4  1  0.132398  0.131799  0.751980  1
  Al  Al5  1  0.869212  0.868411  0.248095  1
  Al  Al6  1  0.002403  0.339295  0.576505  1
  Al  Al7  1  0.998985  0.662068  0.422206  1
  Al  Al8  1  0.000391  0.665572  0.075029  1
  Al  Al9  1  0.335290  0.000843  0.927988  1
  Al  Al10  1  0.001026  0.335236  0.926658  1
  Al  Al11  1  0.663635  0.999300  0.074980  1
  Al  Al12  1  0.659504  0.998029  0.421957  1
  Al  Al13  1  0.338828  0.002148  0.575017  1
  Al  Al14  1  0.333390  0.332623  0.049705  1
  Al  Al15  1  0.666599  0.666432  0.953776  1
  Al  Al16  1  0.663091  0.663028  0.548332  1
  Al  Al17  1  0.336693  0.335880  0.448315  1
  Al  Al18  1  0.340430  0.549111  0.750506  1
  Al  Al19  1  0.658548  0.449116  0.249537  1
  Al  Al20  1  0.549128  0.339671  0.750438  1
  Al  Al21  1  0.450248  0.661124  0.249556  1
  Cu  Cu22  1  0.000700  0.000712  0.498698  1
  Rh  Rh23  1  0.671476  0.328151  0.499243  1
  Rh  Rh24  1  0.328262  0.671912  0.499476  1
  Rh  Rh25  1  0.328376  0.671764  0.000525  1
  Rh  Rh26  1  0.671408  0.328084  0.000650  1
  Rh  Rh27  1  0.000643  0.000180  0.000822  1
