# generated using pymatgen
data_Nd2Cd14Pd3
_symmetry_space_group_name_H-M   'P 1'
_cell_length_a   7.53531516
_cell_length_b   7.53531526
_cell_length_c   7.53531507
_cell_angle_alpha   82.56504016
_cell_angle_beta   82.56503566
_cell_angle_gamma   82.56505012
_symmetry_Int_Tables_number   1
_chemical_formula_structural   Nd2Cd14Pd3
_chemical_formula_sum   'Nd2 Cd14 Pd3'
_cell_volume   417.92773962
_cell_formula_units_Z   1
loop_
 _symmetry_equiv_pos_site_id
 _symmetry_equiv_pos_as_xyz
  1  'x, y, z'
loop_
 _atom_site_type_symbol
 _atom_site_label
 _atom_site_symmetry_multiplicity
 _atom_site_fract_x
 _atom_site_fract_y
 _atom_site_fract_z
 _atom_site_occupancy
  Nd  Nd0  1  0.663686  0.663686  0.663686  1
  Nd  Nd1  1  0.336314  0.336314  0.336314  1
  Cd  Cd2  1  0.349417  0.349417  0.848063  1
  Cd  Cd3  1  0.848063  0.349417  0.349417  1
  Cd  Cd4  1  0.107658  0.107658  0.107658  1
  Cd  Cd5  1  0.892342  0.892342  0.892342  1
  Cd  Cd6  1  0.299926  0.700074  0.000000  1
  Cd  Cd7  1  0.700074  0.000000  0.299926  1
  Cd  Cd8  1  0.000000  0.299926  0.700074  1
  Cd  Cd9  1  0.700074  0.299926  0.000000  1
  Cd  Cd10  1  0.299926  0.000000  0.700074  1
  Cd  Cd11  1  0.000000  0.700074  0.299926  1
  Cd  Cd12  1  0.151937  0.650583  0.650583  1
  Cd  Cd13  1  0.650583  0.650583  0.151937  1
  Cd  Cd14  1  0.650583  0.151937  0.650583  1
  Cd  Cd15  1  0.349417  0.848063  0.349417  1
  Pd  Pd16  1  0.000000  0.000000  0.500000  1
  Pd  Pd17  1  0.000000  0.500000  0.000000  1
  Pd  Pd18  1  0.500000  0.000000  0.000000  1
