# generated using pymatgen
data_Sr12TcSb3O22
_symmetry_space_group_name_H-M   'P 1'
_cell_length_a   6.02194406
_cell_length_b   6.01812659
_cell_length_c   23.99241556
_cell_angle_alpha   58.46914822
_cell_angle_beta   59.20278941
_cell_angle_gamma   60.20084879
_symmetry_Int_Tables_number   1
_chemical_formula_structural   Sr12TcSb3O22
_chemical_formula_sum   'Sr12 Tc1 Sb3 O22'
_cell_volume   604.62007437
_cell_formula_units_Z   1
loop_
 _symmetry_equiv_pos_site_id
 _symmetry_equiv_pos_as_xyz
  1  'x, y, z'
loop_
 _atom_site_type_symbol
 _atom_site_label
 _atom_site_symmetry_multiplicity
 _atom_site_fract_x
 _atom_site_fract_y
 _atom_site_fract_z
 _atom_site_occupancy
  Sr  Sr0  1  0.113188  0.339053  0.075617  1
  Sr  Sr1  1  0.438027  0.612688  0.108845  1
  Sr  Sr2  1  0.180713  0.357085  0.291093  1
  Sr  Sr3  1  0.369042  0.544068  0.386983  1
  Sr  Sr4  1  0.631979  0.806488  0.203839  1
  Sr  Sr5  1  0.221788  0.241035  0.579148  1
  Sr  Sr6  1  0.503947  0.513848  0.609817  1
  Sr  Sr7  1  0.227748  0.286955  0.793106  1
  Sr  Sr8  1  0.650193  0.862512  0.417796  1
  Sr  Sr9  1  0.451624  0.478437  0.888079  1
  Sr  Sr10  1  0.685503  0.743025  0.705959  1
  Sr  Sr11  1  0.719695  0.753588  0.920766  1
  Tc  Tc12  1  0.004674  0.046425  0.998470  1
  Sb  Sb13  1  0.908157  0.082425  0.247519  1
  Sb  Sb14  1  0.936335  0.968477  0.498478  1
  Sb  Sb15  1  0.964188  0.011183  0.749341  1
  O  O16  1  0.089595  0.383229  0.183142  1
  O  O17  1  0.208711  0.848992  0.190194  1
  O  O18  1  0.798974  0.377659  0.028531  1
  O  O19  1  0.792865  0.835609  0.076875  1
  O  O20  1  0.684380  0.239031  0.187352  1
  O  O21  1  0.613044  0.327510  0.301803  1
  O  O22  1  0.156311  0.189513  0.415736  1
  O  O23  1  0.120422  0.922936  0.311062  1
  O  O24  1  0.730965  0.776102  0.312651  1
  O  O25  1  0.609609  0.171221  0.468127  1
  O  O26  1  0.717845  0.065814  0.580903  1
  O  O27  1  0.144244  0.790653  0.686336  1
  O  O28  1  0.262515  0.718221  0.529002  1
  O  O29  1  0.323190  0.045613  0.998755  1
  O  O30  1  0.936377  0.636321  0.498268  1
  O  O31  1  0.757994  0.327281  0.684334  1
  O  O32  1  0.261670  0.185629  0.694538  1
  O  O33  1  0.784474  0.224184  0.812556  1
  O  O34  1  0.252720  0.717096  0.967395  1
  O  O35  1  0.184443  0.699499  0.811926  1
  O  O36  1  0.656506  0.846434  0.805577  1
  O  O37  1  0.901848  0.255657  0.920304  1
