# generated using pymatgen
data_Lu6TcRh
_symmetry_space_group_name_H-M   'P 1'
_cell_length_a   7.25521600
_cell_length_b   8.94559500
_cell_length_c   6.15854100
_cell_angle_alpha   90.00000000
_cell_angle_beta   90.00000000
_cell_angle_gamma   90.00000000
_symmetry_Int_Tables_number   1
_chemical_formula_structural   Lu6TcRh
_chemical_formula_sum   'Lu12 Tc2 Rh2'
_cell_volume   399.70300733
_cell_formula_units_Z   2
loop_
 _symmetry_equiv_pos_site_id
 _symmetry_equiv_pos_as_xyz
  1  'x, y, z'
loop_
 _atom_site_type_symbol
 _atom_site_label
 _atom_site_symmetry_multiplicity
 _atom_site_fract_x
 _atom_site_fract_y
 _atom_site_fract_z
 _atom_site_occupancy
  Lu  Lu0  1  0.540787  0.750000  0.132707  1
  Lu  Lu1  1  0.822472  0.065830  0.168781  1
  Lu  Lu2  1  0.822472  0.434170  0.168781  1
  Lu  Lu3  1  0.322472  0.065830  0.331217  1
  Lu  Lu4  1  0.322472  0.434170  0.331217  1
  Lu  Lu5  1  0.040787  0.750000  0.367292  1
  Lu  Lu6  1  0.961011  0.250000  0.624782  1
  Lu  Lu7  1  0.677135  0.558929  0.663559  1
  Lu  Lu8  1  0.677135  0.941072  0.663559  1
  Lu  Lu9  1  0.177134  0.558929  0.836439  1
  Lu  Lu10  1  0.177134  0.941072  0.836439  1
  Lu  Lu11  1  0.461010  0.250000  0.875217  1
  Tc  Tc12  1  0.113846  0.250000  0.035748  1
  Tc  Tc13  1  0.613846  0.250000  0.464251  1
  Rh  Rh14  1  0.385145  0.750000  0.544913  1
  Rh  Rh15  1  0.885144  0.750000  0.955086  1
