# generated using pymatgen
data_Li(HoP)2
_symmetry_space_group_name_H-M   'P 1'
_cell_length_a   4.04915500
_cell_length_b   4.04915430
_cell_length_c   13.69232600
_cell_angle_alpha   90.00000000
_cell_angle_beta   90.00000000
_cell_angle_gamma   120.00001387
_symmetry_Int_Tables_number   1
_chemical_formula_structural   Li(HoP)2
_chemical_formula_sum   'Li2 Ho4 P4'
_cell_volume   194.41802647
_cell_formula_units_Z   2
loop_
 _symmetry_equiv_pos_site_id
 _symmetry_equiv_pos_as_xyz
  1  'x, y, z'
loop_
 _atom_site_type_symbol
 _atom_site_label
 _atom_site_symmetry_multiplicity
 _atom_site_fract_x
 _atom_site_fract_y
 _atom_site_fract_z
 _atom_site_occupancy
  Li  Li0  1  0.000000  0.000000  0.750000  1
  Li  Li1  1  0.000000  0.000000  0.250000  1
  Ho  Ho2  1  0.666667  0.333333  0.390248  1
  Ho  Ho3  1  0.333333  0.666667  0.890248  1
  Ho  Ho4  1  0.333333  0.666667  0.609753  1
  Ho  Ho5  1  0.666667  0.333333  0.109753  1
  P  P6  1  0.333333  0.666667  0.250000  1
  P  P7  1  0.000000  0.000000  0.999999  1
  P  P8  1  0.000000  0.000000  0.499999  1
  P  P9  1  0.666667  0.333333  0.750000  1
