# generated using pymatgen
data_Li2Tb13Ho3(InRh2)2
_symmetry_space_group_name_H-M   'P 1'
_cell_length_a   9.67386495
_cell_length_b   9.66886313
_cell_length_c   9.68875348
_cell_angle_alpha   59.96757503
_cell_angle_beta   59.96541029
_cell_angle_gamma   59.90060302
_symmetry_Int_Tables_number   1
_chemical_formula_structural   Li2Tb13Ho3(InRh2)2
_chemical_formula_sum   'Li2 Tb13 Ho3 In2 Rh4'
_cell_volume   640.00185044
_cell_formula_units_Z   1
loop_
 _symmetry_equiv_pos_site_id
 _symmetry_equiv_pos_as_xyz
  1  'x, y, z'
loop_
 _atom_site_type_symbol
 _atom_site_label
 _atom_site_symmetry_multiplicity
 _atom_site_fract_x
 _atom_site_fract_y
 _atom_site_fract_z
 _atom_site_occupancy
  Li  Li0  1  0.427708  0.427717  0.424695  1
  Li  Li1  1  0.427615  0.427360  0.720912  1
  Tb  Tb2  1  0.652519  0.043835  0.650990  1
  Tb  Tb3  1  0.063931  0.064347  0.436670  1
  Tb  Tb4  1  0.438231  0.437765  0.061955  1
  Tb  Tb5  1  0.651517  0.650759  0.648824  1
  Tb  Tb6  1  0.812111  0.186698  0.188775  1
  Tb  Tb7  1  0.187584  0.811991  0.811859  1
  Tb  Tb8  1  0.043389  0.652525  0.650951  1
  Tb  Tb9  1  0.437128  0.063984  0.062010  1
  Tb  Tb10  1  0.435865  0.063682  0.436693  1
  Tb  Tb11  1  0.063893  0.436713  0.062399  1
  Tb  Tb12  1  0.650623  0.650512  0.050202  1
  Tb  Tb13  1  0.186756  0.812118  0.189288  1
  Tb  Tb14  1  0.063537  0.435573  0.436933  1
  Ho  Ho15  1  0.807940  0.808563  0.192174  1
  Ho  Ho16  1  0.811889  0.187914  0.811843  1
  Ho  Ho17  1  0.182664  0.182994  0.818185  1
  In  In18  1  0.416090  0.743539  0.420667  1
  In  In19  1  0.743523  0.415909  0.420988  1
  Rh  Rh20  1  0.856717  0.425975  0.857596  1
  Rh  Rh21  1  0.856125  0.856876  0.860583  1
  Rh  Rh22  1  0.856103  0.855960  0.427013  1
  Rh  Rh23  1  0.426544  0.856694  0.857796  1
