# generated using pymatgen
data_SrPr2Ag(Pt2O7)2
_symmetry_space_group_name_H-M   'P 1'
_cell_length_a   7.35420448
_cell_length_b   7.35420394
_cell_length_c   7.35370157
_cell_angle_alpha   61.02244034
_cell_angle_beta   61.02243077
_cell_angle_gamma   61.35169514
_symmetry_Int_Tables_number   1
_chemical_formula_structural   SrPr2Ag(Pt2O7)2
_chemical_formula_sum   'Sr1 Pr2 Ag1 Pt4 O14'
_cell_volume   288.38993013
_cell_formula_units_Z   1
loop_
 _symmetry_equiv_pos_site_id
 _symmetry_equiv_pos_as_xyz
  1  'x, y, z'
loop_
 _atom_site_type_symbol
 _atom_site_label
 _atom_site_symmetry_multiplicity
 _atom_site_fract_x
 _atom_site_fract_y
 _atom_site_fract_z
 _atom_site_occupancy
  Sr  Sr0  1  0.125000  0.125000  0.625000  1
  Pr  Pr1  1  0.625000  0.125000  0.125000  1
  Pr  Pr2  1  0.125000  0.625000  0.125000  1
  Ag  Ag3  1  0.125000  0.125000  0.125000  1
  Pt  Pt4  1  0.625000  0.625000  0.125000  1
  Pt  Pt5  1  0.625000  0.625000  0.625000  1
  Pt  Pt6  1  0.625000  0.125000  0.625000  1
  Pt  Pt7  1  0.125000  0.625000  0.625000  1
  O  O8  1  0.694936  0.299699  0.297339  1
  O  O9  1  0.710569  0.710569  0.290842  1
  O  O10  1  0.299699  0.694936  0.297339  1
  O  O11  1  0.005905  0.005905  0.020621  1
  O  O12  1  0.700735  0.294945  0.713680  1
  O  O13  1  0.955055  0.549265  0.536320  1
  O  O14  1  0.294945  0.700735  0.713680  1
  O  O15  1  0.549265  0.955055  0.536320  1
  O  O16  1  0.244095  0.244095  0.229379  1
  O  O17  1  0.950301  0.555064  0.952661  1
  O  O18  1  0.539431  0.539431  0.959158  1
  O  O19  1  0.949869  0.949869  0.546551  1
  O  O20  1  0.555064  0.950301  0.952661  1
  O  O21  1  0.300131  0.300131  0.703449  1
