# generated using pymatgen
data_Tb5Y3(AsI6)2
_symmetry_space_group_name_H-M   'P 1'
_cell_length_a   4.26323700
_cell_length_b   13.95426302
_cell_length_c   14.74210702
_cell_angle_alpha   89.99335550
_cell_angle_beta   90.00000000
_cell_angle_gamma   90.00000000
_symmetry_Int_Tables_number   1
_chemical_formula_structural   Tb5Y3(AsI6)2
_chemical_formula_sum   'Tb5 Y3 As2 I12'
_cell_volume   877.01281223
_cell_formula_units_Z   1
loop_
 _symmetry_equiv_pos_site_id
 _symmetry_equiv_pos_as_xyz
  1  'x, y, z'
loop_
 _atom_site_type_symbol
 _atom_site_label
 _atom_site_symmetry_multiplicity
 _atom_site_fract_x
 _atom_site_fract_y
 _atom_site_fract_z
 _atom_site_occupancy
  Tb  Tb0  1  0.500000  0.385021  0.847212  1
  Tb  Tb1  1  0.000000  0.109850  0.573239  1
  Tb  Tb2  1  0.000000  0.890129  0.426746  1
  Tb  Tb3  1  0.000000  0.609798  0.926702  1
  Tb  Tb4  1  0.000000  0.390121  0.073191  1
  Y  Y5  1  0.500000  0.114869  0.347372  1
  Y  Y6  1  0.500000  0.885142  0.652623  1
  Y  Y7  1  0.500000  0.614974  0.152759  1
  As  As8  1  0.500000  0.000003  0.499998  1
  As  As9  1  0.500000  0.500252  0.000272  1
  I  I10  1  0.500000  0.245520  0.160862  1
  I  I11  1  0.500000  0.754497  0.839178  1
  I  I12  1  0.500000  0.745560  0.339187  1
  I  I13  1  0.500000  0.254309  0.660686  1
  I  I14  1  0.000000  0.258705  0.414042  1
  I  I15  1  0.000000  0.741298  0.585965  1
  I  I16  1  0.000000  0.758670  0.085968  1
  I  I17  1  0.000000  0.240923  0.914259  1
  I  I18  1  0.000000  0.999960  0.240923  1
  I  I19  1  0.000000  0.000045  0.759079  1
  I  I20  1  0.000000  0.499985  0.259051  1
  I  I21  1  0.000000  0.500370  0.740688  1
