# generated using pymatgen
data_La17Yb3(Ir2Os)4
_symmetry_space_group_name_H-M   'P 1'
_cell_length_a   11.35598900
_cell_length_b   11.35598900
_cell_length_c   6.61597300
_cell_angle_alpha   90.00000000
_cell_angle_beta   90.00000000
_cell_angle_gamma   90.00000000
_symmetry_Int_Tables_number   1
_chemical_formula_structural   La17Yb3(Ir2Os)4
_chemical_formula_sum   'La17 Yb3 Ir8 Os4'
_cell_volume   853.18586261
_cell_formula_units_Z   1
loop_
 _symmetry_equiv_pos_site_id
 _symmetry_equiv_pos_as_xyz
  1  'x, y, z'
loop_
 _atom_site_type_symbol
 _atom_site_label
 _atom_site_symmetry_multiplicity
 _atom_site_fract_x
 _atom_site_fract_y
 _atom_site_fract_z
 _atom_site_occupancy
  La  La0  1  0.290092  0.089071  0.392389  1
  La  La1  1  0.291226  0.912918  0.890789  1
  La  La2  1  0.708774  0.087082  0.890789  1
  La  La3  1  0.709908  0.910929  0.392389  1
  La  La4  1  0.588871  0.790887  0.891063  1
  La  La5  1  0.588999  0.204012  0.388941  1
  La  La6  1  0.411001  0.795988  0.388941  1
  La  La7  1  0.411129  0.209113  0.891063  1
  La  La8  1  0.204012  0.411001  0.611059  1
  La  La9  1  0.209113  0.588871  0.108937  1
  La  La10  1  0.790887  0.411129  0.108937  1
  La  La11  1  0.795988  0.588999  0.611059  1
  La  La12  1  0.912918  0.708774  0.109211  1
  La  La13  1  0.910929  0.290092  0.607611  1
  La  La14  1  0.089071  0.709908  0.607611  1
  La  La15  1  0.087082  0.291226  0.109211  1
  La  La16  1  0.500000  0.500000  0.500000  1
  Yb  Yb17  1  0.000000  0.000000  0.500000  1
  Yb  Yb18  1  0.000000  0.000000  0.000000  1
  Yb  Yb19  1  0.500000  0.500000  0.000000  1
  Ir  Ir20  1  0.846123  0.154024  0.248516  1
  Ir  Ir21  1  0.845976  0.846123  0.751484  1
  Ir  Ir22  1  0.154024  0.153877  0.751484  1
  Ir  Ir23  1  0.153877  0.845976  0.248516  1
  Ir  Ir24  1  0.654347  0.347599  0.745276  1
  Ir  Ir25  1  0.652401  0.654347  0.254724  1
  Ir  Ir26  1  0.347599  0.345653  0.254724  1
  Ir  Ir27  1  0.345653  0.652401  0.745276  1
  Os  Os28  1  0.500000  0.000000  0.121607  1
  Os  Os29  1  0.500000  0.000000  0.625845  1
  Os  Os30  1  0.000000  0.500000  0.878393  1
  Os  Os31  1  0.000000  0.500000  0.374155  1
