# generated using pymatgen
data_LuNiSnH
_symmetry_space_group_name_H-M   'P 1'
_cell_length_a   4.16583000
_cell_length_b   7.00947500
_cell_length_c   8.26680500
_cell_angle_alpha   90.00000000
_cell_angle_beta   90.00000000
_cell_angle_gamma   90.00000000
_symmetry_Int_Tables_number   1
_chemical_formula_structural   LuNiSnH
_chemical_formula_sum   'Lu4 Ni4 Sn4 H4'
_cell_volume   241.39303095
_cell_formula_units_Z   4
loop_
 _symmetry_equiv_pos_site_id
 _symmetry_equiv_pos_as_xyz
  1  'x, y, z'
loop_
 _atom_site_type_symbol
 _atom_site_label
 _atom_site_symmetry_multiplicity
 _atom_site_fract_x
 _atom_site_fract_y
 _atom_site_fract_z
 _atom_site_occupancy
  Lu  Lu0  1  0.750000  0.516151  0.816175  1
  Lu  Lu1  1  0.250000  0.483849  0.183825  1
  Lu  Lu2  1  0.250000  0.983849  0.316175  1
  Lu  Lu3  1  0.750000  0.016151  0.683825  1
  Ni  Ni4  1  0.750000  0.270812  0.388539  1
  Ni  Ni5  1  0.250000  0.729188  0.611461  1
  Ni  Ni6  1  0.250000  0.229188  0.888539  1
  Ni  Ni7  1  0.750000  0.770812  0.111461  1
  Sn  Sn8  1  0.750000  0.155722  0.072593  1
  Sn  Sn9  1  0.250000  0.844278  0.927407  1
  Sn  Sn10  1  0.250000  0.344278  0.572593  1
  Sn  Sn11  1  0.750000  0.655722  0.427407  1
  H  H12  1  0.250000  0.952863  0.575591  1
  H  H13  1  0.750000  0.047137  0.424409  1
  H  H14  1  0.750000  0.547137  0.075591  1
  H  H15  1  0.250000  0.452863  0.924409  1
