# generated using pymatgen
data_Tb15YTl2(In2Co)2
_symmetry_space_group_name_H-M   'P 1'
_cell_length_a   10.41853000
_cell_length_b   10.40739498
_cell_length_c   7.07267013
_cell_angle_alpha   89.98111770
_cell_angle_beta   90.00000000
_cell_angle_gamma   120.03540515
_symmetry_Int_Tables_number   1
_chemical_formula_structural   Tb15YTl2(In2Co)2
_chemical_formula_sum   'Tb15 Y1 Tl2 In4 Co2'
_cell_volume   663.90728603
_cell_formula_units_Z   1
loop_
 _symmetry_equiv_pos_site_id
 _symmetry_equiv_pos_as_xyz
  1  'x, y, z'
loop_
 _atom_site_type_symbol
 _atom_site_label
 _atom_site_symmetry_multiplicity
 _atom_site_fract_x
 _atom_site_fract_y
 _atom_site_fract_z
 _atom_site_occupancy
  Tb  Tb0  1  0.463687  0.536095  0.483530  1
  Tb  Tb1  1  0.072407  0.536095  0.483530  1
  Tb  Tb2  1  0.463737  0.927474  0.483806  1
  Tb  Tb3  1  0.535869  0.462801  0.982293  1
  Tb  Tb4  1  0.926933  0.462801  0.982293  1
  Tb  Tb5  1  0.536911  0.073822  0.981603  1
  Tb  Tb6  1  0.822440  0.177501  0.275469  1
  Tb  Tb7  1  0.355060  0.177501  0.275469  1
  Tb  Tb8  1  0.822565  0.645131  0.275744  1
  Tb  Tb9  1  0.177620  0.822226  0.776894  1
  Tb  Tb10  1  0.644606  0.822226  0.776894  1
  Tb  Tb11  1  0.177624  0.355248  0.775449  1
  Tb  Tb12  1  0.333170  0.666341  0.090936  1
  Tb  Tb13  1  0.666664  0.333327  0.591390  1
  Tb  Tb14  1  0.000475  0.000949  0.497091  1
  Y  Y15  1  0.000432  0.000864  0.993598  1
  Tl  Tl16  1  0.163125  0.836806  0.233150  1
  Tl  Tl17  1  0.673681  0.836806  0.233150  1
  In  In18  1  0.162926  0.325853  0.234062  1
  In  In19  1  0.837116  0.162819  0.734530  1
  In  In20  1  0.325703  0.162819  0.734530  1
  In  In21  1  0.837083  0.674166  0.734331  1
  Co  Co22  1  0.333494  0.666988  0.707040  1
  Co  Co23  1  0.666672  0.333344  0.207777  1
