# generated using pymatgen
data_Hf7Mn(Co4P3)4
_symmetry_space_group_name_H-M   'P 1'
_cell_length_a   11.99909090
_cell_length_b   11.99909013
_cell_length_c   3.62458000
_cell_angle_alpha   90.00000000
_cell_angle_beta   90.00000000
_cell_angle_gamma   120.25150332
_symmetry_Int_Tables_number   1
_chemical_formula_structural   Hf7Mn(Co4P3)4
_chemical_formula_sum   'Hf7 Mn1 Co16 P12'
_cell_volume   450.79465032
_cell_formula_units_Z   1
loop_
 _symmetry_equiv_pos_site_id
 _symmetry_equiv_pos_as_xyz
  1  'x, y, z'
loop_
 _atom_site_type_symbol
 _atom_site_label
 _atom_site_symmetry_multiplicity
 _atom_site_fract_x
 _atom_site_fract_y
 _atom_site_fract_z
 _atom_site_occupancy
  Hf  Hf0  1  0.819277  0.819277  0.500000  1
  Hf  Hf1  1  0.999277  0.175463  0.500000  1
  Hf  Hf2  1  0.555247  0.998838  0.000000  1
  Hf  Hf3  1  0.333227  0.665678  0.000000  1
  Hf  Hf4  1  0.665678  0.333227  0.000000  1
  Hf  Hf5  1  0.998838  0.555247  0.000000  1
  Hf  Hf6  1  0.175463  0.999277  0.500000  1
  Mn  Mn7  1  0.446235  0.446235  0.000000  1
  Co  Co8  1  0.627880  0.818547  0.000000  1
  Co  Co9  1  0.374873  0.199926  0.000000  1
  Co  Co10  1  0.000636  0.721980  0.500000  1
  Co  Co11  1  0.283867  0.283867  0.500000  1
  Co  Co12  1  0.873439  0.355150  0.500000  1
  Co  Co13  1  0.721980  0.000636  0.500000  1
  Co  Co14  1  0.818547  0.627880  0.000000  1
  Co  Co15  1  0.179072  0.807713  0.000000  1
  Co  Co16  1  0.355150  0.873439  0.500000  1
  Co  Co17  1  0.128839  0.480345  0.500000  1
  Co  Co18  1  0.640775  0.514765  0.500000  1
  Co  Co19  1  0.001591  0.001591  0.000000  1
  Co  Co20  1  0.514765  0.640775  0.500000  1
  Co  Co21  1  0.480345  0.128839  0.500000  1
  Co  Co22  1  0.199926  0.374873  0.000000  1
  Co  Co23  1  0.807713  0.179072  0.000000  1
  P  P24  1  0.004481  0.346671  0.000000  1
  P  P25  1  0.824559  0.516784  0.500000  1
  P  P26  1  0.689511  0.173952  0.500000  1
  P  P27  1  0.177635  0.177635  0.000000  1
  P  P28  1  0.642408  0.642408  0.000000  1
  P  P29  1  0.824766  0.998302  0.000000  1
  P  P30  1  0.516784  0.824559  0.500000  1
  P  P31  1  0.173952  0.689511  0.500000  1
  P  P32  1  0.346671  0.004481  0.000000  1
  P  P33  1  0.481990  0.316301  0.500000  1
  P  P34  1  0.998302  0.824766  0.000000  1
  P  P35  1  0.316301  0.481990  0.500000  1
