# generated using pymatgen
data_Yb11Pr5Mg2(InRu2)2
_symmetry_space_group_name_H-M   'P 1'
_cell_length_a   10.00210211
_cell_length_b   9.90861884
_cell_length_c   9.88791075
_cell_angle_alpha   60.06361422
_cell_angle_beta   60.59076462
_cell_angle_gamma   60.10442577
_symmetry_Int_Tables_number   1
_chemical_formula_structural   Yb11Pr5Mg2(InRu2)2
_chemical_formula_sum   'Yb11 Pr5 Mg2 In2 Ru4'
_cell_volume   696.86832607
_cell_formula_units_Z   1
loop_
 _symmetry_equiv_pos_site_id
 _symmetry_equiv_pos_as_xyz
  1  'x, y, z'
loop_
 _atom_site_type_symbol
 _atom_site_label
 _atom_site_symmetry_multiplicity
 _atom_site_fract_x
 _atom_site_fract_y
 _atom_site_fract_z
 _atom_site_occupancy
  Yb  Yb0  1  0.049492  0.450740  0.450466  1
  Yb  Yb1  1  0.196162  0.806336  0.192619  1
  Yb  Yb2  1  0.656410  0.660794  0.657814  1
  Yb  Yb3  1  0.452781  0.451816  0.050877  1
  Yb  Yb4  1  0.046810  0.454071  0.048666  1
  Yb  Yb5  1  0.452676  0.043659  0.050044  1
  Yb  Yb6  1  0.052493  0.048568  0.450527  1
  Yb  Yb7  1  0.654625  0.660277  0.027540  1
  Yb  Yb8  1  0.658956  0.020832  0.660623  1
  Yb  Yb9  1  0.193051  0.810398  0.805867  1
  Yb  Yb10  1  0.449125  0.047443  0.453956  1
  Pr  Pr11  1  0.196410  0.190239  0.803939  1
  Pr  Pr12  1  0.036193  0.658680  0.651879  1
  Pr  Pr13  1  0.802493  0.810541  0.194359  1
  Pr  Pr14  1  0.803976  0.191845  0.196310  1
  Pr  Pr15  1  0.806307  0.188564  0.810737  1
  Mg  Mg16  1  0.723278  0.427548  0.422146  1
  Mg  Mg17  1  0.421182  0.424724  0.727758  1
  In  In18  1  0.418866  0.418301  0.421834  1
  In  In19  1  0.419841  0.741749  0.419226  1
  Ru  Ru20  1  0.866536  0.861001  0.870673  1
  Ru  Ru21  1  0.403031  0.872779  0.861485  1
  Ru  Ru22  1  0.870981  0.397164  0.866815  1
  Ru  Ru23  1  0.868326  0.861930  0.403838  1
