# generated using pymatgen
data_YTm(Th2In5)2
_symmetry_space_group_name_H-M   'P 1'
_cell_length_a   6.57773600
_cell_length_b   6.57773556
_cell_length_c   10.32021000
_cell_angle_alpha   90.00000000
_cell_angle_beta   90.00000000
_cell_angle_gamma   102.33264464
_symmetry_Int_Tables_number   1
_chemical_formula_structural   YTm(Th2In5)2
_chemical_formula_sum   'Y1 Tm1 Th4 In10'
_cell_volume   436.21659190
_cell_formula_units_Z   1
loop_
 _symmetry_equiv_pos_site_id
 _symmetry_equiv_pos_as_xyz
  1  'x, y, z'
loop_
 _atom_site_type_symbol
 _atom_site_label
 _atom_site_symmetry_multiplicity
 _atom_site_fract_x
 _atom_site_fract_y
 _atom_site_fract_z
 _atom_site_occupancy
  Y  Y0  1  0.128798  0.128798  0.750000  1
  Tm  Tm1  1  0.870936  0.870936  0.250000  1
  Th  Th2  1  0.705663  0.293970  0.000050  1
  Th  Th3  1  0.705663  0.293970  0.499950  1
  Th  Th4  1  0.293970  0.705663  0.000050  1
  Th  Th5  1  0.293970  0.705663  0.499950  1
  In  In6  1  0.509226  0.509226  0.750000  1
  In  In7  1  0.492294  0.492294  0.250000  1
  In  In8  1  0.810278  0.810278  0.545495  1
  In  In9  1  0.189128  0.189128  0.452967  1
  In  In10  1  0.810278  0.810278  0.954505  1
  In  In11  1  0.189128  0.189128  0.047033  1
  In  In12  1  0.990894  0.566240  0.750000  1
  In  In13  1  0.434922  0.008610  0.250000  1
  In  In14  1  0.008610  0.434922  0.250000  1
  In  In15  1  0.566240  0.990894  0.750000  1
