# generated using pymatgen
data_Sr(In3I4)2
_symmetry_space_group_name_H-M   'P 1'
_cell_length_a   9.90322215
_cell_length_b   9.90322181
_cell_length_c   9.90322100
_cell_angle_alpha   59.99999935
_cell_angle_beta   60.00000049
_cell_angle_gamma   60.00000498
_symmetry_Int_Tables_number   1
_chemical_formula_structural   Sr(In3I4)2
_chemical_formula_sum   'Sr1 In6 I8'
_cell_volume   686.77506108
_cell_formula_units_Z   1
loop_
 _symmetry_equiv_pos_site_id
 _symmetry_equiv_pos_as_xyz
  1  'x, y, z'
loop_
 _atom_site_type_symbol
 _atom_site_label
 _atom_site_symmetry_multiplicity
 _atom_site_fract_x
 _atom_site_fract_y
 _atom_site_fract_z
 _atom_site_occupancy
  Sr  Sr0  1  0.000000  0.000000  0.000000  1
  In  In1  1  0.500000  0.500000  0.000000  1
  In  In2  1  0.000000  0.500000  0.000000  1
  In  In3  1  0.500000  0.000000  0.000000  1
  In  In4  1  0.000000  0.500000  0.500000  1
  In  In5  1  0.500000  0.000000  0.500000  1
  In  In6  1  0.000000  0.000000  0.500000  1
  I  I7  1  0.764376  0.235624  0.764376  1
  I  I8  1  0.250000  0.250000  0.250000  1
  I  I9  1  0.750000  0.750000  0.750000  1
  I  I10  1  0.235624  0.764376  0.235624  1
  I  I11  1  0.235624  0.764376  0.764376  1
  I  I12  1  0.764376  0.235624  0.235624  1
  I  I13  1  0.764376  0.764376  0.235624  1
  I  I14  1  0.235624  0.235624  0.764376  1
