# generated using pymatgen
data_Yb7Lu(Si4W3)4
_symmetry_space_group_name_H-M   'P 1'
_cell_length_a   6.71843264
_cell_length_b   6.91601444
_cell_length_c   13.02699917
_cell_angle_alpha   89.90161971
_cell_angle_beta   90.03097508
_cell_angle_gamma   89.91716147
_symmetry_Int_Tables_number   1
_chemical_formula_structural   Yb7Lu(Si4W3)4
_chemical_formula_sum   'Yb7 Lu1 Si16 W12'
_cell_volume   605.29499948
_cell_formula_units_Z   1
loop_
 _symmetry_equiv_pos_site_id
 _symmetry_equiv_pos_as_xyz
  1  'x, y, z'
loop_
 _atom_site_type_symbol
 _atom_site_label
 _atom_site_symmetry_multiplicity
 _atom_site_fract_x
 _atom_site_fract_y
 _atom_site_fract_z
 _atom_site_occupancy
  Yb  Yb0  1  0.498783  0.332662  0.089801  1
  Yb  Yb1  1  0.998731  0.167569  0.409950  1
  Yb  Yb2  1  0.501071  0.667337  0.590335  1
  Yb  Yb3  1  0.000837  0.830062  0.908426  1
  Yb  Yb4  1  0.500803  0.668165  0.909606  1
  Yb  Yb5  1  0.001145  0.831981  0.590232  1
  Yb  Yb6  1  0.498778  0.332937  0.409944  1
  Lu  Lu7  1  0.998357  0.171187  0.093129  1
  Si  Si8  1  0.660871  0.042413  0.544910  1
  Si  Si9  1  0.161647  0.457473  0.955825  1
  Si  Si10  1  0.336790  0.958739  0.044704  1
  Si  Si11  1  0.838924  0.542689  0.455106  1
  Si  Si12  1  0.339223  0.957362  0.455166  1
  Si  Si13  1  0.838592  0.542245  0.044440  1
  Si  Si14  1  0.662942  0.041424  0.955581  1
  Si  Si15  1  0.161099  0.457639  0.544859  1
  Si  Si16  1  0.535641  0.378591  0.750418  1
  Si  Si17  1  0.035488  0.119960  0.749692  1
  Si  Si18  1  0.464717  0.622720  0.249056  1
  Si  Si19  1  0.964427  0.878198  0.249985  1
  Si  Si20  1  0.799002  0.635362  0.749884  1
  Si  Si21  1  0.299571  0.863298  0.749894  1
  Si  Si22  1  0.201305  0.364025  0.250550  1
  Si  Si23  1  0.698960  0.137409  0.250539  1
  W  W24  1  0.835775  0.332419  0.627580  1
  W  W25  1  0.334706  0.166649  0.873182  1
  W  W26  1  0.164603  0.666987  0.126338  1
  W  W27  1  0.664840  0.833171  0.372177  1
  W  W28  1  0.164764  0.667450  0.371979  1
  W  W29  1  0.666895  0.835300  0.126442  1
  W  W30  1  0.836989  0.330862  0.873887  1
  W  W31  1  0.335749  0.166883  0.627445  1
  W  W32  1  0.660004  0.010496  0.750411  1
  W  W33  1  0.160068  0.488372  0.750427  1
  W  W34  1  0.338423  0.990948  0.249223  1
  W  W35  1  0.839480  0.509014  0.248875  1
