# generated using pymatgen
data_YCuTeO6
_symmetry_space_group_name_H-M   'P 1'
_cell_length_a   5.16483000
_cell_length_b   5.16424093
_cell_length_c   9.86010001
_cell_angle_alpha   89.99892873
_cell_angle_beta   89.99967257
_cell_angle_gamma   119.99638994
_symmetry_Int_Tables_number   1
_chemical_formula_structural   YCuTeO6
_chemical_formula_sum   'Y2 Cu2 Te2 O12'
_cell_volume   227.76672457
_cell_formula_units_Z   2
loop_
 _symmetry_equiv_pos_site_id
 _symmetry_equiv_pos_as_xyz
  1  'x, y, z'
loop_
 _atom_site_type_symbol
 _atom_site_label
 _atom_site_symmetry_multiplicity
 _atom_site_fract_x
 _atom_site_fract_y
 _atom_site_fract_z
 _atom_site_occupancy
  Y  Y0  1  0.000000  0.000000  0.000000  1
  Y  Y1  1  0.000000  0.000000  0.500000  1
  Cu  Cu2  1  0.333162  0.666580  0.250000  1
  Cu  Cu3  1  0.666838  0.333420  0.750000  1
  Te  Te4  1  0.333466  0.666733  0.750000  1
  Te  Te5  1  0.666534  0.333267  0.250000  1
  O  O6  1  0.365780  0.355677  0.139345  1
  O  O7  1  0.644179  0.010066  0.139361  1
  O  O8  1  0.989729  0.634061  0.139345  1
  O  O9  1  0.634220  0.644323  0.860655  1
  O  O10  1  0.355821  0.989934  0.860639  1
  O  O11  1  0.010271  0.365939  0.860655  1
  O  O12  1  0.644180  0.634115  0.360641  1
  O  O13  1  0.365780  0.010103  0.360654  1
  O  O14  1  0.989729  0.355669  0.360655  1
  O  O15  1  0.355820  0.365885  0.639359  1
  O  O16  1  0.634220  0.989897  0.639346  1
  O  O17  1  0.010271  0.644331  0.639345  1
