# generated using pymatgen
data_Dy3Er2(CoO6)2
_symmetry_space_group_name_H-M   'P 1'
_cell_length_a   6.71964630
_cell_length_b   6.71964716
_cell_length_c   7.15032686
_cell_angle_alpha   74.68189047
_cell_angle_beta   74.68188770
_cell_angle_gamma   50.54476778
_symmetry_Int_Tables_number   1
_chemical_formula_structural   Dy3Er2(CoO6)2
_chemical_formula_sum   'Dy3 Er2 Co2 O12'
_cell_volume   238.41465378
_cell_formula_units_Z   1
loop_
 _symmetry_equiv_pos_site_id
 _symmetry_equiv_pos_as_xyz
  1  'x, y, z'
loop_
 _atom_site_type_symbol
 _atom_site_label
 _atom_site_symmetry_multiplicity
 _atom_site_fract_x
 _atom_site_fract_y
 _atom_site_fract_z
 _atom_site_occupancy
  Dy  Dy0  1  0.305599  0.305599  0.355489  1
  Dy  Dy1  1  0.694401  0.694401  0.644511  1
  Dy  Dy2  1  0.000000  0.000000  0.500000  1
  Er  Er3  1  0.307984  0.307984  0.835859  1
  Er  Er4  1  0.692016  0.692016  0.164141  1
  Co  Co5  1  0.756033  0.243967  0.000000  1
  Co  Co6  1  0.243967  0.756033  0.000000  1
  O  O7  1  0.902266  0.417478  0.922563  1
  O  O8  1  0.417478  0.902266  0.922563  1
  O  O9  1  0.097734  0.582522  0.077437  1
  O  O10  1  0.582522  0.097734  0.077437  1
  O  O11  1  0.098232  0.596678  0.578056  1
  O  O12  1  0.596678  0.098232  0.578056  1
  O  O13  1  0.901768  0.403322  0.421944  1
  O  O14  1  0.403322  0.901768  0.421944  1
  O  O15  1  0.001122  0.001122  0.828079  1
  O  O16  1  0.998878  0.998878  0.171921  1
  O  O17  1  0.499570  0.499570  0.824584  1
  O  O18  1  0.500430  0.500430  0.175416  1
