# generated using pymatgen
data_La2TbDy3(SbO7)2
_symmetry_space_group_name_H-M   'P 1'
_cell_length_a   6.55274873
_cell_length_b   6.55426978
_cell_length_c   7.65534800
_cell_angle_alpha   90.00000000
_cell_angle_beta   90.00000000
_cell_angle_gamma   108.88396554
_symmetry_Int_Tables_number   1
_chemical_formula_structural   La2TbDy3(SbO7)2
_chemical_formula_sum   'La2 Tb1 Dy3 Sb2 O14'
_cell_volume   311.08901879
_cell_formula_units_Z   1
loop_
 _symmetry_equiv_pos_site_id
 _symmetry_equiv_pos_as_xyz
  1  'x, y, z'
loop_
 _atom_site_type_symbol
 _atom_site_label
 _atom_site_symmetry_multiplicity
 _atom_site_fract_x
 _atom_site_fract_y
 _atom_site_fract_z
 _atom_site_occupancy
  La  La0  1  0.500190  0.500079  0.499839  1
  La  La1  1  0.500190  0.500079  0.000161  1
  Tb  Tb2  1  0.999197  0.468534  0.750000  1
  Dy  Dy3  1  0.530984  0.001008  0.750000  1
  Dy  Dy4  1  0.001047  0.531149  0.250000  1
  Dy  Dy5  1  0.468959  0.998923  0.250000  1
  Sb  Sb6  1  0.999965  0.000029  0.499756  1
  Sb  Sb7  1  0.999965  0.000029  0.000244  1
  O  O8  1  0.681277  0.934820  0.470165  1
  O  O9  1  0.934259  0.681426  0.529096  1
  O  O10  1  0.681277  0.934820  0.029835  1
  O  O11  1  0.934259  0.681426  0.970904  1
  O  O12  1  0.318582  0.065239  0.529774  1
  O  O13  1  0.065545  0.318551  0.469601  1
  O  O14  1  0.318582  0.065239  0.970226  1
  O  O15  1  0.065545  0.318551  0.030399  1
  O  O16  1  0.931861  0.067490  0.750000  1
  O  O17  1  0.068199  0.932049  0.250000  1
  O  O18  1  0.363647  0.638603  0.750000  1
  O  O19  1  0.637985  0.362061  0.250000  1
  O  O20  1  0.641910  0.356457  0.750000  1
  O  O21  1  0.356576  0.643434  0.250000  1
