# generated using pymatgen
data_Sm2Be2Fe(SiO5)2
_symmetry_space_group_name_H-M   'P 1'
_cell_length_a   7.66029200
_cell_length_b   4.83466251
_cell_length_c   10.12370403
_cell_angle_alpha   89.87128002
_cell_angle_beta   90.00000000
_cell_angle_gamma   90.00000000
_symmetry_Int_Tables_number   1
_chemical_formula_structural   Sm2Be2Fe(SiO5)2
_chemical_formula_sum   'Sm4 Be4 Fe2 Si4 O20'
_cell_volume   374.92968852
_cell_formula_units_Z   2
loop_
 _symmetry_equiv_pos_site_id
 _symmetry_equiv_pos_as_xyz
  1  'x, y, z'
loop_
 _atom_site_type_symbol
 _atom_site_label
 _atom_site_symmetry_multiplicity
 _atom_site_fract_x
 _atom_site_fract_y
 _atom_site_fract_z
 _atom_site_occupancy
  Sm  Sm0  1  0.608747  0.999541  0.827720  1
  Sm  Sm1  1  0.108747  0.000459  0.672280  1
  Sm  Sm2  1  0.391253  0.000459  0.172280  1
  Sm  Sm3  1  0.891253  0.999541  0.327720  1
  Be  Be4  1  0.913216  0.532591  0.835998  1
  Be  Be5  1  0.413216  0.467409  0.664002  1
  Be  Be6  1  0.086784  0.467409  0.164002  1
  Be  Be7  1  0.586784  0.532591  0.335998  1
  Fe  Fe8  1  0.000000  0.000000  0.000000  1
  Fe  Fe9  1  0.500000  0.000000  0.500000  1
  Si  Si10  1  0.777321  0.480625  0.578090  1
  Si  Si11  1  0.277321  0.519375  0.921910  1
  Si  Si12  1  0.222679  0.519375  0.421910  1
  Si  Si13  1  0.722679  0.480625  0.078090  1
  O  O14  1  0.605030  0.316412  0.640000  1
  O  O15  1  0.105030  0.683588  0.860000  1
  O  O16  1  0.394970  0.683588  0.360000  1
  O  O17  1  0.894970  0.316412  0.140000  1
  O  O18  1  0.412784  0.797165  0.665496  1
  O  O19  1  0.912784  0.202835  0.834504  1
  O  O20  1  0.587216  0.202835  0.334504  1
  O  O21  1  0.211553  0.325946  0.047440  1
  O  O22  1  0.587465  0.241436  0.030197  1
  O  O23  1  0.087465  0.758564  0.469803  1
  O  O24  1  0.846982  0.685389  0.696937  1
  O  O25  1  0.912535  0.241436  0.530197  1
  O  O26  1  0.711553  0.674054  0.452560  1
  O  O27  1  0.412535  0.758564  0.969803  1
  O  O28  1  0.288447  0.325946  0.547440  1
  O  O29  1  0.788447  0.674054  0.952560  1
  O  O30  1  0.653018  0.685389  0.196937  1
  O  O31  1  0.153018  0.314611  0.303063  1
  O  O32  1  0.346982  0.314611  0.803063  1
  O  O33  1  0.087216  0.797165  0.165496  1
