# generated using pymatgen
data_TaNb2ReSi3Mo2
_symmetry_space_group_name_H-M   'P 1'
_cell_length_a   6.92150053
_cell_length_b   6.90739733
_cell_length_c   3.35079100
_cell_angle_alpha   90.00000000
_cell_angle_beta   90.00000000
_cell_angle_gamma   119.93263662
_symmetry_Int_Tables_number   1
_chemical_formula_structural   TaNb2ReSi3Mo2
_chemical_formula_sum   'Ta1 Nb2 Re1 Si3 Mo2'
_cell_volume   138.83119618
_cell_formula_units_Z   1
loop_
 _symmetry_equiv_pos_site_id
 _symmetry_equiv_pos_as_xyz
  1  'x, y, z'
loop_
 _atom_site_type_symbol
 _atom_site_label
 _atom_site_symmetry_multiplicity
 _atom_site_fract_x
 _atom_site_fract_y
 _atom_site_fract_z
 _atom_site_occupancy
  Ta  Ta0  1  0.000000  0.604993  0.500000  1
  Nb  Nb1  1  0.409032  0.401359  0.500000  1
  Nb  Nb2  1  0.590968  0.992328  0.500000  1
  Re  Re3  1  0.000000  0.261285  0.000000  1
  Si  Si4  1  0.669763  0.330954  0.000000  1
  Si  Si5  1  0.330237  0.661192  0.000000  1
  Si  Si6  1  0.000000  0.005557  0.500000  1
  Mo  Mo7  1  0.743823  0.743077  0.000000  1
  Mo  Mo8  1  0.256177  0.999254  0.000000  1
