# generated using pymatgen
data_NdEu3Al6(O3F)4
_symmetry_space_group_name_H-M   'P 1'
_cell_length_a   7.85287660
_cell_length_b   7.85287623
_cell_length_c   7.85287751
_cell_angle_alpha   109.45057015
_cell_angle_beta   109.45057013
_cell_angle_gamma   109.45055552
_symmetry_Int_Tables_number   1
_chemical_formula_structural   NdEu3Al6(O3F)4
_chemical_formula_sum   'Nd1 Eu3 Al6 O12 F4'
_cell_volume   373.07499268
_cell_formula_units_Z   1
loop_
 _symmetry_equiv_pos_site_id
 _symmetry_equiv_pos_as_xyz
  1  'x, y, z'
loop_
 _atom_site_type_symbol
 _atom_site_label
 _atom_site_symmetry_multiplicity
 _atom_site_fract_x
 _atom_site_fract_y
 _atom_site_fract_z
 _atom_site_occupancy
  Nd  Nd0  1  0.313246  0.313246  0.313246  1
  Eu  Eu1  1  0.690709  0.001192  0.001192  1
  Eu  Eu2  1  0.001192  0.690709  0.001192  1
  Eu  Eu3  1  0.001192  0.001192  0.690709  1
  Al  Al4  1  0.247780  0.748961  0.498335  1
  Al  Al5  1  0.748961  0.247780  0.498335  1
  Al  Al6  1  0.748961  0.498335  0.247780  1
  Al  Al7  1  0.247780  0.498335  0.748961  1
  Al  Al8  1  0.498335  0.247780  0.748961  1
  Al  Al9  1  0.498335  0.748961  0.247780  1
  O  O10  1  0.277944  0.555494  0.555494  1
  O  O11  1  0.714325  0.278377  0.278377  1
  O  O12  1  0.997803  0.437231  0.718904  1
  O  O13  1  0.555494  0.555494  0.277944  1
  O  O14  1  0.997803  0.718904  0.437231  1
  O  O15  1  0.278377  0.278377  0.714325  1
  O  O16  1  0.437231  0.718904  0.997803  1
  O  O17  1  0.718904  0.437231  0.997803  1
  O  O18  1  0.555494  0.277944  0.555494  1
  O  O19  1  0.718904  0.997803  0.437231  1
  O  O20  1  0.437231  0.997803  0.718904  1
  O  O21  1  0.278377  0.714325  0.278377  1
  F  F22  1  0.780572  0.780572  0.780572  1
  F  F23  1  0.228708  0.013170  0.013170  1
  F  F24  1  0.013170  0.228708  0.013170  1
  F  F25  1  0.013170  0.013170  0.228708  1
