# generated using pymatgen
data_Pr4Nd2SBr10
_symmetry_space_group_name_H-M   'P 1'
_cell_length_a   7.50665666
_cell_length_b   9.40222110
_cell_length_c   9.36241100
_cell_angle_alpha   108.10079189
_cell_angle_beta   96.66557048
_cell_angle_gamma   105.56344124
_symmetry_Int_Tables_number   1
_chemical_formula_structural   Pr4Nd2SBr10
_chemical_formula_sum   'Pr4 Nd2 S1 Br10'
_cell_volume   590.53483216
_cell_formula_units_Z   1
loop_
 _symmetry_equiv_pos_site_id
 _symmetry_equiv_pos_as_xyz
  1  'x, y, z'
loop_
 _atom_site_type_symbol
 _atom_site_label
 _atom_site_symmetry_multiplicity
 _atom_site_fract_x
 _atom_site_fract_y
 _atom_site_fract_z
 _atom_site_occupancy
  Pr  Pr0  1  0.637958  0.869065  0.825431  1
  Pr  Pr1  1  0.362042  0.130935  0.174569  1
  Pr  Pr2  1  0.128229  0.048593  0.754306  1
  Pr  Pr3  1  0.871771  0.951407  0.245694  1
  Nd  Nd4  1  0.964907  0.293047  0.091692  1
  Nd  Nd5  1  0.035093  0.706953  0.908308  1
  S  S6  1  0.000000  0.000000  0.000000  1
  Br  Br7  1  0.550191  0.188028  0.914264  1
  Br  Br8  1  0.449809  0.811972  0.085736  1
  Br  Br9  1  0.747239  0.915678  0.544467  1
  Br  Br10  1  0.252761  0.084322  0.455533  1
  Br  Br11  1  0.088925  0.372801  0.827061  1
  Br  Br12  1  0.911075  0.627199  0.172939  1
  Br  Br13  1  0.210612  0.741029  0.644434  1
  Br  Br14  1  0.789388  0.258971  0.355566  1
  Br  Br15  1  0.654099  0.547858  0.725066  1
  Br  Br16  1  0.345901  0.452142  0.274934  1
