# generated using pymatgen
data_DyY7Tc(B8Ru)3
_symmetry_space_group_name_H-M   'P 1'
_cell_length_a   3.67663100
_cell_length_b   9.16319773
_cell_length_c   11.55102202
_cell_angle_alpha   89.90799143
_cell_angle_beta   90.00000000
_cell_angle_gamma   90.00000000
_symmetry_Int_Tables_number   1
_chemical_formula_structural   DyY7Tc(B8Ru)3
_chemical_formula_sum   'Dy1 Y7 Tc1 B24 Ru3'
_cell_volume   389.14992826
_cell_formula_units_Z   1
loop_
 _symmetry_equiv_pos_site_id
 _symmetry_equiv_pos_as_xyz
  1  'x, y, z'
loop_
 _atom_site_type_symbol
 _atom_site_label
 _atom_site_symmetry_multiplicity
 _atom_site_fract_x
 _atom_site_fract_y
 _atom_site_fract_z
 _atom_site_occupancy
  Dy  Dy0  1  0.000000  0.556623  0.871152  1
  Y  Y1  1  0.000000  0.324701  0.413240  1
  Y  Y2  1  0.000000  0.676347  0.583551  1
  Y  Y3  1  0.000000  0.821185  0.087970  1
  Y  Y4  1  0.000000  0.176505  0.914968  1
  Y  Y5  1  0.000000  0.943625  0.372429  1
  Y  Y6  1  0.000000  0.056844  0.628200  1
  Y  Y7  1  0.000000  0.444441  0.128007  1
  Tc  Tc8  1  0.000000  0.637982  0.321254  1
  B  B9  1  0.500000  0.553155  0.433022  1
  B  B10  1  0.500000  0.446102  0.567615  1
  B  B11  1  0.500000  0.053982  0.067311  1
  B  B12  1  0.500000  0.945893  0.932948  1
  B  B13  1  0.500000  0.748009  0.419471  1
  B  B14  1  0.500000  0.252282  0.580571  1
  B  B15  1  0.500000  0.247854  0.080327  1
  B  B16  1  0.500000  0.751941  0.919460  1
  B  B17  1  0.500000  0.791659  0.266220  1
  B  B18  1  0.500000  0.209026  0.733764  1
  B  B19  1  0.500000  0.291024  0.233046  1
  B  B20  1  0.500000  0.709391  0.766347  1
  B  B21  1  0.500000  0.632175  0.185751  1
  B  B22  1  0.500000  0.367612  0.814572  1
  B  B23  1  0.500000  0.132297  0.314031  1
  B  B24  1  0.500000  0.868110  0.685599  1
  B  B25  1  0.500000  0.983954  0.212601  1
  B  B26  1  0.500000  0.015979  0.787850  1
  B  B27  1  0.500000  0.483137  0.287393  1
  B  B28  1  0.500000  0.515669  0.712679  1
  B  B29  1  0.500000  0.608404  0.029363  1
  B  B30  1  0.500000  0.391109  0.969568  1
  B  B31  1  0.500000  0.109177  0.470176  1
  B  B32  1  0.500000  0.892248  0.530477  1
  Ru  Ru33  1  0.000000  0.361703  0.679461  1
  Ru  Ru34  1  0.000000  0.137972  0.178351  1
  Ru  Ru35  1  0.000000  0.861882  0.821257  1
