# generated using pymatgen
data_CsRb4Fe9NiP10
_symmetry_space_group_name_H-M   'P 1'
_cell_length_a   9.11743607
_cell_length_b   9.11936390
_cell_length_c   9.12036371
_cell_angle_alpha   124.59215409
_cell_angle_beta   124.60966870
_cell_angle_gamma   82.18392839
_symmetry_Int_Tables_number   1
_chemical_formula_structural   CsRb4Fe9NiP10
_chemical_formula_sum   'Cs1 Rb4 Fe9 Ni1 P10'
_cell_volume   493.94653203
_cell_formula_units_Z   1
loop_
 _symmetry_equiv_pos_site_id
 _symmetry_equiv_pos_as_xyz
  1  'x, y, z'
loop_
 _atom_site_type_symbol
 _atom_site_label
 _atom_site_symmetry_multiplicity
 _atom_site_fract_x
 _atom_site_fract_y
 _atom_site_fract_z
 _atom_site_occupancy
  Cs  Cs0  1  0.999960  0.998312  0.999837  1
  Rb  Rb1  1  0.397142  0.800190  0.198869  1
  Rb  Rb2  1  0.800000  0.602105  0.400897  1
  Rb  Rb3  1  0.199769  0.398318  0.597876  1
  Rb  Rb4  1  0.603286  0.200726  0.802679  1
  Fe  Fe5  1  0.351555  0.451105  0.301869  1
  Fe  Fe6  1  0.750695  0.248710  0.499314  1
  Fe  Fe7  1  0.150019  0.052092  0.700921  1
  Fe  Fe8  1  0.548228  0.848493  0.897939  1
  Fe  Fe9  1  0.653255  0.550889  0.704412  1
  Fe  Fe10  1  0.049084  0.353390  0.902379  1
  Fe  Fe11  1  0.450326  0.150492  0.099903  1
  Fe  Fe12  1  0.850079  0.945504  0.297631  1
  Fe  Fe13  1  0.247020  0.749491  0.495643  1
  Ni  Ni14  1  0.949670  0.649882  0.099956  1
  P  P15  1  0.929880  0.526291  0.791286  1
  P  P16  1  0.329843  0.331479  0.001138  1
  P  P17  1  0.729237  0.127528  0.198937  1
  P  P18  1  0.135021  0.938395  0.408506  1
  P  P19  1  0.530760  0.730976  0.600059  1
  P  P20  1  0.661073  0.668973  0.996445  1
  P  P21  1  0.073289  0.465706  0.203600  1
  P  P22  1  0.472071  0.271001  0.401423  1
  P  P23  1  0.869128  0.069285  0.600109  1
  P  P24  1  0.269613  0.870665  0.798375  1
