# generated using pymatgen
data_YEr(AgTe2)2
_symmetry_space_group_name_H-M   'P 1'
_cell_length_a   7.09567109
_cell_length_b   7.09567109
_cell_length_c   4.73351300
_cell_angle_alpha   90.00000000
_cell_angle_beta   90.00000000
_cell_angle_gamma   89.93637096
_symmetry_Int_Tables_number   1
_chemical_formula_structural   YEr(AgTe2)2
_chemical_formula_sum   'Y1 Er1 Ag2 Te4'
_cell_volume   238.32536082
_cell_formula_units_Z   1
loop_
 _symmetry_equiv_pos_site_id
 _symmetry_equiv_pos_as_xyz
  1  'x, y, z'
loop_
 _atom_site_type_symbol
 _atom_site_label
 _atom_site_symmetry_multiplicity
 _atom_site_fract_x
 _atom_site_fract_y
 _atom_site_fract_z
 _atom_site_occupancy
  Y  Y0  1  0.500000  0.000000  0.190334  1
  Er  Er1  1  0.000000  0.500000  0.809515  1
  Ag  Ag2  1  0.000000  0.000000  0.000654  1
  Ag  Ag3  1  0.500000  0.500000  0.000654  1
  Te  Te4  1  0.200561  0.299439  0.290816  1
  Te  Te5  1  0.703175  0.203175  0.708605  1
  Te  Te6  1  0.799439  0.700561  0.290816  1
  Te  Te7  1  0.296825  0.796825  0.708605  1
