# generated using pymatgen
data_La2Tb3TmOsI10
_symmetry_space_group_name_H-M   'P 1'
_cell_length_a   7.90238533
_cell_length_b   9.96752021
_cell_length_c   9.89482400
_cell_angle_alpha   106.82386782
_cell_angle_beta   95.45833661
_cell_angle_gamma   105.64084881
_symmetry_Int_Tables_number   1
_chemical_formula_structural   La2Tb3TmOsI10
_chemical_formula_sum   'La2 Tb3 Tm1 Os1 I10'
_cell_volume   705.61426140
_cell_formula_units_Z   1
loop_
 _symmetry_equiv_pos_site_id
 _symmetry_equiv_pos_as_xyz
  1  'x, y, z'
loop_
 _atom_site_type_symbol
 _atom_site_label
 _atom_site_symmetry_multiplicity
 _atom_site_fract_x
 _atom_site_fract_y
 _atom_site_fract_z
 _atom_site_occupancy
  La  La0  1  0.383263  0.956763  0.729357  1
  La  La1  1  0.614058  0.042176  0.269464  1
  Tb  Tb2  1  0.471219  0.289652  0.587825  1
  Tb  Tb3  1  0.527293  0.710084  0.411183  1
  Tb  Tb4  1  0.852481  0.128002  0.666473  1
  Tm  Tm5  1  0.152791  0.873409  0.335789  1
  Os  Os6  1  0.499207  0.999774  0.499802  1
  I  I7  1  0.417342  0.622925  0.674151  1
  I  I8  1  0.582401  0.377055  0.325294  1
  I  I9  1  0.277104  0.263710  0.842119  1
  I  I10  1  0.728933  0.738542  0.160788  1
  I  I11  1  0.849302  0.447555  0.766993  1
  I  I12  1  0.148331  0.555261  0.232909  1
  I  I13  1  0.052449  0.177780  0.410926  1
  I  I14  1  0.229523  0.910264  0.048504  1
  I  I15  1  0.766898  0.087784  0.952995  1
  I  I16  1  0.947407  0.819267  0.585426  1
