# generated using pymatgen
data_Er3LuAl18CuRh5
_symmetry_space_group_name_H-M   'P 1'
_cell_length_a   7.54426920
_cell_length_b   7.54284058
_cell_length_c   9.39648234
_cell_angle_alpha   90.09519809
_cell_angle_beta   90.07469587
_cell_angle_gamma   119.59897025
_symmetry_Int_Tables_number   1
_chemical_formula_structural   Er3LuAl18CuRh5
_chemical_formula_sum   'Er3 Lu1 Al18 Cu1 Rh5'
_cell_volume   464.92938927
_cell_formula_units_Z   1
loop_
 _symmetry_equiv_pos_site_id
 _symmetry_equiv_pos_as_xyz
  1  'x, y, z'
loop_
 _atom_site_type_symbol
 _atom_site_label
 _atom_site_symmetry_multiplicity
 _atom_site_fract_x
 _atom_site_fract_y
 _atom_site_fract_z
 _atom_site_occupancy
  Er  Er0  1  0.005110  0.327461  0.250194  1
  Er  Er1  1  0.672671  0.994813  0.749812  1
  Er  Er2  1  0.327319  0.005062  0.250212  1
  Lu  Lu3  1  0.994921  0.672701  0.749972  1
  Al  Al4  1  0.128681  0.128318  0.750968  1
  Al  Al5  1  0.871121  0.870943  0.248993  1
  Al  Al6  1  0.000228  0.338941  0.578310  1
  Al  Al7  1  0.999779  0.661809  0.422808  1
  Al  Al8  1  0.000522  0.664952  0.074559  1
  Al  Al9  1  0.334414  0.998873  0.924412  1
  Al  Al10  1  0.999498  0.335640  0.924401  1
  Al  Al11  1  0.664934  0.000511  0.075103  1
  Al  Al12  1  0.661626  0.999713  0.422217  1
  Al  Al13  1  0.337570  0.999648  0.578188  1
  Al  Al14  1  0.332696  0.332657  0.051302  1
  Al  Al15  1  0.667810  0.667307  0.948169  1
  Al  Al16  1  0.665398  0.664819  0.553431  1
  Al  Al17  1  0.335223  0.335194  0.447110  1
  Al  Al18  1  0.339083  0.550540  0.750420  1
  Al  Al19  1  0.660662  0.449658  0.249568  1
  Al  Al20  1  0.551140  0.339983  0.750447  1
  Al  Al21  1  0.449606  0.660552  0.249535  1
  Cu  Cu22  1  0.000013  0.999837  0.499956  1
  Rh  Rh23  1  0.672311  0.327840  0.500071  1
  Rh  Rh24  1  0.327732  0.672217  0.500041  1
  Rh  Rh25  1  0.327744  0.672184  0.999929  1
  Rh  Rh26  1  0.672219  0.327882  0.999915  1
  Rh  Rh27  1  0.999969  0.999945  0.999956  1
