# generated using pymatgen
data_Tb11ThCo4
_symmetry_space_group_name_H-M   'P 1'
_cell_length_a   6.28957760
_cell_length_b   6.93473025
_cell_length_c   9.59110400
_cell_angle_alpha   90.00000000
_cell_angle_beta   90.00000000
_cell_angle_gamma   91.27314179
_symmetry_Int_Tables_number   1
_chemical_formula_structural   Tb11ThCo4
_chemical_formula_sum   'Tb11 Th1 Co4'
_cell_volume   418.22734665
_cell_formula_units_Z   1
loop_
 _symmetry_equiv_pos_site_id
 _symmetry_equiv_pos_as_xyz
  1  'x, y, z'
loop_
 _atom_site_type_symbol
 _atom_site_label
 _atom_site_symmetry_multiplicity
 _atom_site_fract_x
 _atom_site_fract_y
 _atom_site_fract_z
 _atom_site_occupancy
  Tb  Tb0  1  0.326896  0.674269  0.067064  1
  Tb  Tb1  1  0.171501  0.176021  0.430264  1
  Tb  Tb2  1  0.676701  0.325500  0.568493  1
  Tb  Tb3  1  0.824275  0.826772  0.930148  1
  Tb  Tb4  1  0.676701  0.325500  0.931507  1
  Tb  Tb5  1  0.824275  0.826772  0.569852  1
  Tb  Tb6  1  0.326896  0.674269  0.432936  1
  Tb  Tb7  1  0.171501  0.176021  0.069736  1
  Tb  Tb8  1  0.640616  0.046328  0.250000  1
  Tb  Tb9  1  0.142835  0.453548  0.750000  1
  Tb  Tb10  1  0.360123  0.954788  0.750000  1
  Th  Th11  1  0.846259  0.556864  0.250000  1
  Co  Co12  1  0.043714  0.870151  0.250000  1
  Co  Co13  1  0.467734  0.391769  0.250000  1
  Co  Co14  1  0.952198  0.111636  0.750000  1
  Co  Co15  1  0.547774  0.609793  0.750000  1
