# generated using pymatgen
data_Er2ZnCo6GeB2
_symmetry_space_group_name_H-M   'P 1'
_cell_length_a   5.13805100
_cell_length_b   5.13805152
_cell_length_c   6.63156900
_cell_angle_alpha   90.00000000
_cell_angle_beta   90.00000000
_cell_angle_gamma   120.00000311
_symmetry_Int_Tables_number   1
_chemical_formula_structural   Er2ZnCo6GeB2
_chemical_formula_sum   'Er2 Zn1 Co6 Ge1 B2'
_cell_volume   151.61556056
_cell_formula_units_Z   1
loop_
 _symmetry_equiv_pos_site_id
 _symmetry_equiv_pos_as_xyz
  1  'x, y, z'
loop_
 _atom_site_type_symbol
 _atom_site_label
 _atom_site_symmetry_multiplicity
 _atom_site_fract_x
 _atom_site_fract_y
 _atom_site_fract_z
 _atom_site_occupancy
  Er  Er0  1  0.000000  0.000000  0.000000  1
  Er  Er1  1  0.000000  0.000000  0.500000  1
  Zn  Zn2  1  0.666667  0.333333  0.000000  1
  Co  Co3  1  0.498911  0.501089  0.706077  1
  Co  Co4  1  0.498911  0.997822  0.706077  1
  Co  Co5  1  0.002178  0.501089  0.706077  1
  Co  Co6  1  0.498911  0.501089  0.293923  1
  Co  Co7  1  0.498911  0.997822  0.293923  1
  Co  Co8  1  0.002178  0.501089  0.293923  1
  Ge  Ge9  1  0.333333  0.666667  0.000000  1
  B  B10  1  0.666667  0.333333  0.500000  1
  B  B11  1  0.333333  0.666667  0.500000  1
