# generated using pymatgen
data_Tb3DyTm4(WO6)4
_symmetry_space_group_name_H-M   'P 1'
_cell_length_a   5.39051600
_cell_length_b   7.68389062
_cell_length_c   11.39591042
_cell_angle_alpha   75.55121855
_cell_angle_beta   90.00000000
_cell_angle_gamma   90.00000000
_symmetry_Int_Tables_number   1
_chemical_formula_structural   Tb3DyTm4(WO6)4
_chemical_formula_sum   'Tb3 Dy1 Tm4 W4 O24'
_cell_volume   457.09066262
_cell_formula_units_Z   1
loop_
 _symmetry_equiv_pos_site_id
 _symmetry_equiv_pos_as_xyz
  1  'x, y, z'
loop_
 _atom_site_type_symbol
 _atom_site_label
 _atom_site_symmetry_multiplicity
 _atom_site_fract_x
 _atom_site_fract_y
 _atom_site_fract_z
 _atom_site_occupancy
  Tb  Tb0  1  0.742050  0.000000  0.750000  1
  Tb  Tb1  1  0.683808  0.500000  0.750000  1
  Tb  Tb2  1  0.315897  0.500000  0.250000  1
  Dy  Dy3  1  0.258288  0.000000  0.250000  1
  Tm  Tm4  1  0.183534  0.793878  0.578632  1
  Tm  Tm5  1  0.816666  0.793969  0.078967  1
  Tm  Tm6  1  0.183534  0.206122  0.921368  1
  Tm  Tm7  1  0.816666  0.206031  0.421033  1
  W  W8  1  0.255719  0.723586  0.886169  1
  W  W9  1  0.744184  0.724010  0.385928  1
  W  W10  1  0.255719  0.276414  0.613831  1
  W  W11  1  0.744184  0.275990  0.114072  1
  O  O12  1  0.047315  0.940693  0.897579  1
  O  O13  1  0.536958  0.843507  0.932942  1
  O  O14  1  0.953752  0.940909  0.396934  1
  O  O15  1  0.455521  0.790712  0.726329  1
  O  O16  1  0.462841  0.844247  0.432461  1
  O  O17  1  0.982278  0.712290  0.770739  1
  O  O18  1  0.543605  0.791546  0.226242  1
  O  O19  1  0.853146  0.635576  0.549177  1
  O  O20  1  0.357783  0.488579  0.887003  1
  O  O21  1  0.017771  0.712702  0.270566  1
  O  O22  1  0.357783  0.511421  0.612997  1
  O  O23  1  0.853146  0.364424  0.950823  1
  O  O24  1  0.146470  0.635038  0.049376  1
  O  O25  1  0.642436  0.488993  0.386699  1
  O  O26  1  0.982278  0.287710  0.729261  1
  O  O27  1  0.642436  0.511007  0.113301  1
  O  O28  1  0.146470  0.364962  0.450624  1
  O  O29  1  0.455521  0.209288  0.773671  1
  O  O30  1  0.017771  0.287298  0.229434  1
  O  O31  1  0.536958  0.156493  0.567058  1
  O  O32  1  0.543605  0.208454  0.273758  1
  O  O33  1  0.047315  0.059307  0.602421  1
  O  O34  1  0.462841  0.155753  0.067539  1
  O  O35  1  0.953752  0.059091  0.103066  1
