# generated using pymatgen
data_TbYb2Th5(Pt2Pb)4
_symmetry_space_group_name_H-M   'P 1'
_cell_length_a   8.09234464
_cell_length_b   8.09869118
_cell_length_c   7.36605100
_cell_angle_alpha   90.00000000
_cell_angle_beta   90.00000000
_cell_angle_gamma   90.29420201
_symmetry_Int_Tables_number   1
_chemical_formula_structural   TbYb2Th5(Pt2Pb)4
_chemical_formula_sum   'Tb1 Yb2 Th5 Pt8 Pb4'
_cell_volume   482.74546820
_cell_formula_units_Z   1
loop_
 _symmetry_equiv_pos_site_id
 _symmetry_equiv_pos_as_xyz
  1  'x, y, z'
loop_
 _atom_site_type_symbol
 _atom_site_label
 _atom_site_symmetry_multiplicity
 _atom_site_fract_x
 _atom_site_fract_y
 _atom_site_fract_z
 _atom_site_occupancy
  Tb  Tb0  1  0.840580  0.157488  0.000000  1
  Yb  Yb1  1  0.663177  0.663666  0.500000  1
  Yb  Yb2  1  0.159486  0.839393  0.000000  1
  Th  Th3  1  0.676599  0.677072  0.000000  1
  Th  Th4  1  0.341314  0.342285  0.500000  1
  Th  Th5  1  0.824806  0.173268  0.500000  1
  Th  Th6  1  0.324710  0.325410  0.000000  1
  Th  Th7  1  0.174145  0.824132  0.500000  1
  Pt  Pt8  1  0.873035  0.875170  0.735690  1
  Pt  Pt9  1  0.130752  0.131594  0.734952  1
  Pt  Pt10  1  0.628874  0.368205  0.767547  1
  Pt  Pt11  1  0.628874  0.368205  0.232453  1
  Pt  Pt12  1  0.370265  0.625731  0.234189  1
  Pt  Pt13  1  0.130752  0.131594  0.265048  1
  Pt  Pt14  1  0.873035  0.875170  0.264310  1
  Pt  Pt15  1  0.370265  0.625731  0.765811  1
  Pb  Pb16  1  0.499959  0.993477  0.752068  1
  Pb  Pb17  1  0.499959  0.993477  0.247932  1
  Pb  Pb18  1  0.994707  0.504467  0.751101  1
  Pb  Pb19  1  0.994707  0.504467  0.248899  1
