# generated using pymatgen
data_Nd5SmIrI10
_symmetry_space_group_name_H-M   'P 1'
_cell_length_a   7.94646995
_cell_length_b   9.97592728
_cell_length_c   10.02802400
_cell_angle_alpha   107.15509967
_cell_angle_beta   104.62520320
_cell_angle_gamma   96.54517162
_symmetry_Int_Tables_number   1
_chemical_formula_structural   Nd5SmIrI10
_chemical_formula_sum   'Nd5 Sm1 Ir1 I10'
_cell_volume   719.54413279
_cell_formula_units_Z   1
loop_
 _symmetry_equiv_pos_site_id
 _symmetry_equiv_pos_as_xyz
  1  'x, y, z'
loop_
 _atom_site_type_symbol
 _atom_site_label
 _atom_site_symmetry_multiplicity
 _atom_site_fract_x
 _atom_site_fract_y
 _atom_site_fract_z
 _atom_site_occupancy
  Nd  Nd0  1  0.352723  0.169953  0.125967  1
  Nd  Nd1  1  0.031841  0.910902  0.709206  1
  Nd  Nd2  1  0.966060  0.087520  0.289901  1
  Nd  Nd3  1  0.116386  0.760897  0.042643  1
  Nd  Nd4  1  0.881083  0.238275  0.955986  1
  Sm  Sm5  1  0.652272  0.833593  0.876899  1
  Ir  Ir6  1  0.000208  0.000341  0.999965  1
  I  I7  1  0.645714  0.728091  0.553100  1
  I  I8  1  0.350040  0.270682  0.450953  1
  I  I9  1  0.230342  0.655551  0.747333  1
  I  I10  1  0.779297  0.349617  0.256097  1
  I  I11  1  0.455021  0.087423  0.815218  1
  I  I12  1  0.545609  0.906386  0.179858  1
  I  I13  1  0.253349  0.459458  0.084775  1
  I  I14  1  0.740623  0.542446  0.912617  1
  I  I15  1  0.086378  0.818582  0.370354  1
  I  I16  1  0.913053  0.180283  0.629129  1
