# generated using pymatgen
data_Y8Ho12Sn9Pb7
_symmetry_space_group_name_H-M   'P 1'
_cell_length_a   8.07863959
_cell_length_b   8.19718383
_cell_length_c   15.50277400
_cell_angle_alpha   90.02974114
_cell_angle_beta   89.94599246
_cell_angle_gamma   89.96289881
_symmetry_Int_Tables_number   1
_chemical_formula_structural   Y8Ho12Sn9Pb7
_chemical_formula_sum   'Y8 Ho12 Sn9 Pb7'
_cell_volume   1026.62534358
_cell_formula_units_Z   1
loop_
 _symmetry_equiv_pos_site_id
 _symmetry_equiv_pos_as_xyz
  1  'x, y, z'
loop_
 _atom_site_type_symbol
 _atom_site_label
 _atom_site_symmetry_multiplicity
 _atom_site_fract_x
 _atom_site_fract_y
 _atom_site_fract_z
 _atom_site_occupancy
  Y  Y0  1  0.526833  0.323993  0.900380  1
  Y  Y1  1  0.025265  0.177733  0.601180  1
  Y  Y2  1  0.475200  0.677642  0.398790  1
  Y  Y3  1  0.974851  0.819169  0.100221  1
  Y  Y4  1  0.478399  0.675295  0.100211  1
  Y  Y5  1  0.974858  0.821822  0.398811  1
  Y  Y6  1  0.524604  0.322156  0.600929  1
  Y  Y7  1  0.022955  0.179548  0.900073  1
  Ho  Ho8  1  0.368441  0.838933  0.875636  1
  Ho  Ho9  1  0.869066  0.661141  0.624166  1
  Ho  Ho10  1  0.630405  0.161053  0.375502  1
  Ho  Ho11  1  0.128629  0.338763  0.123627  1
  Ho  Ho12  1  0.632218  0.163732  0.123497  1
  Ho  Ho13  1  0.130120  0.338962  0.375625  1
  Ho  Ho14  1  0.369465  0.839425  0.624589  1
  Ho  Ho15  1  0.868666  0.660063  0.877020  1
  Ho  Ho16  1  0.199748  0.503664  0.750224  1
  Ho  Ho17  1  0.699808  0.996389  0.750040  1
  Ho  Ho18  1  0.799517  0.496246  0.248432  1
  Ho  Ho19  1  0.300392  0.003339  0.249792  1
  Sn  Sn20  1  0.791480  0.462201  0.041578  1
  Sn  Sn21  1  0.565254  0.620245  0.750292  1
  Sn  Sn22  1  0.064786  0.879091  0.750559  1
  Sn  Sn23  1  0.433650  0.379508  0.249829  1
  Sn  Sn24  1  0.934982  0.119295  0.249757  1
  Sn  Sn25  1  0.332936  0.149667  0.751000  1
  Sn  Sn26  1  0.832574  0.351224  0.750190  1
  Sn  Sn27  1  0.667691  0.851348  0.249446  1
  Sn  Sn28  1  0.167703  0.648795  0.249541  1
  Pb  Pb29  1  0.290898  0.038001  0.041262  1
  Pb  Pb30  1  0.790168  0.461509  0.458722  1
  Pb  Pb31  1  0.710204  0.962643  0.541186  1
  Pb  Pb32  1  0.210454  0.538509  0.959285  1
  Pb  Pb33  1  0.708123  0.962208  0.958662  1
  Pb  Pb34  1  0.209879  0.538622  0.541099  1
  Pb  Pb35  1  0.289778  0.038066  0.458846  1
