# generated using pymatgen
data_Rb3CrH7
_symmetry_space_group_name_H-M   'P 1'
_cell_length_a   6.16905956
_cell_length_b   6.14332134
_cell_length_c   6.38404687
_cell_angle_alpha   60.61977646
_cell_angle_beta   119.42171354
_cell_angle_gamma   91.02851690
_symmetry_Int_Tables_number   1
_chemical_formula_structural   Rb3CrH7
_chemical_formula_sum   'Rb3 Cr1 H7'
_cell_volume   175.52798872
_cell_formula_units_Z   1
loop_
 _symmetry_equiv_pos_site_id
 _symmetry_equiv_pos_as_xyz
  1  'x, y, z'
loop_
 _atom_site_type_symbol
 _atom_site_label
 _atom_site_symmetry_multiplicity
 _atom_site_fract_x
 _atom_site_fract_y
 _atom_site_fract_z
 _atom_site_occupancy
  Rb  Rb0  1  0.542369  0.401212  0.640773  1
  Rb  Rb1  1  0.781156  0.640033  0.142649  1
  Rb  Rb2  1  0.043017  0.897302  0.644329  1
  Cr  Cr3  1  0.302217  0.153951  0.145391  1
  H  H4  1  0.096589  0.353325  0.763432  1
  H  H5  1  0.411891  0.922777  0.121876  1
  H  H6  1  0.083288  0.282266  0.171483  1
  H  H7  1  0.565196  0.196094  0.139244  1
  H  H8  1  0.100988  0.960728  0.150014  1
  H  H9  1  0.503718  0.951585  0.526643  1
  H  H10  1  0.365712  0.416821  0.145944  1
