# generated using pymatgen
data_Pr12Si2GeBBr12
_symmetry_space_group_name_H-M   'P 1'
_cell_length_a   10.56116871
_cell_length_b   10.45020377
_cell_length_c   10.45020340
_cell_angle_alpha   109.34985252
_cell_angle_beta   109.77544832
_cell_angle_gamma   109.77545435
_symmetry_Int_Tables_number   1
_chemical_formula_structural   Pr12Si2GeBBr12
_chemical_formula_sum   'Pr12 Si2 Ge1 B1 Br12'
_cell_volume   882.46030035
_cell_formula_units_Z   1
loop_
 _symmetry_equiv_pos_site_id
 _symmetry_equiv_pos_as_xyz
  1  'x, y, z'
loop_
 _atom_site_type_symbol
 _atom_site_label
 _atom_site_symmetry_multiplicity
 _atom_site_fract_x
 _atom_site_fract_y
 _atom_site_fract_z
 _atom_site_occupancy
  Pr  Pr0  1  0.468432  0.495536  0.225595  1
  Pr  Pr1  1  0.750000  0.238899  0.261101  1
  Pr  Pr2  1  0.750000  0.009911  0.490089  1
  Pr  Pr3  1  0.239419  0.481866  0.493034  1
  Pr  Pr4  1  0.259318  0.733758  0.226287  1
  Pr  Pr5  1  0.031568  0.274405  0.004464  1
  Pr  Pr6  1  0.008096  0.020042  0.261631  1
  Pr  Pr7  1  0.474511  0.733781  0.006692  1
  Pr  Pr8  1  0.491904  0.238369  0.479958  1
  Pr  Pr9  1  0.025489  0.493308  0.766219  1
  Pr  Pr10  1  0.260581  0.006966  0.018134  1
  Pr  Pr11  1  0.240682  0.273713  0.766242  1
  Si  Si12  1  0.499414  0.999639  0.249714  1
  Si  Si13  1  0.000586  0.250286  0.500361  1
  Ge  Ge14  1  0.250000  0.250219  0.249781  1
  B  B15  1  0.250000  0.499271  0.000729  1
  Br  Br16  1  0.250000  0.755053  0.744947  1
  Br  Br17  1  0.509243  0.504859  0.755967  1
  Br  Br18  1  0.990757  0.744033  0.995141  1
  Br  Br19  1  0.746754  0.251357  0.756427  1
  Br  Br20  1  0.995268  0.990497  0.745514  1
  Br  Br21  1  0.250000  0.996845  0.503155  1
  Br  Br22  1  0.752998  0.506475  0.503223  1
  Br  Br23  1  0.504274  0.251334  0.995259  1
  Br  Br24  1  0.753246  0.743573  0.248643  1
  Br  Br25  1  0.747002  0.996777  0.993525  1
  Br  Br26  1  0.995726  0.504741  0.248666  1
  Br  Br27  1  0.504732  0.754486  0.509503  1
