# generated using pymatgen
data_Ta3Be2Nb5Te8
_symmetry_space_group_name_H-M   'P 1'
_cell_length_a   4.78858100
_cell_length_b   11.14177069
_cell_length_c   19.26428319
_cell_angle_alpha   89.95969799
_cell_angle_beta   90.00000000
_cell_angle_gamma   90.00000000
_symmetry_Int_Tables_number   1
_chemical_formula_structural   Ta3Be2Nb5Te8
_chemical_formula_sum   'Ta6 Be4 Nb10 Te16'
_cell_volume   1027.81227571
_cell_formula_units_Z   2
loop_
 _symmetry_equiv_pos_site_id
 _symmetry_equiv_pos_as_xyz
  1  'x, y, z'
loop_
 _atom_site_type_symbol
 _atom_site_label
 _atom_site_symmetry_multiplicity
 _atom_site_fract_x
 _atom_site_fract_y
 _atom_site_fract_z
 _atom_site_occupancy
  Ta  Ta0  1  0.500000  0.060143  0.111921  1
  Ta  Ta1  1  0.500000  0.939857  0.888079  1
  Ta  Ta2  1  0.500000  0.694735  0.535010  1
  Ta  Ta3  1  0.500000  0.305265  0.464990  1
  Ta  Ta4  1  0.500000  0.193976  0.965119  1
  Ta  Ta5  1  0.500000  0.806024  0.034881  1
  Be  Be6  1  0.251038  0.500000  0.500000  1
  Be  Be7  1  0.748957  0.000000  0.000000  1
  Be  Be8  1  0.748962  0.500000  0.500000  1
  Be  Be9  1  0.251043  0.000000  0.000000  1
  Nb  Nb10  1  0.500000  0.560744  0.387000  1
  Nb  Nb11  1  0.500000  0.439256  0.613000  1
  Nb  Nb12  1  0.000000  0.679969  0.445072  1
  Nb  Nb13  1  0.000000  0.320031  0.554928  1
  Nb  Nb14  1  0.000000  0.179977  0.054978  1
  Nb  Nb15  1  0.000000  0.820023  0.945022  1
  Nb  Nb16  1  0.000000  0.405382  0.396235  1
  Nb  Nb17  1  0.000000  0.594618  0.603765  1
  Nb  Nb18  1  0.000000  0.905389  0.103868  1
  Nb  Nb19  1  0.000000  0.094611  0.896132  1
  Te  Te20  1  0.000000  0.840133  0.560693  1
  Te  Te21  1  0.000000  0.159867  0.439307  1
  Te  Te22  1  0.000000  0.340071  0.939274  1
  Te  Te23  1  0.000000  0.659929  0.060726  1
  Te  Te24  1  0.500000  0.334459  0.318424  1
  Te  Te25  1  0.500000  0.665541  0.681576  1
  Te  Te26  1  0.500000  0.834892  0.181600  1
  Te  Te27  1  0.500000  0.165108  0.818400  1
  Te  Te28  1  0.500000  0.814897  0.404706  1
  Te  Te29  1  0.500000  0.185103  0.595294  1
  Te  Te30  1  0.500000  0.314493  0.095434  1
  Te  Te31  1  0.500000  0.685507  0.904566  1
  Te  Te32  1  0.000000  0.605085  0.303713  1
  Te  Te33  1  0.000000  0.394915  0.696287  1
  Te  Te34  1  0.000000  0.105160  0.196465  1
  Te  Te35  1  0.000000  0.894840  0.803535  1
