# generated using pymatgen
data_Er16Al4Ir3Ru
_symmetry_space_group_name_H-M   'P 1'
_cell_length_a   9.47466934
_cell_length_b   9.47466881
_cell_length_c   9.47466865
_cell_angle_alpha   59.81858385
_cell_angle_beta   59.81858362
_cell_angle_gamma   59.81857773
_symmetry_Int_Tables_number   1
_chemical_formula_structural   Er16Al4Ir3Ru
_chemical_formula_sum   'Er16 Al4 Ir3 Ru1'
_cell_volume   598.94241628
_cell_formula_units_Z   1
loop_
 _symmetry_equiv_pos_site_id
 _symmetry_equiv_pos_as_xyz
  1  'x, y, z'
loop_
 _atom_site_type_symbol
 _atom_site_label
 _atom_site_symmetry_multiplicity
 _atom_site_fract_x
 _atom_site_fract_y
 _atom_site_fract_z
 _atom_site_occupancy
  Er  Er0  1  0.061093  0.061093  0.439451  1
  Er  Er1  1  0.647942  0.054646  0.647942  1
  Er  Er2  1  0.195147  0.806186  0.195147  1
  Er  Er3  1  0.438082  0.062371  0.438082  1
  Er  Er4  1  0.195147  0.195147  0.806186  1
  Er  Er5  1  0.648507  0.648507  0.648507  1
  Er  Er6  1  0.054646  0.647942  0.647942  1
  Er  Er7  1  0.439451  0.061093  0.061093  1
  Er  Er8  1  0.647942  0.647942  0.054646  1
  Er  Er9  1  0.193836  0.805938  0.805938  1
  Er  Er10  1  0.805938  0.193836  0.805938  1
  Er  Er11  1  0.806186  0.195147  0.195147  1
  Er  Er12  1  0.805938  0.805938  0.193836  1
  Er  Er13  1  0.062371  0.438082  0.438082  1
  Er  Er14  1  0.438082  0.438082  0.062371  1
  Er  Er15  1  0.061093  0.439451  0.061093  1
  Al  Al16  1  0.733676  0.422136  0.422136  1
  Al  Al17  1  0.422136  0.422136  0.733676  1
  Al  Al18  1  0.422136  0.733676  0.422136  1
  Al  Al19  1  0.422015  0.422015  0.422015  1
  Ir  Ir20  1  0.423527  0.857998  0.857998  1
  Ir  Ir21  1  0.857998  0.857998  0.423527  1
  Ir  Ir22  1  0.857998  0.423527  0.857998  1
  Ru  Ru23  1  0.859119  0.859119  0.859119  1
