# generated using pymatgen
data_Dy5Ho3B24OsRu3
_symmetry_space_group_name_H-M   'P 1'
_cell_length_a   3.65560500
_cell_length_b   9.14230313
_cell_length_c   11.51861602
_cell_angle_alpha   89.96794712
_cell_angle_beta   90.00000000
_cell_angle_gamma   90.00000000
_symmetry_Int_Tables_number   1
_chemical_formula_structural   Dy5Ho3B24OsRu3
_chemical_formula_sum   'Dy5 Ho3 B24 Os1 Ru3'
_cell_volume   384.95956315
_cell_formula_units_Z   1
loop_
 _symmetry_equiv_pos_site_id
 _symmetry_equiv_pos_as_xyz
  1  'x, y, z'
loop_
 _atom_site_type_symbol
 _atom_site_label
 _atom_site_symmetry_multiplicity
 _atom_site_fract_x
 _atom_site_fract_y
 _atom_site_fract_z
 _atom_site_occupancy
  Dy  Dy0  1  0.000000  0.322957  0.414041  1
  Dy  Dy1  1  0.000000  0.677297  0.585962  1
  Dy  Dy2  1  0.000000  0.822360  0.086251  1
  Dy  Dy3  1  0.000000  0.177095  0.914008  1
  Dy  Dy4  1  0.000000  0.944438  0.372738  1
  Ho  Ho5  1  0.000000  0.056378  0.627981  1
  Ho  Ho6  1  0.000000  0.443545  0.126975  1
  Ho  Ho7  1  0.000000  0.556216  0.872165  1
  B  B8  1  0.500000  0.553800  0.433045  1
  B  B9  1  0.500000  0.445778  0.567207  1
  B  B10  1  0.500000  0.054130  0.066936  1
  B  B11  1  0.500000  0.945745  0.932955  1
  B  B12  1  0.500000  0.747797  0.419765  1
  B  B13  1  0.500000  0.252033  0.580343  1
  B  B14  1  0.500000  0.247887  0.080024  1
  B  B15  1  0.500000  0.751918  0.919790  1
  B  B16  1  0.500000  0.791033  0.266322  1
  B  B17  1  0.500000  0.208917  0.733685  1
  B  B18  1  0.500000  0.291283  0.233390  1
  B  B19  1  0.500000  0.708926  0.766420  1
  B  B20  1  0.500000  0.631664  0.185227  1
  B  B21  1  0.500000  0.368073  0.814787  1
  B  B22  1  0.500000  0.132425  0.314658  1
  B  B23  1  0.500000  0.868091  0.685328  1
  B  B24  1  0.500000  0.983911  0.212803  1
  B  B25  1  0.500000  0.016317  0.787054  1
  B  B26  1  0.500000  0.483292  0.286820  1
  B  B27  1  0.500000  0.516343  0.713068  1
  B  B28  1  0.500000  0.607947  0.029665  1
  B  B29  1  0.500000  0.391635  0.969849  1
  B  B30  1  0.500000  0.108980  0.470379  1
  B  B31  1  0.500000  0.891749  0.530386  1
  Os  Os32  1  0.000000  0.637501  0.321193  1
  Ru  Ru33  1  0.000000  0.362279  0.678833  1
  Ru  Ru34  1  0.000000  0.138089  0.178742  1
  Ru  Ru35  1  0.000000  0.862170  0.821206  1
