# generated using pymatgen
data_Er5Pd13Au2
_symmetry_space_group_name_H-M   'P 1'
_cell_length_a   4.16980900
_cell_length_b   4.14634900
_cell_length_c   20.66332800
_cell_angle_alpha   90.00000000
_cell_angle_beta   90.00000000
_cell_angle_gamma   90.00000000
_symmetry_Int_Tables_number   1
_chemical_formula_structural   Er5Pd13Au2
_chemical_formula_sum   'Er5 Pd13 Au2'
_cell_volume   357.25826598
_cell_formula_units_Z   1
loop_
 _symmetry_equiv_pos_site_id
 _symmetry_equiv_pos_as_xyz
  1  'x, y, z'
loop_
 _atom_site_type_symbol
 _atom_site_label
 _atom_site_symmetry_multiplicity
 _atom_site_fract_x
 _atom_site_fract_y
 _atom_site_fract_z
 _atom_site_occupancy
  Er  Er0  1  0.000000  0.000000  0.197814  1
  Er  Er1  1  0.000000  0.000000  0.396287  1
  Er  Er2  1  0.000000  0.000000  0.605346  1
  Er  Er3  1  0.000000  0.000000  0.801861  1
  Er  Er4  1  0.000000  0.000000  0.998854  1
  Pd  Pd5  1  0.500000  0.500000  0.000854  1
  Pd  Pd6  1  0.500000  0.500000  0.397719  1
  Pd  Pd7  1  0.500000  0.500000  0.601041  1
  Pd  Pd8  1  0.500000  0.500000  0.801202  1
  Pd  Pd9  1  0.500000  0.000000  0.099557  1
  Pd  Pd10  1  0.500000  0.000000  0.298336  1
  Pd  Pd11  1  0.500000  0.000000  0.701250  1
  Pd  Pd12  1  0.500000  0.000000  0.901202  1
  Pd  Pd13  1  0.000000  0.500000  0.099475  1
  Pd  Pd14  1  0.000000  0.500000  0.298282  1
  Pd  Pd15  1  0.000000  0.500000  0.499498  1
  Pd  Pd16  1  0.000000  0.500000  0.701478  1
  Pd  Pd17  1  0.000000  0.500000  0.901141  1
  Au  Au18  1  0.500000  0.500000  0.198772  1
  Au  Au19  1  0.500000  0.000000  0.500030  1
