# generated using pymatgen
data_Sr3(Si3Pd10)2
_symmetry_space_group_name_H-M   'P 1'
_cell_length_a   8.82016169
_cell_length_b   8.82016177
_cell_length_c   8.82016100
_cell_angle_alpha   59.99999915
_cell_angle_beta   59.99999884
_cell_angle_gamma   60.00000171
_symmetry_Int_Tables_number   1
_chemical_formula_structural   Sr3(Si3Pd10)2
_chemical_formula_sum   'Sr3 Si6 Pd20'
_cell_volume   485.19309465
_cell_formula_units_Z   1
loop_
 _symmetry_equiv_pos_site_id
 _symmetry_equiv_pos_as_xyz
  1  'x, y, z'
loop_
 _atom_site_type_symbol
 _atom_site_label
 _atom_site_symmetry_multiplicity
 _atom_site_fract_x
 _atom_site_fract_y
 _atom_site_fract_z
 _atom_site_occupancy
  Sr  Sr0  1  0.250000  0.250000  0.250000  1
  Sr  Sr1  1  0.750000  0.750000  0.750000  1
  Sr  Sr2  1  0.000000  0.000000  0.000000  1
  Si  Si3  1  0.731893  0.268107  0.268107  1
  Si  Si4  1  0.268107  0.731893  0.731893  1
  Si  Si5  1  0.268107  0.731893  0.268107  1
  Si  Si6  1  0.731893  0.268107  0.731893  1
  Si  Si7  1  0.268107  0.268107  0.731893  1
  Si  Si8  1  0.731893  0.731893  0.268107  1
  Pd  Pd9  1  0.386772  0.386772  0.386772  1
  Pd  Pd10  1  0.613228  0.613228  0.613228  1
  Pd  Pd11  1  0.386772  0.386772  0.839686  1
  Pd  Pd12  1  0.386772  0.839686  0.386772  1
  Pd  Pd13  1  0.613228  0.613228  0.160314  1
  Pd  Pd14  1  0.613228  0.160314  0.613228  1
  Pd  Pd15  1  0.839686  0.386772  0.386772  1
  Pd  Pd16  1  0.160314  0.613228  0.613228  1
  Pd  Pd17  1  0.346003  0.000000  0.000000  1
  Pd  Pd18  1  0.653997  0.000000  0.000000  1
  Pd  Pd19  1  0.000000  0.346003  0.653997  1
  Pd  Pd20  1  0.000000  0.653997  0.346003  1
  Pd  Pd21  1  0.000000  0.346003  0.000000  1
  Pd  Pd22  1  0.653997  0.000000  0.346003  1
  Pd  Pd23  1  0.000000  0.653997  0.000000  1
  Pd  Pd24  1  0.346003  0.000000  0.653997  1
  Pd  Pd25  1  0.000000  0.000000  0.346003  1
  Pd  Pd26  1  0.000000  0.000000  0.653997  1
  Pd  Pd27  1  0.653997  0.346003  0.000000  1
  Pd  Pd28  1  0.346003  0.653997  0.000000  1
