# generated using pymatgen
data_LaCe7Te8
_symmetry_space_group_name_H-M   'P 1'
_cell_length_a   9.01943113
_cell_length_b   9.01943228
_cell_length_c   9.01943100
_cell_angle_alpha   59.85281335
_cell_angle_beta   59.85281644
_cell_angle_gamma   59.85281621
_symmetry_Int_Tables_number   1
_chemical_formula_structural   LaCe7Te8
_chemical_formula_sum   'La1 Ce7 Te8'
_cell_volume   517.09396313
_cell_formula_units_Z   1
loop_
 _symmetry_equiv_pos_site_id
 _symmetry_equiv_pos_as_xyz
  1  'x, y, z'
loop_
 _atom_site_type_symbol
 _atom_site_label
 _atom_site_symmetry_multiplicity
 _atom_site_fract_x
 _atom_site_fract_y
 _atom_site_fract_z
 _atom_site_occupancy
  La  La0  1  0.625000  0.625000  0.625000  1
  Ce  Ce1  1  0.125000  0.625000  0.125000  1
  Ce  Ce2  1  0.125000  0.125000  0.625000  1
  Ce  Ce3  1  0.625000  0.125000  0.125000  1
  Ce  Ce4  1  0.125000  0.125000  0.125000  1
  Ce  Ce5  1  0.625000  0.125000  0.625000  1
  Ce  Ce6  1  0.125000  0.625000  0.625000  1
  Ce  Ce7  1  0.625000  0.625000  0.125000  1
  Te  Te8  1  0.373259  0.876223  0.373259  1
  Te  Te9  1  0.876741  0.373777  0.876741  1
  Te  Te10  1  0.876741  0.876741  0.373777  1
  Te  Te11  1  0.875052  0.875052  0.875052  1
  Te  Te12  1  0.876223  0.373259  0.373259  1
  Te  Te13  1  0.373259  0.373259  0.876223  1
  Te  Te14  1  0.374948  0.374948  0.374948  1
  Te  Te15  1  0.373777  0.876741  0.876741  1
