# generated using pymatgen
data_Eu5NiPt
_symmetry_space_group_name_H-M   'P 1'
_cell_length_a   6.74295971
_cell_length_b   7.71208300
_cell_length_c   9.02739774
_cell_angle_alpha   96.85234465
_cell_angle_beta   111.92990447
_cell_angle_gamma   89.99999918
_symmetry_Int_Tables_number   1
_chemical_formula_structural   Eu5NiPt
_chemical_formula_sum   'Eu10 Ni2 Pt2'
_cell_volume   431.85980361
_cell_formula_units_Z   2
loop_
 _symmetry_equiv_pos_site_id
 _symmetry_equiv_pos_as_xyz
  1  'x, y, z'
loop_
 _atom_site_type_symbol
 _atom_site_label
 _atom_site_symmetry_multiplicity
 _atom_site_fract_x
 _atom_site_fract_y
 _atom_site_fract_z
 _atom_site_occupancy
  Eu  Eu0  1  0.577704  0.250634  0.003171  1
  Eu  Eu1  1  0.425465  0.750634  0.003171  1
  Eu  Eu2  1  0.987509  0.916261  0.183623  1
  Eu  Eu3  1  0.196114  0.416261  0.183623  1
  Eu  Eu4  1  0.793320  0.319545  0.430743  1
  Eu  Eu5  1  0.637423  0.819546  0.430743  1
  Eu  Eu6  1  0.360900  0.182823  0.565112  1
  Eu  Eu7  1  0.204212  0.682824  0.565112  1
  Eu  Eu8  1  0.800457  0.579227  0.816564  1
  Eu  Eu9  1  0.016108  0.079227  0.816564  1
  Ni  Ni10  1  0.819938  0.581566  0.220865  1
  Ni  Ni11  1  0.400927  0.081567  0.220865  1
  Pt  Pt12  1  0.594959  0.919943  0.779921  1
  Pt  Pt13  1  0.184961  0.419944  0.779921  1
