# generated using pymatgen
data_Ac(ThSe2)6
_symmetry_space_group_name_H-M   'P 1'
_cell_length_a   4.14577200
_cell_length_b   11.80926259
_cell_length_c   11.80926100
_cell_angle_alpha   120.00000394
_cell_angle_beta   90.00000000
_cell_angle_gamma   90.00000000
_symmetry_Int_Tables_number   1
_chemical_formula_structural   Ac(ThSe2)6
_chemical_formula_sum   'Ac1 Th6 Se12'
_cell_volume   500.70454024
_cell_formula_units_Z   1
loop_
 _symmetry_equiv_pos_site_id
 _symmetry_equiv_pos_as_xyz
  1  'x, y, z'
loop_
 _atom_site_type_symbol
 _atom_site_label
 _atom_site_symmetry_multiplicity
 _atom_site_fract_x
 _atom_site_fract_y
 _atom_site_fract_z
 _atom_site_occupancy
  Ac  Ac0  1  0.750000  0.000000  0.000000  1
  Th  Th1  1  0.750000  0.719020  0.565461  1
  Th  Th2  1  0.750000  0.434539  0.153559  1
  Th  Th3  1  0.750000  0.846441  0.280980  1
  Th  Th4  1  0.250000  0.287413  0.445031  1
  Th  Th5  1  0.250000  0.554969  0.842382  1
  Th  Th6  1  0.250000  0.157618  0.712587  1
  Se  Se7  1  0.750000  0.005156  0.744179  1
  Se  Se8  1  0.750000  0.255821  0.260977  1
  Se  Se9  1  0.750000  0.739023  0.994844  1
  Se  Se10  1  0.250000  0.994562  0.220014  1
  Se  Se11  1  0.250000  0.779986  0.774549  1
  Se  Se12  1  0.250000  0.225451  0.005438  1
  Se  Se13  1  0.750000  0.374786  0.861283  1
  Se  Se14  1  0.750000  0.138717  0.513502  1
  Se  Se15  1  0.750000  0.486498  0.625214  1
  Se  Se16  1  0.250000  0.615907  0.141153  1
  Se  Se17  1  0.250000  0.858847  0.474755  1
  Se  Se18  1  0.250000  0.525245  0.384093  1
