# generated using pymatgen
data_Er10Cd3Ni
_symmetry_space_group_name_H-M   'P 1'
_cell_length_a   9.48778900
_cell_length_b   9.48778936
_cell_length_c   9.69504900
_cell_angle_alpha   90.00000000
_cell_angle_beta   90.00000000
_cell_angle_gamma   119.99999527
_symmetry_Int_Tables_number   1
_chemical_formula_structural   Er10Cd3Ni
_chemical_formula_sum   'Er20 Cd6 Ni2'
_cell_volume   755.80665689
_cell_formula_units_Z   2
loop_
 _symmetry_equiv_pos_site_id
 _symmetry_equiv_pos_as_xyz
  1  'x, y, z'
loop_
 _atom_site_type_symbol
 _atom_site_label
 _atom_site_symmetry_multiplicity
 _atom_site_fract_x
 _atom_site_fract_y
 _atom_site_fract_z
 _atom_site_occupancy
  Er  Er0  1  0.000000  0.000000  0.500000  1
  Er  Er1  1  0.000000  0.000000  0.000000  1
  Er  Er2  1  0.543324  0.456676  0.250000  1
  Er  Er3  1  0.543324  0.086649  0.250000  1
  Er  Er4  1  0.913351  0.456676  0.250000  1
  Er  Er5  1  0.456676  0.543324  0.750000  1
  Er  Er6  1  0.456676  0.913351  0.750000  1
  Er  Er7  1  0.086649  0.543324  0.750000  1
  Er  Er8  1  0.211109  0.788891  0.438545  1
  Er  Er9  1  0.211109  0.422218  0.438545  1
  Er  Er10  1  0.577782  0.788891  0.438545  1
  Er  Er11  1  0.788891  0.211109  0.561455  1
  Er  Er12  1  0.788891  0.577782  0.561455  1
  Er  Er13  1  0.422218  0.211109  0.561455  1
  Er  Er14  1  0.788891  0.211109  0.938545  1
  Er  Er15  1  0.788891  0.577782  0.938545  1
  Er  Er16  1  0.422218  0.211109  0.938545  1
  Er  Er17  1  0.211109  0.788891  0.061455  1
  Er  Er18  1  0.211109  0.422218  0.061455  1
  Er  Er19  1  0.577782  0.788891  0.061455  1
  Cd  Cd20  1  0.885665  0.114335  0.250000  1
  Cd  Cd21  1  0.885665  0.771331  0.250000  1
  Cd  Cd22  1  0.228669  0.114335  0.250000  1
  Cd  Cd23  1  0.114335  0.885665  0.750000  1
  Cd  Cd24  1  0.114335  0.228669  0.750000  1
  Cd  Cd25  1  0.771331  0.885665  0.750000  1
  Ni  Ni26  1  0.333333  0.666667  0.250000  1
  Ni  Ni27  1  0.666667  0.333333  0.750000  1
