# generated using pymatgen
data_YbY9Cd3Tc
_symmetry_space_group_name_H-M   'P 1'
_cell_length_a   9.63925200
_cell_length_b   9.63925191
_cell_length_c   9.90631300
_cell_angle_alpha   90.00000000
_cell_angle_beta   90.00000000
_cell_angle_gamma   120.00000031
_symmetry_Int_Tables_number   1
_chemical_formula_structural   YbY9Cd3Tc
_chemical_formula_sum   'Yb2 Y18 Cd6 Tc2'
_cell_volume   797.13034210
_cell_formula_units_Z   2
loop_
 _symmetry_equiv_pos_site_id
 _symmetry_equiv_pos_as_xyz
  1  'x, y, z'
loop_
 _atom_site_type_symbol
 _atom_site_label
 _atom_site_symmetry_multiplicity
 _atom_site_fract_x
 _atom_site_fract_y
 _atom_site_fract_z
 _atom_site_occupancy
  Yb  Yb0  1  0.000000  0.000000  0.500000  1
  Yb  Yb1  1  0.000000  0.000000  0.000000  1
  Y  Y2  1  0.210686  0.789314  0.439650  1
  Y  Y3  1  0.210686  0.421375  0.439650  1
  Y  Y4  1  0.578625  0.789314  0.439650  1
  Y  Y5  1  0.789314  0.210686  0.560350  1
  Y  Y6  1  0.789314  0.578625  0.560350  1
  Y  Y7  1  0.421375  0.210686  0.560350  1
  Y  Y8  1  0.789314  0.210686  0.939650  1
  Y  Y9  1  0.789314  0.578625  0.939650  1
  Y  Y10  1  0.421375  0.210686  0.939650  1
  Y  Y11  1  0.210686  0.789314  0.060350  1
  Y  Y12  1  0.210686  0.421375  0.060350  1
  Y  Y13  1  0.578625  0.789314  0.060350  1
  Y  Y14  1  0.541097  0.458903  0.250000  1
  Y  Y15  1  0.541097  0.082193  0.250000  1
  Y  Y16  1  0.917807  0.458903  0.250000  1
  Y  Y17  1  0.458903  0.541097  0.750000  1
  Y  Y18  1  0.458903  0.917807  0.750000  1
  Y  Y19  1  0.082193  0.541097  0.750000  1
  Cd  Cd20  1  0.884638  0.115362  0.250000  1
  Cd  Cd21  1  0.884638  0.769276  0.250000  1
  Cd  Cd22  1  0.230724  0.115362  0.250000  1
  Cd  Cd23  1  0.115362  0.884638  0.750000  1
  Cd  Cd24  1  0.115362  0.230724  0.750000  1
  Cd  Cd25  1  0.769276  0.884638  0.750000  1
  Tc  Tc26  1  0.333333  0.666667  0.250000  1
  Tc  Tc27  1  0.666667  0.333333  0.750000  1
