# generated using pymatgen
data_SrTbEr5NiI12
_symmetry_space_group_name_H-M   'P 1'
_cell_length_a   9.72023416
_cell_length_b   9.73184596
_cell_length_c   9.71840036
_cell_angle_alpha   106.21161535
_cell_angle_beta   106.10292439
_cell_angle_gamma   106.05933461
_symmetry_Int_Tables_number   1
_chemical_formula_structural   SrTbEr5NiI12
_chemical_formula_sum   'Sr1 Tb1 Er5 Ni1 I12'
_cell_volume   783.18105713
_cell_formula_units_Z   1
loop_
 _symmetry_equiv_pos_site_id
 _symmetry_equiv_pos_as_xyz
  1  'x, y, z'
loop_
 _atom_site_type_symbol
 _atom_site_label
 _atom_site_symmetry_multiplicity
 _atom_site_fract_x
 _atom_site_fract_y
 _atom_site_fract_z
 _atom_site_occupancy
  Sr  Sr0  1  0.500447  0.499468  0.500096  1
  Tb  Tb1  1  0.018781  0.291380  0.092089  1
  Er  Er2  1  0.908996  0.980383  0.712399  1
  Er  Er3  1  0.712710  0.908296  0.980523  1
  Er  Er4  1  0.981170  0.713549  0.908931  1
  Er  Er5  1  0.090929  0.019804  0.287460  1
  Er  Er6  1  0.287110  0.090282  0.019071  1
  Ni  Ni7  1  0.999860  0.000571  0.000022  1
  I  I8  1  0.924837  0.324187  0.774123  1
  I  I9  1  0.777963  0.926041  0.324872  1
  I  I10  1  0.324879  0.777360  0.926081  1
  I  I11  1  0.074814  0.677273  0.222813  1
  I  I12  1  0.221807  0.073045  0.674964  1
  I  I13  1  0.671366  0.219570  0.072965  1
  I  I14  1  0.553109  0.866512  0.633058  1
  I  I15  1  0.633887  0.553139  0.867554  1
  I  I16  1  0.867315  0.633272  0.552732  1
  I  I17  1  0.446452  0.132328  0.367025  1
  I  I18  1  0.369150  0.446543  0.132888  1
  I  I19  1  0.134418  0.366999  0.450333  1
