# generated using pymatgen
data_Sc12Al2TcNi3
_symmetry_space_group_name_H-M   'P 1'
_cell_length_a   7.79561183
_cell_length_b   7.79561282
_cell_length_c   7.79561322
_cell_angle_alpha   112.41572451
_cell_angle_beta   111.00133244
_cell_angle_gamma   105.08704933
_symmetry_Int_Tables_number   1
_chemical_formula_structural   Sc12Al2TcNi3
_chemical_formula_sum   'Sc12 Al2 Tc1 Ni3'
_cell_volume   363.04868134
_cell_formula_units_Z   1
loop_
 _symmetry_equiv_pos_site_id
 _symmetry_equiv_pos_as_xyz
  1  'x, y, z'
loop_
 _atom_site_type_symbol
 _atom_site_label
 _atom_site_symmetry_multiplicity
 _atom_site_fract_x
 _atom_site_fract_y
 _atom_site_fract_z
 _atom_site_occupancy
  Sc  Sc0  1  0.049908  0.747034  0.302875  1
  Sc  Sc1  1  0.965606  0.263808  0.701798  1
  Sc  Sc2  1  0.555841  0.252966  0.302875  1
  Sc  Sc3  1  0.437990  0.736192  0.701798  1
  Sc  Sc4  1  0.679261  0.874375  0.200867  1
  Sc  Sc5  1  0.326493  0.521606  0.200867  1
  Sc  Sc6  1  0.326493  0.125625  0.804887  1
  Sc  Sc7  1  0.679261  0.478394  0.804887  1
  Sc  Sc8  1  0.181765  0.218940  0.400705  1
  Sc  Sc9  1  0.811592  0.218788  0.030381  1
  Sc  Sc10  1  0.181765  0.781060  0.962826  1
  Sc  Sc11  1  0.811592  0.781212  0.592802  1
  Al  Al12  1  0.991288  0.500000  0.491288  1
  Al  Al13  1  0.505110  0.000000  0.505110  1
  Tc  Tc14  1  0.662327  0.500000  0.162327  1
  Ni  Ni15  1  0.334842  0.500000  0.834842  1
  Ni  Ni16  1  0.875502  0.876069  0.999431  1
  Ni  Ni17  1  0.123362  0.123931  0.999431  1
