# generated using pymatgen
data_Ta12Al8Rh3AuC3N
_symmetry_space_group_name_H-M   'P 1'
_cell_length_a   8.31754452
_cell_length_b   8.30501964
_cell_length_c   8.31754500
_cell_angle_alpha   59.95010166
_cell_angle_beta   60.00000206
_cell_angle_gamma   59.95009637
_symmetry_Int_Tables_number   1
_chemical_formula_structural   Ta12Al8Rh3AuC3N
_chemical_formula_sum   'Ta12 Al8 Rh3 Au1 C3 N1'
_cell_volume   405.96443283
_cell_formula_units_Z   1
loop_
 _symmetry_equiv_pos_site_id
 _symmetry_equiv_pos_as_xyz
  1  'x, y, z'
loop_
 _atom_site_type_symbol
 _atom_site_label
 _atom_site_symmetry_multiplicity
 _atom_site_fract_x
 _atom_site_fract_y
 _atom_site_fract_z
 _atom_site_occupancy
  Ta  Ta0  1  0.570046  0.932424  0.565781  1
  Ta  Ta1  1  0.317160  0.681453  0.684228  1
  Ta  Ta2  1  0.683668  0.316495  0.316169  1
  Ta  Ta3  1  0.315638  0.685158  0.315407  1
  Ta  Ta4  1  0.683798  0.685158  0.315407  1
  Ta  Ta5  1  0.318252  0.317576  0.684219  1
  Ta  Ta6  1  0.566202  0.564842  0.934593  1
  Ta  Ta7  1  0.932840  0.568547  0.565772  1
  Ta  Ta8  1  0.566332  0.933505  0.933831  1
  Ta  Ta9  1  0.931748  0.932424  0.565781  1
  Ta  Ta10  1  0.679954  0.317576  0.684219  1
  Ta  Ta11  1  0.934362  0.564842  0.934593  1
  Al  Al12  1  0.912212  0.911859  0.923758  1
  Al  Al13  1  0.997830  0.338141  0.326242  1
  Al  Al14  1  0.337921  0.997672  0.326484  1
  Al  Al15  1  0.332643  0.333140  0.001575  1
  Al  Al16  1  0.912079  0.252328  0.923516  1
  Al  Al17  1  0.917357  0.916860  0.248425  1
  Al  Al18  1  0.252170  0.911859  0.923758  1
  Al  Al19  1  0.337788  0.338141  0.326242  1
  Rh  Rh20  1  0.125000  0.125000  0.125000  1
  Rh  Rh21  1  0.625000  0.125000  0.125000  1
  Rh  Rh22  1  0.125000  0.625000  0.125000  1
  Au  Au23  1  0.125000  0.125000  0.625000  1
  C  C24  1  0.625000  0.625000  0.625000  1
  C  C25  1  0.125000  0.625000  0.625000  1
  C  C26  1  0.625000  0.625000  0.125000  1
  N  N27  1  0.625000  0.125000  0.625000  1
