# generated using pymatgen
data_HoTh6Ir2Os
_symmetry_space_group_name_H-M   'P 1'
_cell_length_a   10.00145722
_cell_length_b   10.01122646
_cell_length_c   6.34760815
_cell_angle_alpha   90.18286092
_cell_angle_beta   89.85850379
_cell_angle_gamma   120.03249930
_symmetry_Int_Tables_number   1
_chemical_formula_structural   HoTh6Ir2Os
_chemical_formula_sum   'Ho2 Th12 Ir4 Os2'
_cell_volume   550.23290364
_cell_formula_units_Z   2
loop_
 _symmetry_equiv_pos_site_id
 _symmetry_equiv_pos_as_xyz
  1  'x, y, z'
loop_
 _atom_site_type_symbol
 _atom_site_label
 _atom_site_symmetry_multiplicity
 _atom_site_fract_x
 _atom_site_fract_y
 _atom_site_fract_z
 _atom_site_occupancy
  Ho  Ho0  1  0.461056  0.539037  0.297395  1
  Ho  Ho1  1  0.078321  0.538210  0.297774  1
  Th  Th2  1  0.918242  0.459675  0.802682  1
  Th  Th3  1  0.254965  0.129929  0.501294  1
  Th  Th4  1  0.542668  0.083353  0.794635  1
  Th  Th5  1  0.747534  0.873957  0.003554  1
  Th  Th6  1  0.666583  0.332807  0.295376  1
  Th  Th7  1  0.126261  0.870010  0.002420  1
  Th  Th8  1  0.458498  0.914949  0.291455  1
  Th  Th9  1  0.542332  0.459511  0.799342  1
  Th  Th10  1  0.874260  0.130524  0.500957  1
  Th  Th11  1  0.125880  0.256028  0.002922  1
  Th  Th12  1  0.871874  0.743047  0.499954  1
  Th  Th13  1  0.333149  0.666490  0.781167  1
  Ir  Ir14  1  0.625008  0.814488  0.549848  1
  Ir  Ir15  1  0.373952  0.187954  0.053482  1
  Ir  Ir16  1  0.187263  0.374569  0.553661  1
  Ir  Ir17  1  0.189526  0.814060  0.549961  1
  Os  Os18  1  0.811139  0.624806  0.053565  1
  Os  Os19  1  0.811488  0.186599  0.052557  1
