# generated using pymatgen
data_PuTcN2
_symmetry_space_group_name_H-M   'P 1'
_cell_length_a   3.24378400
_cell_length_b   5.53498600
_cell_length_c   10.78007700
_cell_angle_alpha   90.00000000
_cell_angle_beta   90.00000000
_cell_angle_gamma   90.00000000
_symmetry_Int_Tables_number   1
_chemical_formula_structural   PuTcN2
_chemical_formula_sum   'Pu4 Tc4 N8'
_cell_volume   193.54872599
_cell_formula_units_Z   4
loop_
 _symmetry_equiv_pos_site_id
 _symmetry_equiv_pos_as_xyz
  1  'x, y, z'
loop_
 _atom_site_type_symbol
 _atom_site_label
 _atom_site_symmetry_multiplicity
 _atom_site_fract_x
 _atom_site_fract_y
 _atom_site_fract_z
 _atom_site_occupancy
  Pu  Pu0  1  0.250000  0.076390  0.856807  1
  Pu  Pu1  1  0.250000  0.576390  0.643193  1
  Pu  Pu2  1  0.750000  0.923610  0.143193  1
  Pu  Pu3  1  0.750000  0.423610  0.356807  1
  Tc  Tc4  1  0.250000  0.427815  0.101743  1
  Tc  Tc5  1  0.250000  0.927815  0.398257  1
  Tc  Tc6  1  0.750000  0.572185  0.898257  1
  Tc  Tc7  1  0.750000  0.072185  0.601743  1
  N  N8  1  0.250000  0.159285  0.244911  1
  N  N9  1  0.250000  0.659285  0.255089  1
  N  N10  1  0.750000  0.840715  0.755089  1
  N  N11  1  0.750000  0.340715  0.744911  1
  N  N12  1  0.250000  0.749203  0.996460  1
  N  N13  1  0.250000  0.249203  0.503540  1
  N  N14  1  0.750000  0.250797  0.003540  1
  N  N15  1  0.750000  0.750797  0.496460  1
