# generated using pymatgen
data_Ho3Er(IrOs3)2
_symmetry_space_group_name_H-M   'P 1'
_cell_length_a   5.27277800
_cell_length_b   5.27277963
_cell_length_c   8.97738900
_cell_angle_alpha   90.00000000
_cell_angle_beta   90.00000000
_cell_angle_gamma   120.00000233
_symmetry_Int_Tables_number   1
_chemical_formula_structural   Ho3Er(IrOs3)2
_chemical_formula_sum   'Ho3 Er1 Ir2 Os6'
_cell_volume   216.15225612
_cell_formula_units_Z   1
loop_
 _symmetry_equiv_pos_site_id
 _symmetry_equiv_pos_as_xyz
  1  'x, y, z'
loop_
 _atom_site_type_symbol
 _atom_site_label
 _atom_site_symmetry_multiplicity
 _atom_site_fract_x
 _atom_site_fract_y
 _atom_site_fract_z
 _atom_site_occupancy
  Ho  Ho0  1  0.333333  0.666667  0.432100  1
  Ho  Ho1  1  0.666667  0.333333  0.567874  1
  Ho  Ho2  1  0.666667  0.333333  0.932147  1
  Er  Er3  1  0.333333  0.666667  0.067901  1
  Ir  Ir4  1  0.000000  0.000000  0.500003  1
  Ir  Ir5  1  0.000000  0.000000  0.000046  1
  Os  Os6  1  0.829446  0.170554  0.249938  1
  Os  Os7  1  0.829446  0.658892  0.249938  1
  Os  Os8  1  0.341108  0.170554  0.249938  1
  Os  Os9  1  0.170566  0.829434  0.750038  1
  Os  Os10  1  0.170566  0.341134  0.750038  1
  Os  Os11  1  0.658866  0.829434  0.750038  1
