# generated using pymatgen
data_Hf11Zr5Cu3Ir5N4
_symmetry_space_group_name_H-M   'P 1'
_cell_length_a   8.70698840
_cell_length_b   8.70698838
_cell_length_c   8.71374060
_cell_angle_alpha   60.11734003
_cell_angle_beta   60.11734176
_cell_angle_gamma   60.02193584
_symmetry_Int_Tables_number   1
_chemical_formula_structural   Hf11Zr5Cu3Ir5N4
_chemical_formula_sum   'Hf11 Zr5 Cu3 Ir5 N4'
_cell_volume   468.02144692
_cell_formula_units_Z   1
loop_
 _symmetry_equiv_pos_site_id
 _symmetry_equiv_pos_as_xyz
  1  'x, y, z'
loop_
 _atom_site_type_symbol
 _atom_site_label
 _atom_site_symmetry_multiplicity
 _atom_site_fract_x
 _atom_site_fract_y
 _atom_site_fract_z
 _atom_site_occupancy
  Hf  Hf0  1  0.132125  0.622552  0.622936  1
  Hf  Hf1  1  0.622552  0.132125  0.622936  1
  Hf  Hf2  1  0.623126  0.623126  0.131772  1
  Hf  Hf3  1  0.622597  0.622597  0.622942  1
  Hf  Hf4  1  0.819456  0.819456  0.180677  1
  Hf  Hf5  1  0.182175  0.182175  0.817939  1
  Hf  Hf6  1  0.818272  0.182035  0.818911  1
  Hf  Hf7  1  0.182921  0.817301  0.182541  1
  Hf  Hf8  1  0.182035  0.818272  0.818911  1
  Hf  Hf9  1  0.817301  0.182921  0.182541  1
  Hf  Hf10  1  0.435479  0.435479  0.066506  1
  Zr  Zr11  1  0.067416  0.067416  0.432813  1
  Zr  Zr12  1  0.435292  0.065104  0.435075  1
  Zr  Zr13  1  0.067926  0.432488  0.067383  1
  Zr  Zr14  1  0.065104  0.435292  0.435075  1
  Zr  Zr15  1  0.432488  0.067926  0.067383  1
  Cu  Cu16  1  0.765866  0.411156  0.410845  1
  Cu  Cu17  1  0.411156  0.765866  0.410845  1
  Cu  Cu18  1  0.410936  0.410936  0.769502  1
  Ir  Ir19  1  0.406708  0.406708  0.403499  1
  Ir  Ir20  1  0.486531  0.836285  0.837686  1
  Ir  Ir21  1  0.836285  0.486531  0.837686  1
  Ir  Ir22  1  0.837173  0.837173  0.486044  1
  Ir  Ir23  1  0.838324  0.838324  0.838359  1
  N  N24  1  0.628785  0.126297  0.122255  1
  N  N25  1  0.126297  0.628785  0.122255  1
  N  N26  1  0.122762  0.122762  0.631349  1
  N  N27  1  0.122913  0.122913  0.123334  1
