# generated using pymatgen
data_Tb5TmSi10
_symmetry_space_group_name_H-M   'P 1'
_cell_length_a   6.64717700
_cell_length_b   6.66437560
_cell_length_c   8.32514489
_cell_angle_alpha   89.95535508
_cell_angle_beta   90.00000000
_cell_angle_gamma   119.91467353
_symmetry_Int_Tables_number   1
_chemical_formula_structural   Tb5TmSi10
_chemical_formula_sum   'Tb5 Tm1 Si10'
_cell_volume   319.66253024
_cell_formula_units_Z   1
loop_
 _symmetry_equiv_pos_site_id
 _symmetry_equiv_pos_as_xyz
  1  'x, y, z'
loop_
 _atom_site_type_symbol
 _atom_site_label
 _atom_site_symmetry_multiplicity
 _atom_site_fract_x
 _atom_site_fract_y
 _atom_site_fract_z
 _atom_site_occupancy
  Tb  Tb0  1  0.330685  0.000000  0.500000  1
  Tb  Tb1  1  0.668453  0.668954  0.499980  1
  Tb  Tb2  1  0.999499  0.331046  0.500020  1
  Tb  Tb3  1  0.000197  0.331370  0.999811  1
  Tb  Tb4  1  0.668827  0.668630  0.000189  1
  Tm  Tm5  1  0.330963  0.000000  0.000000  1
  Si  Si6  1  0.000345  0.000199  0.751532  1
  Si  Si7  1  0.667330  0.050988  0.751633  1
  Si  Si8  1  0.382610  0.329515  0.752068  1
  Si  Si9  1  0.950150  0.619550  0.750336  1
  Si  Si10  1  0.333681  0.666604  0.751386  1
  Si  Si11  1  0.000146  0.999801  0.248468  1
  Si  Si12  1  0.667078  0.333396  0.248614  1
  Si  Si13  1  0.330600  0.380450  0.249664  1
  Si  Si14  1  0.053095  0.670485  0.247932  1
  Si  Si15  1  0.616342  0.949012  0.248367  1
