# generated using pymatgen
data_Hf12Th8Si15S
_symmetry_space_group_name_H-M   'P 1'
_cell_length_a   7.40430968
_cell_length_b   7.37921497
_cell_length_c   13.64058800
_cell_angle_alpha   90.04987904
_cell_angle_beta   89.63446976
_cell_angle_gamma   90.07444423
_symmetry_Int_Tables_number   1
_chemical_formula_structural   Hf12Th8Si15S
_chemical_formula_sum   'Hf12 Th8 Si15 S1'
_cell_volume   745.27827647
_cell_formula_units_Z   1
loop_
 _symmetry_equiv_pos_site_id
 _symmetry_equiv_pos_as_xyz
  1  'x, y, z'
loop_
 _atom_site_type_symbol
 _atom_site_label
 _atom_site_symmetry_multiplicity
 _atom_site_fract_x
 _atom_site_fract_y
 _atom_site_fract_z
 _atom_site_occupancy
  Hf  Hf0  1  0.671714  0.327921  0.749902  1
  Hf  Hf1  1  0.329302  0.670675  0.248780  1
  Hf  Hf2  1  0.827963  0.827541  0.499983  1
  Hf  Hf3  1  0.173756  0.173284  0.999929  1
  Hf  Hf4  1  0.499434  0.339923  0.123050  1
  Hf  Hf5  1  0.503423  0.656393  0.625046  1
  Hf  Hf6  1  0.836892  0.006916  0.878643  1
  Hf  Hf7  1  0.157117  0.996467  0.374636  1
  Hf  Hf8  1  0.657663  0.501373  0.374154  1
  Hf  Hf9  1  0.338738  0.503265  0.873260  1
  Hf  Hf10  1  0.004621  0.842785  0.126716  1
  Hf  Hf11  1  0.995607  0.156162  0.624489  1
  Th  Th12  1  0.498103  0.157611  0.533377  1
  Th  Th13  1  0.504855  0.847349  0.032745  1
  Th  Th14  1  0.658951  0.000529  0.284043  1
  Th  Th15  1  0.336694  0.995041  0.781853  1
  Th  Th16  1  0.840095  0.497582  0.968426  1
  Th  Th17  1  0.159455  0.496752  0.466600  1
  Th  Th18  1  0.000494  0.660085  0.717200  1
  Th  Th19  1  0.001178  0.343679  0.217517  1
  Si  Si20  1  0.201538  0.868930  0.566065  1
  Si  Si21  1  0.631487  0.702538  0.817406  1
  Si  Si22  1  0.370039  0.298313  0.315127  1
  Si  Si23  1  0.868894  0.200771  0.433490  1
  Si  Si24  1  0.128184  0.800115  0.935226  1
  Si  Si25  1  0.701662  0.629412  0.182335  1
  Si  Si26  1  0.296129  0.369056  0.682834  1
  Si  Si27  1  0.528052  0.214680  0.927389  1
  Si  Si28  1  0.457446  0.790333  0.434745  1
  Si  Si29  1  0.707661  0.956823  0.686161  1
  Si  Si30  1  0.292579  0.043772  0.185770  1
  Si  Si31  1  0.791883  0.456640  0.564902  1
  Si  Si32  1  0.211412  0.545322  0.064804  1
  Si  Si33  1  0.958195  0.707594  0.315530  1
  Si  Si34  1  0.041700  0.290920  0.814592  1
  S  S35  1  0.817081  0.123446  0.073277  1
