# generated using pymatgen
data_Tb2ScGa5
_symmetry_space_group_name_H-M   'P 1'
_cell_length_a   6.03456000
_cell_length_b   9.49644600
_cell_length_c   11.41933100
_cell_angle_alpha   90.00000000
_cell_angle_beta   90.00000000
_cell_angle_gamma   90.00000000
_symmetry_Int_Tables_number   1
_chemical_formula_structural   Tb2ScGa5
_chemical_formula_sum   'Tb8 Sc4 Ga20'
_cell_volume   654.40615335
_cell_formula_units_Z   4
loop_
 _symmetry_equiv_pos_site_id
 _symmetry_equiv_pos_as_xyz
  1  'x, y, z'
loop_
 _atom_site_type_symbol
 _atom_site_label
 _atom_site_symmetry_multiplicity
 _atom_site_fract_x
 _atom_site_fract_y
 _atom_site_fract_z
 _atom_site_occupancy
  Tb  Tb0  1  0.891164  0.509859  0.351819  1
  Tb  Tb1  1  0.608836  0.990141  0.851819  1
  Tb  Tb2  1  0.108836  0.009859  0.648181  1
  Tb  Tb3  1  0.391164  0.490141  0.148181  1
  Tb  Tb4  1  0.108836  0.490141  0.648181  1
  Tb  Tb5  1  0.391164  0.009859  0.148181  1
  Tb  Tb6  1  0.891164  0.990141  0.351819  1
  Tb  Tb7  1  0.608836  0.509859  0.851819  1
  Sc  Sc8  1  0.850115  0.750000  0.075367  1
  Sc  Sc9  1  0.649885  0.750000  0.575367  1
  Sc  Sc10  1  0.149885  0.250000  0.924633  1
  Sc  Sc11  1  0.350115  0.250000  0.424633  1
  Ga  Ga12  1  0.878078  0.050912  0.088721  1
  Ga  Ga13  1  0.621922  0.449088  0.588721  1
  Ga  Ga14  1  0.121922  0.550912  0.911279  1
  Ga  Ga15  1  0.378078  0.949088  0.411279  1
  Ga  Ga16  1  0.121922  0.949088  0.911279  1
  Ga  Ga17  1  0.378078  0.550912  0.411279  1
  Ga  Ga18  1  0.878078  0.449088  0.088721  1
  Ga  Ga19  1  0.621922  0.050912  0.588721  1
  Ga  Ga20  1  0.164902  0.750000  0.249313  1
  Ga  Ga21  1  0.335098  0.750000  0.749313  1
  Ga  Ga22  1  0.835098  0.250000  0.750687  1
  Ga  Ga23  1  0.664902  0.250000  0.250687  1
  Ga  Ga24  1  0.379656  0.750000  0.002553  1
  Ga  Ga25  1  0.120344  0.750000  0.502553  1
  Ga  Ga26  1  0.620344  0.250000  0.997447  1
  Ga  Ga27  1  0.879656  0.250000  0.497447  1
  Ga  Ga28  1  0.601347  0.750000  0.296306  1
  Ga  Ga29  1  0.898653  0.750000  0.796306  1
  Ga  Ga30  1  0.398653  0.250000  0.703694  1
  Ga  Ga31  1  0.101347  0.250000  0.203694  1
