# generated using pymatgen
data_Dy3Ho(Sc3Ga4)2
_symmetry_space_group_name_H-M   'P 1'
_cell_length_a   7.27157100
_cell_length_b   7.57661900
_cell_length_c   14.46669000
_cell_angle_alpha   89.99825903
_cell_angle_beta   90.00042662
_cell_angle_gamma   90.00067912
_symmetry_Int_Tables_number   1
_chemical_formula_structural   Dy3Ho(Sc3Ga4)2
_chemical_formula_sum   'Dy6 Ho2 Sc12 Ga16'
_cell_volume   797.02670468
_cell_formula_units_Z   2
loop_
 _symmetry_equiv_pos_site_id
 _symmetry_equiv_pos_as_xyz
  1  'x, y, z'
loop_
 _atom_site_type_symbol
 _atom_site_label
 _atom_site_symmetry_multiplicity
 _atom_site_fract_x
 _atom_site_fract_y
 _atom_site_fract_z
 _atom_site_occupancy
  Dy  Dy0  1  0.010948  0.180233  0.094418  1
  Dy  Dy1  1  0.989052  0.819767  0.905582  1
  Dy  Dy2  1  0.489049  0.680234  0.905585  1
  Dy  Dy3  1  0.989052  0.819765  0.594420  1
  Dy  Dy4  1  0.510951  0.319766  0.094415  1
  Dy  Dy5  1  0.010948  0.180235  0.405580  1
  Ho  Ho6  1  0.510949  0.319756  0.405583  1
  Ho  Ho7  1  0.489051  0.680244  0.594417  1
  Sc  Sc8  1  0.162362  0.503289  0.749996  1
  Sc  Sc9  1  0.837638  0.496711  0.250004  1
  Sc  Sc10  1  0.337655  0.003289  0.250003  1
  Sc  Sc11  1  0.662345  0.996711  0.749997  1
  Sc  Sc12  1  0.329688  0.172194  0.624560  1
  Sc  Sc13  1  0.670312  0.827806  0.375440  1
  Sc  Sc14  1  0.170333  0.672189  0.375436  1
  Sc  Sc15  1  0.670319  0.827810  0.124567  1
  Sc  Sc16  1  0.829667  0.327811  0.624564  1
  Sc  Sc17  1  0.329681  0.172190  0.875433  1
  Sc  Sc18  1  0.829679  0.327804  0.875436  1
  Sc  Sc19  1  0.170321  0.672196  0.124564  1
  Ga  Ga20  1  0.030150  0.116241  0.750000  1
  Ga  Ga21  1  0.969850  0.883759  0.250000  1
  Ga  Ga22  1  0.469851  0.616233  0.250004  1
  Ga  Ga23  1  0.530149  0.383767  0.749996  1
  Ga  Ga24  1  0.283067  0.870807  0.749994  1
  Ga  Ga25  1  0.716933  0.129193  0.250006  1
  Ga  Ga26  1  0.216953  0.370815  0.250008  1
  Ga  Ga27  1  0.783047  0.629185  0.749992  1
  Ga  Ga28  1  0.162165  0.465007  0.540514  1
  Ga  Ga29  1  0.837835  0.534993  0.459486  1
  Ga  Ga30  1  0.337877  0.965005  0.459492  1
  Ga  Ga31  1  0.837864  0.535000  0.040510  1
  Ga  Ga32  1  0.662123  0.034995  0.540508  1
  Ga  Ga33  1  0.162136  0.465000  0.959490  1
  Ga  Ga34  1  0.662136  0.035004  0.959490  1
  Ga  Ga35  1  0.337864  0.964996  0.040510  1
