# generated using pymatgen
data_EuCdIO6
_symmetry_space_group_name_H-M   'P 1'
_cell_length_a   5.50471700
_cell_length_b   5.50471709
_cell_length_c   10.14530700
_cell_angle_alpha   90.00000000
_cell_angle_beta   90.00000000
_cell_angle_gamma   120.00001749
_symmetry_Int_Tables_number   1
_chemical_formula_structural   EuCdIO6
_chemical_formula_sum   'Eu2 Cd2 I2 O12'
_cell_volume   266.23536807
_cell_formula_units_Z   2
loop_
 _symmetry_equiv_pos_site_id
 _symmetry_equiv_pos_as_xyz
  1  'x, y, z'
loop_
 _atom_site_type_symbol
 _atom_site_label
 _atom_site_symmetry_multiplicity
 _atom_site_fract_x
 _atom_site_fract_y
 _atom_site_fract_z
 _atom_site_occupancy
  Eu  Eu0  1  0.000000  0.000000  0.000000  1
  Eu  Eu1  1  0.000000  0.000000  0.500000  1
  Cd  Cd2  1  0.666667  0.333333  0.250000  1
  Cd  Cd3  1  0.333333  0.666667  0.750000  1
  I  I4  1  0.333333  0.666667  0.250000  1
  I  I5  1  0.666667  0.333333  0.750000  1
  O  O6  1  0.670691  0.617979  0.640964  1
  O  O7  1  0.670691  0.052712  0.859036  1
  O  O8  1  0.947288  0.617979  0.859036  1
  O  O9  1  0.382021  0.329309  0.859036  1
  O  O10  1  0.052712  0.382021  0.359036  1
  O  O11  1  0.382021  0.052712  0.640964  1
  O  O12  1  0.329309  0.947288  0.359036  1
  O  O13  1  0.329309  0.382021  0.140964  1
  O  O14  1  0.947288  0.329309  0.640964  1
  O  O15  1  0.617979  0.947288  0.140964  1
  O  O16  1  0.052712  0.670691  0.140964  1
  O  O17  1  0.617979  0.670691  0.359036  1
