# generated using pymatgen
data_NaSr2FeCo5P6
_symmetry_space_group_name_H-M   'P 1'
_cell_length_a   8.33000477
_cell_length_b   8.32485467
_cell_length_c   6.48046956
_cell_angle_alpha   66.80020715
_cell_angle_beta   66.80207608
_cell_angle_gamma   36.72623935
_symmetry_Int_Tables_number   1
_chemical_formula_structural   NaSr2FeCo5P6
_chemical_formula_sum   'Na1 Sr2 Fe1 Co5 P6'
_cell_volume   244.49349098
_cell_formula_units_Z   1
loop_
 _symmetry_equiv_pos_site_id
 _symmetry_equiv_pos_as_xyz
  1  'x, y, z'
loop_
 _atom_site_type_symbol
 _atom_site_label
 _atom_site_symmetry_multiplicity
 _atom_site_fract_x
 _atom_site_fract_y
 _atom_site_fract_z
 _atom_site_occupancy
  Na  Na0  1  0.999861  0.000129  0.000069  1
  Sr  Sr1  1  0.661078  0.662613  0.675818  1
  Sr  Sr2  1  0.339493  0.336606  0.324051  1
  Fe  Fe3  1  0.082450  0.583685  0.832853  1
  Co  Co4  1  0.416538  0.917724  0.167044  1
  Co  Co5  1  0.751327  0.248396  0.500825  1
  Co  Co6  1  0.248954  0.752234  0.498481  1
  Co  Co7  1  0.583363  0.082639  0.832544  1
  Co  Co8  1  0.917100  0.415543  0.168223  1
  P  P9  1  0.884099  0.879147  0.533583  1
  P  P10  1  0.214575  0.219109  0.864082  1
  P  P11  1  0.550624  0.549717  0.201265  1
  P  P12  1  0.445813  0.452306  0.800715  1
  P  P13  1  0.787445  0.782379  0.131688  1
  P  P14  1  0.117277  0.117774  0.468761  1
