# generated using pymatgen
data_FeHgCl4
_symmetry_space_group_name_H-M   'P 1'
_cell_length_a   6.71875745
_cell_length_b   6.91638413
_cell_length_c   9.71771810
_cell_angle_alpha   82.52934278
_cell_angle_beta   75.30049985
_cell_angle_gamma   62.09678625
_symmetry_Int_Tables_number   1
_chemical_formula_structural   FeHgCl4
_chemical_formula_sum   'Fe2 Hg2 Cl8'
_cell_volume   385.98154174
_cell_formula_units_Z   2
loop_
 _symmetry_equiv_pos_site_id
 _symmetry_equiv_pos_as_xyz
  1  'x, y, z'
loop_
 _atom_site_type_symbol
 _atom_site_label
 _atom_site_symmetry_multiplicity
 _atom_site_fract_x
 _atom_site_fract_y
 _atom_site_fract_z
 _atom_site_occupancy
  Fe  Fe0  1  0.386034  0.849636  0.758134  1
  Fe  Fe1  1  0.613966  0.150364  0.241866  1
  Hg  Hg2  1  0.933815  0.517432  0.881522  1
  Hg  Hg3  1  0.066185  0.482568  0.118478  1
  Cl  Cl4  1  0.745395  0.562326  0.679230  1
  Cl  Cl5  1  0.254605  0.437674  0.320770  1
  Cl  Cl6  1  0.327592  0.824094  0.990794  1
  Cl  Cl7  1  0.672408  0.175906  0.009206  1
  Cl  Cl8  1  0.135000  0.805608  0.677198  1
  Cl  Cl9  1  0.865000  0.194392  0.322802  1
  Cl  Cl10  1  0.387170  0.162702  0.689018  1
  Cl  Cl11  1  0.612830  0.837298  0.310982  1
