# generated using pymatgen
data_TiCu2Ir(RhS4)2
_symmetry_space_group_name_H-M   'P 1'
_cell_length_a   7.20234325
_cell_length_b   6.78815732
_cell_length_c   7.21552712
_cell_angle_alpha   57.95640777
_cell_angle_beta   60.06042517
_cell_angle_gamma   57.96021510
_symmetry_Int_Tables_number   1
_chemical_formula_structural   TiCu2Ir(RhS4)2
_chemical_formula_sum   'Ti1 Cu2 Ir1 Rh2 S8'
_cell_volume   241.57262181
_cell_formula_units_Z   1
loop_
 _symmetry_equiv_pos_site_id
 _symmetry_equiv_pos_as_xyz
  1  'x, y, z'
loop_
 _atom_site_type_symbol
 _atom_site_label
 _atom_site_symmetry_multiplicity
 _atom_site_fract_x
 _atom_site_fract_y
 _atom_site_fract_z
 _atom_site_occupancy
  Ti  Ti0  1  0.625000  0.125000  0.625000  1
  Cu  Cu1  1  0.007172  0.977064  0.008593  1
  Cu  Cu2  1  0.242828  0.272936  0.241407  1
  Ir  Ir3  1  0.625000  0.625000  0.125000  1
  Rh  Rh4  1  0.625000  0.625000  0.625000  1
  Rh  Rh5  1  0.125000  0.625000  0.625000  1
  S  S6  1  0.379402  0.386690  0.854508  1
  S  S7  1  0.378899  0.388705  0.378013  1
  S  S8  1  0.871101  0.861295  0.871987  1
  S  S9  1  0.870598  0.863310  0.395492  1
  S  S10  1  0.384805  0.846784  0.383608  1
  S  S11  1  0.854385  0.388705  0.378013  1
  S  S12  1  0.395615  0.861295  0.871987  1
  S  S13  1  0.865195  0.403216  0.866392  1
