# generated using pymatgen
data_YbDy13Ho2(InIr)4
_symmetry_space_group_name_H-M   'P 1'
_cell_length_a   9.67908207
_cell_length_b   9.67909636
_cell_length_c   9.67770104
_cell_angle_alpha   60.00956898
_cell_angle_beta   60.01484301
_cell_angle_gamma   59.98967086
_symmetry_Int_Tables_number   1
_chemical_formula_structural   YbDy13Ho2(InIr)4
_chemical_formula_sum   'Yb1 Dy13 Ho2 In4 Ir4'
_cell_volume   641.16877129
_cell_formula_units_Z   1
loop_
 _symmetry_equiv_pos_site_id
 _symmetry_equiv_pos_as_xyz
  1  'x, y, z'
loop_
 _atom_site_type_symbol
 _atom_site_label
 _atom_site_symmetry_multiplicity
 _atom_site_fract_x
 _atom_site_fract_y
 _atom_site_fract_z
 _atom_site_occupancy
  Yb  Yb0  1  0.439687  0.439637  0.060384  1
  Dy  Dy1  1  0.651674  0.651699  0.046440  1
  Dy  Dy2  1  0.190698  0.810117  0.191348  1
  Dy  Dy3  1  0.059578  0.439262  0.060558  1
  Dy  Dy4  1  0.190753  0.810171  0.807767  1
  Dy  Dy5  1  0.059712  0.439168  0.440594  1
  Dy  Dy6  1  0.810039  0.190683  0.191381  1
  Dy  Dy7  1  0.651655  0.651760  0.650161  1
  Dy  Dy8  1  0.810117  0.190702  0.807851  1
  Dy  Dy9  1  0.190358  0.190295  0.809603  1
  Dy  Dy10  1  0.047198  0.650153  0.651305  1
  Dy  Dy11  1  0.439264  0.059583  0.060673  1
  Dy  Dy12  1  0.061361  0.061231  0.438759  1
  Dy  Dy13  1  0.650104  0.047201  0.651286  1
  Ho  Ho14  1  0.809285  0.809432  0.190668  1
  Ho  Ho15  1  0.439313  0.059465  0.440733  1
  In  In16  1  0.416238  0.416143  0.419490  1
  In  In17  1  0.416260  0.416288  0.747940  1
  In  In18  1  0.417436  0.748261  0.417206  1
  In  In19  1  0.748120  0.417440  0.417209  1
  Ir  Ir20  1  0.423731  0.860370  0.857865  1
  Ir  Ir21  1  0.858603  0.858609  0.859128  1
  Ir  Ir22  1  0.860322  0.423689  0.857983  1
  Ir  Ir23  1  0.858492  0.858644  0.423673  1
