# generated using pymatgen
data_Zr3(Ti2Ir)2
_symmetry_space_group_name_H-M   'P 1'
_cell_length_a   5.24924253
_cell_length_b   5.37926481
_cell_length_c   13.27226341
_cell_angle_alpha   92.28016944
_cell_angle_beta   86.67246244
_cell_angle_gamma   118.61710511
_symmetry_Int_Tables_number   1
_chemical_formula_structural   Zr3(Ti2Ir)2
_chemical_formula_sum   'Zr6 Ti8 Ir4'
_cell_volume   328.40252753
_cell_formula_units_Z   2
loop_
 _symmetry_equiv_pos_site_id
 _symmetry_equiv_pos_as_xyz
  1  'x, y, z'
loop_
 _atom_site_type_symbol
 _atom_site_label
 _atom_site_symmetry_multiplicity
 _atom_site_fract_x
 _atom_site_fract_y
 _atom_site_fract_z
 _atom_site_occupancy
  Zr  Zr0  1  0.331193  0.654409  0.923142  1
  Zr  Zr1  1  0.009256  0.014229  0.244269  1
  Zr  Zr2  1  0.666234  0.337007  0.583154  1
  Zr  Zr3  1  0.333766  0.662993  0.666846  1
  Zr  Zr4  1  0.990744  0.985771  0.005730  1
  Zr  Zr5  1  0.668807  0.345591  0.326858  1
  Ti  Ti6  1  0.161536  0.341403  0.455868  1
  Ti  Ti7  1  0.838464  0.658597  0.794132  1
  Ti  Ti8  1  0.342656  0.687458  0.286397  1
  Ti  Ti9  1  0.000000  0.000000  0.625000  1
  Ti  Ti10  1  0.657344  0.312542  0.963603  1
  Ti  Ti11  1  0.000000  0.500000  0.125000  1
  Ti  Ti12  1  0.662951  0.841507  0.456414  1
  Ti  Ti13  1  0.337049  0.158493  0.793586  1
  Ir  Ir14  1  0.500000  0.500000  0.125000  1
  Ir  Ir15  1  0.164579  0.839744  0.454993  1
  Ir  Ir16  1  0.835421  0.160256  0.795007  1
  Ir  Ir17  1  0.500000  0.000000  0.125000  1
