# generated using pymatgen
data_Dy20AgRh11
_symmetry_space_group_name_H-M   'P 1'
_cell_length_a   10.99933798
_cell_length_b   10.99933711
_cell_length_c   6.34269862
_cell_angle_alpha   90.03018940
_cell_angle_beta   90.03019180
_cell_angle_gamma   89.51323896
_symmetry_Int_Tables_number   1
_chemical_formula_structural   Dy20AgRh11
_chemical_formula_sum   'Dy20 Ag1 Rh11'
_cell_volume   767.34619347
_cell_formula_units_Z   1
loop_
 _symmetry_equiv_pos_site_id
 _symmetry_equiv_pos_as_xyz
  1  'x, y, z'
loop_
 _atom_site_type_symbol
 _atom_site_label
 _atom_site_symmetry_multiplicity
 _atom_site_fract_x
 _atom_site_fract_y
 _atom_site_fract_z
 _atom_site_occupancy
  Dy  Dy0  1  0.291656  0.091406  0.380314  1
  Dy  Dy1  1  0.289307  0.921315  0.879210  1
  Dy  Dy2  1  0.708990  0.090639  0.879477  1
  Dy  Dy3  1  0.709404  0.910714  0.380655  1
  Dy  Dy4  1  0.596589  0.794736  0.881588  1
  Dy  Dy5  1  0.590064  0.206978  0.377356  1
  Dy  Dy6  1  0.415153  0.796552  0.362445  1
  Dy  Dy7  1  0.410507  0.210470  0.877405  1
  Dy  Dy8  1  0.205264  0.403411  0.618412  1
  Dy  Dy9  1  0.203448  0.584847  0.137555  1
  Dy  Dy10  1  0.793022  0.409936  0.122644  1
  Dy  Dy11  1  0.789530  0.589493  0.622595  1
  Dy  Dy12  1  0.908594  0.708344  0.119686  1
  Dy  Dy13  1  0.909361  0.291010  0.620523  1
  Dy  Dy14  1  0.078685  0.710693  0.620790  1
  Dy  Dy15  1  0.089286  0.290596  0.119345  1
  Dy  Dy16  1  0.000620  0.001306  0.498588  1
  Dy  Dy17  1  0.998694  0.999380  0.001412  1
  Dy  Dy18  1  0.505569  0.495862  0.001524  1
  Dy  Dy19  1  0.504138  0.494431  0.498476  1
  Ag  Ag20  1  0.343029  0.656971  0.750000  1
  Rh  Rh21  1  0.845665  0.154335  0.250000  1
  Rh  Rh22  1  0.847116  0.845830  0.748471  1
  Rh  Rh23  1  0.154170  0.152884  0.751529  1
  Rh  Rh24  1  0.156488  0.843512  0.250000  1
  Rh  Rh25  1  0.656786  0.343214  0.750000  1
  Rh  Rh26  1  0.652873  0.653744  0.249079  1
  Rh  Rh27  1  0.346256  0.347127  0.250921  1
  Rh  Rh28  1  0.499177  0.000471  0.122848  1
  Rh  Rh29  1  0.499858  0.998824  0.627211  1
  Rh  Rh30  1  0.001176  0.500142  0.872789  1
  Rh  Rh31  1  0.999529  0.500823  0.377152  1
