# generated using pymatgen
data_Ho5(Tl2Au)2
_symmetry_space_group_name_H-M   'P 1'
_cell_length_a   3.65433800
_cell_length_b   8.19409700
_cell_length_c   18.39371100
_cell_angle_alpha   90.00000000
_cell_angle_beta   90.00000000
_cell_angle_gamma   90.00000000
_symmetry_Int_Tables_number   1
_chemical_formula_structural   Ho5(Tl2Au)2
_chemical_formula_sum   'Ho10 Tl8 Au4'
_cell_volume   550.78128297
_cell_formula_units_Z   2
loop_
 _symmetry_equiv_pos_site_id
 _symmetry_equiv_pos_as_xyz
  1  'x, y, z'
loop_
 _atom_site_type_symbol
 _atom_site_label
 _atom_site_symmetry_multiplicity
 _atom_site_fract_x
 _atom_site_fract_y
 _atom_site_fract_z
 _atom_site_occupancy
  Ho  Ho0  1  0.000000  0.500000  0.500000  1
  Ho  Ho1  1  0.000000  0.000000  0.000000  1
  Ho  Ho2  1  0.000000  0.737460  0.282323  1
  Ho  Ho3  1  0.000000  0.262540  0.717677  1
  Ho  Ho4  1  0.000000  0.762540  0.782323  1
  Ho  Ho5  1  0.000000  0.237460  0.217677  1
  Ho  Ho6  1  0.000000  0.618024  0.080198  1
  Ho  Ho7  1  0.000000  0.381976  0.919802  1
  Ho  Ho8  1  0.000000  0.881976  0.580198  1
  Ho  Ho9  1  0.000000  0.118024  0.419802  1
  Tl  Tl10  1  0.500000  0.711523  0.934859  1
  Tl  Tl11  1  0.500000  0.288477  0.065141  1
  Tl  Tl12  1  0.500000  0.788477  0.434859  1
  Tl  Tl13  1  0.500000  0.211523  0.565141  1
  Tl  Tl14  1  0.500000  0.582922  0.645272  1
  Tl  Tl15  1  0.500000  0.417078  0.354728  1
  Tl  Tl16  1  0.500000  0.917078  0.145272  1
  Tl  Tl17  1  0.500000  0.082922  0.854728  1
  Au  Au18  1  0.500000  0.527431  0.196540  1
  Au  Au19  1  0.500000  0.472569  0.803460  1
  Au  Au20  1  0.500000  0.972569  0.696540  1
  Au  Au21  1  0.500000  0.027431  0.303460  1
