# generated using pymatgen
data_Ca13La7Si15P
_symmetry_space_group_name_H-M   'P 1'
_cell_length_a   7.93730341
_cell_length_b   7.93342424
_cell_length_c   15.33255100
_cell_angle_alpha   90.08665048
_cell_angle_beta   89.96582741
_cell_angle_gamma   90.12925468
_symmetry_Int_Tables_number   1
_chemical_formula_structural   Ca13La7Si15P
_chemical_formula_sum   'Ca13 La7 Si15 P1'
_cell_volume   965.48693400
_cell_formula_units_Z   1
loop_
 _symmetry_equiv_pos_site_id
 _symmetry_equiv_pos_as_xyz
  1  'x, y, z'
loop_
 _atom_site_type_symbol
 _atom_site_label
 _atom_site_symmetry_multiplicity
 _atom_site_fract_x
 _atom_site_fract_y
 _atom_site_fract_z
 _atom_site_occupancy
  Ca  Ca0  1  0.370073  0.488129  0.374663  1
  Ca  Ca1  1  0.871900  0.011674  0.375118  1
  Ca  Ca2  1  0.987589  0.129000  0.123909  1
  Ca  Ca3  1  0.012234  0.871995  0.624321  1
  Ca  Ca4  1  0.630508  0.513066  0.876230  1
  Ca  Ca5  1  0.486997  0.369384  0.625292  1
  Ca  Ca6  1  0.515257  0.628554  0.124618  1
  Ca  Ca7  1  0.127859  0.986776  0.876964  1
  Ca  Ca8  1  0.989540  0.617806  0.053009  1
  Ca  Ca9  1  0.688176  0.687690  0.499286  1
  Ca  Ca10  1  0.811013  0.188800  0.750782  1
  Ca  Ca11  1  0.186576  0.808595  0.247082  1
  Ca  Ca12  1  0.309088  0.315121  0.000808  1
  La  La13  1  0.010212  0.380554  0.552907  1
  La  La14  1  0.619736  0.990808  0.948525  1
  La  La15  1  0.117926  0.511618  0.805225  1
  La  La16  1  0.879161  0.488175  0.298002  1
  La  La17  1  0.510353  0.119751  0.196669  1
  La  La18  1  0.488111  0.881906  0.698650  1
  La  La19  1  0.381432  0.009116  0.445823  1
  Si  Si20  1  0.916057  0.288869  0.940826  1
  Si  Si21  1  0.710764  0.081572  0.557394  1
  Si  Si22  1  0.213281  0.417386  0.195201  1
  Si  Si23  1  0.791206  0.582678  0.689583  1
  Si  Si24  1  0.417603  0.210107  0.808067  1
  Si  Si25  1  0.582487  0.791249  0.309752  1
  Si  Si26  1  0.296341  0.921186  0.058760  1
  Si  Si27  1  0.827793  0.801126  0.799778  1
  Si  Si28  1  0.169344  0.199708  0.304770  1
  Si  Si29  1  0.801677  0.830584  0.200258  1
  Si  Si30  1  0.297440  0.669672  0.550053  1
  Si  Si31  1  0.699628  0.325718  0.052805  1
  Si  Si32  1  0.670524  0.300808  0.447291  1
  Si  Si33  1  0.330921  0.702226  0.947473  1
  Si  Si34  1  0.199233  0.171029  0.698032  1
  P  P35  1  0.081959  0.707562  0.442074  1
