# generated using pymatgen
data_Ti6AlRe3Os2
_symmetry_space_group_name_H-M   'P 1'
_cell_length_a   4.39392000
_cell_length_b   6.27001500
_cell_length_c   13.21450700
_cell_angle_alpha   90.00000000
_cell_angle_beta   90.00023009
_cell_angle_gamma   90.00000000
_symmetry_Int_Tables_number   1
_chemical_formula_structural   Ti6AlRe3Os2
_chemical_formula_sum   'Ti12 Al2 Re6 Os4'
_cell_volume   364.05893192
_cell_formula_units_Z   2
loop_
 _symmetry_equiv_pos_site_id
 _symmetry_equiv_pos_as_xyz
  1  'x, y, z'
loop_
 _atom_site_type_symbol
 _atom_site_label
 _atom_site_symmetry_multiplicity
 _atom_site_fract_x
 _atom_site_fract_y
 _atom_site_fract_z
 _atom_site_occupancy
  Ti  Ti0  1  0.499991  0.243664  0.995677  1
  Ti  Ti1  1  0.499991  0.756335  0.995677  1
  Ti  Ti2  1  0.000025  0.256336  0.170979  1
  Ti  Ti3  1  0.000025  0.743663  0.170979  1
  Ti  Ti4  1  0.499962  0.254349  0.337564  1
  Ti  Ti5  1  0.499962  0.745652  0.337564  1
  Ti  Ti6  1  0.999992  0.249402  0.500738  1
  Ti  Ti7  1  0.999992  0.750597  0.500738  1
  Ti  Ti8  1  0.500003  0.250588  0.665934  1
  Ti  Ti9  1  0.500003  0.749413  0.665934  1
  Ti  Ti10  1  0.000018  0.245648  0.829105  1
  Ti  Ti11  1  0.000018  0.754351  0.829105  1
  Al  Al12  1  0.999993  0.500001  0.998935  1
  Al  Al13  1  0.500068  0.000000  0.167748  1
  Re  Re14  1  0.999985  0.000000  0.003820  1
  Re  Re15  1  0.499992  0.500001  0.162837  1
  Re  Re16  1  0.999949  0.000000  0.329112  1
  Re  Re17  1  0.499990  0.500001  0.500971  1
  Re  Re18  1  0.000024  0.000000  0.665694  1
  Re  Re19  1  0.500043  0.500001  0.837558  1
  Os  Os20  1  0.999968  0.500001  0.334076  1
  Os  Os21  1  0.499987  0.000000  0.499421  1
  Os  Os22  1  0.000020  0.500001  0.667242  1
  Os  Os23  1  0.499997  0.000000  0.832598  1
