# generated using pymatgen
data_DyEr2Hf(Al8Pt3)3
_symmetry_space_group_name_H-M   'P 1'
_cell_length_a   7.52156417
_cell_length_b   7.52746616
_cell_length_c   13.09495987
_cell_angle_alpha   84.54669316
_cell_angle_beta   79.02852800
_cell_angle_gamma   59.89275009
_symmetry_Int_Tables_number   1
_chemical_formula_structural   DyEr2Hf(Al8Pt3)3
_chemical_formula_sum   'Dy1 Er2 Hf1 Al24 Pt9'
_cell_volume   629.66551656
_cell_formula_units_Z   1
loop_
 _symmetry_equiv_pos_site_id
 _symmetry_equiv_pos_as_xyz
  1  'x, y, z'
loop_
 _atom_site_type_symbol
 _atom_site_label
 _atom_site_symmetry_multiplicity
 _atom_site_fract_x
 _atom_site_fract_y
 _atom_site_fract_z
 _atom_site_occupancy
  Dy  Dy0  1  0.266775  0.501166  0.191741  1
  Er  Er1  1  0.606375  0.832041  0.192098  1
  Er  Er2  1  0.734089  0.498719  0.807291  1
  Hf  Hf3  1  0.393787  0.168190  0.807409  1
  Al  Al4  1  0.681518  0.836631  0.941259  1
  Al  Al5  1  0.316747  0.166065  0.053599  1
  Al  Al6  1  0.146442  0.832811  0.562654  1
  Al  Al7  1  0.853033  0.167199  0.438406  1
  Al  Al8  1  0.480071  0.166733  0.560568  1
  Al  Al9  1  0.519296  0.833821  0.441381  1
  Al  Al10  1  0.217288  0.165198  0.330071  1
  Al  Al11  1  0.779825  0.836373  0.673488  1
  Al  Al12  1  0.436071  0.504881  0.673847  1
  Al  Al13  1  0.562404  0.493826  0.329381  1
  Al  Al14  1  0.110527  0.159820  0.672781  1
  Al  Al15  1  0.890003  0.839789  0.330621  1
  Al  Al16  1  0.354613  0.495823  0.941025  1
  Al  Al17  1  0.647872  0.500350  0.055295  1
  Al  Al18  1  0.019191  0.168374  0.949412  1
  Al  Al19  1  0.984430  0.832773  0.046433  1
  Al  Al20  1  0.186697  0.499164  0.441470  1
  Al  Al21  1  0.813647  0.500399  0.559284  1
  Al  Al22  1  0.734203  0.163560  0.183557  1
  Al  Al23  1  0.265888  0.841610  0.816467  1
  Al  Al24  1  0.066253  0.626227  0.815165  1
  Al  Al25  1  0.938974  0.368643  0.184448  1
  Al  Al26  1  0.850097  0.041764  0.815745  1
  Al  Al27  1  0.145031  0.958655  0.183810  1
  Pt  Pt28  1  0.120259  0.489855  0.639997  1
  Pt  Pt29  1  0.878797  0.508785  0.361508  1
  Pt  Pt30  1  0.657440  0.171909  0.998722  1
  Pt  Pt31  1  0.343995  0.827468  0.999062  1
  Pt  Pt32  1  0.537319  0.166415  0.361717  1
  Pt  Pt33  1  0.463557  0.833204  0.639926  1
  Pt  Pt34  1  0.777176  0.176717  0.638447  1
  Pt  Pt35  1  0.220811  0.824687  0.363226  1
  Pt  Pt36  1  0.999500  0.500356  0.998691  1
