# generated using pymatgen
data_Tb11Dy(In2Ru)4
_symmetry_space_group_name_H-M   'P 1'
_cell_length_a   3.78601700
_cell_length_b   13.01589397
_cell_length_c   13.01589345
_cell_angle_alpha   112.27968304
_cell_angle_beta   90.00000000
_cell_angle_gamma   90.00000000
_symmetry_Int_Tables_number   1
_chemical_formula_structural   Tb11Dy(In2Ru)4
_chemical_formula_sum   'Tb11 Dy1 In8 Ru4'
_cell_volume   593.51795310
_cell_formula_units_Z   1
loop_
 _symmetry_equiv_pos_site_id
 _symmetry_equiv_pos_as_xyz
  1  'x, y, z'
loop_
 _atom_site_type_symbol
 _atom_site_label
 _atom_site_symmetry_multiplicity
 _atom_site_fract_x
 _atom_site_fract_y
 _atom_site_fract_z
 _atom_site_occupancy
  Tb  Tb0  1  0.000000  0.914490  0.578047  1
  Tb  Tb1  1  0.000000  0.085510  0.421953  1
  Tb  Tb2  1  0.000000  0.578047  0.914490  1
  Tb  Tb3  1  0.000000  0.421953  0.085510  1
  Tb  Tb4  1  0.000000  0.161465  0.838535  1
  Tb  Tb5  1  0.000000  0.838535  0.161465  1
  Tb  Tb6  1  0.000000  0.358721  0.641279  1
  Tb  Tb7  1  0.000000  0.641279  0.358721  1
  Tb  Tb8  1  0.000000  0.706878  0.706878  1
  Tb  Tb9  1  0.000000  0.293122  0.293122  1
  Tb  Tb10  1  0.000000  0.000000  0.000000  1
  Dy  Dy11  1  0.500000  0.500000  0.500000  1
  In  In12  1  0.500000  0.147815  0.633399  1
  In  In13  1  0.500000  0.852185  0.366601  1
  In  In14  1  0.500000  0.633399  0.147815  1
  In  In15  1  0.500000  0.366601  0.852185  1
  In  In16  1  0.500000  0.933866  0.783361  1
  In  In17  1  0.500000  0.066134  0.216639  1
  In  In18  1  0.500000  0.783361  0.933866  1
  In  In19  1  0.500000  0.216639  0.066134  1
  Ru  Ru20  1  0.500000  0.737612  0.547418  1
  Ru  Ru21  1  0.500000  0.262388  0.452582  1
  Ru  Ru22  1  0.500000  0.547418  0.737612  1
  Ru  Ru23  1  0.500000  0.452582  0.262388  1
