# generated using pymatgen
data_Y4Al16Si2Ir5Ru
_symmetry_space_group_name_H-M   'P 1'
_cell_length_a   7.53857552
_cell_length_b   7.53857585
_cell_length_c   9.38715466
_cell_angle_alpha   89.94902115
_cell_angle_beta   89.94901434
_cell_angle_gamma   119.52027204
_symmetry_Int_Tables_number   1
_chemical_formula_structural   Y4Al16Si2Ir5Ru
_chemical_formula_sum   'Y4 Al16 Si2 Ir5 Ru1'
_cell_volume   464.21770292
_cell_formula_units_Z   1
loop_
 _symmetry_equiv_pos_site_id
 _symmetry_equiv_pos_as_xyz
  1  'x, y, z'
loop_
 _atom_site_type_symbol
 _atom_site_label
 _atom_site_symmetry_multiplicity
 _atom_site_fract_x
 _atom_site_fract_y
 _atom_site_fract_z
 _atom_site_occupancy
  Y  Y0  1  0.995337  0.675924  0.249839  1
  Y  Y1  1  0.004663  0.324076  0.750161  1
  Y  Y2  1  0.675924  0.995337  0.249839  1
  Y  Y3  1  0.324076  0.004663  0.750161  1
  Al  Al4  1  0.001845  0.335012  0.075751  1
  Al  Al5  1  0.998155  0.664988  0.924249  1
  Al  Al6  1  0.998098  0.663274  0.576431  1
  Al  Al7  1  0.336726  0.001902  0.423569  1
  Al  Al8  1  0.001902  0.336726  0.423569  1
  Al  Al9  1  0.663274  0.998098  0.576431  1
  Al  Al10  1  0.664988  0.998155  0.924249  1
  Al  Al11  1  0.335012  0.001845  0.075751  1
  Al  Al12  1  0.335205  0.335205  0.554969  1
  Al  Al13  1  0.664795  0.664795  0.445031  1
  Al  Al14  1  0.665983  0.665983  0.054341  1
  Al  Al15  1  0.334017  0.334017  0.945659  1
  Al  Al16  1  0.335747  0.548359  0.250029  1
  Al  Al17  1  0.664253  0.451641  0.749971  1
  Al  Al18  1  0.548359  0.335747  0.250029  1
  Al  Al19  1  0.451641  0.664253  0.749971  1
  Si  Si20  1  0.127725  0.127725  0.247991  1
  Si  Si21  1  0.872275  0.872275  0.752009  1
  Ir  Ir22  1  0.671748  0.328252  0.000000  1
  Ir  Ir23  1  0.328252  0.671748  0.000000  1
  Ir  Ir24  1  0.328566  0.671434  0.500000  1
  Ir  Ir25  1  0.671434  0.328566  0.500000  1
  Ir  Ir26  1  0.000000  0.000000  0.500000  1
  Ru  Ru27  1  0.000000  0.000000  0.000000  1
