# generated using pymatgen
data_Nd8Er2(IrRh)3
_symmetry_space_group_name_H-M   'P 1'
_cell_length_a   11.15841893
_cell_length_b   11.15753100
_cell_length_c   6.55051700
_cell_angle_alpha   90.00000000
_cell_angle_beta   90.02339909
_cell_angle_gamma   90.00000000
_symmetry_Int_Tables_number   1
_chemical_formula_structural   Nd8Er2(IrRh)3
_chemical_formula_sum   'Nd16 Er4 Ir6 Rh6'
_cell_volume   815.54195229
_cell_formula_units_Z   2
loop_
 _symmetry_equiv_pos_site_id
 _symmetry_equiv_pos_as_xyz
  1  'x, y, z'
loop_
 _atom_site_type_symbol
 _atom_site_label
 _atom_site_symmetry_multiplicity
 _atom_site_fract_x
 _atom_site_fract_y
 _atom_site_fract_z
 _atom_site_occupancy
  Nd  Nd0  1  0.288421  0.088352  0.381834  1
  Nd  Nd1  1  0.288421  0.911648  0.881834  1
  Nd  Nd2  1  0.710176  0.089313  0.881591  1
  Nd  Nd3  1  0.710176  0.910687  0.381591  1
  Nd  Nd4  1  0.586957  0.787598  0.882644  1
  Nd  Nd5  1  0.586957  0.212402  0.382644  1
  Nd  Nd6  1  0.411521  0.788064  0.382406  1
  Nd  Nd7  1  0.411521  0.211936  0.882406  1
  Nd  Nd8  1  0.212264  0.411640  0.617371  1
  Nd  Nd9  1  0.212264  0.588360  0.117371  1
  Nd  Nd10  1  0.787647  0.413122  0.117404  1
  Nd  Nd11  1  0.787647  0.586878  0.617404  1
  Nd  Nd12  1  0.912141  0.711070  0.119045  1
  Nd  Nd13  1  0.912141  0.288930  0.619045  1
  Nd  Nd14  1  0.089686  0.710960  0.617762  1
  Nd  Nd15  1  0.089686  0.289040  0.117762  1
  Er  Er16  1  0.000691  0.999766  0.499998  1
  Er  Er17  1  0.000691  0.000234  0.999998  1
  Er  Er18  1  0.500040  0.499837  0.999984  1
  Er  Er19  1  0.500040  0.500163  0.499984  1
  Ir  Ir20  1  0.147952  0.148557  0.749847  1
  Ir  Ir21  1  0.147952  0.851443  0.249847  1
  Ir  Ir22  1  0.649480  0.350753  0.749900  1
  Ir  Ir23  1  0.649480  0.649247  0.249900  1
  Ir  Ir24  1  0.351152  0.350910  0.250076  1
  Ir  Ir25  1  0.351152  0.649090  0.750076  1
  Rh  Rh26  1  0.851223  0.148197  0.250048  1
  Rh  Rh27  1  0.851223  0.851803  0.750048  1
  Rh  Rh28  1  0.501224  0.000124  0.119036  1
  Rh  Rh29  1  0.501224  0.999876  0.619036  1
  Rh  Rh30  1  0.999424  0.500334  0.881052  1
  Rh  Rh31  1  0.999424  0.499666  0.381052  1
