# generated using pymatgen
data_Pr8Nd8Cd4IrRu3
_symmetry_space_group_name_H-M   'P 1'
_cell_length_a   9.96486286
_cell_length_b   9.97428511
_cell_length_c   10.00048500
_cell_angle_alpha   59.91307322
_cell_angle_beta   59.88168011
_cell_angle_gamma   59.80661064
_symmetry_Int_Tables_number   1
_chemical_formula_structural   Pr8Nd8Cd4IrRu3
_chemical_formula_sum   'Pr8 Nd8 Cd4 Ir1 Ru3'
_cell_volume   700.72386902
_cell_formula_units_Z   1
loop_
 _symmetry_equiv_pos_site_id
 _symmetry_equiv_pos_as_xyz
  1  'x, y, z'
loop_
 _atom_site_type_symbol
 _atom_site_label
 _atom_site_symmetry_multiplicity
 _atom_site_fract_x
 _atom_site_fract_y
 _atom_site_fract_z
 _atom_site_occupancy
  Pr  Pr0  1  0.191023  0.189870  0.809553  1
  Pr  Pr1  1  0.811947  0.808183  0.189936  1
  Pr  Pr2  1  0.939524  0.560911  0.560447  1
  Pr  Pr3  1  0.559978  0.939495  0.939383  1
  Pr  Pr4  1  0.559978  0.939495  0.561144  1
  Pr  Pr5  1  0.939524  0.560911  0.939119  1
  Pr  Pr6  1  0.560283  0.561959  0.938879  1
  Pr  Pr7  1  0.939941  0.940172  0.559944  1
  Nd  Nd8  1  0.344869  0.347014  0.347255  1
  Nd  Nd9  1  0.344869  0.347014  0.960860  1
  Nd  Nd10  1  0.343885  0.960837  0.347638  1
  Nd  Nd11  1  0.962134  0.344619  0.346623  1
  Nd  Nd12  1  0.811030  0.190754  0.190154  1
  Nd  Nd13  1  0.190900  0.809589  0.809923  1
  Nd  Nd14  1  0.190900  0.809589  0.189588  1
  Nd  Nd15  1  0.811030  0.190754  0.808063  1
  Cd  Cd16  1  0.579226  0.579172  0.579722  1
  Cd  Cd17  1  0.579226  0.579172  0.261878  1
  Cd  Cd18  1  0.579660  0.261432  0.579453  1
  Cd  Cd19  1  0.261652  0.579569  0.579390  1
  Ir  Ir20  1  0.578447  0.141022  0.140266  1
  Ru  Ru21  1  0.139774  0.137599  0.138480  1
  Ru  Ru22  1  0.139774  0.137599  0.584147  1
  Ru  Ru23  1  0.140422  0.583270  0.138154  1
