# generated using pymatgen
data_Dy5Hf2Si11PIr17
_symmetry_space_group_name_H-M   'P 1'
_cell_length_a   12.95883300
_cell_length_b   12.97504069
_cell_length_c   3.99623600
_cell_angle_alpha   90.00000000
_cell_angle_beta   90.00000000
_cell_angle_gamma   119.95868471
_symmetry_Int_Tables_number   1
_chemical_formula_structural   Dy5Hf2Si11PIr17
_chemical_formula_sum   'Dy5 Hf2 Si11 P1 Ir17'
_cell_volume   582.15286098
_cell_formula_units_Z   1
loop_
 _symmetry_equiv_pos_site_id
 _symmetry_equiv_pos_as_xyz
  1  'x, y, z'
loop_
 _atom_site_type_symbol
 _atom_site_label
 _atom_site_symmetry_multiplicity
 _atom_site_fract_x
 _atom_site_fract_y
 _atom_site_fract_z
 _atom_site_occupancy
  Dy  Dy0  1  0.330926  0.665741  0.500000  1
  Dy  Dy1  1  0.665186  0.334259  0.500000  1
  Dy  Dy2  1  0.003735  0.816277  0.000000  1
  Dy  Dy3  1  0.187458  0.183723  0.000000  1
  Dy  Dy4  1  0.815889  0.000000  0.000000  1
  Hf  Hf5  1  0.998422  0.439096  0.500000  1
  Hf  Hf6  1  0.559326  0.560904  0.500000  1
  Si  Si7  1  0.003789  0.645413  0.500000  1
  Si  Si8  1  0.358377  0.354587  0.500000  1
  Si  Si9  1  0.626373  0.000000  0.500000  1
  Si  Si10  1  0.517435  0.693316  0.000000  1
  Si  Si11  1  0.311761  0.832110  0.000000  1
  Si  Si12  1  0.175514  0.479067  0.000000  1
  Si  Si13  1  0.479650  0.167890  0.000000  1
  Si  Si14  1  0.696447  0.520933  0.000000  1
  Si  Si15  1  0.824119  0.306684  0.000000  1
  Si  Si16  1  0.997574  0.178624  0.500000  1
  Si  Si17  1  0.818949  0.821376  0.500000  1
  P  P18  1  0.180497  0.000000  0.500000  1
  Ir  Ir19  1  0.511243  0.876147  0.000000  1
  Ir  Ir20  1  0.131664  0.638858  0.000000  1
  Ir  Ir21  1  0.366779  0.487650  0.000000  1
  Ir  Ir22  1  0.492807  0.361142  0.000000  1
  Ir  Ir23  1  0.879130  0.512350  0.000000  1
  Ir  Ir24  1  0.635098  0.123853  0.000000  1
  Ir  Ir25  1  0.443435  0.000000  0.500000  1
  Ir  Ir26  1  0.996930  0.276308  0.000000  1
  Ir  Ir27  1  0.720622  0.723692  0.000000  1
  Ir  Ir28  1  0.279931  0.000000  0.000000  1
  Ir  Ir29  1  0.622470  0.809103  0.500000  1
  Ir  Ir30  1  0.194373  0.824258  0.500000  1
  Ir  Ir31  1  0.179795  0.370807  0.500000  1
  Ir  Ir32  1  0.370115  0.175742  0.500000  1
  Ir  Ir33  1  0.808988  0.629193  0.500000  1
  Ir  Ir34  1  0.813368  0.190897  0.500000  1
  Ir  Ir35  1  0.001826  0.000000  0.500000  1
