# generated using pymatgen
data_Sc12CoSi12IrRu2
_symmetry_space_group_name_H-M   'P 1'
_cell_length_a   4.01781900
_cell_length_b   10.20890116
_cell_length_c   11.68227537
_cell_angle_alpha   89.80055782
_cell_angle_beta   90.00000000
_cell_angle_gamma   90.00000000
_symmetry_Int_Tables_number   1
_chemical_formula_structural   Sc12CoSi12IrRu2
_chemical_formula_sum   'Sc12 Co1 Si12 Ir1 Ru2'
_cell_volume   479.17502602
_cell_formula_units_Z   1
loop_
 _symmetry_equiv_pos_site_id
 _symmetry_equiv_pos_as_xyz
  1  'x, y, z'
loop_
 _atom_site_type_symbol
 _atom_site_label
 _atom_site_symmetry_multiplicity
 _atom_site_fract_x
 _atom_site_fract_y
 _atom_site_fract_z
 _atom_site_occupancy
  Sc  Sc0  1  0.250000  0.878418  0.018035  1
  Sc  Sc1  1  0.250000  0.619525  0.521373  1
  Sc  Sc2  1  0.750000  0.124247  0.978865  1
  Sc  Sc3  1  0.750000  0.377317  0.478815  1
  Sc  Sc4  1  0.250000  0.920481  0.605082  1
  Sc  Sc5  1  0.250000  0.579128  0.103026  1
  Sc  Sc6  1  0.750000  0.079010  0.397967  1
  Sc  Sc7  1  0.750000  0.421972  0.899685  1
  Sc  Sc8  1  0.250000  0.652430  0.798234  1
  Sc  Sc9  1  0.250000  0.839860  0.299052  1
  Sc  Sc10  1  0.750000  0.339378  0.201599  1
  Sc  Sc11  1  0.750000  0.165102  0.701226  1
  Co  Co12  1  0.250000  0.389400  0.676471  1
  Si  Si13  1  0.250000  0.017665  0.821409  1
  Si  Si14  1  0.250000  0.485494  0.322290  1
  Si  Si15  1  0.750000  0.985033  0.177109  1
  Si  Si16  1  0.750000  0.505138  0.677993  1
  Si  Si17  1  0.250000  0.257904  0.838191  1
  Si  Si18  1  0.250000  0.248571  0.343328  1
  Si  Si19  1  0.750000  0.748373  0.157592  1
  Si  Si20  1  0.750000  0.748144  0.659444  1
  Si  Si21  1  0.250000  0.197919  0.547846  1
  Si  Si22  1  0.250000  0.307143  0.044280  1
  Si  Si23  1  0.750000  0.804294  0.455841  1
  Si  Si24  1  0.750000  0.696089  0.953597  1
  Ir  Ir25  1  0.250000  0.111050  0.176673  1
  Ru  Ru26  1  0.750000  0.609222  0.323342  1
  Ru  Ru27  1  0.750000  0.891696  0.821638  1
