# generated using pymatgen
data_Cs2YU(CuS3)2
_symmetry_space_group_name_H-M   'P 1'
_cell_length_a   3.97702800
_cell_length_b   7.98275220
_cell_length_c   10.28056752
_cell_angle_alpha   89.81385682
_cell_angle_beta   90.00000000
_cell_angle_gamma   75.57565409
_symmetry_Int_Tables_number   1
_chemical_formula_structural   Cs2YU(CuS3)2
_chemical_formula_sum   'Cs2 Y1 U1 Cu2 S6'
_cell_volume   316.09340459
_cell_formula_units_Z   1
loop_
 _symmetry_equiv_pos_site_id
 _symmetry_equiv_pos_as_xyz
  1  'x, y, z'
loop_
 _atom_site_type_symbol
 _atom_site_label
 _atom_site_symmetry_multiplicity
 _atom_site_fract_x
 _atom_site_fract_y
 _atom_site_fract_z
 _atom_site_occupancy
  Cs  Cs0  1  0.740728  0.518546  0.235950  1
  Cs  Cs1  1  0.259273  0.481454  0.764050  1
  Y  Y2  1  0.000000  0.000000  0.000000  1
  U  U3  1  0.000000  0.000000  0.500000  1
  Cu  Cu4  1  0.463339  0.073323  0.252160  1
  Cu  Cu5  1  0.536662  0.926678  0.747840  1
  S  S6  1  0.385757  0.228488  0.061695  1
  S  S7  1  0.050717  0.898565  0.260633  1
  S  S8  1  0.389116  0.221770  0.445632  1
  S  S9  1  0.610885  0.778230  0.554368  1
  S  S10  1  0.949284  0.101435  0.739367  1
  S  S11  1  0.614244  0.771512  0.938305  1
