# generated using pymatgen
data_CeSm7Sc12Si15Sb
_symmetry_space_group_name_H-M   'P 1'
_cell_length_a   7.23386316
_cell_length_b   7.48148196
_cell_length_c   14.16958415
_cell_angle_alpha   90.11771341
_cell_angle_beta   89.27117337
_cell_angle_gamma   90.15803826
_symmetry_Int_Tables_number   1
_chemical_formula_structural   CeSm7Sc12Si15Sb
_chemical_formula_sum   'Ce1 Sm7 Sc12 Si15 Sb1'
_cell_volume   766.79160871
_cell_formula_units_Z   1
loop_
 _symmetry_equiv_pos_site_id
 _symmetry_equiv_pos_as_xyz
  1  'x, y, z'
loop_
 _atom_site_type_symbol
 _atom_site_label
 _atom_site_symmetry_multiplicity
 _atom_site_fract_x
 _atom_site_fract_y
 _atom_site_fract_z
 _atom_site_occupancy
  Ce  Ce0  1  0.016343  0.173994  0.097537  1
  Sm  Sm1  1  0.986590  0.827514  0.903330  1
  Sm  Sm2  1  0.486796  0.675126  0.902746  1
  Sm  Sm3  1  0.987854  0.829519  0.598551  1
  Sm  Sm4  1  0.512797  0.326716  0.096731  1
  Sm  Sm5  1  0.007481  0.171713  0.398553  1
  Sm  Sm6  1  0.511712  0.324115  0.399917  1
  Sm  Sm7  1  0.503040  0.680273  0.600875  1
  Sc  Sc8  1  0.159151  0.499803  0.754539  1
  Sc  Sc9  1  0.840626  0.498954  0.250504  1
  Sc  Sc10  1  0.340591  0.999863  0.248933  1
  Sc  Sc11  1  0.659449  0.000197  0.752503  1
  Sc  Sc12  1  0.340070  0.161348  0.631393  1
  Sc  Sc13  1  0.666513  0.826600  0.372369  1
  Sc  Sc14  1  0.163636  0.680893  0.371161  1
  Sc  Sc15  1  0.671375  0.824695  0.124436  1
  Sc  Sc16  1  0.822507  0.325470  0.625713  1
  Sc  Sc17  1  0.326700  0.173337  0.874960  1
  Sc  Sc18  1  0.828639  0.324104  0.875800  1
  Sc  Sc19  1  0.173078  0.675765  0.124670  1
  Si  Si20  1  0.030069  0.123278  0.749630  1
  Si  Si21  1  0.966868  0.880722  0.247059  1
  Si  Si22  1  0.465889  0.621227  0.248082  1
  Si  Si23  1  0.532474  0.378348  0.753171  1
  Si  Si24  1  0.284989  0.872235  0.751855  1
  Si  Si25  1  0.713755  0.122747  0.247408  1
  Si  Si26  1  0.213836  0.378891  0.249035  1
  Si  Si27  1  0.789769  0.622418  0.751468  1
  Si  Si28  1  0.824070  0.541495  0.455575  1
  Si  Si29  1  0.343276  0.963462  0.460441  1
  Si  Si30  1  0.849309  0.533853  0.040917  1
  Si  Si31  1  0.656907  0.037958  0.538587  1
  Si  Si32  1  0.151916  0.464946  0.960851  1
  Si  Si33  1  0.652206  0.035216  0.959780  1
  Si  Si34  1  0.345748  0.965749  0.040232  1
  Sb  Sb35  1  0.173971  0.457461  0.540689  1
