# generated using pymatgen
data_Ta16Mn3AlTe16
_symmetry_space_group_name_H-M   'P 1'
_cell_length_a   4.88666000
_cell_length_b   10.96754912
_cell_length_c   19.23056901
_cell_angle_alpha   89.95886200
_cell_angle_beta   90.00000000
_cell_angle_gamma   90.00000000
_symmetry_Int_Tables_number   1
_chemical_formula_structural   Ta16Mn3AlTe16
_chemical_formula_sum   'Ta16 Mn3 Al1 Te16'
_cell_volume   1030.65599556
_cell_formula_units_Z   1
loop_
 _symmetry_equiv_pos_site_id
 _symmetry_equiv_pos_as_xyz
  1  'x, y, z'
loop_
 _atom_site_type_symbol
 _atom_site_label
 _atom_site_symmetry_multiplicity
 _atom_site_fract_x
 _atom_site_fract_y
 _atom_site_fract_z
 _atom_site_occupancy
  Ta  Ta0  1  0.499399  0.563652  0.384400  1
  Ta  Ta1  1  0.499399  0.436348  0.615600  1
  Ta  Ta2  1  0.499872  0.063542  0.115123  1
  Ta  Ta3  1  0.499872  0.936458  0.884877  1
  Ta  Ta4  1  0.498455  0.702851  0.536160  1
  Ta  Ta5  1  0.498455  0.297149  0.463840  1
  Ta  Ta6  1  0.499745  0.202087  0.963676  1
  Ta  Ta7  1  0.499745  0.797913  0.036324  1
  Ta  Ta8  1  0.001646  0.688423  0.443662  1
  Ta  Ta9  1  0.001646  0.311577  0.556338  1
  Ta  Ta10  1  0.000120  0.187693  0.055902  1
  Ta  Ta11  1  0.000120  0.812307  0.944098  1
  Ta  Ta12  1  0.000927  0.401784  0.392659  1
  Ta  Ta13  1  0.000927  0.598216  0.607341  1
  Ta  Ta14  1  0.999972  0.902292  0.107003  1
  Ta  Ta15  1  0.999972  0.097708  0.892997  1
  Mn  Mn16  1  0.748780  0.000000  0.000000  1
  Mn  Mn17  1  0.750409  0.500000  0.500000  1
  Mn  Mn18  1  0.249754  0.000000  0.000000  1
  Al  Al19  1  0.250371  0.500000  0.500000  1
  Te  Te20  1  0.994802  0.846217  0.562134  1
  Te  Te21  1  0.994802  0.153783  0.437866  1
  Te  Te22  1  0.999907  0.346092  0.937549  1
  Te  Te23  1  0.999907  0.653908  0.062451  1
  Te  Te24  1  0.504392  0.332415  0.316531  1
  Te  Te25  1  0.504392  0.667585  0.683469  1
  Te  Te26  1  0.499721  0.832599  0.183526  1
  Te  Te27  1  0.499721  0.167401  0.816474  1
  Te  Te28  1  0.505336  0.821989  0.403760  1
  Te  Te29  1  0.505336  0.178011  0.596240  1
  Te  Te30  1  0.499974  0.321930  0.095658  1
  Te  Te31  1  0.499974  0.678070  0.904342  1
  Te  Te32  1  0.995916  0.608342  0.302188  1
  Te  Te33  1  0.995916  0.391658  0.697812  1
  Te  Te34  1  0.000154  0.108532  0.197615  1
  Te  Te35  1  0.000154  0.891468  0.802385  1
