# generated using pymatgen
data_Y5Sc3(As3Rh4)4
_symmetry_space_group_name_H-M   'P 1'
_cell_length_a   13.30413500
_cell_length_b   13.30413535
_cell_length_c   4.01315400
_cell_angle_alpha   90.00000000
_cell_angle_beta   90.00000000
_cell_angle_gamma   120.00000162
_symmetry_Int_Tables_number   1
_chemical_formula_structural   Y5Sc3(As3Rh4)4
_chemical_formula_sum   'Y5 Sc3 As12 Rh16'
_cell_volume   615.16235072
_cell_formula_units_Z   1
loop_
 _symmetry_equiv_pos_site_id
 _symmetry_equiv_pos_as_xyz
  1  'x, y, z'
loop_
 _atom_site_type_symbol
 _atom_site_label
 _atom_site_symmetry_multiplicity
 _atom_site_fract_x
 _atom_site_fract_y
 _atom_site_fract_z
 _atom_site_occupancy
  Y  Y0  1  0.190049  0.190049  0.500000  1
  Y  Y1  1  0.809951  0.000000  0.500000  1
  Y  Y2  1  0.000000  0.809951  0.500000  1
  Y  Y3  1  0.333333  0.666667  0.000000  1
  Y  Y4  1  0.666667  0.333333  0.000000  1
  Sc  Sc5  1  0.559981  0.559981  0.000000  1
  Sc  Sc6  1  0.440019  0.000000  0.000000  1
  Sc  Sc7  1  0.000000  0.440019  0.000000  1
  As  As8  1  0.823406  0.823406  0.000000  1
  As  As9  1  0.176594  0.000000  0.000000  1
  As  As10  1  0.000000  0.176594  0.000000  1
  As  As11  1  0.171172  0.486943  0.500000  1
  As  As12  1  0.513057  0.684229  0.500000  1
  As  As13  1  0.315771  0.828828  0.500000  1
  As  As14  1  0.684229  0.513057  0.500000  1
  As  As15  1  0.828828  0.315771  0.500000  1
  As  As16  1  0.486943  0.171172  0.500000  1
  As  As17  1  0.356057  0.356057  0.000000  1
  As  As18  1  0.643943  0.000000  0.000000  1
  As  As19  1  0.000000  0.643943  0.000000  1
  Rh  Rh20  1  0.718443  0.718443  0.500000  1
  Rh  Rh21  1  0.281557  0.000000  0.500000  1
  Rh  Rh22  1  0.000000  0.281557  0.500000  1
  Rh  Rh23  1  0.176725  0.375949  0.000000  1
  Rh  Rh24  1  0.624051  0.800776  0.000000  1
  Rh  Rh25  1  0.199224  0.823275  0.000000  1
  Rh  Rh26  1  0.800776  0.624051  0.000000  1
  Rh  Rh27  1  0.823275  0.199224  0.000000  1
  Rh  Rh28  1  0.375949  0.176725  0.000000  1
  Rh  Rh29  1  0.354628  0.481209  0.500000  1
  Rh  Rh30  1  0.518791  0.873420  0.500000  1
  Rh  Rh31  1  0.126580  0.645372  0.500000  1
  Rh  Rh32  1  0.873420  0.518791  0.500000  1
  Rh  Rh33  1  0.645372  0.126580  0.500000  1
  Rh  Rh34  1  0.481209  0.354628  0.500000  1
  Rh  Rh35  1  0.000000  0.000000  0.000000  1
