# generated using pymatgen
data_Li3Tc3O8
_symmetry_space_group_name_H-M   'P 1'
_cell_length_a   6.14031949
_cell_length_b   6.14235090
_cell_length_c   5.74319632
_cell_angle_alpha   117.69476091
_cell_angle_beta   89.89550416
_cell_angle_gamma   55.77392086
_symmetry_Int_Tables_number   1
_chemical_formula_structural   Li3Tc3O8
_chemical_formula_sum   'Li3 Tc3 O8'
_cell_volume   147.97505781
_cell_formula_units_Z   1
loop_
 _symmetry_equiv_pos_site_id
 _symmetry_equiv_pos_as_xyz
  1  'x, y, z'
loop_
 _atom_site_type_symbol
 _atom_site_label
 _atom_site_symmetry_multiplicity
 _atom_site_fract_x
 _atom_site_fract_y
 _atom_site_fract_z
 _atom_site_occupancy
  Li  Li0  1  0.381063  0.766276  0.383522  1
  Li  Li1  1  0.742464  0.491397  0.744395  1
  Li  Li2  1  0.993652  0.981184  0.991875  1
  Tc  Tc3  1  0.909302  0.708655  0.354703  1
  Tc  Tc4  1  0.355102  0.261488  0.355059  1
  Tc  Tc5  1  0.354982  0.263080  0.908968  1
  O  O6  1  0.113588  0.231773  0.115339  1
  O  O7  1  0.608563  0.212554  0.606764  1
  O  O8  1  0.153510  0.272234  0.633623  1
  O  O9  1  0.631551  0.788516  0.632831  1
  O  O10  1  0.632557  0.793410  0.154593  1
  O  O11  1  0.139091  0.733154  0.136962  1
  O  O12  1  0.135663  0.729634  0.597336  1
  O  O13  1  0.598912  0.266646  0.134031  1
