# generated using pymatgen
data_Nb10Ga5GeB2
_symmetry_space_group_name_H-M   'P 1'
_cell_length_a   7.82085881
_cell_length_b   7.83006184
_cell_length_c   5.35547900
_cell_angle_alpha   90.00000000
_cell_angle_beta   90.00000000
_cell_angle_gamma   120.03893003
_symmetry_Int_Tables_number   1
_chemical_formula_structural   Nb10Ga5GeB2
_chemical_formula_sum   'Nb10 Ga5 Ge1 B2'
_cell_volume   283.90829994
_cell_formula_units_Z   1
loop_
 _symmetry_equiv_pos_site_id
 _symmetry_equiv_pos_as_xyz
  1  'x, y, z'
loop_
 _atom_site_type_symbol
 _atom_site_label
 _atom_site_symmetry_multiplicity
 _atom_site_fract_x
 _atom_site_fract_y
 _atom_site_fract_z
 _atom_site_occupancy
  Nb  Nb0  1  0.667123  0.333423  0.499703  1
  Nb  Nb1  1  0.332877  0.666301  0.499703  1
  Nb  Nb2  1  0.332877  0.666301  0.000297  1
  Nb  Nb3  1  0.667123  0.333423  0.000297  1
  Nb  Nb4  1  0.757350  0.757046  0.250000  1
  Nb  Nb5  1  0.242650  0.999696  0.250000  1
  Nb  Nb6  1  0.000000  0.243107  0.250000  1
  Nb  Nb7  1  0.242346  0.242836  0.750000  1
  Nb  Nb8  1  0.757654  0.000490  0.750000  1
  Nb  Nb9  1  0.000000  0.757236  0.750000  1
  Ga  Ga10  1  0.400674  0.400394  0.250000  1
  Ga  Ga11  1  0.599326  0.999721  0.250000  1
  Ga  Ga12  1  0.000000  0.600223  0.250000  1
  Ga  Ga13  1  0.599650  0.599599  0.750000  1
  Ga  Ga14  1  0.400350  0.999949  0.750000  1
  Ge  Ge15  1  0.000000  0.401164  0.750000  1
  B  B16  1  0.000000  0.999545  0.499865  1
  B  B17  1  0.000000  0.999545  0.000135  1
