# generated using pymatgen
data_Er6Zr2(Al2Os)7
_symmetry_space_group_name_H-M   'P 1'
_cell_length_a   9.02397870
_cell_length_b   9.01314033
_cell_length_c   9.01314025
_cell_angle_alpha   59.85880612
_cell_angle_beta   59.96021419
_cell_angle_gamma   59.96021098
_symmetry_Int_Tables_number   1
_chemical_formula_structural   Er6Zr2(Al2Os)7
_chemical_formula_sum   'Er6 Zr2 Al14 Os7'
_cell_volume   517.49823660
_cell_formula_units_Z   1
loop_
 _symmetry_equiv_pos_site_id
 _symmetry_equiv_pos_as_xyz
  1  'x, y, z'
loop_
 _atom_site_type_symbol
 _atom_site_label
 _atom_site_symmetry_multiplicity
 _atom_site_fract_x
 _atom_site_fract_y
 _atom_site_fract_z
 _atom_site_occupancy
  Er  Er0  1  0.706638  0.709414  0.285556  1
  Er  Er1  1  0.298393  0.709414  0.285556  1
  Er  Er2  1  0.701702  0.298298  0.298298  1
  Er  Er3  1  0.298393  0.285556  0.709414  1
  Er  Er4  1  0.706638  0.285556  0.709414  1
  Er  Er5  1  0.285478  0.714522  0.714522  1
  Zr  Zr6  1  0.879551  0.882858  0.358040  1
  Zr  Zr7  1  0.879551  0.358040  0.882858  1
  Al  Al8  1  0.364006  0.879316  0.879316  1
  Al  Al9  1  0.877361  0.879316  0.879316  1
  Al  Al10  1  0.121695  0.125267  0.631343  1
  Al  Al11  1  0.121695  0.631343  0.125267  1
  Al  Al12  1  0.637425  0.119993  0.119993  1
  Al  Al13  1  0.122589  0.119993  0.119993  1
  Al  Al14  1  0.666233  0.671611  0.995926  1
  Al  Al15  1  0.666233  0.995926  0.671611  1
  Al  Al16  1  0.000388  0.668635  0.668635  1
  Al  Al17  1  0.662344  0.668635  0.668635  1
  Al  Al18  1  0.331776  0.332273  0.004172  1
  Al  Al19  1  0.331776  0.004172  0.332273  1
  Al  Al20  1  0.002954  0.332690  0.332690  1
  Al  Al21  1  0.331664  0.332690  0.332690  1
  Os  Os22  1  0.009113  0.990887  0.990887  1
  Os  Os23  1  0.001527  0.000081  0.501722  1
  Os  Os24  1  0.496669  0.000081  0.501722  1
  Os  Os25  1  0.000325  0.499675  0.499675  1
  Os  Os26  1  0.496669  0.501722  0.000081  1
  Os  Os27  1  0.001527  0.501722  0.000081  1
  Os  Os28  1  0.499684  0.000316  0.000316  1
