# generated using pymatgen
data_U4MnFe5Si6Tc
_symmetry_space_group_name_H-M   'P 1'
_cell_length_a   6.86228327
_cell_length_b   6.86228286
_cell_length_c   6.86228333
_cell_angle_alpha   109.61426511
_cell_angle_beta   109.18550309
_cell_angle_gamma   109.61427900
_symmetry_Int_Tables_number   1
_chemical_formula_structural   U4MnFe5Si6Tc
_chemical_formula_sum   'U4 Mn1 Fe5 Si6 Tc1'
_cell_volume   248.75732220
_cell_formula_units_Z   1
loop_
 _symmetry_equiv_pos_site_id
 _symmetry_equiv_pos_as_xyz
  1  'x, y, z'
loop_
 _atom_site_type_symbol
 _atom_site_label
 _atom_site_symmetry_multiplicity
 _atom_site_fract_x
 _atom_site_fract_y
 _atom_site_fract_z
 _atom_site_occupancy
  U  U0  1  0.503147  0.500000  0.496853  1
  U  U1  1  0.996853  0.500000  0.003147  1
  U  U2  1  0.503147  0.006293  0.003147  1
  U  U3  1  0.996853  0.993707  0.496853  1
  Mn  Mn4  1  0.750000  0.500000  0.250000  1
  Fe  Fe5  1  0.499295  0.750188  0.249482  1
  Fe  Fe6  1  0.750518  0.249812  0.500705  1
  Fe  Fe7  1  0.250893  0.750188  0.500705  1
  Fe  Fe8  1  0.250000  0.500000  0.750000  1
  Fe  Fe9  1  0.499295  0.249812  0.749107  1
  Si  Si10  1  0.672710  0.000000  0.672710  1
  Si  Si11  1  0.670369  0.673635  0.996734  1
  Si  Si12  1  0.323099  0.326365  0.996734  1
  Si  Si13  1  0.003266  0.673635  0.676901  1
  Si  Si14  1  0.003266  0.326365  0.329631  1
  Si  Si15  1  0.327290  0.000000  0.327290  1
  Tc  Tc16  1  0.000000  0.000000  0.000000  1
