# generated using pymatgen
data_LiAu19
_symmetry_space_group_name_H-M   'P 1'
_cell_length_a   4.82350500
_cell_length_b   5.06401554
_cell_length_c   14.76253400
_cell_angle_alpha   90.05737481
_cell_angle_beta   90.00000000
_cell_angle_gamma   90.00000000
_symmetry_Int_Tables_number   1
_chemical_formula_structural   LiAu19
_chemical_formula_sum   'Li1 Au19'
_cell_volume   360.59396652
_cell_formula_units_Z   1
loop_
 _symmetry_equiv_pos_site_id
 _symmetry_equiv_pos_as_xyz
  1  'x, y, z'
loop_
 _atom_site_type_symbol
 _atom_site_label
 _atom_site_symmetry_multiplicity
 _atom_site_fract_x
 _atom_site_fract_y
 _atom_site_fract_z
 _atom_site_occupancy
  Li  Li0  1  0.250000  0.169739  0.999958  1
  Au  Au1  1  0.250000  0.666181  0.902616  1
  Au  Au2  1  0.250000  0.166403  0.600382  1
  Au  Au3  1  0.750000  0.831559  0.399420  1
  Au  Au4  1  0.750000  0.330459  0.097645  1
  Au  Au5  1  0.250000  0.173553  0.196761  1
  Au  Au6  1  0.250000  0.171109  0.399168  1
  Au  Au7  1  0.750000  0.326802  0.701318  1
  Au  Au8  1  0.750000  0.330466  0.500032  1
  Au  Au9  1  0.250000  0.671072  0.500007  1
  Au  Au10  1  0.750000  0.826890  0.601110  1
  Au  Au11  1  0.250000  0.671275  0.097921  1
  Au  Au12  1  0.750000  0.835861  0.198223  1
  Au  Au13  1  0.250000  0.166346  0.803088  1
  Au  Au14  1  0.750000  0.828131  0.801878  1
  Au  Au15  1  0.750000  0.325886  0.901762  1
  Au  Au16  1  0.250000  0.673000  0.298813  1
  Au  Au17  1  0.250000  0.665416  0.701388  1
  Au  Au18  1  0.750000  0.835349  0.000023  1
  Au  Au19  1  0.750000  0.334499  0.298483  1
