# generated using pymatgen
data_HoTh(ReN3)2
_symmetry_space_group_name_H-M   'P 1'
_cell_length_a   5.44128800
_cell_length_b   5.63499100
_cell_length_c   7.73461100
_cell_angle_alpha   90.00000000
_cell_angle_beta   90.00000000
_cell_angle_gamma   90.00000000
_symmetry_Int_Tables_number   1
_chemical_formula_structural   HoTh(ReN3)2
_chemical_formula_sum   'Ho2 Th2 Re4 N12'
_cell_volume   237.15561754
_cell_formula_units_Z   2
loop_
 _symmetry_equiv_pos_site_id
 _symmetry_equiv_pos_as_xyz
  1  'x, y, z'
loop_
 _atom_site_type_symbol
 _atom_site_label
 _atom_site_symmetry_multiplicity
 _atom_site_fract_x
 _atom_site_fract_y
 _atom_site_fract_z
 _atom_site_occupancy
  Ho  Ho0  1  0.499489  0.564765  0.750000  1
  Ho  Ho1  1  0.000511  0.064765  0.750000  1
  Th  Th2  1  0.480927  0.453945  0.250000  1
  Th  Th3  1  0.019073  0.953945  0.250000  1
  Re  Re4  1  0.510062  0.003248  0.507329  1
  Re  Re5  1  0.989938  0.503248  0.992671  1
  Re  Re6  1  0.989938  0.503248  0.507329  1
  Re  Re7  1  0.510062  0.003248  0.992671  1
  N  N8  1  0.701510  0.292617  0.544261  1
  N  N9  1  0.299980  0.700517  0.040151  1
  N  N10  1  0.200020  0.200517  0.040151  1
  N  N11  1  0.414919  0.977957  0.750000  1
  N  N12  1  0.930442  0.510567  0.250000  1
  N  N13  1  0.299980  0.700517  0.459849  1
  N  N14  1  0.798490  0.792617  0.955739  1
  N  N15  1  0.701510  0.292617  0.955739  1
  N  N16  1  0.798490  0.792617  0.544261  1
  N  N17  1  0.085081  0.477957  0.750000  1
  N  N18  1  0.200020  0.200517  0.459849  1
  N  N19  1  0.569558  0.010567  0.250000  1
