# generated using pymatgen
data_La4Pr7In9Ir4
_symmetry_space_group_name_H-M   'P 1'
_cell_length_a   13.52491364
_cell_length_b   13.49893669
_cell_length_c   3.90232900
_cell_angle_alpha   90.00000000
_cell_angle_beta   90.00000000
_cell_angle_gamma   111.80871042
_symmetry_Int_Tables_number   1
_chemical_formula_structural   La4Pr7In9Ir4
_chemical_formula_sum   'La4 Pr7 In9 Ir4'
_cell_volume   661.46490595
_cell_formula_units_Z   1
loop_
 _symmetry_equiv_pos_site_id
 _symmetry_equiv_pos_as_xyz
  1  'x, y, z'
loop_
 _atom_site_type_symbol
 _atom_site_label
 _atom_site_symmetry_multiplicity
 _atom_site_fract_x
 _atom_site_fract_y
 _atom_site_fract_z
 _atom_site_occupancy
  La  La0  1  0.815382  0.814483  0.500000  1
  La  La1  1  0.184618  0.185517  0.500000  1
  La  La2  1  0.579769  0.920969  0.500000  1
  La  La3  1  0.420231  0.079031  0.500000  1
  Pr  Pr4  1  0.500000  0.500000  0.500000  1
  Pr  Pr5  1  0.919478  0.579079  0.500000  1
  Pr  Pr6  1  0.080522  0.420921  0.500000  1
  Pr  Pr7  1  0.127098  0.872485  0.500000  1
  Pr  Pr8  1  0.872902  0.127515  0.500000  1
  Pr  Pr9  1  0.340400  0.659834  0.500000  1
  Pr  Pr10  1  0.659600  0.340166  0.500000  1
  In  In11  1  0.335697  0.860722  0.000000  1
  In  In12  1  0.664303  0.139278  0.000000  1
  In  In13  1  0.865782  0.340383  0.000000  1
  In  In14  1  0.134218  0.659617  0.000000  1
  In  In15  1  0.578168  0.718015  0.000000  1
  In  In16  1  0.421832  0.281985  0.000000  1
  In  In17  1  0.719664  0.576546  0.000000  1
  In  In18  1  0.280336  0.423454  0.000000  1
  In  In19  1  0.000000  0.000000  0.000000  1
  Ir  Ir20  1  0.740492  0.946676  0.000000  1
  Ir  Ir21  1  0.259508  0.053324  0.000000  1
  Ir  Ir22  1  0.949115  0.746848  0.000000  1
  Ir  Ir23  1  0.050885  0.253152  0.000000  1
