# generated using pymatgen
data_Lu3(Zr2Os)4
_symmetry_space_group_name_H-M   'P 1'
_cell_length_a   9.66186069
_cell_length_b   9.66186036
_cell_length_c   9.66186100
_cell_angle_alpha   60.00000122
_cell_angle_beta   60.00000235
_cell_angle_gamma   60.00000044
_symmetry_Int_Tables_number   1
_chemical_formula_structural   Lu3(Zr2Os)4
_chemical_formula_sum   'Lu6 Zr16 Os8'
_cell_volume   637.77476009
_cell_formula_units_Z   2
loop_
 _symmetry_equiv_pos_site_id
 _symmetry_equiv_pos_as_xyz
  1  'x, y, z'
loop_
 _atom_site_type_symbol
 _atom_site_label
 _atom_site_symmetry_multiplicity
 _atom_site_fract_x
 _atom_site_fract_y
 _atom_site_fract_z
 _atom_site_occupancy
  Lu  Lu0  1  0.801115  0.801115  0.198885  1
  Lu  Lu1  1  0.198885  0.801115  0.198885  1
  Lu  Lu2  1  0.801115  0.198885  0.198885  1
  Lu  Lu3  1  0.198885  0.198885  0.801115  1
  Lu  Lu4  1  0.801115  0.198885  0.801115  1
  Lu  Lu5  1  0.198885  0.801115  0.801115  1
  Zr  Zr6  1  0.616885  0.616885  0.149345  1
  Zr  Zr7  1  0.616885  0.149345  0.616885  1
  Zr  Zr8  1  0.149345  0.616885  0.616885  1
  Zr  Zr9  1  0.616885  0.616885  0.616885  1
  Zr  Zr10  1  0.383115  0.383115  0.850655  1
  Zr  Zr11  1  0.383115  0.850655  0.383115  1
  Zr  Zr12  1  0.850655  0.383115  0.383115  1
  Zr  Zr13  1  0.383115  0.383115  0.383115  1
  Zr  Zr14  1  0.833433  0.833433  0.499700  1
  Zr  Zr15  1  0.833433  0.499700  0.833433  1
  Zr  Zr16  1  0.499700  0.833433  0.833433  1
  Zr  Zr17  1  0.833433  0.833433  0.833433  1
  Zr  Zr18  1  0.166567  0.166567  0.500300  1
  Zr  Zr19  1  0.166567  0.500300  0.166567  1
  Zr  Zr20  1  0.500300  0.166567  0.166567  1
  Zr  Zr21  1  0.166567  0.166567  0.166567  1
  Os  Os22  1  0.000000  0.000000  0.000000  1
  Os  Os23  1  0.500000  0.500000  0.500000  1
  Os  Os24  1  0.000000  0.000000  0.500000  1
  Os  Os25  1  0.500000  0.000000  0.500000  1
  Os  Os26  1  0.000000  0.500000  0.500000  1
  Os  Os27  1  0.500000  0.500000  0.000000  1
  Os  Os28  1  0.000000  0.500000  0.000000  1
  Os  Os29  1  0.500000  0.000000  0.000000  1
