# generated using pymatgen
data_Zr3TiNb2Sn5
_symmetry_space_group_name_H-M   'P 1'
_cell_length_a   9.61933600
_cell_length_b   9.61925371
_cell_length_c   5.83794300
_cell_angle_alpha   90.00000000
_cell_angle_beta   90.00000000
_cell_angle_gamma   119.99971508
_symmetry_Int_Tables_number   1
_chemical_formula_structural   Zr3TiNb2Sn5
_chemical_formula_sum   'Zr6 Ti2 Nb4 Sn10'
_cell_volume   467.81937392
_cell_formula_units_Z   2
loop_
 _symmetry_equiv_pos_site_id
 _symmetry_equiv_pos_as_xyz
  1  'x, y, z'
loop_
 _atom_site_type_symbol
 _atom_site_label
 _atom_site_symmetry_multiplicity
 _atom_site_fract_x
 _atom_site_fract_y
 _atom_site_fract_z
 _atom_site_occupancy
  Zr  Zr0  1  0.845979  0.692370  0.750000  1
  Zr  Zr1  1  0.154021  0.846391  0.250000  1
  Zr  Zr2  1  0.692460  0.846230  0.250000  1
  Zr  Zr3  1  0.307540  0.153770  0.750000  1
  Zr  Zr4  1  0.845979  0.153609  0.750000  1
  Zr  Zr5  1  0.154021  0.307630  0.250000  1
  Ti  Ti6  1  0.000000  0.500000  0.000000  1
  Ti  Ti7  1  0.000000  0.500000  0.500000  1
  Nb  Nb8  1  0.500000  0.000000  0.500000  1
  Nb  Nb9  1  0.500000  0.500000  0.000000  1
  Nb  Nb10  1  0.500000  0.000000  0.000000  1
  Nb  Nb11  1  0.500000  0.500000  0.500000  1
  Sn  Sn12  1  0.207596  0.422277  0.750000  1
  Sn  Sn13  1  0.792404  0.214681  0.250000  1
  Sn  Sn14  1  0.420715  0.210358  0.250000  1
  Sn  Sn15  1  0.579285  0.789642  0.750000  1
  Sn  Sn16  1  0.207596  0.785319  0.750000  1
  Sn  Sn17  1  0.792404  0.577723  0.250000  1
  Sn  Sn18  1  0.667376  0.333687  0.750000  1
  Sn  Sn19  1  0.332624  0.666313  0.250000  1
  Sn  Sn20  1  0.000000  0.000000  0.500000  1
  Sn  Sn21  1  0.000000  0.000000  0.000000  1
