# generated using pymatgen
data_TaInMoS4
_symmetry_space_group_name_H-M   'P 1'
_cell_length_a   8.76355699
_cell_length_b   8.76061043
_cell_length_c   8.76061050
_cell_angle_alpha   158.26762161
_cell_angle_beta   142.17109910
_cell_angle_gamma   44.04506912
_symmetry_Int_Tables_number   1
_chemical_formula_structural   TaInMoS4
_chemical_formula_sum   'Ta1 In1 Mo1 S4'
_cell_volume   152.40813082
_cell_formula_units_Z   1
loop_
 _symmetry_equiv_pos_site_id
 _symmetry_equiv_pos_as_xyz
  1  'x, y, z'
loop_
 _atom_site_type_symbol
 _atom_site_label
 _atom_site_symmetry_multiplicity
 _atom_site_fract_x
 _atom_site_fract_y
 _atom_site_fract_z
 _atom_site_occupancy
  Ta  Ta0  1  0.249686  0.249947  0.999739  1
  In  In1  1  0.510744  0.500040  0.010704  1
  Mo  Mo2  1  0.746353  0.750009  0.996344  1
  S  S3  1  0.488541  0.154701  0.333841  1
  S  S4  1  0.982295  0.653259  0.329036  1
  S  S5  1  0.681785  0.345958  0.335828  1
  S  S6  1  0.172166  0.846087  0.326080  1
