# generated using pymatgen
data_Dy4P3S
_symmetry_space_group_name_H-M   'P 1'
_cell_length_a   3.98955900
_cell_length_b   5.62091400
_cell_length_c   7.97514300
_cell_angle_alpha   90.00000000
_cell_angle_beta   90.00000000
_cell_angle_gamma   90.00000000
_symmetry_Int_Tables_number   1
_chemical_formula_structural   Dy4P3S
_chemical_formula_sum   'Dy4 P3 S1'
_cell_volume   178.84232686
_cell_formula_units_Z   1
loop_
 _symmetry_equiv_pos_site_id
 _symmetry_equiv_pos_as_xyz
  1  'x, y, z'
loop_
 _atom_site_type_symbol
 _atom_site_label
 _atom_site_symmetry_multiplicity
 _atom_site_fract_x
 _atom_site_fract_y
 _atom_site_fract_z
 _atom_site_occupancy
  Dy  Dy0  1  0.500000  0.500000  0.243786  1
  Dy  Dy1  1  0.000000  0.000000  0.500000  1
  Dy  Dy2  1  0.500000  0.500000  0.756214  1
  Dy  Dy3  1  0.000000  0.000000  0.000000  1
  P  P4  1  0.500000  0.000000  0.747023  1
  P  P5  1  0.000000  0.500000  0.000000  1
  P  P6  1  0.500000  0.000000  0.252977  1
  S  S7  1  0.000000  0.500000  0.500000  1
