# generated using pymatgen
data_Nb6GaAu3N2
_symmetry_space_group_name_H-M   'P 1'
_cell_length_a   7.15188502
_cell_length_b   7.14790100
_cell_length_c   7.13783029
_cell_angle_alpha   90.00000000
_cell_angle_beta   90.06505250
_cell_angle_gamma   90.00000000
_symmetry_Int_Tables_number   1
_chemical_formula_structural   Nb6GaAu3N2
_chemical_formula_sum   'Nb12 Ga2 Au6 N4'
_cell_volume   364.89254506
_cell_formula_units_Z   2
loop_
 _symmetry_equiv_pos_site_id
 _symmetry_equiv_pos_as_xyz
  1  'x, y, z'
loop_
 _atom_site_type_symbol
 _atom_site_label
 _atom_site_symmetry_multiplicity
 _atom_site_fract_x
 _atom_site_fract_y
 _atom_site_fract_z
 _atom_site_occupancy
  Nb  Nb0  1  0.786602  0.956753  0.374501  1
  Nb  Nb1  1  0.708044  0.042066  0.876056  1
  Nb  Nb2  1  0.213398  0.456753  0.125499  1
  Nb  Nb3  1  0.291956  0.542066  0.623944  1
  Nb  Nb4  1  0.955326  0.380048  0.786213  1
  Nb  Nb5  1  0.044674  0.880048  0.713787  1
  Nb  Nb6  1  0.459949  0.127825  0.208039  1
  Nb  Nb7  1  0.540051  0.627825  0.291961  1
  Nb  Nb8  1  0.374603  0.788036  0.956008  1
  Nb  Nb9  1  0.873180  0.709534  0.040511  1
  Nb  Nb10  1  0.126820  0.209534  0.459489  1
  Nb  Nb11  1  0.625397  0.288036  0.543992  1
  Ga  Ga12  1  0.932628  0.568071  0.426292  1
  Ga  Ga13  1  0.067372  0.068071  0.073708  1
  Au  Au14  1  0.169903  0.816405  0.312885  1
  Au  Au15  1  0.304883  0.180146  0.827128  1
  Au  Au16  1  0.830097  0.316405  0.187115  1
  Au  Au17  1  0.695117  0.680146  0.672872  1
  Au  Au18  1  0.568751  0.433138  0.933926  1
  Au  Au19  1  0.431249  0.933138  0.566074  1
  N  N20  1  0.873211  0.123346  0.625113  1
  N  N21  1  0.620293  0.874633  0.123618  1
  N  N22  1  0.126789  0.623346  0.874887  1
  N  N23  1  0.379707  0.374633  0.376382  1
