# generated using pymatgen
data_Ce2HoZn3Co2Ni
_symmetry_space_group_name_H-M   'P 1'
_cell_length_a   7.15728931
_cell_length_b   6.85750880
_cell_length_c   3.72308300
_cell_angle_alpha   90.00000000
_cell_angle_beta   90.00000000
_cell_angle_gamma   118.62387833
_symmetry_Int_Tables_number   1
_chemical_formula_structural   Ce2HoZn3Co2Ni
_chemical_formula_sum   'Ce2 Ho1 Zn3 Co2 Ni1'
_cell_volume   160.40024555
_cell_formula_units_Z   1
loop_
 _symmetry_equiv_pos_site_id
 _symmetry_equiv_pos_as_xyz
  1  'x, y, z'
loop_
 _atom_site_type_symbol
 _atom_site_label
 _atom_site_symmetry_multiplicity
 _atom_site_fract_x
 _atom_site_fract_y
 _atom_site_fract_z
 _atom_site_occupancy
  Ce  Ce0  1  0.578426  0.572079  0.500000  1
  Ce  Ce1  1  0.421574  0.993654  0.500000  1
  Ho  Ho2  1  0.000000  0.412557  0.500000  1
  Zn  Zn3  1  0.000000  0.750773  0.000000  1
  Zn  Zn4  1  0.231160  0.235764  0.000000  1
  Zn  Zn5  1  0.768840  0.004604  0.000000  1
  Co  Co6  1  0.362364  0.697329  0.000000  1
  Co  Co7  1  0.637636  0.334964  0.000000  1
  Ni  Ni8  1  0.000000  0.998277  0.500000  1
