# generated using pymatgen
data_Y4Er16Cd3Hg3Ru2
_symmetry_space_group_name_H-M   'P 1'
_cell_length_a   9.55027603
_cell_length_b   9.54259019
_cell_length_c   9.72154900
_cell_angle_alpha   90.00000000
_cell_angle_beta   90.00000000
_cell_angle_gamma   119.97338700
_symmetry_Int_Tables_number   1
_chemical_formula_structural   Y4Er16Cd3Hg3Ru2
_chemical_formula_sum   'Y4 Er16 Cd3 Hg3 Ru2'
_cell_volume   767.47581909
_cell_formula_units_Z   1
loop_
 _symmetry_equiv_pos_site_id
 _symmetry_equiv_pos_as_xyz
  1  'x, y, z'
loop_
 _atom_site_type_symbol
 _atom_site_label
 _atom_site_symmetry_multiplicity
 _atom_site_fract_x
 _atom_site_fract_y
 _atom_site_fract_z
 _atom_site_occupancy
  Y  Y0  1  0.917393  0.458697  0.250000  1
  Y  Y1  1  0.458868  0.540900  0.750000  1
  Y  Y2  1  0.458868  0.917967  0.750000  1
  Y  Y3  1  0.081910  0.540955  0.750000  1
  Er  Er4  1  0.000076  0.000038  0.491659  1
  Er  Er5  1  0.000076  0.000038  0.008341  1
  Er  Er6  1  0.209650  0.790883  0.439382  1
  Er  Er7  1  0.209650  0.418767  0.439382  1
  Er  Er8  1  0.581372  0.790687  0.439257  1
  Er  Er9  1  0.790209  0.209454  0.559463  1
  Er  Er10  1  0.790209  0.580755  0.559463  1
  Er  Er11  1  0.419175  0.209587  0.559354  1
  Er  Er12  1  0.790209  0.209454  0.940537  1
  Er  Er13  1  0.790209  0.580755  0.940537  1
  Er  Er14  1  0.419175  0.209587  0.940646  1
  Er  Er15  1  0.209650  0.790883  0.060618  1
  Er  Er16  1  0.209650  0.418767  0.060618  1
  Er  Er17  1  0.581372  0.790687  0.060743  1
  Er  Er18  1  0.541041  0.458899  0.250000  1
  Er  Er19  1  0.541041  0.082142  0.250000  1
  Cd  Cd20  1  0.113350  0.887128  0.750000  1
  Cd  Cd21  1  0.113350  0.226222  0.750000  1
  Cd  Cd22  1  0.773697  0.886848  0.750000  1
  Hg  Hg23  1  0.879607  0.119501  0.250000  1
  Hg  Hg24  1  0.879607  0.760107  0.250000  1
  Hg  Hg25  1  0.240354  0.120178  0.250000  1
  Ru  Ru26  1  0.333388  0.666694  0.250000  1
  Ru  Ru27  1  0.666842  0.333421  0.750000  1
