# generated using pymatgen
data_HfPa3(GeIr)4
_symmetry_space_group_name_H-M   'P 1'
_cell_length_a   4.23905900
_cell_length_b   6.88363254
_cell_length_c   7.72461362
_cell_angle_alpha   88.47553652
_cell_angle_beta   90.00000000
_cell_angle_gamma   90.00000000
_symmetry_Int_Tables_number   1
_chemical_formula_structural   HfPa3(GeIr)4
_chemical_formula_sum   'Hf1 Pa3 Ge4 Ir4'
_cell_volume   225.32540629
_cell_formula_units_Z   1
loop_
 _symmetry_equiv_pos_site_id
 _symmetry_equiv_pos_as_xyz
  1  'x, y, z'
loop_
 _atom_site_type_symbol
 _atom_site_label
 _atom_site_symmetry_multiplicity
 _atom_site_fract_x
 _atom_site_fract_y
 _atom_site_fract_z
 _atom_site_occupancy
  Hf  Hf0  1  0.750000  0.493775  0.802805  1
  Pa  Pa1  1  0.250000  0.004080  0.304741  1
  Pa  Pa2  1  0.250000  0.502676  0.204918  1
  Pa  Pa3  1  0.750000  0.997546  0.696773  1
  Ge  Ge4  1  0.250000  0.321361  0.607191  1
  Ge  Ge5  1  0.250000  0.761158  0.902653  1
  Ge  Ge6  1  0.750000  0.690111  0.404168  1
  Ge  Ge7  1  0.750000  0.227398  0.084681  1
  Ir  Ir8  1  0.250000  0.163081  0.917153  1
  Ir  Ir9  1  0.250000  0.715998  0.581772  1
  Ir  Ir10  1  0.750000  0.839709  0.078557  1
  Ir  Ir11  1  0.750000  0.283106  0.414589  1
