# generated using pymatgen
data_Zn3Cd(AsO2)8
_symmetry_space_group_name_H-M   'P 1'
_cell_length_a   5.25382083
_cell_length_b   4.69440117
_cell_length_c   18.55900874
_cell_angle_alpha   90.03667163
_cell_angle_beta   89.89118564
_cell_angle_gamma   90.31659558
_symmetry_Int_Tables_number   1
_chemical_formula_structural   Zn3Cd(AsO2)8
_chemical_formula_sum   'Zn3 Cd1 As8 O16'
_cell_volume   457.72300014
_cell_formula_units_Z   1
loop_
 _symmetry_equiv_pos_site_id
 _symmetry_equiv_pos_as_xyz
  1  'x, y, z'
loop_
 _atom_site_type_symbol
 _atom_site_label
 _atom_site_symmetry_multiplicity
 _atom_site_fract_x
 _atom_site_fract_y
 _atom_site_fract_z
 _atom_site_occupancy
  Zn  Zn0  1  0.490124  0.253726  0.246212  1
  Zn  Zn1  1  0.010485  0.253571  0.746970  1
  Zn  Zn2  1  0.510550  0.746688  0.752170  1
  Cd  Cd3  1  0.994167  0.742934  0.251522  1
  As  As4  1  0.284105  0.511867  0.407098  1
  As  As5  1  0.779304  0.478934  0.092583  1
  As  As6  1  0.719479  0.484268  0.599356  1
  As  As7  1  0.219053  0.517267  0.900328  1
  As  As8  1  0.702059  0.017756  0.403446  1
  As  As9  1  0.208394  0.987882  0.093871  1
  As  As10  1  0.294547  0.985866  0.601197  1
  As  As11  1  0.793713  0.011626  0.898658  1
  O  O12  1  0.258845  0.473252  0.311095  1
  O  O13  1  0.716631  0.495822  0.187353  1
  O  O14  1  0.758293  0.502235  0.695772  1
  O  O15  1  0.257400  0.497788  0.804107  1
  O  O16  1  0.718247  0.018290  0.307153  1
  O  O17  1  0.248846  0.025064  0.188902  1
  O  O18  1  0.267623  0.003380  0.697501  1
  O  O19  1  0.768206  0.996008  0.802410  1
  O  O20  1  0.369959  0.890724  0.413851  1
  O  O21  1  0.874797  0.104646  0.085513  1
  O  O22  1  0.626972  0.108747  0.590342  1
  O  O23  1  0.125877  0.891337  0.909581  1
  O  O24  1  0.887111  0.388022  0.904909  1
  O  O25  1  0.387505  0.610146  0.596090  1
  O  O26  1  0.112019  0.609970  0.096350  1
  O  O27  1  0.615692  0.392186  0.415664  1
