# generated using pymatgen
data_CdGa2Sb2(PO4)6
_symmetry_space_group_name_H-M   'P 1'
_cell_length_a   8.38057292
_cell_length_b   8.38057247
_cell_length_c   8.84952317
_cell_angle_alpha   118.26199628
_cell_angle_beta   61.73800118
_cell_angle_gamma   120.00000477
_symmetry_Int_Tables_number   1
_chemical_formula_structural   CdGa2Sb2(PO4)6
_chemical_formula_sum   'Cd1 Ga2 Sb2 P6 O24'
_cell_volume   450.68697038
_cell_formula_units_Z   1
loop_
 _symmetry_equiv_pos_site_id
 _symmetry_equiv_pos_as_xyz
  1  'x, y, z'
loop_
 _atom_site_type_symbol
 _atom_site_label
 _atom_site_symmetry_multiplicity
 _atom_site_fract_x
 _atom_site_fract_y
 _atom_site_fract_z
 _atom_site_occupancy
  Cd  Cd0  1  0.000000  0.000000  0.000000  1
  Ga  Ga1  1  0.853670  0.146330  0.438989  1
  Ga  Ga2  1  0.146330  0.853670  0.561011  1
  Sb  Sb3  1  0.647324  0.352675  0.058025  1
  Sb  Sb4  1  0.352675  0.647324  0.941975  1
  P  P5  1  0.243560  0.036628  0.251999  1
  P  P6  1  0.963372  0.458932  0.251999  1
  P  P7  1  0.541068  0.756439  0.251999  1
  P  P8  1  0.458932  0.243561  0.748000  1
  P  P9  1  0.036628  0.541068  0.748000  1
  P  P10  1  0.756439  0.963372  0.748000  1
  O  O11  1  0.159616  0.471760  0.091571  1
  O  O12  1  0.528240  0.779426  0.091571  1
  O  O13  1  0.220574  0.840384  0.091571  1
  O  O14  1  0.458360  0.181391  0.210131  1
  O  O15  1  0.818610  0.487101  0.210131  1
  O  O16  1  0.512900  0.541640  0.210131  1
  O  O17  1  0.107831  0.112162  0.254169  1
  O  O18  1  0.887839  0.249839  0.254169  1
  O  O19  1  0.750161  0.892169  0.254169  1
  O  O20  1  0.196644  0.009690  0.427000  1
  O  O21  1  0.990309  0.613953  0.427000  1
  O  O22  1  0.386046  0.803356  0.427000  1
  O  O23  1  0.613953  0.196644  0.573001  1
  O  O24  1  0.009690  0.386047  0.573001  1
  O  O25  1  0.803355  0.990309  0.573001  1
  O  O26  1  0.249838  0.107831  0.745831  1
  O  O27  1  0.112162  0.750162  0.745831  1
  O  O28  1  0.892169  0.887839  0.745831  1
  O  O29  1  0.487101  0.458361  0.789869  1
  O  O30  1  0.181392  0.512900  0.789869  1
  O  O31  1  0.541639  0.818609  0.789869  1
  O  O32  1  0.779426  0.159616  0.908430  1
  O  O33  1  0.471759  0.220574  0.908430  1
  O  O34  1  0.840384  0.528241  0.908430  1
