# generated using pymatgen
data_ErAl2GaCu
_symmetry_space_group_name_H-M   'P 1'
_cell_length_a   4.06080679
_cell_length_b   4.06128244
_cell_length_c   6.10348243
_cell_angle_alpha   70.56714417
_cell_angle_beta   70.56951088
_cell_angle_gamma   90.00001633
_symmetry_Int_Tables_number   1
_chemical_formula_structural   ErAl2GaCu
_chemical_formula_sum   'Er1 Al2 Ga1 Cu1'
_cell_volume   88.82247592
_cell_formula_units_Z   1
loop_
 _symmetry_equiv_pos_site_id
 _symmetry_equiv_pos_as_xyz
  1  'x, y, z'
loop_
 _atom_site_type_symbol
 _atom_site_label
 _atom_site_symmetry_multiplicity
 _atom_site_fract_x
 _atom_site_fract_y
 _atom_site_fract_z
 _atom_site_occupancy
  Er  Er0  1  0.993924  0.993924  0.012153  1
  Al  Al1  1  0.743725  0.243725  0.512550  1
  Al  Al2  1  0.243776  0.743776  0.512448  1
  Ga  Ga3  1  0.399927  0.399927  0.200147  1
  Cu  Cu4  1  0.618649  0.618649  0.762702  1
