# generated using pymatgen
data_NdMnSb12Os2Pd
_symmetry_space_group_name_H-M   'P 1'
_cell_length_a   8.14719197
_cell_length_b   8.12974919
_cell_length_c   8.17543735
_cell_angle_alpha   109.58395048
_cell_angle_beta   109.56399638
_cell_angle_gamma   109.38764093
_symmetry_Int_Tables_number   1
_chemical_formula_structural   NdMnSb12Os2Pd
_chemical_formula_sum   'Nd1 Mn1 Sb12 Os2 Pd1'
_cell_volume   416.21509189
_cell_formula_units_Z   1
loop_
 _symmetry_equiv_pos_site_id
 _symmetry_equiv_pos_as_xyz
  1  'x, y, z'
loop_
 _atom_site_type_symbol
 _atom_site_label
 _atom_site_symmetry_multiplicity
 _atom_site_fract_x
 _atom_site_fract_y
 _atom_site_fract_z
 _atom_site_occupancy
  Nd  Nd0  1  0.000000  0.000000  0.000000  1
  Mn  Mn1  1  0.500000  0.000000  0.000000  1
  Sb  Sb2  1  0.167144  0.819212  0.672062  1
  Sb  Sb3  1  0.832856  0.180788  0.327938  1
  Sb  Sb4  1  0.843205  0.503823  0.662192  1
  Sb  Sb5  1  0.156795  0.496177  0.337808  1
  Sb  Sb6  1  0.810173  0.654211  0.149887  1
  Sb  Sb7  1  0.189827  0.345789  0.850113  1
  Sb  Sb8  1  0.506051  0.672392  0.843112  1
  Sb  Sb9  1  0.493949  0.327608  0.156888  1
  Sb  Sb10  1  0.660858  0.155462  0.829131  1
  Sb  Sb11  1  0.339142  0.844538  0.170869  1
  Sb  Sb12  1  0.653970  0.844019  0.503842  1
  Sb  Sb13  1  0.346030  0.155981  0.496158  1
  Os  Os14  1  0.000000  0.500000  0.000000  1
  Os  Os15  1  0.500000  0.500000  0.500000  1
  Pd  Pd16  1  0.000000  0.000000  0.500000  1
