# generated using pymatgen
data_PrNd3Hf4F28
_symmetry_space_group_name_H-M   'P 1'
_cell_length_a   5.82246631
_cell_length_b   9.32568338
_cell_length_c   12.51995085
_cell_angle_alpha   62.06543525
_cell_angle_beta   90.00306355
_cell_angle_gamma   89.98672700
_symmetry_Int_Tables_number   1
_chemical_formula_structural   PrNd3Hf4F28
_chemical_formula_sum   'Pr1 Nd3 Hf4 F28'
_cell_volume   600.60444536
_cell_formula_units_Z   1
loop_
 _symmetry_equiv_pos_site_id
 _symmetry_equiv_pos_as_xyz
  1  'x, y, z'
loop_
 _atom_site_type_symbol
 _atom_site_label
 _atom_site_symmetry_multiplicity
 _atom_site_fract_x
 _atom_site_fract_y
 _atom_site_fract_z
 _atom_site_occupancy
  Pr  Pr0  1  0.742913  0.812643  0.265322  1
  Nd  Nd1  1  0.757250  0.813028  0.765313  1
  Nd  Nd2  1  0.257156  0.187539  0.734748  1
  Nd  Nd3  1  0.242516  0.187945  0.234650  1
  Hf  Hf4  1  0.755848  0.274840  0.956411  1
  Hf  Hf5  1  0.255813  0.726009  0.544053  1
  Hf  Hf6  1  0.244674  0.725868  0.042203  1
  Hf  Hf7  1  0.744298  0.272962  0.457318  1
  F  F8  1  0.455318  0.710938  0.920843  1
  F  F9  1  0.955909  0.288106  0.578335  1
  F  F10  1  0.543957  0.288741  0.077777  1
  F  F11  1  0.045792  0.710829  0.422635  1
  F  F12  1  0.460447  0.280268  0.547542  1
  F  F13  1  0.959584  0.718958  0.952784  1
  F  F14  1  0.540488  0.718654  0.454730  1
  F  F15  1  0.039664  0.281298  0.046937  1
  F  F16  1  0.770095  0.517515  0.861986  1
  F  F17  1  0.269673  0.483119  0.638117  1
  F  F18  1  0.230066  0.483138  0.137075  1
  F  F19  1  0.729289  0.515462  0.362908  1
  F  F20  1  0.762084  0.032484  0.054924  1
  F  F21  1  0.261602  0.968324  0.444136  1
  F  F22  1  0.238344  0.968411  0.943600  1
  F  F23  1  0.738061  0.030628  0.556189  1
  F  F24  1  0.985788  0.732947  0.641421  1
  F  F25  1  0.486612  0.267574  0.858603  1
  F  F26  1  0.014223  0.267360  0.359313  1
  F  F27  1  0.515625  0.732050  0.139217  1
  F  F28  1  0.044486  0.743366  0.167051  1
  F  F29  1  0.541545  0.255242  0.333146  1
  F  F30  1  0.958981  0.256595  0.832572  1
  F  F31  1  0.457670  0.744240  0.668166  1
  F  F32  1  0.412744  0.969729  0.230910  1
  F  F33  1  0.915229  0.032809  0.268945  1
  F  F34  1  0.583105  0.030308  0.768793  1
  F  F35  1  0.083152  0.970072  0.731329  1
