# generated using pymatgen
data_Lu4Al18ZnIr5
_symmetry_space_group_name_H-M   'P 1'
_cell_length_a   7.55674804
_cell_length_b   7.55674774
_cell_length_c   9.37377698
_cell_angle_alpha   90.05114563
_cell_angle_beta   90.05113313
_cell_angle_gamma   119.54652670
_symmetry_Int_Tables_number   1
_chemical_formula_structural   Lu4Al18ZnIr5
_chemical_formula_sum   'Lu4 Al18 Zn1 Ir5'
_cell_volume   465.67278672
_cell_formula_units_Z   1
loop_
 _symmetry_equiv_pos_site_id
 _symmetry_equiv_pos_as_xyz
  1  'x, y, z'
loop_
 _atom_site_type_symbol
 _atom_site_label
 _atom_site_symmetry_multiplicity
 _atom_site_fract_x
 _atom_site_fract_y
 _atom_site_fract_z
 _atom_site_occupancy
  Lu  Lu0  1  0.995245  0.676106  0.250051  1
  Lu  Lu1  1  0.004755  0.323894  0.749949  1
  Lu  Lu2  1  0.676106  0.995245  0.250051  1
  Lu  Lu3  1  0.323894  0.004755  0.749949  1
  Al  Al4  1  0.134796  0.134796  0.255189  1
  Al  Al5  1  0.865204  0.865204  0.744811  1
  Al  Al6  1  0.001143  0.344497  0.081213  1
  Al  Al7  1  0.998857  0.655503  0.918787  1
  Al  Al8  1  0.001308  0.664151  0.573686  1
  Al  Al9  1  0.335849  0.998692  0.426314  1
  Al  Al10  1  0.998692  0.335849  0.426314  1
  Al  Al11  1  0.664151  0.001308  0.573686  1
  Al  Al12  1  0.655503  0.998857  0.918787  1
  Al  Al13  1  0.344497  0.001143  0.081213  1
  Al  Al14  1  0.332050  0.332050  0.552891  1
  Al  Al15  1  0.667950  0.667950  0.447109  1
  Al  Al16  1  0.659616  0.659616  0.059680  1
  Al  Al17  1  0.340384  0.340384  0.940320  1
  Al  Al18  1  0.339901  0.552542  0.251196  1
  Al  Al19  1  0.660099  0.447458  0.748804  1
  Al  Al20  1  0.552542  0.339901  0.251196  1
  Al  Al21  1  0.447458  0.660099  0.748804  1
  Zn  Zn22  1  0.000000  0.000000  0.000000  1
  Ir  Ir23  1  0.672635  0.327365  0.000000  1
  Ir  Ir24  1  0.327365  0.672635  0.000000  1
  Ir  Ir25  1  0.328138  0.671862  0.500000  1
  Ir  Ir26  1  0.671862  0.328138  0.500000  1
  Ir  Ir27  1  0.000000  0.000000  0.500000  1
