# generated using pymatgen
data_Tm5Lu5Pb8
_symmetry_space_group_name_H-M   'P 1'
_cell_length_a   8.11468700
_cell_length_b   8.15830701
_cell_length_c   15.40359202
_cell_angle_alpha   90.00601298
_cell_angle_beta   90.00000000
_cell_angle_gamma   90.00000000
_symmetry_Int_Tables_number   1
_chemical_formula_structural   Tm5Lu5Pb8
_chemical_formula_sum   'Tm10 Lu10 Pb16'
_cell_volume   1019.75025459
_cell_formula_units_Z   2
loop_
 _symmetry_equiv_pos_site_id
 _symmetry_equiv_pos_as_xyz
  1  'x, y, z'
loop_
 _atom_site_type_symbol
 _atom_site_label
 _atom_site_symmetry_multiplicity
 _atom_site_fract_x
 _atom_site_fract_y
 _atom_site_fract_z
 _atom_site_occupancy
  Tm  Tm0  1  0.378197  0.842557  0.621757  1
  Tm  Tm1  1  0.878197  0.657443  0.878243  1
  Tm  Tm2  1  0.540519  0.323759  0.901075  1
  Tm  Tm3  1  0.040519  0.176241  0.598925  1
  Tm  Tm4  1  0.458795  0.675505  0.400025  1
  Tm  Tm5  1  0.958795  0.824495  0.099975  1
  Tm  Tm6  1  0.459673  0.675543  0.099434  1
  Tm  Tm7  1  0.959673  0.824457  0.400566  1
  Tm  Tm8  1  0.540232  0.324049  0.599282  1
  Tm  Tm9  1  0.040232  0.175951  0.900718  1
  Lu  Lu10  1  0.377198  0.843209  0.878034  1
  Lu  Lu11  1  0.877198  0.656791  0.621966  1
  Lu  Lu12  1  0.622682  0.156686  0.378054  1
  Lu  Lu13  1  0.122682  0.343314  0.121946  1
  Lu  Lu14  1  0.622240  0.157190  0.122233  1
  Lu  Lu15  1  0.122240  0.342810  0.377767  1
  Lu  Lu16  1  0.208743  0.505490  0.749922  1
  Lu  Lu17  1  0.708743  0.994510  0.750078  1
  Lu  Lu18  1  0.791160  0.494492  0.249973  1
  Lu  Lu19  1  0.291160  0.005508  0.250027  1
  Pb  Pb20  1  0.280975  0.033039  0.043016  1
  Pb  Pb21  1  0.780975  0.466961  0.456984  1
  Pb  Pb22  1  0.719606  0.966211  0.542743  1
  Pb  Pb23  1  0.219606  0.533789  0.957257  1
  Pb  Pb24  1  0.718798  0.966846  0.957225  1
  Pb  Pb25  1  0.218798  0.533154  0.542775  1
  Pb  Pb26  1  0.281278  0.034031  0.457032  1
  Pb  Pb27  1  0.781278  0.465969  0.042968  1
  Pb  Pb28  1  0.571260  0.625845  0.750448  1
  Pb  Pb29  1  0.071260  0.874155  0.749552  1
  Pb  Pb30  1  0.428451  0.373331  0.250164  1
  Pb  Pb31  1  0.928451  0.126669  0.249836  1
  Pb  Pb32  1  0.351987  0.157475  0.750285  1
  Pb  Pb33  1  0.851987  0.342525  0.749715  1
  Pb  Pb34  1  0.648204  0.843242  0.249948  1
  Pb  Pb35  1  0.148204  0.656758  0.250052  1
