# generated using pymatgen
data_Ho4Si4TcOs
_symmetry_space_group_name_H-M   'P 1'
_cell_length_a   5.75358968
_cell_length_b   5.75358909
_cell_length_c   10.01236217
_cell_angle_alpha   116.55731442
_cell_angle_beta   116.55730921
_cell_angle_gamma   42.93238148
_symmetry_Int_Tables_number   1
_chemical_formula_structural   Ho4Si4TcOs
_chemical_formula_sum   'Ho4 Si4 Tc1 Os1'
_cell_volume   198.00067441
_cell_formula_units_Z   1
loop_
 _symmetry_equiv_pos_site_id
 _symmetry_equiv_pos_as_xyz
  1  'x, y, z'
loop_
 _atom_site_type_symbol
 _atom_site_label
 _atom_site_symmetry_multiplicity
 _atom_site_fract_x
 _atom_site_fract_y
 _atom_site_fract_z
 _atom_site_occupancy
  Ho  Ho0  1  0.006109  0.006109  0.178271  1
  Ho  Ho1  1  0.815316  0.815316  0.390884  1
  Ho  Ho2  1  0.186452  0.186452  0.612299  1
  Ho  Ho3  1  0.991832  0.991832  0.820984  1
  Si  Si4  1  0.641933  0.641933  0.058115  1
  Si  Si5  1  0.503052  0.503052  0.378170  1
  Si  Si6  1  0.498609  0.498609  0.624847  1
  Si  Si7  1  0.355672  0.355672  0.937721  1
  Tc  Tc8  1  0.271724  0.271724  0.127744  1
  Os  Os9  1  0.729304  0.729304  0.870968  1
