# generated using pymatgen
data_Tb5Si11PIr19
_symmetry_space_group_name_H-M   'P 1'
_cell_length_a   12.83578751
_cell_length_b   12.83578833
_cell_length_c   3.97972200
_cell_angle_alpha   90.00000000
_cell_angle_beta   90.00000000
_cell_angle_gamma   119.80831384
_symmetry_Int_Tables_number   1
_chemical_formula_structural   Tb5Si11PIr19
_chemical_formula_sum   'Tb5 Si11 P1 Ir19'
_cell_volume   568.93684643
_cell_formula_units_Z   1
loop_
 _symmetry_equiv_pos_site_id
 _symmetry_equiv_pos_as_xyz
  1  'x, y, z'
loop_
 _atom_site_type_symbol
 _atom_site_label
 _atom_site_symmetry_multiplicity
 _atom_site_fract_x
 _atom_site_fract_y
 _atom_site_fract_z
 _atom_site_occupancy
  Tb  Tb0  1  0.333355  0.666537  0.000000  1
  Tb  Tb1  1  0.666537  0.333355  0.000000  1
  Tb  Tb2  1  0.185992  0.999189  0.500000  1
  Tb  Tb3  1  0.999189  0.185992  0.500000  1
  Tb  Tb4  1  0.814511  0.814511  0.500000  1
  Si  Si5  1  0.367945  0.999765  0.000000  1
  Si  Si6  1  0.999765  0.367945  0.000000  1
  Si  Si7  1  0.631802  0.631802  0.000000  1
  Si  Si8  1  0.313206  0.480951  0.500000  1
  Si  Si9  1  0.519554  0.832186  0.500000  1
  Si  Si10  1  0.168602  0.687641  0.500000  1
  Si  Si11  1  0.832186  0.519554  0.500000  1
  Si  Si12  1  0.687641  0.168602  0.500000  1
  Si  Si13  1  0.480951  0.313206  0.500000  1
  Si  Si14  1  0.819351  0.999174  0.000000  1
  Si  Si15  1  0.999174  0.819351  0.000000  1
  P  P16  1  0.181527  0.181527  0.000000  1
  Ir  Ir17  1  0.193605  0.373717  0.000000  1
  Ir  Ir18  1  0.623222  0.817604  0.000000  1
  Ir  Ir19  1  0.182006  0.805702  0.000000  1
  Ir  Ir20  1  0.817604  0.623222  0.000000  1
  Ir  Ir21  1  0.805702  0.182006  0.000000  1
  Ir  Ir22  1  0.373717  0.193605  0.000000  1
  Ir  Ir23  1  0.553045  0.000479  0.000000  1
  Ir  Ir24  1  0.000479  0.553045  0.000000  1
  Ir  Ir25  1  0.446887  0.446887  0.000000  1
  Ir  Ir26  1  0.127200  0.487179  0.500000  1
  Ir  Ir27  1  0.512345  0.638790  0.500000  1
  Ir  Ir28  1  0.361154  0.874127  0.500000  1
  Ir  Ir29  1  0.638790  0.512345  0.500000  1
  Ir  Ir30  1  0.874127  0.361154  0.500000  1
  Ir  Ir31  1  0.487179  0.127200  0.500000  1
  Ir  Ir32  1  0.717855  0.999890  0.500000  1
  Ir  Ir33  1  0.999890  0.717855  0.500000  1
  Ir  Ir34  1  0.279691  0.279691  0.500000  1
  Ir  Ir35  1  0.004217  0.004217  0.000000  1
