# generated using pymatgen
data_TbDy11Si2(BBr6)2
_symmetry_space_group_name_H-M   'P 1'
_cell_length_a   10.00030059
_cell_length_b   10.00000768
_cell_length_c   9.86220410
_cell_angle_alpha   109.46466704
_cell_angle_beta   109.46587929
_cell_angle_gamma   110.04284738
_symmetry_Int_Tables_number   1
_chemical_formula_structural   TbDy11Si2(BBr6)2
_chemical_formula_sum   'Tb1 Dy11 Si2 B2 Br12'
_cell_volume   753.90694906
_cell_formula_units_Z   1
loop_
 _symmetry_equiv_pos_site_id
 _symmetry_equiv_pos_as_xyz
  1  'x, y, z'
loop_
 _atom_site_type_symbol
 _atom_site_label
 _atom_site_symmetry_multiplicity
 _atom_site_fract_x
 _atom_site_fract_y
 _atom_site_fract_z
 _atom_site_occupancy
  Tb  Tb0  1  0.489767  0.239767  0.479533  1
  Dy  Dy1  1  0.260554  0.010554  0.021110  1
  Dy  Dy2  1  0.032978  0.273880  0.004818  1
  Dy  Dy3  1  0.471840  0.730937  0.004818  1
  Dy  Dy4  1  0.770680  0.241713  0.278903  1
  Dy  Dy5  1  0.008223  0.037190  0.278903  1
  Dy  Dy6  1  0.022442  0.477484  0.749955  1
  Dy  Dy7  1  0.227513  0.272471  0.749955  1
  Dy  Dy8  1  0.258284  0.729366  0.221102  1
  Dy  Dy9  1  0.226070  0.466882  0.495058  1
  Dy  Dy10  1  0.462818  0.491736  0.221102  1
  Dy  Dy11  1  0.768989  0.028175  0.495058  1
  Si  Si12  1  0.500724  0.998865  0.249580  1
  Si  Si13  1  0.248855  0.250715  0.249580  1
  B  B14  1  0.000500  0.250500  0.500999  1
  B  B15  1  0.249503  0.499503  0.999006  1
  Br  Br16  1  0.756133  0.743851  0.249989  1
  Br  Br17  1  0.504397  0.251059  0.994252  1
  Br  Br18  1  0.248423  0.995095  0.505662  1
  Br  Br19  1  0.513375  0.507460  0.758788  1
  Br  Br20  1  0.992969  0.986589  0.741584  1
  Br  Br21  1  0.745439  0.995439  0.990879  1
  Br  Br22  1  0.504547  0.754547  0.509095  1
  Br  Br23  1  0.757240  0.510566  0.505662  1
  Br  Br24  1  0.993855  0.506138  0.249989  1
  Br  Br25  1  0.989856  0.743192  0.994252  1
  Br  Br26  1  0.248615  0.754996  0.741584  1
  Br  Br27  1  0.745411  0.251328  0.758788  1
