# generated using pymatgen
data_Ta8PtS20
_symmetry_space_group_name_H-M   'P 1'
_cell_length_a   10.30221305
_cell_length_b   10.30221342
_cell_length_c   18.86999992
_cell_angle_alpha   76.52987317
_cell_angle_beta   76.52987281
_cell_angle_gamma   18.81356533
_symmetry_Int_Tables_number   1
_chemical_formula_structural   Ta8PtS20
_chemical_formula_sum   'Ta8 Pt1 S20'
_cell_volume   627.61392630
_cell_formula_units_Z   1
loop_
 _symmetry_equiv_pos_site_id
 _symmetry_equiv_pos_as_xyz
  1  'x, y, z'
loop_
 _atom_site_type_symbol
 _atom_site_label
 _atom_site_symmetry_multiplicity
 _atom_site_fract_x
 _atom_site_fract_y
 _atom_site_fract_z
 _atom_site_occupancy
  Ta  Ta0  1  0.080039  0.080039  0.093707  1
  Ta  Ta1  1  0.919961  0.919961  0.906293  1
  Ta  Ta2  1  0.330107  0.330107  0.809285  1
  Ta  Ta3  1  0.669893  0.669893  0.190715  1
  Ta  Ta4  1  0.266947  0.266947  0.281319  1
  Ta  Ta5  1  0.733053  0.733053  0.718681  1
  Ta  Ta6  1  0.160548  0.160548  0.553439  1
  Ta  Ta7  1  0.839452  0.839452  0.446561  1
  Pt  Pt8  1  0.500000  0.500000  0.000000  1
  S  S9  1  0.433449  0.433449  0.403148  1
  S  S10  1  0.566551  0.566551  0.596852  1
  S  S11  1  0.395630  0.395630  0.514655  1
  S  S12  1  0.604370  0.604370  0.485345  1
  S  S13  1  0.151868  0.151868  0.690452  1
  S  S14  1  0.848132  0.848132  0.309548  1
  S  S15  1  0.383741  0.383741  0.003652  1
  S  S16  1  0.616259  0.616259  0.996348  1
  S  S17  1  0.206213  0.206213  0.818990  1
  S  S18  1  0.793787  0.793787  0.181010  1
  S  S19  1  0.253245  0.253245  0.430175  1
  S  S20  1  0.746755  0.746755  0.569825  1
  S  S21  1  0.325749  0.325749  0.678749  1
  S  S22  1  0.674251  0.674251  0.321251  1
  S  S23  1  0.488912  0.488912  0.127332  1
  S  S24  1  0.511088  0.511088  0.872668  1
  S  S25  1  0.201652  0.201652  0.092784  1
  S  S26  1  0.798348  0.798348  0.907216  1
  S  S27  1  0.078527  0.078527  0.226540  1
  S  S28  1  0.921473  0.921473  0.773460  1
