# generated using pymatgen
data_ThZn2CuAu3
_symmetry_space_group_name_H-M   'P 1'
_cell_length_a   5.51092597
_cell_length_b   5.51092478
_cell_length_c   5.66517620
_cell_angle_alpha   102.93390286
_cell_angle_beta   102.93389295
_cell_angle_gamma   122.67115185
_symmetry_Int_Tables_number   1
_chemical_formula_structural   ThZn2CuAu3
_chemical_formula_sum   'Th1 Zn2 Cu1 Au3'
_cell_volume   128.09734813
_cell_formula_units_Z   1
loop_
 _symmetry_equiv_pos_site_id
 _symmetry_equiv_pos_as_xyz
  1  'x, y, z'
loop_
 _atom_site_type_symbol
 _atom_site_label
 _atom_site_symmetry_multiplicity
 _atom_site_fract_x
 _atom_site_fract_y
 _atom_site_fract_z
 _atom_site_occupancy
  Th  Th0  1  0.007883  0.007883  0.015765  1
  Zn  Zn1  1  0.249512  0.749512  0.499024  1
  Zn  Zn2  1  0.749512  0.249512  0.499024  1
  Cu  Cu3  1  0.298799  0.298799  0.597598  1
  Au  Au4  1  0.710401  0.710401  0.420803  1
  Au  Au5  1  0.677153  0.306740  0.983893  1
  Au  Au6  1  0.306740  0.677153  0.983893  1
