# generated using pymatgen
data_TbSm5(Lu7Pt8)2
_symmetry_space_group_name_H-M   'P 1'
_cell_length_a   7.41761932
_cell_length_b   7.49220840
_cell_length_c   14.65011261
_cell_angle_alpha   90.00726325
_cell_angle_beta   89.99270106
_cell_angle_gamma   90.03301684
_symmetry_Int_Tables_number   1
_chemical_formula_structural   TbSm5(Lu7Pt8)2
_chemical_formula_sum   'Tb1 Sm5 Lu14 Pt16'
_cell_volume   814.17033472
_cell_formula_units_Z   1
loop_
 _symmetry_equiv_pos_site_id
 _symmetry_equiv_pos_as_xyz
  1  'x, y, z'
loop_
 _atom_site_type_symbol
 _atom_site_label
 _atom_site_symmetry_multiplicity
 _atom_site_fract_x
 _atom_site_fract_y
 _atom_site_fract_z
 _atom_site_occupancy
  Tb  Tb0  1  0.986456  0.823264  0.594805  1
  Sm  Sm1  1  0.513035  0.324013  0.094151  1
  Sm  Sm2  1  0.013076  0.174698  0.406505  1
  Sm  Sm3  1  0.512175  0.329524  0.407480  1
  Sm  Sm4  1  0.011908  0.170789  0.092330  1
  Sm  Sm5  1  0.487223  0.676095  0.905427  1
  Lu  Lu6  1  0.644894  0.167158  0.622871  1
  Lu  Lu7  1  0.144406  0.332515  0.876088  1
  Lu  Lu8  1  0.356377  0.833258  0.122416  1
  Lu  Lu9  1  0.857232  0.667215  0.377996  1
  Lu  Lu10  1  0.358265  0.830900  0.379469  1
  Lu  Lu11  1  0.858361  0.669410  0.120971  1
  Lu  Lu12  1  0.646249  0.166490  0.876968  1
  Lu  Lu13  1  0.145452  0.333302  0.622559  1
  Lu  Lu14  1  0.487109  0.678471  0.596666  1
  Lu  Lu15  1  0.988146  0.821464  0.903262  1
  Lu  Lu16  1  0.805214  0.508555  0.749391  1
  Lu  Lu17  1  0.305368  0.991504  0.749464  1
  Lu  Lu18  1  0.193732  0.491331  0.249700  1
  Lu  Lu19  1  0.693748  0.008649  0.250772  1
  Pt  Pt20  1  0.688715  0.961171  0.460852  1
  Pt  Pt21  1  0.188046  0.536894  0.040632  1
  Pt  Pt22  1  0.304838  0.029004  0.955555  1
  Pt  Pt23  1  0.805201  0.474484  0.545243  1
  Pt  Pt24  1  0.312243  0.026575  0.545467  1
  Pt  Pt25  1  0.816467  0.471362  0.955018  1
  Pt  Pt26  1  0.688280  0.960219  0.038100  1
  Pt  Pt27  1  0.188017  0.540458  0.462259  1
  Pt  Pt28  1  0.438470  0.380580  0.748689  1
  Pt  Pt29  1  0.939362  0.118397  0.750335  1
  Pt  Pt30  1  0.561957  0.626183  0.250212  1
  Pt  Pt31  1  0.061949  0.874882  0.250375  1
  Pt  Pt32  1  0.668355  0.859471  0.747573  1
  Pt  Pt33  1  0.165869  0.641959  0.749839  1
  Pt  Pt34  1  0.331941  0.138649  0.251031  1
  Pt  Pt35  1  0.831862  0.361106  0.249529  1
