# generated using pymatgen
data_Tm7Sc3(PPb3)2
_symmetry_space_group_name_H-M   'P 1'
_cell_length_a   8.97057600
_cell_length_b   8.97057489
_cell_length_c   6.53379700
_cell_angle_alpha   90.00000000
_cell_angle_beta   90.00000000
_cell_angle_gamma   119.99999671
_symmetry_Int_Tables_number   1
_chemical_formula_structural   Tm7Sc3(PPb3)2
_chemical_formula_sum   'Tm7 Sc3 P2 Pb6'
_cell_volume   455.34113892
_cell_formula_units_Z   1
loop_
 _symmetry_equiv_pos_site_id
 _symmetry_equiv_pos_as_xyz
  1  'x, y, z'
loop_
 _atom_site_type_symbol
 _atom_site_label
 _atom_site_symmetry_multiplicity
 _atom_site_fract_x
 _atom_site_fract_y
 _atom_site_fract_z
 _atom_site_occupancy
  Tm  Tm0  1  0.759568  0.759978  0.249477  1
  Tm  Tm1  1  0.240022  0.999590  0.249477  1
  Tm  Tm2  1  0.000410  0.240432  0.249477  1
  Tm  Tm3  1  0.240022  0.240432  0.750523  1
  Tm  Tm4  1  0.759568  0.999590  0.750523  1
  Tm  Tm5  1  0.000410  0.759978  0.750523  1
  Tm  Tm6  1  0.666667  0.333333  0.500000  1
  Sc  Sc7  1  0.333333  0.666667  0.500000  1
  Sc  Sc8  1  0.333333  0.666667  0.000000  1
  Sc  Sc9  1  0.666667  0.333333  0.000000  1
  P  P10  1  0.000000  0.000000  0.500000  1
  P  P11  1  0.000000  0.000000  0.000000  1
  Pb  Pb12  1  0.400721  0.403441  0.247329  1
  Pb  Pb13  1  0.596559  0.997280  0.247329  1
  Pb  Pb14  1  0.002720  0.599279  0.247329  1
  Pb  Pb15  1  0.596559  0.599279  0.752671  1
  Pb  Pb16  1  0.400721  0.997280  0.752671  1
  Pb  Pb17  1  0.002720  0.403441  0.752671  1
