# generated using pymatgen
data_Tb9Dy5(Er3Pb8)2
_symmetry_space_group_name_H-M   'P 1'
_cell_length_a   8.19897730
_cell_length_b   8.28428632
_cell_length_c   15.64050003
_cell_angle_alpha   90.00036829
_cell_angle_beta   90.01529028
_cell_angle_gamma   90.04230366
_symmetry_Int_Tables_number   1
_chemical_formula_structural   Tb9Dy5(Er3Pb8)2
_chemical_formula_sum   'Tb9 Dy5 Er6 Pb16'
_cell_volume   1062.34428170
_cell_formula_units_Z   1
loop_
 _symmetry_equiv_pos_site_id
 _symmetry_equiv_pos_as_xyz
  1  'x, y, z'
loop_
 _atom_site_type_symbol
 _atom_site_label
 _atom_site_symmetry_multiplicity
 _atom_site_fract_x
 _atom_site_fract_y
 _atom_site_fract_z
 _atom_site_occupancy
  Tb  Tb0  1  0.876679  0.659330  0.879503  1
  Tb  Tb1  1  0.534186  0.322882  0.900123  1
  Tb  Tb2  1  0.034449  0.176846  0.599648  1
  Tb  Tb3  1  0.465644  0.676891  0.400181  1
  Tb  Tb4  1  0.965656  0.823386  0.100272  1
  Tb  Tb5  1  0.465954  0.676722  0.099964  1
  Tb  Tb6  1  0.965653  0.823003  0.400065  1
  Tb  Tb7  1  0.534161  0.322871  0.599831  1
  Tb  Tb8  1  0.034305  0.176681  0.900010  1
  Dy  Dy9  1  0.376391  0.840857  0.879018  1
  Dy  Dy10  1  0.876408  0.658981  0.620799  1
  Dy  Dy11  1  0.623631  0.158961  0.379134  1
  Dy  Dy12  1  0.123469  0.341086  0.120828  1
  Dy  Dy13  1  0.623354  0.158868  0.121198  1
  Er  Er14  1  0.123640  0.340990  0.379073  1
  Er  Er15  1  0.376507  0.841135  0.620739  1
  Er  Er16  1  0.208529  0.504303  0.749734  1
  Er  Er17  1  0.708027  0.995841  0.749727  1
  Er  Er18  1  0.791783  0.495534  0.250273  1
  Er  Er19  1  0.291517  0.004345  0.250096  1
  Pb  Pb20  1  0.282236  0.034063  0.042815  1
  Pb  Pb21  1  0.782810  0.465829  0.457098  1
  Pb  Pb22  1  0.717245  0.965831  0.542823  1
  Pb  Pb23  1  0.218939  0.533624  0.957259  1
  Pb  Pb24  1  0.716983  0.967081  0.957258  1
  Pb  Pb25  1  0.217659  0.534234  0.542597  1
  Pb  Pb26  1  0.282193  0.034271  0.457290  1
  Pb  Pb27  1  0.782078  0.465449  0.043421  1
  Pb  Pb28  1  0.570975  0.627202  0.749582  1
  Pb  Pb29  1  0.072095  0.873560  0.749517  1
  Pb  Pb30  1  0.428187  0.373017  0.250174  1
  Pb  Pb31  1  0.928830  0.127233  0.250142  1
  Pb  Pb32  1  0.345500  0.152340  0.749868  1
  Pb  Pb33  1  0.845448  0.347011  0.749782  1
  Pb  Pb34  1  0.654449  0.847295  0.250038  1
  Pb  Pb35  1  0.154430  0.652447  0.250121  1
