# generated using pymatgen
data_CaYbHoZn11
_symmetry_space_group_name_H-M   'P 1'
_cell_length_a   4.37463487
_cell_length_b   8.20363070
_cell_length_c   8.20363086
_cell_angle_alpha   65.97645674
_cell_angle_beta   74.53627769
_cell_angle_gamma   74.53628129
_symmetry_Int_Tables_number   1
_chemical_formula_structural   CaYbHoZn11
_chemical_formula_sum   'Ca1 Yb1 Ho1 Zn11'
_cell_volume   254.96099582
_cell_formula_units_Z   1
loop_
 _symmetry_equiv_pos_site_id
 _symmetry_equiv_pos_as_xyz
  1  'x, y, z'
loop_
 _atom_site_type_symbol
 _atom_site_label
 _atom_site_symmetry_multiplicity
 _atom_site_fract_x
 _atom_site_fract_y
 _atom_site_fract_z
 _atom_site_occupancy
  Ca  Ca0  1  0.999775  0.000225  0.000225  1
  Yb  Yb1  1  0.296133  0.703867  0.703867  1
  Ho  Ho2  1  0.704186  0.295814  0.295814  1
  Zn  Zn3  1  0.000460  0.499540  0.499540  1
  Zn  Zn4  1  0.499676  0.686545  0.314102  1
  Zn  Zn5  1  0.499676  0.314102  0.686545  1
  Zn  Zn6  1  0.663848  0.693511  0.978794  1
  Zn  Zn7  1  0.336045  0.307413  0.020497  1
  Zn  Zn8  1  0.663848  0.978794  0.693511  1
  Zn  Zn9  1  0.336045  0.020497  0.307413  1
  Zn  Zn10  1  0.865280  0.421920  0.847519  1
  Zn  Zn11  1  0.134874  0.575880  0.154372  1
  Zn  Zn12  1  0.865280  0.847519  0.421920  1
  Zn  Zn13  1  0.134874  0.154372  0.575880  1
