# generated using pymatgen
data_HoEr6Lu(OsBr4)2
_symmetry_space_group_name_H-M   'P 1'
_cell_length_a   8.89862886
_cell_length_b   8.91727184
_cell_length_c   6.50891135
_cell_angle_alpha   89.48820109
_cell_angle_beta   89.58969794
_cell_angle_gamma   89.29329346
_symmetry_Int_Tables_number   1
_chemical_formula_structural   HoEr6Lu(OsBr4)2
_chemical_formula_sum   'Ho1 Er6 Lu1 Os2 Br8'
_cell_volume   516.41909768
_cell_formula_units_Z   1
loop_
 _symmetry_equiv_pos_site_id
 _symmetry_equiv_pos_as_xyz
  1  'x, y, z'
loop_
 _atom_site_type_symbol
 _atom_site_label
 _atom_site_symmetry_multiplicity
 _atom_site_fract_x
 _atom_site_fract_y
 _atom_site_fract_z
 _atom_site_occupancy
  Ho  Ho0  1  0.750414  0.098734  0.989572  1
  Er  Er1  1  0.099279  0.751686  0.490136  1
  Er  Er2  1  0.902254  0.247877  0.510331  1
  Er  Er3  1  0.752761  0.902872  0.508616  1
  Er  Er4  1  0.248140  0.096067  0.492199  1
  Er  Er5  1  0.097659  0.246800  0.992297  1
  Er  Er6  1  0.903105  0.752544  0.008930  1
  Lu  Lu7  1  0.244265  0.902849  0.011729  1
  Os  Os8  1  0.995618  0.004464  0.250925  1
  Os  Os9  1  0.005455  0.994768  0.750580  1
  Br  Br10  1  0.419755  0.817182  0.404988  1
  Br  Br11  1  0.581035  0.183528  0.590651  1
  Br  Br12  1  0.184135  0.582056  0.091038  1
  Br  Br13  1  0.817115  0.419164  0.908844  1
  Br  Br14  1  0.414244  0.188662  0.093946  1
  Br  Br15  1  0.583644  0.811362  0.904887  1
  Br  Br16  1  0.810269  0.585527  0.406438  1
  Br  Br17  1  0.190854  0.413858  0.593892  1
