# generated using pymatgen
data_CeY3In2Ru3
_symmetry_space_group_name_H-M   'P 1'
_cell_length_a   7.57796671
_cell_length_b   7.50887566
_cell_length_c   4.00920900
_cell_angle_alpha   90.00000000
_cell_angle_beta   90.00000000
_cell_angle_gamma   119.69885514
_symmetry_Int_Tables_number   1
_chemical_formula_structural   CeY3In2Ru3
_chemical_formula_sum   'Ce1 Y3 In2 Ru3'
_cell_volume   198.16494641
_cell_formula_units_Z   1
loop_
 _symmetry_equiv_pos_site_id
 _symmetry_equiv_pos_as_xyz
  1  'x, y, z'
loop_
 _atom_site_type_symbol
 _atom_site_label
 _atom_site_symmetry_multiplicity
 _atom_site_fract_x
 _atom_site_fract_y
 _atom_site_fract_z
 _atom_site_occupancy
  Ce  Ce0  1  0.000000  0.269184  0.500000  1
  Y  Y1  1  0.438819  0.406500  0.000000  1
  Y  Y2  1  0.561181  0.967680  0.000000  1
  Y  Y3  1  0.000000  0.631172  0.000000  1
  In  In4  1  0.736173  0.747979  0.500000  1
  In  In5  1  0.263827  0.011806  0.500000  1
  Ru  Ru6  1  0.000000  0.011198  0.000000  1
  Ru  Ru7  1  0.300827  0.627654  0.500000  1
  Ru  Ru8  1  0.699173  0.326826  0.500000  1
