# generated using pymatgen
data_LiHo16Zn3Co4
_symmetry_space_group_name_H-M   'P 1'
_cell_length_a   9.32881739
_cell_length_b   9.32881737
_cell_length_c   9.37801678
_cell_angle_alpha   60.17339831
_cell_angle_beta   60.17339552
_cell_angle_gamma   60.00000451
_symmetry_Int_Tables_number   1
_chemical_formula_structural   LiHo16Zn3Co4
_chemical_formula_sum   'Li1 Ho16 Zn3 Co4'
_cell_volume   578.60540542
_cell_formula_units_Z   1
loop_
 _symmetry_equiv_pos_site_id
 _symmetry_equiv_pos_as_xyz
  1  'x, y, z'
loop_
 _atom_site_type_symbol
 _atom_site_label
 _atom_site_symmetry_multiplicity
 _atom_site_fract_x
 _atom_site_fract_y
 _atom_site_fract_z
 _atom_site_occupancy
  Li  Li0  1  0.819099  0.819099  0.542701  1
  Ho  Ho1  1  0.441539  0.441539  0.057567  1
  Ho  Ho2  1  0.596671  0.596671  0.599604  1
  Ho  Ho3  1  0.186802  0.813863  0.812532  1
  Ho  Ho4  1  0.061860  0.061860  0.439358  1
  Ho  Ho5  1  0.441539  0.059357  0.057567  1
  Ho  Ho6  1  0.813863  0.186802  0.812532  1
  Ho  Ho7  1  0.436922  0.061860  0.439358  1
  Ho  Ho8  1  0.596671  0.207055  0.599604  1
  Ho  Ho9  1  0.812104  0.812104  0.182630  1
  Ho  Ho10  1  0.207055  0.596671  0.599604  1
  Ho  Ho11  1  0.812104  0.193163  0.182630  1
  Ho  Ho12  1  0.061860  0.436922  0.439358  1
  Ho  Ho13  1  0.193163  0.812104  0.182630  1
  Ho  Ho14  1  0.600684  0.600684  0.197949  1
  Ho  Ho15  1  0.186802  0.186802  0.812532  1
  Ho  Ho16  1  0.059357  0.441539  0.057567  1
  Zn  Zn17  1  0.828771  0.828771  0.830934  1
  Zn  Zn18  1  0.511523  0.828771  0.830934  1
  Zn  Zn19  1  0.828771  0.511523  0.830934  1
  Co  Co20  1  0.392804  0.392804  0.388490  1
  Co  Co21  1  0.825903  0.392804  0.388490  1
  Co  Co22  1  0.392804  0.825903  0.388490  1
  Co  Co23  1  0.391332  0.391332  0.826003  1
