# generated using pymatgen
data_YEr10(Lu3Bi4)3
_symmetry_space_group_name_H-M   'P 1'
_cell_length_a   8.15545068
_cell_length_b   9.43215750
_cell_length_c   11.90916658
_cell_angle_alpha   89.99015944
_cell_angle_beta   90.01617256
_cell_angle_gamma   89.97490738
_symmetry_Int_Tables_number   1
_chemical_formula_structural   YEr10(Lu3Bi4)3
_chemical_formula_sum   'Y1 Er10 Lu9 Bi12'
_cell_volume   916.09458147
_cell_formula_units_Z   1
loop_
 _symmetry_equiv_pos_site_id
 _symmetry_equiv_pos_as_xyz
  1  'x, y, z'
loop_
 _atom_site_type_symbol
 _atom_site_label
 _atom_site_symmetry_multiplicity
 _atom_site_fract_x
 _atom_site_fract_y
 _atom_site_fract_z
 _atom_site_occupancy
  Y  Y0  1  0.146589  0.248494  0.716641  1
  Er  Er1  1  0.185785  0.749891  0.718092  1
  Er  Er2  1  0.686439  0.749428  0.782434  1
  Er  Er3  1  0.813614  0.249881  0.282138  1
  Er  Er4  1  0.313436  0.249487  0.217928  1
  Er  Er5  1  0.192506  0.937851  0.439797  1
  Er  Er6  1  0.309217  0.062680  0.941710  1
  Er  Er7  1  0.806915  0.437997  0.559897  1
  Er  Er8  1  0.355133  0.750030  0.216751  1
  Er  Er9  1  0.852693  0.748564  0.282321  1
  Er  Er10  1  0.645745  0.249561  0.783271  1
  Lu  Lu11  1  0.021918  0.749387  0.989508  1
  Lu  Lu12  1  0.522814  0.750295  0.510503  1
  Lu  Lu13  1  0.977198  0.248890  0.011010  1
  Lu  Lu14  1  0.477296  0.249972  0.489083  1
  Lu  Lu15  1  0.308580  0.430666  0.941539  1
  Lu  Lu16  1  0.808804  0.069774  0.559187  1
  Lu  Lu17  1  0.690578  0.931266  0.058604  1
  Lu  Lu18  1  0.191114  0.569981  0.440542  1
  Lu  Lu19  1  0.692607  0.565495  0.059347  1
  Bi  Bi20  1  0.434827  0.002907  0.672981  1
  Bi  Bi21  1  0.933946  0.496015  0.827454  1
  Bi  Bi22  1  0.566012  0.503501  0.326902  1
  Bi  Bi23  1  0.065779  0.995507  0.172971  1
  Bi  Bi24  1  0.567299  0.996181  0.327126  1
  Bi  Bi25  1  0.066554  0.503256  0.172411  1
  Bi  Bi26  1  0.433647  0.496428  0.672697  1
  Bi  Bi27  1  0.932550  0.002621  0.827799  1
  Bi  Bi28  1  0.403130  0.745137  0.956831  1
  Bi  Bi29  1  0.903673  0.754807  0.542501  1
  Bi  Bi30  1  0.597687  0.249166  0.043696  1
  Bi  Bi31  1  0.095914  0.254886  0.456328  1
