# generated using pymatgen
data_PrY5(CI5)2
_symmetry_space_group_name_H-M   'P 1'
_cell_length_a   7.73190855
_cell_length_b   9.60226999
_cell_length_c   9.66224334
_cell_angle_alpha   106.84655679
_cell_angle_beta   96.22931029
_cell_angle_gamma   104.61412460
_symmetry_Int_Tables_number   1
_chemical_formula_structural   PrY5(CI5)2
_chemical_formula_sum   'Pr1 Y5 C2 I10'
_cell_volume   651.46168233
_cell_formula_units_Z   1
loop_
 _symmetry_equiv_pos_site_id
 _symmetry_equiv_pos_as_xyz
  1  'x, y, z'
loop_
 _atom_site_type_symbol
 _atom_site_label
 _atom_site_symmetry_multiplicity
 _atom_site_fract_x
 _atom_site_fract_y
 _atom_site_fract_z
 _atom_site_occupancy
  Pr  Pr0  1  0.109278  0.040500  0.774422  1
  Y  Y1  1  0.371106  0.130868  0.175768  1
  Y  Y2  1  0.894823  0.960852  0.219454  1
  Y  Y3  1  0.028679  0.744481  0.925540  1
  Y  Y4  1  0.972369  0.254588  0.073678  1
  Y  Y5  1  0.628273  0.868412  0.824120  1
  C  C6  1  0.908017  0.969454  0.962086  1
  C  C7  1  0.088658  0.028739  0.043864  1
  I  I8  1  0.198218  0.727767  0.650921  1
  I  I9  1  0.084091  0.375226  0.828300  1
  I  I10  1  0.456547  0.812674  0.093241  1
  I  I11  1  0.253925  0.084211  0.454798  1
  I  I12  1  0.552550  0.191037  0.910995  1
  I  I13  1  0.805073  0.260426  0.347360  1
  I  I14  1  0.342964  0.449314  0.270572  1
  I  I15  1  0.913286  0.638755  0.177561  1
  I  I16  1  0.657279  0.550558  0.729064  1
  I  I17  1  0.734865  0.912139  0.538255  1
