# generated using pymatgen
data_Zr4Ti3VP4
_symmetry_space_group_name_H-M   'P 1'
_cell_length_a   3.56301100
_cell_length_b   6.72947876
_cell_length_c   8.14645223
_cell_angle_alpha   89.91625016
_cell_angle_beta   90.00000000
_cell_angle_gamma   90.00000000
_symmetry_Int_Tables_number   1
_chemical_formula_structural   Zr4Ti3VP4
_chemical_formula_sum   'Zr4 Ti3 V1 P4'
_cell_volume   195.32896130
_cell_formula_units_Z   1
loop_
 _symmetry_equiv_pos_site_id
 _symmetry_equiv_pos_as_xyz
  1  'x, y, z'
loop_
 _atom_site_type_symbol
 _atom_site_label
 _atom_site_symmetry_multiplicity
 _atom_site_fract_x
 _atom_site_fract_y
 _atom_site_fract_z
 _atom_site_occupancy
  Zr  Zr0  1  0.250000  0.038369  0.828522  1
  Zr  Zr1  1  0.750000  0.963177  0.172202  1
  Zr  Zr2  1  0.250000  0.537056  0.668964  1
  Zr  Zr3  1  0.750000  0.456665  0.332537  1
  Ti  Ti4  1  0.750000  0.363359  0.940012  1
  Ti  Ti5  1  0.250000  0.635011  0.060870  1
  Ti  Ti6  1  0.750000  0.870735  0.557654  1
  V  V7  1  0.250000  0.134581  0.441802  1
  P  P8  1  0.250000  0.763454  0.362343  1
  P  P9  1  0.750000  0.238198  0.632874  1
  P  P10  1  0.250000  0.260615  0.140405  1
  P  P11  1  0.750000  0.738780  0.861816  1
