# generated using pymatgen
data_Tb2Fe3Re11(MoC)3
_symmetry_space_group_name_H-M   'P 1'
_cell_length_a   6.95299542
_cell_length_b   6.95299428
_cell_length_c   6.96410866
_cell_angle_alpha   82.44808798
_cell_angle_beta   82.44808536
_cell_angle_gamma   82.39790575
_symmetry_Int_Tables_number   1
_chemical_formula_structural   Tb2Fe3Re11(MoC)3
_chemical_formula_sum   'Tb2 Fe3 Re11 Mo3 C3'
_cell_volume   328.58466965
_cell_formula_units_Z   1
loop_
 _symmetry_equiv_pos_site_id
 _symmetry_equiv_pos_as_xyz
  1  'x, y, z'
loop_
 _atom_site_type_symbol
 _atom_site_label
 _atom_site_symmetry_multiplicity
 _atom_site_fract_x
 _atom_site_fract_y
 _atom_site_fract_z
 _atom_site_occupancy
  Tb  Tb0  1  0.647636  0.647636  0.647996  1
  Tb  Tb1  1  0.351336  0.351336  0.351273  1
  Fe  Fe2  1  0.000490  0.000490  0.498246  1
  Fe  Fe3  1  0.498637  0.000308  0.000479  1
  Fe  Fe4  1  0.000308  0.498637  0.000479  1
  Re  Re5  1  0.719534  0.280519  0.000335  1
  Re  Re6  1  0.001550  0.721444  0.279787  1
  Re  Re7  1  0.278492  0.998950  0.720142  1
  Re  Re8  1  0.998950  0.278492  0.720142  1
  Re  Re9  1  0.721444  0.001550  0.279787  1
  Re  Re10  1  0.280519  0.719534  0.000335  1
  Re  Re11  1  0.864595  0.343679  0.344913  1
  Re  Re12  1  0.343679  0.864595  0.344913  1
  Re  Re13  1  0.138755  0.655251  0.654208  1
  Re  Re14  1  0.655251  0.138755  0.654208  1
  Re  Re15  1  0.101577  0.101577  0.103434  1
  Mo  Mo16  1  0.342649  0.342649  0.861070  1
  Mo  Mo17  1  0.656319  0.656319  0.142390  1
  Mo  Mo18  1  0.898044  0.898044  0.895841  1
  C  C19  1  0.499876  0.499876  0.000264  1
  C  C20  1  0.000522  0.499838  0.499880  1
  C  C21  1  0.499838  0.000522  0.499880  1
