# generated using pymatgen
data_CdSb14
_symmetry_space_group_name_H-M   'P 1'
_cell_length_a   4.33964799
_cell_length_b   4.33964890
_cell_length_c   27.30292500
_cell_angle_alpha   91.72996961
_cell_angle_beta   91.72996998
_cell_angle_gamma   61.84948822
_symmetry_Int_Tables_number   1
_chemical_formula_structural   CdSb14
_chemical_formula_sum   'Cd1 Sb14'
_cell_volume   453.08071184
_cell_formula_units_Z   1
loop_
 _symmetry_equiv_pos_site_id
 _symmetry_equiv_pos_as_xyz
  1  'x, y, z'
loop_
 _atom_site_type_symbol
 _atom_site_label
 _atom_site_symmetry_multiplicity
 _atom_site_fract_x
 _atom_site_fract_y
 _atom_site_fract_z
 _atom_site_occupancy
  Cd  Cd0  1  0.000000  0.000000  0.800000  1
  Sb  Sb1  1  0.666325  0.666325  0.058060  1
  Sb  Sb2  1  0.664777  0.664777  0.272505  1
  Sb  Sb3  1  0.669013  0.669013  0.462269  1
  Sb  Sb4  1  0.665315  0.665315  0.675145  1
  Sb  Sb5  1  0.664828  0.664828  0.868829  1
  Sb  Sb6  1  0.330987  0.330987  0.137731  1
  Sb  Sb7  1  0.335223  0.335223  0.327495  1
  Sb  Sb8  1  0.333675  0.333675  0.541940  1
  Sb  Sb9  1  0.335172  0.335172  0.731171  1
  Sb  Sb10  1  0.334685  0.334685  0.924855  1
  Sb  Sb11  1  0.996036  0.996036  0.002825  1
  Sb  Sb12  1  0.001770  0.001770  0.192748  1
  Sb  Sb13  1  0.998230  0.998230  0.407252  1
  Sb  Sb14  1  0.003964  0.003964  0.597175  1
