# generated using pymatgen
data_Tb2Bi2Os2O11
_symmetry_space_group_name_H-M   'P 1'
_cell_length_a   6.58144039
_cell_length_b   7.53897169
_cell_length_c   9.70542453
_cell_angle_alpha   101.17218743
_cell_angle_beta   91.26292715
_cell_angle_gamma   90.05516229
_symmetry_Int_Tables_number   1
_chemical_formula_structural   Tb2Bi2Os2O11
_chemical_formula_sum   'Tb4 Bi4 Os4 O22'
_cell_volume   472.30957599
_cell_formula_units_Z   2
loop_
 _symmetry_equiv_pos_site_id
 _symmetry_equiv_pos_as_xyz
  1  'x, y, z'
loop_
 _atom_site_type_symbol
 _atom_site_label
 _atom_site_symmetry_multiplicity
 _atom_site_fract_x
 _atom_site_fract_y
 _atom_site_fract_z
 _atom_site_occupancy
  Tb  Tb0  1  0.745624  0.368974  0.481787  1
  Tb  Tb1  1  0.254376  0.631026  0.518213  1
  Tb  Tb2  1  0.755682  0.872507  0.489110  1
  Tb  Tb3  1  0.244318  0.127493  0.510890  1
  Bi  Bi4  1  0.459478  0.955416  0.819703  1
  Bi  Bi5  1  0.540522  0.044584  0.180297  1
  Bi  Bi6  1  0.405362  0.454735  0.825029  1
  Bi  Bi7  1  0.594638  0.545265  0.174971  1
  Os  Os8  1  0.930315  0.701215  0.808697  1
  Os  Os9  1  0.069685  0.298785  0.191303  1
  Os  Os10  1  0.931465  0.201458  0.807213  1
  Os  Os11  1  0.068535  0.798542  0.192787  1
  O  O12  1  0.224987  0.717749  0.759266  1
  O  O13  1  0.775013  0.282251  0.240734  1
  O  O14  1  0.634713  0.679761  0.837359  1
  O  O15  1  0.365287  0.320239  0.162641  1
  O  O16  1  0.635693  0.237560  0.835569  1
  O  O17  1  0.364307  0.762440  0.164431  1
  O  O18  1  0.894424  0.158766  0.592989  1
  O  O19  1  0.105576  0.841234  0.407011  1
  O  O20  1  0.224026  0.159238  0.755263  1
  O  O21  1  0.775974  0.840762  0.244737  1
  O  O22  1  0.895188  0.637186  0.597670  1
  O  O23  1  0.104812  0.362814  0.402330  1
  O  O24  1  0.022875  0.547022  0.185920  1
  O  O25  1  0.977125  0.452978  0.814080  1
  O  O26  1  0.998796  0.773570  0.001114  1
  O  O27  1  0.001204  0.226430  0.998886  1
  O  O28  1  0.568240  0.600182  0.397302  1
  O  O29  1  0.431760  0.399818  0.602698  1
  O  O30  1  0.145586  0.054961  0.217759  1
  O  O31  1  0.854414  0.945039  0.782241  1
  O  O32  1  0.544544  0.101205  0.402082  1
  O  O33  1  0.455456  0.898795  0.597918  1
