# generated using pymatgen
data_Tb2Lu2GaCo4
_symmetry_space_group_name_H-M   'P 1'
_cell_length_a   5.43241775
_cell_length_b   5.43241604
_cell_length_c   8.81850001
_cell_angle_alpha   71.22162306
_cell_angle_beta   71.22163098
_cell_angle_gamma   43.31202425
_symmetry_Int_Tables_number   1
_chemical_formula_structural   Tb2Lu2GaCo4
_chemical_formula_sum   'Tb2 Lu2 Ga1 Co4'
_cell_volume   167.47014367
_cell_formula_units_Z   1
loop_
 _symmetry_equiv_pos_site_id
 _symmetry_equiv_pos_as_xyz
  1  'x, y, z'
loop_
 _atom_site_type_symbol
 _atom_site_label
 _atom_site_symmetry_multiplicity
 _atom_site_fract_x
 _atom_site_fract_y
 _atom_site_fract_z
 _atom_site_occupancy
  Tb  Tb0  1  0.745583  0.745583  0.665428  1
  Tb  Tb1  1  0.254417  0.254417  0.334572  1
  Lu  Lu2  1  0.391670  0.391670  0.887860  1
  Lu  Lu3  1  0.608330  0.608330  0.112140  1
  Ga  Ga4  1  0.500000  0.500000  0.500000  1
  Co  Co5  1  0.034994  0.034994  0.647783  1
  Co  Co6  1  0.965006  0.965006  0.352217  1
  Co  Co7  1  0.093107  0.093107  0.882782  1
  Co  Co8  1  0.906893  0.906893  0.117218  1
