# generated using pymatgen
data_Ho7Er10Lu3Pb16
_symmetry_space_group_name_H-M   'P 1'
_cell_length_a   8.14921908
_cell_length_b   15.52990855
_cell_length_c   8.21838751
_cell_angle_alpha   90.01074444
_cell_angle_beta   89.92852273
_cell_angle_gamma   90.11438673
_symmetry_Int_Tables_number   1
_chemical_formula_structural   Ho7Er10Lu3Pb16
_chemical_formula_sum   'Ho7 Er10 Lu3 Pb16'
_cell_volume   1040.08850389
_cell_formula_units_Z   1
loop_
 _symmetry_equiv_pos_site_id
 _symmetry_equiv_pos_as_xyz
  1  'x, y, z'
loop_
 _atom_site_type_symbol
 _atom_site_label
 _atom_site_symmetry_multiplicity
 _atom_site_fract_x
 _atom_site_fract_y
 _atom_site_fract_z
 _atom_site_occupancy
  Ho  Ho0  1  0.963054  0.900520  0.823623  1
  Ho  Ho1  1  0.537164  0.099081  0.323453  1
  Ho  Ho2  1  0.038293  0.400932  0.176036  1
  Ho  Ho3  1  0.537866  0.400758  0.324454  1
  Ho  Ho4  1  0.036819  0.098670  0.176285  1
  Ho  Ho5  1  0.463038  0.900777  0.676504  1
  Ho  Ho6  1  0.962461  0.599218  0.823995  1
  Er  Er7  1  0.623737  0.622164  0.157700  1
  Er  Er8  1  0.124968  0.877943  0.342677  1
  Er  Er9  1  0.375563  0.121944  0.842694  1
  Er  Er10  1  0.875849  0.378538  0.657620  1
  Er  Er11  1  0.376891  0.378563  0.842012  1
  Er  Er12  1  0.875482  0.121632  0.657004  1
  Er  Er13  1  0.624406  0.877462  0.156891  1
  Er  Er14  1  0.124198  0.621818  0.342365  1
  Er  Er15  1  0.459769  0.600303  0.674723  1
  Er  Er16  1  0.792611  0.749789  0.495365  1
  Lu  Lu17  1  0.292594  0.749782  0.005014  1
  Lu  Lu18  1  0.207763  0.250302  0.505107  1
  Lu  Lu19  1  0.707741  0.250058  0.995108  1
  Pb  Pb20  1  0.718212  0.456754  0.967259  1
  Pb  Pb21  1  0.217396  0.043022  0.534858  1
  Pb  Pb22  1  0.283051  0.956725  0.034882  1
  Pb  Pb23  1  0.780703  0.543014  0.466906  1
  Pb  Pb24  1  0.283135  0.543415  0.033859  1
  Pb  Pb25  1  0.783098  0.957055  0.464394  1
  Pb  Pb26  1  0.716788  0.042774  0.964815  1
  Pb  Pb27  1  0.217295  0.457395  0.534940  1
  Pb  Pb28  1  0.429039  0.750095  0.374446  1
  Pb  Pb29  1  0.930909  0.749807  0.124997  1
  Pb  Pb30  1  0.570086  0.249999  0.625258  1
  Pb  Pb31  1  0.069847  0.250126  0.874011  1
  Pb  Pb32  1  0.650682  0.749557  0.843972  1
  Pb  Pb33  1  0.151632  0.749925  0.656977  1
  Pb  Pb34  1  0.348587  0.250100  0.156486  1
  Pb  Pb35  1  0.849270  0.249982  0.343309  1
