# generated using pymatgen
data_PrEu(BOs)8
_symmetry_space_group_name_H-M   'P 1'
_cell_length_a   7.64668000
_cell_length_b   7.64668000
_cell_length_c   4.02558000
_cell_angle_alpha   90.00000000
_cell_angle_beta   90.00000000
_cell_angle_gamma   90.00000000
_symmetry_Int_Tables_number   1
_chemical_formula_structural   PrEu(BOs)8
_chemical_formula_sum   'Pr1 Eu1 B8 Os8'
_cell_volume   235.38256656
_cell_formula_units_Z   1
loop_
 _symmetry_equiv_pos_site_id
 _symmetry_equiv_pos_as_xyz
  1  'x, y, z'
loop_
 _atom_site_type_symbol
 _atom_site_label
 _atom_site_symmetry_multiplicity
 _atom_site_fract_x
 _atom_site_fract_y
 _atom_site_fract_z
 _atom_site_occupancy
  Pr  Pr0  1  0.250000  0.250000  0.250000  1
  Eu  Eu1  1  0.750000  0.750000  0.750001  1
  B  B2  1  0.031711  0.585519  0.137898  1
  B  B3  1  0.468289  0.914482  0.137898  1
  B  B4  1  0.914482  0.031711  0.362103  1
  B  B5  1  0.585519  0.468289  0.362103  1
  B  B6  1  0.415596  0.534732  0.639065  1
  B  B7  1  0.084403  0.965268  0.639065  1
  B  B8  1  0.534732  0.084403  0.860934  1
  B  B9  1  0.965268  0.415596  0.860934  1
  Os  Os10  1  0.395498  0.642962  0.137539  1
  Os  Os11  1  0.104501  0.857038  0.137539  1
  Os  Os12  1  0.642962  0.104501  0.362459  1
  Os  Os13  1  0.857038  0.395498  0.362459  1
  Os  Os14  1  0.142150  0.604683  0.637038  1
  Os  Os15  1  0.357850  0.895318  0.637038  1
  Os  Os16  1  0.895318  0.142150  0.862961  1
  Os  Os17  1  0.604683  0.357850  0.862961  1
