# generated using pymatgen
data_Zr2Sc3P7Ir9
_symmetry_space_group_name_H-M   'P 1'
_cell_length_a   9.62767200
_cell_length_b   9.62767104
_cell_length_c   3.86510600
_cell_angle_alpha   90.00000000
_cell_angle_beta   90.00000000
_cell_angle_gamma   119.99999643
_symmetry_Int_Tables_number   1
_chemical_formula_structural   Zr2Sc3P7Ir9
_chemical_formula_sum   'Zr2 Sc3 P7 Ir9'
_cell_volume   310.26628462
_cell_formula_units_Z   1
loop_
 _symmetry_equiv_pos_site_id
 _symmetry_equiv_pos_as_xyz
  1  'x, y, z'
loop_
 _atom_site_type_symbol
 _atom_site_label
 _atom_site_symmetry_multiplicity
 _atom_site_fract_x
 _atom_site_fract_y
 _atom_site_fract_z
 _atom_site_occupancy
  Zr  Zr0  1  0.333333  0.666667  0.000000  1
  Zr  Zr1  1  0.000000  0.000000  0.500000  1
  Sc  Sc2  1  0.790128  0.225695  0.500000  1
  Sc  Sc3  1  0.774305  0.564431  0.500000  1
  Sc  Sc4  1  0.435569  0.209872  0.500000  1
  P  P5  1  0.780308  0.024308  0.000000  1
  P  P6  1  0.975692  0.755999  0.000000  1
  P  P7  1  0.244001  0.219692  0.000000  1
  P  P8  1  0.386713  0.914320  0.500000  1
  P  P9  1  0.085680  0.472394  0.500000  1
  P  P10  1  0.527606  0.613287  0.500000  1
  P  P11  1  0.666667  0.333333  0.000000  1
  Ir  Ir12  1  0.022206  0.245202  0.000000  1
  Ir  Ir13  1  0.754798  0.777004  0.000000  1
  Ir  Ir14  1  0.222996  0.977794  0.000000  1
  Ir  Ir15  1  0.539765  0.042297  0.000000  1
  Ir  Ir16  1  0.957703  0.497468  0.000000  1
  Ir  Ir17  1  0.502532  0.460235  0.000000  1
  Ir  Ir18  1  0.610478  0.877898  0.500000  1
  Ir  Ir19  1  0.122102  0.732578  0.500000  1
  Ir  Ir20  1  0.267422  0.389522  0.500000  1
