# generated using pymatgen
data_Y10Zn3CuBi2
_symmetry_space_group_name_H-M   'P 1'
_cell_length_a   8.66358376
_cell_length_b   8.66358364
_cell_length_c   8.70187100
_cell_angle_alpha   124.29195429
_cell_angle_beta   124.29194574
_cell_angle_gamma   82.42639705
_symmetry_Int_Tables_number   1
_chemical_formula_structural   Y10Zn3CuBi2
_chemical_formula_sum   'Y10 Zn3 Cu1 Bi2'
_cell_volume   429.01147085
_cell_formula_units_Z   1
loop_
 _symmetry_equiv_pos_site_id
 _symmetry_equiv_pos_as_xyz
  1  'x, y, z'
loop_
 _atom_site_type_symbol
 _atom_site_label
 _atom_site_symmetry_multiplicity
 _atom_site_fract_x
 _atom_site_fract_y
 _atom_site_fract_z
 _atom_site_occupancy
  Y  Y0  1  0.001083  0.999891  0.000974  1
  Y  Y1  1  0.500109  0.498917  0.999026  1
  Y  Y2  1  0.790003  0.295534  0.801696  1
  Y  Y3  1  0.204466  0.709997  0.198304  1
  Y  Y4  1  0.488308  0.993839  0.198304  1
  Y  Y5  1  0.298415  0.481732  0.500000  1
  Y  Y6  1  0.018268  0.201585  0.500000  1
  Y  Y7  1  0.506161  0.011692  0.801696  1
  Y  Y8  1  0.704834  0.511831  0.500000  1
  Y  Y9  1  0.988169  0.795166  0.500000  1
  Zn  Zn10  1  0.139599  0.640033  0.779633  1
  Zn  Zn11  1  0.859967  0.360401  0.220367  1
  Zn  Zn12  1  0.637568  0.862432  0.500000  1
  Cu  Cu13  1  0.367605  0.132395  0.500000  1
  Bi  Bi14  1  0.247722  0.252278  0.000000  1
  Bi  Bi15  1  0.747722  0.752278  0.000000  1
