# generated using pymatgen
data_Nd3Th(B4W)4
_symmetry_space_group_name_H-M   'P 1'
_cell_length_a   3.71432100
_cell_length_b   6.13266562
_cell_length_c   11.87231495
_cell_angle_alpha   89.94482641
_cell_angle_beta   90.00000000
_cell_angle_gamma   90.00000000
_symmetry_Int_Tables_number   1
_chemical_formula_structural   Nd3Th(B4W)4
_chemical_formula_sum   'Nd3 Th1 B16 W4'
_cell_volume   270.43564083
_cell_formula_units_Z   1
loop_
 _symmetry_equiv_pos_site_id
 _symmetry_equiv_pos_as_xyz
  1  'x, y, z'
loop_
 _atom_site_type_symbol
 _atom_site_label
 _atom_site_symmetry_multiplicity
 _atom_site_fract_x
 _atom_site_fract_y
 _atom_site_fract_z
 _atom_site_occupancy
  Nd  Nd0  1  0.000000  0.125076  0.150372  1
  Nd  Nd1  1  0.000000  0.875387  0.850552  1
  Nd  Nd2  1  0.000000  0.625166  0.348429  1
  Th  Th3  1  0.000000  0.375787  0.651337  1
  B  B4  1  0.500000  0.475203  0.190383  1
  B  B5  1  0.500000  0.524148  0.809769  1
  B  B6  1  0.500000  0.975509  0.309027  1
  B  B7  1  0.500000  0.026535  0.690467  1
  B  B8  1  0.500000  0.281650  0.314986  1
  B  B9  1  0.500000  0.717305  0.684420  1
  B  B10  1  0.500000  0.782290  0.184200  1
  B  B11  1  0.500000  0.217686  0.815617  1
  B  B12  1  0.500000  0.361793  0.467683  1
  B  B13  1  0.500000  0.637886  0.532985  1
  B  B14  1  0.500000  0.862633  0.032488  1
  B  B15  1  0.500000  0.137093  0.967645  1
  B  B16  1  0.500000  0.387279  0.046046  1
  B  B17  1  0.500000  0.612070  0.954341  1
  B  B18  1  0.500000  0.887166  0.453918  1
  B  B19  1  0.500000  0.111848  0.545972  1
  W  W20  1  0.000000  0.128875  0.416191  1
  W  W21  1  0.000000  0.870804  0.584009  1
  W  W22  1  0.000000  0.628593  0.083431  1
  W  W23  1  0.000000  0.372219  0.915736  1
