# generated using pymatgen
data_ReOs(SeBr2)4
_symmetry_space_group_name_H-M   'P 1'
_cell_length_a   10.73773841
_cell_length_b   11.08470248
_cell_length_c   10.63340698
_cell_angle_alpha   115.02850628
_cell_angle_beta   116.92953789
_cell_angle_gamma   97.22190174
_symmetry_Int_Tables_number   1
_chemical_formula_structural   ReOs(SeBr2)4
_chemical_formula_sum   'Re2 Os2 Se8 Br16'
_cell_volume   940.25965890
_cell_formula_units_Z   2
loop_
 _symmetry_equiv_pos_site_id
 _symmetry_equiv_pos_as_xyz
  1  'x, y, z'
loop_
 _atom_site_type_symbol
 _atom_site_label
 _atom_site_symmetry_multiplicity
 _atom_site_fract_x
 _atom_site_fract_y
 _atom_site_fract_z
 _atom_site_occupancy
  Re  Re0  1  0.430790  0.784646  0.577309  1
  Re  Re1  1  0.210399  0.791870  0.640736  1
  Os  Os2  1  0.210614  0.886489  0.426442  1
  Os  Os3  1  0.145498  0.539235  0.350492  1
  Se  Se4  1  0.636086  0.675235  0.568466  1
  Se  Se5  1  0.402403  0.008799  0.724842  1
  Se  Se6  1  0.315622  0.896469  0.961407  1
  Se  Se7  1  0.265125  0.679418  0.278286  1
  Se  Se8  1  0.108717  0.080264  0.436588  1
  Se  Se9  1  0.999858  0.695181  0.357264  1
  Se  Se10  1  0.935982  0.345237  0.038575  1
  Se  Se11  1  0.333939  0.616637  0.636920  1
  Br  Br12  1  0.701674  0.388437  0.946317  1
  Br  Br13  1  0.110827  0.980722  0.766673  1
  Br  Br14  1  0.943586  0.346694  0.307357  1
  Br  Br15  1  0.584888  0.546023  0.289955  1
  Br  Br16  1  0.529452  0.126604  0.143587  1
  Br  Br17  1  0.606657  0.473307  0.603073  1
  Br  Br18  1  0.007374  0.826252  0.129845  1
  Br  Br19  1  0.050924  0.645897  0.693701  1
  Br  Br20  1  0.453066  0.763568  0.061487  1
  Br  Br21  1  0.636968  0.929380  0.571721  1
  Br  Br22  1  0.216436  0.330425  0.217917  1
  Br  Br23  1  0.374328  0.070151  0.417040  1
  Br  Br24  1  0.674415  0.877063  0.873758  1
  Br  Br25  1  0.257014  0.297911  0.717283  1
  Br  Br26  1  0.870501  0.015619  0.407322  1
  Br  Br27  1  0.986854  0.382466  0.855635  1
