# generated using pymatgen
data_La4TbIrRu
_symmetry_space_group_name_H-M   'P 1'
_cell_length_a   6.66033935
_cell_length_b   7.30705970
_cell_length_c   9.13684562
_cell_angle_alpha   94.99181668
_cell_angle_beta   111.37538266
_cell_angle_gamma   90.00000021
_symmetry_Int_Tables_number   1
_chemical_formula_structural   La4TbIrRu
_chemical_formula_sum   'La8 Tb2 Ir2 Ru2'
_cell_volume   412.26817383
_cell_formula_units_Z   2
loop_
 _symmetry_equiv_pos_site_id
 _symmetry_equiv_pos_as_xyz
  1  'x, y, z'
loop_
 _atom_site_type_symbol
 _atom_site_label
 _atom_site_symmetry_multiplicity
 _atom_site_fract_x
 _atom_site_fract_y
 _atom_site_fract_z
 _atom_site_occupancy
  La  La0  1  0.979768  0.909386  0.182242  1
  La  La1  1  0.797526  0.590614  0.817758  1
  La  La2  1  0.011223  0.084694  0.819259  1
  La  La3  1  0.191963  0.415306  0.180741  1
  La  La4  1  0.645331  0.815628  0.428075  1
  La  La5  1  0.217257  0.684372  0.571925  1
  La  La6  1  0.359906  0.181641  0.576949  1
  La  La7  1  0.782957  0.318359  0.423051  1
  Tb  Tb8  1  0.431897  0.750000  0.000000  1
  Tb  Tb9  1  0.562989  0.250000  0.000000  1
  Ir  Ir10  1  0.187639  0.424603  0.785539  1
  Ir  Ir11  1  0.402100  0.075397  0.214461  1
  Ru  Ru12  1  0.824502  0.576285  0.219562  1
  Ru  Ru13  1  0.604940  0.923715  0.780438  1
