# generated using pymatgen
data_CeNdBrN2
_symmetry_space_group_name_H-M   'P 1'
_cell_length_a   3.99221100
_cell_length_b   3.99221026
_cell_length_c   7.55855600
_cell_angle_alpha   90.00000000
_cell_angle_beta   90.00000000
_cell_angle_gamma   120.00001442
_symmetry_Int_Tables_number   1
_chemical_formula_structural   CeNdBrN2
_chemical_formula_sum   'Ce1 Nd1 Br1 N2'
_cell_volume   104.32689861
_cell_formula_units_Z   1
loop_
 _symmetry_equiv_pos_site_id
 _symmetry_equiv_pos_as_xyz
  1  'x, y, z'
loop_
 _atom_site_type_symbol
 _atom_site_label
 _atom_site_symmetry_multiplicity
 _atom_site_fract_x
 _atom_site_fract_y
 _atom_site_fract_z
 _atom_site_occupancy
  Ce  Ce0  1  0.333333  0.666667  0.325987  1
  Nd  Nd1  1  0.666667  0.333333  0.691718  1
  Br  Br2  1  0.000000  0.000000  0.002123  1
  N  N3  1  0.666667  0.333333  0.367022  1
  N  N4  1  0.333333  0.666667  0.613151  1
