# generated using pymatgen
data_Ti17Si16Tc2W
_symmetry_space_group_name_H-M   'P 1'
_cell_length_a   6.64457193
_cell_length_b   6.64457080
_cell_length_c   12.13565591
_cell_angle_alpha   89.97606180
_cell_angle_beta   90.02393413
_cell_angle_gamma   90.07724844
_symmetry_Int_Tables_number   1
_chemical_formula_structural   Ti17Si16Tc2W
_chemical_formula_sum   'Ti17 Si16 Tc2 W1'
_cell_volume   535.79261652
_cell_formula_units_Z   1
loop_
 _symmetry_equiv_pos_site_id
 _symmetry_equiv_pos_as_xyz
  1  'x, y, z'
loop_
 _atom_site_type_symbol
 _atom_site_label
 _atom_site_symmetry_multiplicity
 _atom_site_fract_x
 _atom_site_fract_y
 _atom_site_fract_z
 _atom_site_occupancy
  Ti  Ti0  1  0.998645  0.147400  0.622199  1
  Ti  Ti1  1  0.349622  0.496084  0.872354  1
  Ti  Ti2  1  0.650373  0.504244  0.373082  1
  Ti  Ti3  1  0.496084  0.349622  0.127646  1
  Ti  Ti4  1  0.504244  0.650373  0.626918  1
  Ti  Ti5  1  0.003196  0.851764  0.120901  1
  Ti  Ti6  1  0.147400  0.998645  0.377801  1
  Ti  Ti7  1  0.851764  0.003196  0.879099  1
  Ti  Ti8  1  0.998002  0.339968  0.221715  1
  Ti  Ti9  1  0.156392  0.500547  0.472318  1
  Ti  Ti10  1  0.840424  0.500698  0.973708  1
  Ti  Ti11  1  0.500547  0.156392  0.527682  1
  Ti  Ti12  1  0.500698  0.840424  0.026292  1
  Ti  Ti13  1  0.002548  0.660950  0.721302  1
  Ti  Ti14  1  0.339968  0.998002  0.778285  1
  Ti  Ti15  1  0.660950  0.002548  0.278698  1
  Ti  Ti16  1  0.828255  0.828255  0.500000  1
  Si  Si17  1  0.040128  0.303210  0.813429  1
  Si  Si18  1  0.198187  0.544610  0.066100  1
  Si  Si19  1  0.801690  0.454119  0.566931  1
  Si  Si20  1  0.544610  0.198187  0.933900  1
  Si  Si21  1  0.454119  0.801690  0.433069  1
  Si  Si22  1  0.959536  0.697974  0.314446  1
  Si  Si23  1  0.303210  0.040128  0.186571  1
  Si  Si24  1  0.697974  0.959536  0.685554  1
  Si  Si25  1  0.295847  0.358343  0.672976  1
  Si  Si26  1  0.141927  0.794186  0.923008  1
  Si  Si27  1  0.857131  0.205824  0.424933  1
  Si  Si28  1  0.794186  0.141927  0.076992  1
  Si  Si29  1  0.205824  0.857131  0.575067  1
  Si  Si30  1  0.705126  0.642099  0.174120  1
  Si  Si31  1  0.358343  0.295847  0.327024  1
  Si  Si32  1  0.642099  0.705126  0.825880  1
  Tc  Tc33  1  0.328842  0.670182  0.248716  1
  Tc  Tc34  1  0.670182  0.328842  0.751284  1
  W  W35  1  0.171928  0.171928  0.000000  1
