# generated using pymatgen
data_Ba8Nb2TlFeO16
_symmetry_space_group_name_H-M   'P 1'
_cell_length_a   6.11313000
_cell_length_b   7.72577974
_cell_length_c   21.70940352
_cell_angle_alpha   81.64862136
_cell_angle_beta   90.00000000
_cell_angle_gamma   90.00000000
_symmetry_Int_Tables_number   1
_chemical_formula_structural   Ba8Nb2TlFeO16
_chemical_formula_sum   'Ba16 Nb4 Tl2 Fe2 O32'
_cell_volume   1014.43440600
_cell_formula_units_Z   2
loop_
 _symmetry_equiv_pos_site_id
 _symmetry_equiv_pos_as_xyz
  1  'x, y, z'
loop_
 _atom_site_type_symbol
 _atom_site_label
 _atom_site_symmetry_multiplicity
 _atom_site_fract_x
 _atom_site_fract_y
 _atom_site_fract_z
 _atom_site_occupancy
  Ba  Ba0  1  0.766209  0.037378  0.102579  1
  Ba  Ba1  1  0.266209  0.962622  0.397421  1
  Ba  Ba2  1  0.238710  0.973189  0.894308  1
  Ba  Ba3  1  0.738710  0.026811  0.605692  1
  Ba  Ba4  1  0.758993  0.513940  0.142019  1
  Ba  Ba5  1  0.258993  0.486060  0.357981  1
  Ba  Ba6  1  0.238708  0.484604  0.860418  1
  Ba  Ba7  1  0.738708  0.515396  0.639582  1
  Ba  Ba8  1  0.274276  0.304307  0.045382  1
  Ba  Ba9  1  0.774276  0.695693  0.454618  1
  Ba  Ba10  1  0.728479  0.702065  0.948662  1
  Ba  Ba11  1  0.228479  0.297935  0.551338  1
  Ba  Ba12  1  0.285929  0.844316  0.214768  1
  Ba  Ba13  1  0.785929  0.155684  0.285232  1
  Ba  Ba14  1  0.718309  0.162336  0.787647  1
  Ba  Ba15  1  0.218309  0.837664  0.712353  1
  Nb  Nb16  1  0.270073  0.341338  0.212000  1
  Nb  Nb17  1  0.770073  0.658662  0.288000  1
  Nb  Nb18  1  0.733414  0.655834  0.788335  1
  Nb  Nb19  1  0.233414  0.344166  0.711665  1
  Tl  Tl20  1  0.228508  0.754418  0.052891  1
  Tl  Tl21  1  0.728508  0.245582  0.447109  1
  Fe  Fe22  1  0.779523  0.260182  0.939583  1
  Fe  Fe23  1  0.279523  0.739818  0.560417  1
  O  O24  1  0.499513  0.496601  0.252256  1
  O  O25  1  0.999513  0.503399  0.247744  1
  O  O26  1  0.507911  0.500105  0.749235  1
  O  O27  1  0.007911  0.499895  0.750765  1
  O  O28  1  0.501438  0.209562  0.181559  1
  O  O29  1  0.001438  0.790438  0.318441  1
  O  O30  1  0.503697  0.784741  0.820413  1
  O  O31  1  0.003697  0.215259  0.679587  1
  O  O32  1  0.237739  0.193091  0.292683  1
  O  O33  1  0.737739  0.806909  0.207317  1
  O  O34  1  0.764371  0.806619  0.708757  1
  O  O35  1  0.264371  0.193381  0.791243  1
  O  O36  1  0.032482  0.226819  0.171641  1
  O  O37  1  0.532482  0.773181  0.328359  1
  O  O38  1  0.969037  0.771721  0.829308  1
  O  O39  1  0.469037  0.228279  0.670692  1
  O  O40  1  0.287578  0.538261  0.133762  1
  O  O41  1  0.787578  0.461739  0.366238  1
  O  O42  1  0.733345  0.449355  0.867516  1
  O  O43  1  0.233345  0.550645  0.632484  1
  O  O44  1  0.339427  0.972471  0.091502  1
  O  O45  1  0.839427  0.027529  0.408498  1
  O  O46  1  0.654721  0.058620  0.913641  1
  O  O47  1  0.154721  0.941380  0.586359  1
  O  O48  1  0.294045  0.652571  0.967492  1
  O  O49  1  0.794045  0.347429  0.532508  1
  O  O50  1  0.693678  0.334916  0.016171  1
  O  O51  1  0.193678  0.665084  0.483829  1
  O  O52  1  0.872033  0.763190  0.053891  1
  O  O53  1  0.372033  0.236810  0.446109  1
  O  O54  1  0.087854  0.232752  0.944459  1
  O  O55  1  0.587854  0.767248  0.555541  1
