# generated using pymatgen
data_Y6Tm14Cd6CoNi
_symmetry_space_group_name_H-M   'P 1'
_cell_length_a   9.55235100
_cell_length_b   9.55235107
_cell_length_c   9.61907500
_cell_angle_alpha   90.00000000
_cell_angle_beta   90.00000000
_cell_angle_gamma   119.99999630
_symmetry_Int_Tables_number   1
_chemical_formula_structural   Y6Tm14Cd6CoNi
_chemical_formula_sum   'Y6 Tm14 Cd6 Co1 Ni1'
_cell_volume   760.12410720
_cell_formula_units_Z   1
loop_
 _symmetry_equiv_pos_site_id
 _symmetry_equiv_pos_as_xyz
  1  'x, y, z'
loop_
 _atom_site_type_symbol
 _atom_site_label
 _atom_site_symmetry_multiplicity
 _atom_site_fract_x
 _atom_site_fract_y
 _atom_site_fract_z
 _atom_site_occupancy
  Y  Y0  1  0.541884  0.458116  0.250000  1
  Y  Y1  1  0.541884  0.083768  0.250000  1
  Y  Y2  1  0.916232  0.458116  0.250000  1
  Y  Y3  1  0.457126  0.542874  0.750000  1
  Y  Y4  1  0.457126  0.914252  0.750000  1
  Y  Y5  1  0.085748  0.542874  0.750000  1
  Tm  Tm6  1  0.000000  0.000000  0.499558  1
  Tm  Tm7  1  0.000000  0.000000  0.000442  1
  Tm  Tm8  1  0.212008  0.787992  0.435623  1
  Tm  Tm9  1  0.212008  0.424017  0.435623  1
  Tm  Tm10  1  0.575983  0.787992  0.435623  1
  Tm  Tm11  1  0.789173  0.210827  0.562866  1
  Tm  Tm12  1  0.789173  0.578345  0.562866  1
  Tm  Tm13  1  0.421655  0.210827  0.562866  1
  Tm  Tm14  1  0.789173  0.210827  0.937134  1
  Tm  Tm15  1  0.789173  0.578345  0.937134  1
  Tm  Tm16  1  0.421655  0.210827  0.937134  1
  Tm  Tm17  1  0.212008  0.787992  0.064377  1
  Tm  Tm18  1  0.212008  0.424017  0.064377  1
  Tm  Tm19  1  0.575983  0.787992  0.064377  1
  Cd  Cd20  1  0.885368  0.114632  0.250000  1
  Cd  Cd21  1  0.885368  0.770737  0.250000  1
  Cd  Cd22  1  0.229263  0.114632  0.250000  1
  Cd  Cd23  1  0.114769  0.885231  0.750000  1
  Cd  Cd24  1  0.114769  0.229539  0.750000  1
  Cd  Cd25  1  0.770461  0.885231  0.750000  1
  Co  Co26  1  0.333333  0.666667  0.250000  1
  Ni  Ni27  1  0.666667  0.333333  0.750000  1
