# generated using pymatgen
data_Tm2LuMg3Si2Ag
_symmetry_space_group_name_H-M   'P 1'
_cell_length_a   7.18252800
_cell_length_b   7.16877843
_cell_length_c   4.28153900
_cell_angle_alpha   90.00000000
_cell_angle_beta   90.00000000
_cell_angle_gamma   120.06346655
_symmetry_Int_Tables_number   1
_chemical_formula_structural   Tm2LuMg3Si2Ag
_chemical_formula_sum   'Tm2 Lu1 Mg3 Si2 Ag1'
_cell_volume   190.79848469
_cell_formula_units_Z   1
loop_
 _symmetry_equiv_pos_site_id
 _symmetry_equiv_pos_as_xyz
  1  'x, y, z'
loop_
 _atom_site_type_symbol
 _atom_site_label
 _atom_site_symmetry_multiplicity
 _atom_site_fract_x
 _atom_site_fract_y
 _atom_site_fract_z
 _atom_site_occupancy
  Tm  Tm0  1  0.000353  0.574892  0.000000  1
  Tm  Tm1  1  0.425460  0.425108  0.000000  1
  Lu  Lu2  1  0.574915  0.000000  0.000000  1
  Mg  Mg3  1  0.248431  0.000000  0.500000  1
  Mg  Mg4  1  0.000043  0.247981  0.500000  1
  Mg  Mg5  1  0.752062  0.752019  0.500000  1
  Si  Si6  1  0.334191  0.667854  0.500000  1
  Si  Si7  1  0.666338  0.332146  0.500000  1
  Ag  Ag8  1  0.998206  0.000000  0.000000  1
