# generated using pymatgen
data_Mg4Ni3(As3Ir2)2
_symmetry_space_group_name_H-M   'P 1'
_cell_length_a   7.04266161
_cell_length_b   6.97301228
_cell_length_c   6.97301253
_cell_angle_alpha   109.26799744
_cell_angle_beta   109.67368387
_cell_angle_gamma   109.67368925
_symmetry_Int_Tables_number   1
_chemical_formula_structural   Mg4Ni3(As3Ir2)2
_chemical_formula_sum   'Mg4 Ni3 As6 Ir4'
_cell_volume   262.94476713
_cell_formula_units_Z   1
loop_
 _symmetry_equiv_pos_site_id
 _symmetry_equiv_pos_as_xyz
  1  'x, y, z'
loop_
 _atom_site_type_symbol
 _atom_site_label
 _atom_site_symmetry_multiplicity
 _atom_site_fract_x
 _atom_site_fract_y
 _atom_site_fract_z
 _atom_site_occupancy
  Mg  Mg0  1  0.995449  0.990899  0.495449  1
  Mg  Mg1  1  0.500000  0.000000  0.000000  1
  Mg  Mg2  1  0.004551  0.504551  0.009101  1
  Mg  Mg3  1  0.500000  0.504551  0.495449  1
  Ni  Ni4  1  0.246527  0.493054  0.746527  1
  Ni  Ni5  1  0.753473  0.253473  0.506946  1
  Ni  Ni6  1  0.500000  0.253473  0.746527  1
  As  As7  1  0.677122  0.676296  0.986835  1
  As  As8  1  0.309713  0.310539  0.986835  1
  As  As9  1  0.999174  0.676296  0.689461  1
  As  As10  1  0.000826  0.310539  0.323704  1
  As  As11  1  0.690287  0.013165  0.689461  1
  As  As12  1  0.322878  0.013165  0.323704  1
  Ir  Ir13  1  0.000000  0.000000  0.000000  1
  Ir  Ir14  1  0.500000  0.755470  0.244530  1
  Ir  Ir15  1  0.744530  0.489059  0.244530  1
  Ir  Ir16  1  0.255470  0.755470  0.510941  1
