# generated using pymatgen
data_Yb3Sm4Ho(B6Ru)4
_symmetry_space_group_name_H-M   'P 1'
_cell_length_a   3.70396600
_cell_length_b   9.13588536
_cell_length_c   11.54636346
_cell_angle_alpha   90.03232733
_cell_angle_beta   90.00000000
_cell_angle_gamma   90.00000000
_symmetry_Int_Tables_number   1
_chemical_formula_structural   Yb3Sm4Ho(B6Ru)4
_chemical_formula_sum   'Yb3 Sm4 Ho1 B24 Ru4'
_cell_volume   390.71743213
_cell_formula_units_Z   1
loop_
 _symmetry_equiv_pos_site_id
 _symmetry_equiv_pos_as_xyz
  1  'x, y, z'
loop_
 _atom_site_type_symbol
 _atom_site_label
 _atom_site_symmetry_multiplicity
 _atom_site_fract_x
 _atom_site_fract_y
 _atom_site_fract_z
 _atom_site_occupancy
  Yb  Yb0  1  0.000000  0.058660  0.632296  1
  Yb  Yb1  1  0.000000  0.440981  0.131918  1
  Yb  Yb2  1  0.000000  0.558814  0.867494  1
  Sm  Sm3  1  0.000000  0.322469  0.415703  1
  Sm  Sm4  1  0.000000  0.677471  0.587598  1
  Sm  Sm5  1  0.000000  0.820667  0.083794  1
  Sm  Sm6  1  0.000000  0.178391  0.912671  1
  Ho  Ho7  1  0.000000  0.941852  0.369240  1
  B  B8  1  0.500000  0.554966  0.431467  1
  B  B9  1  0.500000  0.444906  0.569029  1
  B  B10  1  0.500000  0.055007  0.068388  1
  B  B11  1  0.500000  0.944840  0.931001  1
  B  B12  1  0.500000  0.749279  0.417323  1
  B  B13  1  0.500000  0.250170  0.583589  1
  B  B14  1  0.500000  0.250196  0.083512  1
  B  B15  1  0.500000  0.749722  0.916295  1
  B  B16  1  0.500000  0.788962  0.265184  1
  B  B17  1  0.500000  0.210895  0.734247  1
  B  B18  1  0.500000  0.290069  0.234616  1
  B  B19  1  0.500000  0.710735  0.765695  1
  B  B20  1  0.500000  0.627754  0.185304  1
  B  B21  1  0.500000  0.372109  0.814077  1
  B  B22  1  0.500000  0.129293  0.314343  1
  B  B23  1  0.500000  0.871836  0.686087  1
  B  B24  1  0.500000  0.983210  0.212146  1
  B  B25  1  0.500000  0.016666  0.787424  1
  B  B26  1  0.500000  0.483268  0.287384  1
  B  B27  1  0.500000  0.516728  0.712582  1
  B  B28  1  0.500000  0.594823  0.026249  1
  B  B29  1  0.500000  0.404949  0.973426  1
  B  B30  1  0.500000  0.097808  0.473223  1
  B  B31  1  0.500000  0.902489  0.527385  1
  Ru  Ru32  1  0.000000  0.638635  0.319427  1
  Ru  Ru33  1  0.000000  0.361657  0.680117  1
  Ru  Ru34  1  0.000000  0.137732  0.179610  1
  Ru  Ru35  1  0.000000  0.861993  0.820159  1
