# generated using pymatgen
data_Li4PrNd7(ZnRh2)4
_symmetry_space_group_name_H-M   'P 1'
_cell_length_a   4.08376100
_cell_length_b   7.28761153
_cell_length_c   16.51173234
_cell_angle_alpha   89.85119879
_cell_angle_beta   90.00000000
_cell_angle_gamma   90.00000000
_symmetry_Int_Tables_number   1
_chemical_formula_structural   Li4PrNd7(ZnRh2)4
_chemical_formula_sum   'Li4 Pr1 Nd7 Zn4 Rh8'
_cell_volume   491.40175939
_cell_formula_units_Z   1
loop_
 _symmetry_equiv_pos_site_id
 _symmetry_equiv_pos_as_xyz
  1  'x, y, z'
loop_
 _atom_site_type_symbol
 _atom_site_label
 _atom_site_symmetry_multiplicity
 _atom_site_fract_x
 _atom_site_fract_y
 _atom_site_fract_z
 _atom_site_occupancy
  Li  Li0  1  0.750000  0.008028  0.561068  1
  Li  Li1  1  0.250000  0.636470  0.351371  1
  Li  Li2  1  0.750000  0.365869  0.648885  1
  Li  Li3  1  0.250000  0.491312  0.060818  1
  Pr  Pr4  1  0.750000  0.334081  0.438189  1
  Nd  Nd5  1  0.250000  0.168751  0.939392  1
  Nd  Nd6  1  0.250000  0.661815  0.561397  1
  Nd  Nd7  1  0.750000  0.956933  0.281505  1
  Nd  Nd8  1  0.750000  0.834283  0.059841  1
  Nd  Nd9  1  0.750000  0.452204  0.215133  1
  Nd  Nd10  1  0.250000  0.042886  0.718818  1
  Nd  Nd11  1  0.250000  0.547281  0.784983  1
  Zn  Zn12  1  0.750000  0.502716  0.941298  1
  Zn  Zn13  1  0.250000  0.992893  0.438216  1
  Zn  Zn14  1  0.250000  0.128617  0.148286  1
  Zn  Zn15  1  0.750000  0.873771  0.851366  1
  Rh  Rh16  1  0.750000  0.758978  0.440018  1
  Rh  Rh17  1  0.250000  0.242297  0.310480  1
  Rh  Rh18  1  0.750000  0.247128  0.816516  1
  Rh  Rh19  1  0.750000  0.758108  0.690533  1
  Rh  Rh20  1  0.250000  0.247647  0.559424  1
  Rh  Rh21  1  0.250000  0.754728  0.184121  1
  Rh  Rh22  1  0.750000  0.249765  0.063544  1
  Rh  Rh23  1  0.250000  0.743439  0.934801  1
