# generated using pymatgen
data_PrDyGa2(Co3B)2
_symmetry_space_group_name_H-M   'P 1'
_cell_length_a   5.21185200
_cell_length_b   5.20904526
_cell_length_c   6.68154100
_cell_angle_alpha   90.00000000
_cell_angle_beta   90.00000000
_cell_angle_gamma   120.01782562
_symmetry_Int_Tables_number   1
_chemical_formula_structural   PrDyGa2(Co3B)2
_chemical_formula_sum   'Pr1 Dy1 Ga2 Co6 B2'
_cell_volume   157.06500697
_cell_formula_units_Z   1
loop_
 _symmetry_equiv_pos_site_id
 _symmetry_equiv_pos_as_xyz
  1  'x, y, z'
loop_
 _atom_site_type_symbol
 _atom_site_label
 _atom_site_symmetry_multiplicity
 _atom_site_fract_x
 _atom_site_fract_y
 _atom_site_fract_z
 _atom_site_occupancy
  Pr  Pr0  1  0.000183  0.000000  0.000000  1
  Dy  Dy1  1  0.999750  0.000000  0.500000  1
  Ga  Ga2  1  0.333253  0.666655  0.000000  1
  Ga  Ga3  1  0.666598  0.333345  0.000000  1
  Co  Co4  1  0.499952  0.000000  0.297922  1
  Co  Co5  1  0.499969  0.499950  0.298101  1
  Co  Co6  1  0.000019  0.500050  0.298101  1
  Co  Co7  1  0.499952  0.000000  0.702078  1
  Co  Co8  1  0.499969  0.499950  0.701899  1
  Co  Co9  1  0.000019  0.500050  0.701899  1
  B  B10  1  0.333475  0.666814  0.500000  1
  B  B11  1  0.666661  0.333186  0.500000  1
