# generated using pymatgen
data_V4Tc3
_symmetry_space_group_name_H-M   'P 1'
_cell_length_a   3.01493043
_cell_length_b   4.26926179
_cell_length_c   10.80980721
_cell_angle_alpha   89.85257932
_cell_angle_beta   97.99046535
_cell_angle_gamma   44.94954290
_symmetry_Int_Tables_number   1
_chemical_formula_structural   V4Tc3
_chemical_formula_sum   'V4 Tc3'
_cell_volume   96.32613138
_cell_formula_units_Z   1
loop_
 _symmetry_equiv_pos_site_id
 _symmetry_equiv_pos_as_xyz
  1  'x, y, z'
loop_
 _atom_site_type_symbol
 _atom_site_label
 _atom_site_symmetry_multiplicity
 _atom_site_fract_x
 _atom_site_fract_y
 _atom_site_fract_z
 _atom_site_occupancy
  V  V0  1  0.363895  0.917175  0.207335  1
  V  V1  1  0.645811  0.778888  0.491779  1
  V  V2  1  0.215467  0.491684  0.061816  1
  V  V3  1  0.923923  0.640229  0.777421  1
  Tc  Tc4  1  0.503228  0.347932  0.346954  1
  Tc  Tc5  1  0.071968  0.065405  0.922278  1
  Tc  Tc6  1  0.784186  0.210269  0.634608  1
