# generated using pymatgen
data_Np3SbF24
_symmetry_space_group_name_H-M   'P 1'
_cell_length_a   5.39210132
_cell_length_b   9.12716200
_cell_length_c   10.08423667
_cell_angle_alpha   90.00000000
_cell_angle_beta   90.19213650
_cell_angle_gamma   90.00000000
_symmetry_Int_Tables_number   1
_chemical_formula_structural   Np3SbF24
_chemical_formula_sum   'Np3 Sb1 F24'
_cell_volume   496.28870466
_cell_formula_units_Z   1
loop_
 _symmetry_equiv_pos_site_id
 _symmetry_equiv_pos_as_xyz
  1  'x, y, z'
loop_
 _atom_site_type_symbol
 _atom_site_label
 _atom_site_symmetry_multiplicity
 _atom_site_fract_x
 _atom_site_fract_y
 _atom_site_fract_z
 _atom_site_occupancy
  Np  Np0  1  0.078771  0.250000  0.372691  1
  Np  Np1  1  0.417926  0.250000  0.868702  1
  Np  Np2  1  0.580894  0.750000  0.129527  1
  Sb  Sb3  1  0.920135  0.750000  0.629702  1
  F  F4  1  0.207270  0.750000  0.517173  1
  F  F5  1  0.776314  0.250000  0.486637  1
  F  F6  1  0.720303  0.250000  0.985445  1
  F  F7  1  0.277743  0.750000  0.015841  1
  F  F8  1  0.633352  0.750000  0.742624  1
  F  F9  1  0.380380  0.250000  0.255788  1
  F  F10  1  0.115267  0.250000  0.753485  1
  F  F11  1  0.884751  0.750000  0.242725  1
  F  F12  1  0.773653  0.600857  0.519271  1
  F  F13  1  0.237803  0.402489  0.484941  1
  F  F14  1  0.265219  0.403345  0.984393  1
  F  F15  1  0.237803  0.097511  0.484941  1
  F  F16  1  0.734711  0.594212  0.017641  1
  F  F17  1  0.773653  0.899143  0.519271  1
  F  F18  1  0.734711  0.905788  0.017641  1
  F  F19  1  0.265219  0.096655  0.984393  1
  F  F20  1  0.066259  0.600096  0.739070  1
  F  F21  1  0.926100  0.403464  0.256616  1
  F  F22  1  0.572870  0.402798  0.756312  1
  F  F23  1  0.926100  0.096536  0.256616  1
  F  F24  1  0.426830  0.594431  0.241587  1
  F  F25  1  0.066259  0.899904  0.739070  1
  F  F26  1  0.426830  0.905569  0.241587  1
  F  F27  1  0.572870  0.097202  0.756312  1
