# generated using pymatgen
data_ErLuReB6
_symmetry_space_group_name_H-M   'P 1'
_cell_length_a   3.63637800
_cell_length_b   9.09080000
_cell_length_c   11.46399900
_cell_angle_alpha   90.00000000
_cell_angle_beta   90.00000000
_cell_angle_gamma   90.00000000
_symmetry_Int_Tables_number   1
_chemical_formula_structural   ErLuReB6
_chemical_formula_sum   'Er4 Lu4 Re4 B24'
_cell_volume   378.97212279
_cell_formula_units_Z   4
loop_
 _symmetry_equiv_pos_site_id
 _symmetry_equiv_pos_as_xyz
  1  'x, y, z'
loop_
 _atom_site_type_symbol
 _atom_site_label
 _atom_site_symmetry_multiplicity
 _atom_site_fract_x
 _atom_site_fract_y
 _atom_site_fract_z
 _atom_site_occupancy
  Er  Er0  1  0.000000  0.323237  0.413927  1
  Er  Er1  1  0.000000  0.676763  0.586073  1
  Er  Er2  1  0.000000  0.823237  0.086073  1
  Er  Er3  1  0.000000  0.176763  0.913927  1
  Lu  Lu4  1  0.000000  0.943935  0.370709  1
  Lu  Lu5  1  0.000000  0.056065  0.629291  1
  Lu  Lu6  1  0.000000  0.443935  0.129291  1
  Lu  Lu7  1  0.000000  0.556065  0.870709  1
  Re  Re8  1  0.000000  0.639710  0.320375  1
  Re  Re9  1  0.000000  0.360290  0.679625  1
  Re  Re10  1  0.000000  0.139710  0.179625  1
  Re  Re11  1  0.000000  0.860290  0.820375  1
  B  B12  1  0.500000  0.553540  0.433039  1
  B  B13  1  0.500000  0.446460  0.566961  1
  B  B14  1  0.500000  0.053540  0.066961  1
  B  B15  1  0.500000  0.946460  0.933039  1
  B  B16  1  0.500000  0.750763  0.418989  1
  B  B17  1  0.500000  0.249237  0.581011  1
  B  B18  1  0.500000  0.250763  0.081011  1
  B  B19  1  0.500000  0.749237  0.918989  1
  B  B20  1  0.500000  0.793582  0.265441  1
  B  B21  1  0.500000  0.206418  0.734559  1
  B  B22  1  0.500000  0.293582  0.234559  1
  B  B23  1  0.500000  0.706418  0.765441  1
  B  B24  1  0.500000  0.630565  0.184813  1
  B  B25  1  0.500000  0.369435  0.815187  1
  B  B26  1  0.500000  0.130565  0.315187  1
  B  B27  1  0.500000  0.869435  0.684813  1
  B  B28  1  0.500000  0.981663  0.212474  1
  B  B29  1  0.500000  0.018337  0.787526  1
  B  B30  1  0.500000  0.481663  0.287526  1
  B  B31  1  0.500000  0.518337  0.712474  1
  B  B32  1  0.500000  0.598882  0.027511  1
  B  B33  1  0.500000  0.401118  0.972489  1
  B  B34  1  0.500000  0.098882  0.472489  1
  B  B35  1  0.500000  0.901118  0.527511  1
