# generated using pymatgen
data_La4In2Ag3Ir
_symmetry_space_group_name_H-M   'P 1'
_cell_length_a   8.22100600
_cell_length_b   8.22100787
_cell_length_c   3.94464700
_cell_angle_alpha   90.00000000
_cell_angle_beta   90.00000000
_cell_angle_gamma   89.23442661
_symmetry_Int_Tables_number   1
_chemical_formula_structural   La4In2Ag3Ir
_chemical_formula_sum   'La4 In2 Ag3 Ir1'
_cell_volume   266.57499144
_cell_formula_units_Z   1
loop_
 _symmetry_equiv_pos_site_id
 _symmetry_equiv_pos_as_xyz
  1  'x, y, z'
loop_
 _atom_site_type_symbol
 _atom_site_label
 _atom_site_symmetry_multiplicity
 _atom_site_fract_x
 _atom_site_fract_y
 _atom_site_fract_z
 _atom_site_occupancy
  La  La0  1  0.672952  0.172952  0.500000  1
  La  La1  1  0.305407  0.805407  0.500000  1
  La  La2  1  0.183426  0.353144  0.500000  1
  La  La3  1  0.853144  0.683426  0.500000  1
  In  In4  1  0.503117  0.500028  0.000000  1
  In  In5  1  0.000028  0.003117  0.000000  1
  Ag  Ag6  1  0.873544  0.373544  0.000000  1
  Ag  Ag7  1  0.617207  0.867336  0.000000  1
  Ag  Ag8  1  0.367336  0.117207  0.000000  1
  Ir  Ir9  1  0.123838  0.623838  0.000000  1
