# generated using pymatgen
data_LaEu2NpO7
_symmetry_space_group_name_H-M   'P 1'
_cell_length_a   6.73715245
_cell_length_b   6.73715206
_cell_length_c   8.01681300
_cell_angle_alpha   90.00000000
_cell_angle_beta   90.00000000
_cell_angle_gamma   110.12575134
_symmetry_Int_Tables_number   1
_chemical_formula_structural   LaEu2NpO7
_chemical_formula_sum   'La2 Eu4 Np2 O14'
_cell_volume   341.65846095
_cell_formula_units_Z   2
loop_
 _symmetry_equiv_pos_site_id
 _symmetry_equiv_pos_as_xyz
  1  'x, y, z'
loop_
 _atom_site_type_symbol
 _atom_site_label
 _atom_site_symmetry_multiplicity
 _atom_site_fract_x
 _atom_site_fract_y
 _atom_site_fract_z
 _atom_site_occupancy
  La  La0  1  0.500593  0.500593  0.500000  1
  La  La1  1  0.499407  0.499407  0.000000  1
  Eu  Eu2  1  0.467787  0.999595  0.250232  1
  Eu  Eu3  1  0.532213  0.000405  0.750232  1
  Eu  Eu4  1  0.999595  0.467787  0.749768  1
  Eu  Eu5  1  0.000405  0.532213  0.249768  1
  Np  Np6  1  0.999423  0.999423  0.500000  1
  Np  Np7  1  0.000577  0.000577  0.000000  1
  O  O8  1  0.317966  0.074139  0.529635  1
  O  O9  1  0.682034  0.925861  0.029635  1
  O  O10  1  0.074139  0.317966  0.470365  1
  O  O11  1  0.925861  0.682034  0.970365  1
  O  O12  1  0.924588  0.680773  0.528910  1
  O  O13  1  0.075412  0.319227  0.028910  1
  O  O14  1  0.680773  0.924588  0.471090  1
  O  O15  1  0.319227  0.075412  0.971090  1
  O  O16  1  0.631683  0.368317  0.250000  1
  O  O17  1  0.368317  0.631683  0.750000  1
  O  O18  1  0.365014  0.634986  0.250000  1
  O  O19  1  0.634986  0.365014  0.750000  1
  O  O20  1  0.074782  0.925218  0.250000  1
  O  O21  1  0.925218  0.074782  0.750000  1
