# generated using pymatgen
data_La6Y3Lu(Sn3Cl)2
_symmetry_space_group_name_H-M   'P 1'
_cell_length_a   9.47582800
_cell_length_b   9.47582770
_cell_length_c   6.75220200
_cell_angle_alpha   90.00000000
_cell_angle_beta   90.00000000
_cell_angle_gamma   119.99999407
_symmetry_Int_Tables_number   1
_chemical_formula_structural   La6Y3Lu(Sn3Cl)2
_chemical_formula_sum   'La6 Y3 Lu1 Sn6 Cl2'
_cell_volume   525.06178204
_cell_formula_units_Z   1
loop_
 _symmetry_equiv_pos_site_id
 _symmetry_equiv_pos_as_xyz
  1  'x, y, z'
loop_
 _atom_site_type_symbol
 _atom_site_label
 _atom_site_symmetry_multiplicity
 _atom_site_fract_x
 _atom_site_fract_y
 _atom_site_fract_z
 _atom_site_occupancy
  La  La0  1  0.736976  0.999370  0.750400  1
  La  La1  1  0.736976  0.737606  0.249600  1
  La  La2  1  0.000630  0.263024  0.249600  1
  La  La3  1  0.000630  0.737606  0.750400  1
  La  La4  1  0.262394  0.263024  0.750400  1
  La  La5  1  0.262394  0.999370  0.249600  1
  Y  Y6  1  0.333333  0.666667  0.500000  1
  Y  Y7  1  0.666667  0.333333  0.500000  1
  Y  Y8  1  0.333333  0.666667  0.000000  1
  Lu  Lu9  1  0.666667  0.333333  0.000000  1
  Sn  Sn10  1  0.609776  0.607498  0.752375  1
  Sn  Sn11  1  0.997722  0.607498  0.247625  1
  Sn  Sn12  1  0.609776  0.002278  0.247625  1
  Sn  Sn13  1  0.392502  0.002278  0.752375  1
  Sn  Sn14  1  0.997722  0.390224  0.752375  1
  Sn  Sn15  1  0.392502  0.390224  0.247625  1
  Cl  Cl16  1  0.000000  0.000000  0.500000  1
  Cl  Cl17  1  0.000000  0.000000  0.000000  1
