# generated using pymatgen
data_Th5PS4
_symmetry_space_group_name_H-M   'P 1'
_cell_length_a   16.69112254
_cell_length_b   16.69112237
_cell_length_c   16.69112224
_cell_angle_alpha   14.01166385
_cell_angle_beta   14.01166533
_cell_angle_gamma   14.01166264
_symmetry_Int_Tables_number   1
_chemical_formula_structural   Th5PS4
_chemical_formula_sum   'Th5 P1 S4'
_cell_volume   237.24954013
_cell_formula_units_Z   1
loop_
 _symmetry_equiv_pos_site_id
 _symmetry_equiv_pos_as_xyz
  1  'x, y, z'
loop_
 _atom_site_type_symbol
 _atom_site_label
 _atom_site_symmetry_multiplicity
 _atom_site_fract_x
 _atom_site_fract_y
 _atom_site_fract_z
 _atom_site_occupancy
  Th  Th0  1  0.600446  0.600446  0.600446  1
  Th  Th1  1  0.399554  0.399554  0.399554  1
  Th  Th2  1  0.000000  0.000000  0.000000  1
  Th  Th3  1  0.199894  0.199894  0.199894  1
  Th  Th4  1  0.800106  0.800106  0.800106  1
  P  P5  1  0.500000  0.500000  0.500000  1
  S  S6  1  0.099200  0.099200  0.099200  1
  S  S7  1  0.699827  0.699827  0.699827  1
  S  S8  1  0.300173  0.300173  0.300173  1
  S  S9  1  0.900800  0.900800  0.900800  1
