# generated using pymatgen
data_Tb11DyTe6
_symmetry_space_group_name_H-M   'P 1'
_cell_length_a   4.09587200
_cell_length_b   11.59736511
_cell_length_c   22.29179721
_cell_angle_alpha   90.01556411
_cell_angle_beta   90.00000000
_cell_angle_gamma   90.00000000
_symmetry_Int_Tables_number   1
_chemical_formula_structural   Tb11DyTe6
_chemical_formula_sum   'Tb22 Dy2 Te12'
_cell_volume   1058.88982059
_cell_formula_units_Z   2
loop_
 _symmetry_equiv_pos_site_id
 _symmetry_equiv_pos_as_xyz
  1  'x, y, z'
loop_
 _atom_site_type_symbol
 _atom_site_label
 _atom_site_symmetry_multiplicity
 _atom_site_fract_x
 _atom_site_fract_y
 _atom_site_fract_z
 _atom_site_occupancy
  Tb  Tb0  1  0.250000  0.151782  0.391874  1
  Tb  Tb1  1  0.750000  0.848218  0.608126  1
  Tb  Tb2  1  0.750000  0.652067  0.108302  1
  Tb  Tb3  1  0.250000  0.347933  0.891698  1
  Tb  Tb4  1  0.250000  0.455986  0.340177  1
  Tb  Tb5  1  0.750000  0.544014  0.659823  1
  Tb  Tb6  1  0.750000  0.956008  0.159863  1
  Tb  Tb7  1  0.250000  0.043992  0.840137  1
  Tb  Tb8  1  0.250000  0.734337  0.233809  1
  Tb  Tb9  1  0.750000  0.265663  0.766191  1
  Tb  Tb10  1  0.750000  0.234344  0.266271  1
  Tb  Tb11  1  0.250000  0.765656  0.733729  1
  Tb  Tb12  1  0.250000  0.115513  0.034515  1
  Tb  Tb13  1  0.750000  0.884487  0.965485  1
  Tb  Tb14  1  0.750000  0.615666  0.465483  1
  Tb  Tb15  1  0.250000  0.384334  0.534517  1
  Tb  Tb16  1  0.250000  0.413588  0.147226  1
  Tb  Tb17  1  0.750000  0.586412  0.852774  1
  Tb  Tb18  1  0.750000  0.913712  0.352961  1
  Tb  Tb19  1  0.250000  0.086288  0.647039  1
  Tb  Tb20  1  0.250000  0.612657  0.982999  1
  Tb  Tb21  1  0.750000  0.387343  0.017001  1
  Dy  Dy22  1  0.750000  0.112458  0.517201  1
  Dy  Dy23  1  0.250000  0.887542  0.482799  1
  Te  Te24  1  0.250000  0.850437  0.068758  1
  Te  Te25  1  0.750000  0.149563  0.931242  1
  Te  Te26  1  0.750000  0.350177  0.431272  1
  Te  Te27  1  0.250000  0.649823  0.568728  1
  Te  Te28  1  0.250000  0.712271  0.372926  1
  Te  Te29  1  0.750000  0.287729  0.627074  1
  Te  Te30  1  0.750000  0.212043  0.127176  1
  Te  Te31  1  0.250000  0.787957  0.872824  1
  Te  Te32  1  0.250000  0.020610  0.261230  1
  Te  Te33  1  0.750000  0.979390  0.738770  1
  Te  Te34  1  0.750000  0.520658  0.238810  1
  Te  Te35  1  0.250000  0.479342  0.761190  1
