# generated using pymatgen
data_Eu5CdRh2
_symmetry_space_group_name_H-M   'P 1'
_cell_length_a   9.30805532
_cell_length_b   9.30805419
_cell_length_c   9.30805428
_cell_angle_alpha   128.13578292
_cell_angle_beta   128.13578024
_cell_angle_gamma   76.40516651
_symmetry_Int_Tables_number   1
_chemical_formula_structural   Eu5CdRh2
_chemical_formula_sum   'Eu10 Cd2 Rh4'
_cell_volume   484.76959576
_cell_formula_units_Z   2
loop_
 _symmetry_equiv_pos_site_id
 _symmetry_equiv_pos_as_xyz
  1  'x, y, z'
loop_
 _atom_site_type_symbol
 _atom_site_label
 _atom_site_symmetry_multiplicity
 _atom_site_fract_x
 _atom_site_fract_y
 _atom_site_fract_z
 _atom_site_occupancy
  Eu  Eu0  1  0.500000  0.500000  0.000000  1
  Eu  Eu1  1  0.000000  0.000000  0.000000  1
  Eu  Eu2  1  0.532627  0.032627  0.823679  1
  Eu  Eu3  1  0.208949  0.708949  0.176321  1
  Eu  Eu4  1  0.032627  0.208949  0.500000  1
  Eu  Eu5  1  0.708949  0.532627  0.500000  1
  Eu  Eu6  1  0.467373  0.967373  0.176321  1
  Eu  Eu7  1  0.791051  0.291051  0.823679  1
  Eu  Eu8  1  0.967373  0.791051  0.500000  1
  Eu  Eu9  1  0.291051  0.467373  0.500000  1
  Cd  Cd10  1  0.250000  0.250000  0.000000  1
  Cd  Cd11  1  0.750000  0.750000  0.000000  1
  Rh  Rh12  1  0.135486  0.635486  0.770971  1
  Rh  Rh13  1  0.864514  0.364514  0.229029  1
  Rh  Rh14  1  0.635486  0.864514  0.500000  1
  Rh  Rh15  1  0.364514  0.135486  0.500000  1
