# generated using pymatgen
data_Ta4Cr6AsIr
_symmetry_space_group_name_H-M   'P 1'
_cell_length_a   4.90221100
_cell_length_b   4.90221102
_cell_length_c   8.24050000
_cell_angle_alpha   90.00000000
_cell_angle_beta   90.00000000
_cell_angle_gamma   120.00000658
_symmetry_Int_Tables_number   1
_chemical_formula_structural   Ta4Cr6AsIr
_chemical_formula_sum   'Ta4 Cr6 As1 Ir1'
_cell_volume   171.50159721
_cell_formula_units_Z   1
loop_
 _symmetry_equiv_pos_site_id
 _symmetry_equiv_pos_as_xyz
  1  'x, y, z'
loop_
 _atom_site_type_symbol
 _atom_site_label
 _atom_site_symmetry_multiplicity
 _atom_site_fract_x
 _atom_site_fract_y
 _atom_site_fract_z
 _atom_site_occupancy
  Ta  Ta0  1  0.333333  0.666667  0.445085  1
  Ta  Ta1  1  0.666667  0.333333  0.554915  1
  Ta  Ta2  1  0.666667  0.333333  0.929754  1
  Ta  Ta3  1  0.333333  0.666667  0.070246  1
  Cr  Cr4  1  0.824162  0.175838  0.245712  1
  Cr  Cr5  1  0.824162  0.648325  0.245712  1
  Cr  Cr6  1  0.351675  0.175838  0.245712  1
  Cr  Cr7  1  0.175838  0.824162  0.754288  1
  Cr  Cr8  1  0.175838  0.351675  0.754288  1
  Cr  Cr9  1  0.648325  0.824162  0.754288  1
  As  As10  1  0.000000  0.000000  0.000000  1
  Ir  Ir11  1  0.000000  0.000000  0.500000  1
