# generated using pymatgen
data_Hf10Ti3Al9(CoOs)4
_symmetry_space_group_name_H-M   'P 1'
_cell_length_a   8.90777258
_cell_length_b   8.90777314
_cell_length_c   8.87084100
_cell_angle_alpha   60.35126608
_cell_angle_beta   60.35127246
_cell_angle_gamma   59.81900618
_symmetry_Int_Tables_number   1
_chemical_formula_structural   Hf10Ti3Al9(CoOs)4
_chemical_formula_sum   'Hf10 Ti3 Al9 Co4 Os4'
_cell_volume   499.65456357
_cell_formula_units_Z   1
loop_
 _symmetry_equiv_pos_site_id
 _symmetry_equiv_pos_as_xyz
  1  'x, y, z'
loop_
 _atom_site_type_symbol
 _atom_site_label
 _atom_site_symmetry_multiplicity
 _atom_site_fract_x
 _atom_site_fract_y
 _atom_site_fract_z
 _atom_site_occupancy
  Hf  Hf0  1  0.200992  0.200992  0.816827  1
  Hf  Hf1  1  0.808850  0.207989  0.197804  1
  Hf  Hf2  1  0.207989  0.808850  0.197804  1
  Hf  Hf3  1  0.803729  0.803729  0.171554  1
  Hf  Hf4  1  0.177009  0.799434  0.807404  1
  Hf  Hf5  1  0.799434  0.177009  0.807404  1
  Hf  Hf6  1  0.378378  0.378378  0.389232  1
  Hf  Hf7  1  0.387477  0.853969  0.388963  1
  Hf  Hf8  1  0.853969  0.387477  0.388963  1
  Hf  Hf9  1  0.384307  0.384307  0.853838  1
  Ti  Ti10  1  0.838367  0.492776  0.823438  1
  Ti  Ti11  1  0.492776  0.838367  0.823438  1
  Ti  Ti12  1  0.833406  0.833406  0.483161  1
  Al  Al13  1  0.168081  0.168081  0.172698  1
  Al  Al14  1  0.162199  0.510822  0.170413  1
  Al  Al15  1  0.510822  0.162199  0.170413  1
  Al  Al16  1  0.163995  0.163995  0.519664  1
  Al  Al17  1  0.617690  0.617690  0.620994  1
  Al  Al18  1  0.621395  0.141895  0.615071  1
  Al  Al19  1  0.141895  0.621395  0.615071  1
  Al  Al20  1  0.617434  0.617434  0.140684  1
  Al  Al21  1  0.823673  0.823673  0.820203  1
  Co  Co22  1  0.999173  0.503336  0.501506  1
  Co  Co23  1  0.503336  0.999173  0.501506  1
  Co  Co24  1  0.500241  0.500241  0.499416  1
  Co  Co25  1  0.002189  0.002189  0.004188  1
  Os  Os26  1  0.000644  0.000644  0.499315  1
  Os  Os27  1  0.498276  0.999905  0.000440  1
  Os  Os28  1  0.999905  0.498276  0.000440  1
  Os  Os29  1  0.502366  0.502366  0.998149  1
