# generated using pymatgen
data_Tb9Lu(SnBi)4
_symmetry_space_group_name_H-M   'P 1'
_cell_length_a   8.18280700
_cell_length_b   8.22060000
_cell_length_c   15.67680900
_cell_angle_alpha   90.00000000
_cell_angle_beta   90.00000000
_cell_angle_gamma   90.00000000
_symmetry_Int_Tables_number   1
_chemical_formula_structural   Tb9Lu(SnBi)4
_chemical_formula_sum   'Tb18 Lu2 Sn8 Bi8'
_cell_volume   1054.54105410
_cell_formula_units_Z   2
loop_
 _symmetry_equiv_pos_site_id
 _symmetry_equiv_pos_as_xyz
  1  'x, y, z'
loop_
 _atom_site_type_symbol
 _atom_site_label
 _atom_site_symmetry_multiplicity
 _atom_site_fract_x
 _atom_site_fract_y
 _atom_site_fract_z
 _atom_site_occupancy
  Tb  Tb0  1  0.386784  0.838672  0.876153  1
  Tb  Tb1  1  0.886784  0.661328  0.623847  1
  Tb  Tb2  1  0.612218  0.162306  0.377197  1
  Tb  Tb3  1  0.112218  0.337694  0.122803  1
  Tb  Tb4  1  0.612218  0.162306  0.122803  1
  Tb  Tb5  1  0.112218  0.337694  0.377197  1
  Tb  Tb6  1  0.386784  0.838672  0.623847  1
  Tb  Tb7  1  0.886784  0.661328  0.876153  1
  Tb  Tb8  1  0.554859  0.328635  0.889271  1
  Tb  Tb9  1  0.054859  0.171365  0.610729  1
  Tb  Tb10  1  0.446033  0.672373  0.389800  1
  Tb  Tb11  1  0.946033  0.827627  0.110200  1
  Tb  Tb12  1  0.446033  0.672373  0.110200  1
  Tb  Tb13  1  0.946033  0.827627  0.389800  1
  Tb  Tb14  1  0.554859  0.328635  0.610729  1
  Tb  Tb15  1  0.054859  0.171365  0.889271  1
  Tb  Tb16  1  0.781632  0.501969  0.250000  1
  Tb  Tb17  1  0.281632  0.998031  0.250000  1
  Lu  Lu18  1  0.219606  0.498423  0.750000  1
  Lu  Lu19  1  0.719606  0.001577  0.750000  1
  Sn  Sn20  1  0.582512  0.626886  0.750000  1
  Sn  Sn21  1  0.082512  0.873114  0.750000  1
  Sn  Sn22  1  0.415376  0.373953  0.250000  1
  Sn  Sn23  1  0.915376  0.126047  0.250000  1
  Sn  Sn24  1  0.359382  0.145409  0.750000  1
  Sn  Sn25  1  0.859382  0.354591  0.750000  1
  Sn  Sn26  1  0.642984  0.856781  0.250000  1
  Sn  Sn27  1  0.142984  0.643219  0.250000  1
  Bi  Bi28  1  0.269839  0.019957  0.044239  1
  Bi  Bi29  1  0.769839  0.480043  0.455761  1
  Bi  Bi30  1  0.729522  0.980162  0.546135  1
  Bi  Bi31  1  0.229522  0.519838  0.953865  1
  Bi  Bi32  1  0.729522  0.980162  0.953865  1
  Bi  Bi33  1  0.229522  0.519838  0.546135  1
  Bi  Bi34  1  0.269839  0.019957  0.455761  1
  Bi  Bi35  1  0.769839  0.480043  0.044239  1
