# generated using pymatgen
data_Li(Lu2B7)2
_symmetry_space_group_name_H-M   'P 1'
_cell_length_a   7.13144600
_cell_length_b   7.13144600
_cell_length_c   7.42006700
_cell_angle_alpha   90.00000000
_cell_angle_beta   90.00000000
_cell_angle_gamma   90.00000000
_symmetry_Int_Tables_number   1
_chemical_formula_structural   Li(Lu2B7)2
_chemical_formula_sum   'Li2 Lu8 B28'
_cell_volume   377.36622107
_cell_formula_units_Z   2
loop_
 _symmetry_equiv_pos_site_id
 _symmetry_equiv_pos_as_xyz
  1  'x, y, z'
loop_
 _atom_site_type_symbol
 _atom_site_label
 _atom_site_symmetry_multiplicity
 _atom_site_fract_x
 _atom_site_fract_y
 _atom_site_fract_z
 _atom_site_occupancy
  Li  Li0  1  0.000000  0.000000  0.000000  1
  Li  Li1  1  0.500000  0.500000  0.500000  1
  Lu  Lu2  1  0.196645  0.328497  0.000000  1
  Lu  Lu3  1  0.671503  0.196645  0.000000  1
  Lu  Lu4  1  0.328497  0.803355  0.000000  1
  Lu  Lu5  1  0.696645  0.171503  0.500000  1
  Lu  Lu6  1  0.303355  0.828497  0.500000  1
  Lu  Lu7  1  0.803355  0.671503  0.000000  1
  Lu  Lu8  1  0.828497  0.696645  0.500000  1
  Lu  Lu9  1  0.171503  0.303355  0.500000  1
  B  B10  1  0.175960  0.038500  0.234107  1
  B  B11  1  0.961500  0.175960  0.234107  1
  B  B12  1  0.038500  0.824040  0.234107  1
  B  B13  1  0.675960  0.461500  0.265893  1
  B  B14  1  0.324040  0.538500  0.265893  1
  B  B15  1  0.824040  0.961500  0.234107  1
  B  B16  1  0.538500  0.675960  0.265893  1
  B  B17  1  0.461500  0.324040  0.265893  1
  B  B18  1  0.824040  0.961500  0.765893  1
  B  B19  1  0.038500  0.824040  0.765893  1
  B  B20  1  0.961500  0.175960  0.765893  1
  B  B21  1  0.324040  0.538500  0.734107  1
  B  B22  1  0.675960  0.461500  0.734107  1
  B  B23  1  0.175960  0.038500  0.765893  1
  B  B24  1  0.461500  0.324040  0.734107  1
  B  B25  1  0.538500  0.675960  0.734107  1
  B  B26  1  0.088301  0.588301  0.250000  1
  B  B27  1  0.411699  0.088301  0.250000  1
  B  B28  1  0.588301  0.911699  0.250000  1
  B  B29  1  0.911699  0.411699  0.250000  1
  B  B30  1  0.911699  0.411699  0.750000  1
  B  B31  1  0.588301  0.911699  0.750000  1
  B  B32  1  0.411699  0.088301  0.750000  1
  B  B33  1  0.088301  0.588301  0.750000  1
  B  B34  1  0.000000  0.000000  0.389677  1
  B  B35  1  0.500000  0.500000  0.110323  1
  B  B36  1  0.000000  0.000000  0.610323  1
  B  B37  1  0.500000  0.500000  0.889677  1
