# generated using pymatgen
data_Pr10Zn4Ru5Pt
_symmetry_space_group_name_H-M   'P 1'
_cell_length_a   8.55140845
_cell_length_b   8.61349632
_cell_length_c   8.61349599
_cell_angle_alpha   109.80975415
_cell_angle_beta   109.64827319
_cell_angle_gamma   109.24793213
_symmetry_Int_Tables_number   1
_chemical_formula_structural   Pr10Zn4Ru5Pt
_chemical_formula_sum   'Pr10 Zn4 Ru5 Pt1'
_cell_volume   486.61983483
_cell_formula_units_Z   1
loop_
 _symmetry_equiv_pos_site_id
 _symmetry_equiv_pos_as_xyz
  1  'x, y, z'
loop_
 _atom_site_type_symbol
 _atom_site_label
 _atom_site_symmetry_multiplicity
 _atom_site_fract_x
 _atom_site_fract_y
 _atom_site_fract_z
 _atom_site_occupancy
  Pr  Pr0  1  0.250000  0.685343  0.435343  1
  Pr  Pr1  1  0.750000  0.812516  0.062516  1
  Pr  Pr2  1  0.440301  0.253400  0.680915  1
  Pr  Pr3  1  0.686714  0.436055  0.251333  1
  Pr  Pr4  1  0.059699  0.740614  0.813099  1
  Pr  Pr5  1  0.813286  0.064619  0.749341  1
  Pr  Pr6  1  0.220444  0.225872  0.228486  1
  Pr  Pr7  1  0.501175  0.001207  0.277819  1
  Pr  Pr8  1  0.279556  0.508042  0.005428  1
  Pr  Pr9  1  0.998825  0.276644  0.500032  1
  Zn  Zn10  1  0.591343  0.592626  0.590912  1
  Zn  Zn11  1  0.501623  0.995198  0.906840  1
  Zn  Zn12  1  0.908657  0.499569  0.001282  1
  Zn  Zn13  1  0.998377  0.905217  0.493575  1
  Ru  Ru14  1  0.750000  0.372837  0.622837  1
  Ru  Ru15  1  0.875966  0.251004  0.125918  1
  Ru  Ru16  1  0.130098  0.881821  0.251131  1
  Ru  Ru17  1  0.624033  0.749951  0.375036  1
  Ru  Ru18  1  0.369902  0.621033  0.751724  1
  Pt  Pt19  1  0.250000  0.126432  0.876432  1
