# generated using pymatgen
data_Ho3LuGa4(IrPt)2
_symmetry_space_group_name_H-M   'P 1'
_cell_length_a   4.35577100
_cell_length_b   6.72409673
_cell_length_c   7.83751242
_cell_angle_alpha   89.80470010
_cell_angle_beta   90.00000000
_cell_angle_gamma   90.00000000
_symmetry_Int_Tables_number   1
_chemical_formula_structural   Ho3LuGa4(IrPt)2
_chemical_formula_sum   'Ho3 Lu1 Ga4 Ir2 Pt2'
_cell_volume   229.54863301
_cell_formula_units_Z   1
loop_
 _symmetry_equiv_pos_site_id
 _symmetry_equiv_pos_as_xyz
  1  'x, y, z'
loop_
 _atom_site_type_symbol
 _atom_site_label
 _atom_site_symmetry_multiplicity
 _atom_site_fract_x
 _atom_site_fract_y
 _atom_site_fract_z
 _atom_site_occupancy
  Ho  Ho0  1  0.250000  0.967892  0.318357  1
  Ho  Ho1  1  0.750000  0.027866  0.683869  1
  Ho  Ho2  1  0.750000  0.527448  0.816671  1
  Lu  Lu3  1  0.250000  0.467236  0.180730  1
  Ga  Ga4  1  0.250000  0.353399  0.563667  1
  Ga  Ga5  1  0.250000  0.852728  0.936155  1
  Ga  Ga6  1  0.750000  0.649838  0.441338  1
  Ga  Ga7  1  0.750000  0.150873  0.058608  1
  Ir  Ir8  1  0.250000  0.237981  0.881756  1
  Ir  Ir9  1  0.250000  0.737090  0.620174  1
  Pt  Pt10  1  0.750000  0.761564  0.122715  1
  Pt  Pt11  1  0.750000  0.266083  0.375960  1
