# generated using pymatgen
data_Cs2K2Zr6GeI18
_symmetry_space_group_name_H-M   'P 1'
_cell_length_a   11.45467506
_cell_length_b   11.71141822
_cell_length_c   11.79860500
_cell_angle_alpha   118.45135150
_cell_angle_beta   100.14381118
_cell_angle_gamma   104.35609608
_symmetry_Int_Tables_number   1
_chemical_formula_structural   Cs2K2Zr6GeI18
_chemical_formula_sum   'Cs2 K2 Zr6 Ge1 I18'
_cell_volume   1265.16880366
_cell_formula_units_Z   1
loop_
 _symmetry_equiv_pos_site_id
 _symmetry_equiv_pos_as_xyz
  1  'x, y, z'
loop_
 _atom_site_type_symbol
 _atom_site_label
 _atom_site_symmetry_multiplicity
 _atom_site_fract_x
 _atom_site_fract_y
 _atom_site_fract_z
 _atom_site_occupancy
  Cs  Cs0  1  0.660030  0.539484  0.231943  1
  Cs  Cs1  1  0.339970  0.460516  0.768057  1
  K  K2  1  0.682851  0.223123  0.563273  1
  K  K3  1  0.317149  0.776877  0.436727  1
  Zr  Zr4  1  0.150848  0.052327  0.226561  1
  Zr  Zr5  1  0.849152  0.947673  0.773439  1
  Zr  Zr6  1  0.863030  0.122475  0.133704  1
  Zr  Zr7  1  0.136970  0.877525  0.866296  1
  Zr  Zr8  1  0.144482  0.239787  0.048581  1
  Zr  Zr9  1  0.855518  0.760213  0.951419  1
  Ge  Ge10  1  0.000000  0.000000  0.000000  1
  I  I11  1  0.006075  0.403804  0.198464  1
  I  I12  1  0.993925  0.596196  0.801536  1
  I  I13  1  0.328335  0.328592  0.309934  1
  I  I14  1  0.671665  0.671408  0.690066  1
  I  I15  1  0.314390  0.525573  0.111047  1
  I  I16  1  0.685610  0.474427  0.888953  1
  I  I17  1  0.003109  0.794504  0.203536  1
  I  I18  1  0.996891  0.205496  0.796464  1
  I  I19  1  0.704563  0.261955  0.292000  1
  I  I20  1  0.295437  0.738045  0.708000  1
  I  I21  1  0.315095  0.132745  0.907258  1
  I  I22  1  0.684905  0.867255  0.092742  1
  I  I23  1  0.018078  0.199034  0.404425  1
  I  I24  1  0.981922  0.800966  0.595575  1
  I  I25  1  0.319029  0.922779  0.103945  1
  I  I26  1  0.680971  0.077221  0.896055  1
  I  I27  1  0.333938  0.107406  0.489262  1
  I  I28  1  0.666062  0.892594  0.510738  1
