# generated using pymatgen
data_Gd5Y15Si15Pd
_symmetry_space_group_name_H-M   'P 1'
_cell_length_a   7.46351543
_cell_length_b   7.68730791
_cell_length_c   14.62484200
_cell_angle_alpha   90.25727373
_cell_angle_beta   90.37684058
_cell_angle_gamma   90.16469190
_symmetry_Int_Tables_number   1
_chemical_formula_structural   Gd5Y15Si15Pd
_chemical_formula_sum   'Gd5 Y15 Si15 Pd1'
_cell_volume   839.06052933
_cell_formula_units_Z   1
loop_
 _symmetry_equiv_pos_site_id
 _symmetry_equiv_pos_as_xyz
  1  'x, y, z'
loop_
 _atom_site_type_symbol
 _atom_site_label
 _atom_site_symmetry_multiplicity
 _atom_site_fract_x
 _atom_site_fract_y
 _atom_site_fract_z
 _atom_site_occupancy
  Gd  Gd0  1  0.681390  0.169980  0.620330  1
  Gd  Gd1  1  0.184142  0.321829  0.877236  1
  Gd  Gd2  1  0.319696  0.818920  0.121049  1
  Gd  Gd3  1  0.819950  0.683182  0.380163  1
  Gd  Gd4  1  0.320856  0.824162  0.378605  1
  Y  Y5  1  0.816689  0.679660  0.121773  1
  Y  Y6  1  0.681333  0.179719  0.877725  1
  Y  Y7  1  0.179561  0.321398  0.622995  1
  Y  Y8  1  0.524985  0.679627  0.599964  1
  Y  Y9  1  0.028832  0.817454  0.901769  1
  Y  Y10  1  0.470481  0.317670  0.098498  1
  Y  Y11  1  0.975759  0.180534  0.400094  1
  Y  Y12  1  0.470511  0.320770  0.400933  1
  Y  Y13  1  0.970130  0.182623  0.097988  1
  Y  Y14  1  0.530439  0.682320  0.900827  1
  Y  Y15  1  0.026599  0.816335  0.600380  1
  Y  Y16  1  0.852091  0.507290  0.749448  1
  Y  Y17  1  0.351530  0.989470  0.748445  1
  Y  Y18  1  0.147969  0.490600  0.250734  1
  Y  Y19  1  0.650992  0.011983  0.252674  1
  Si  Si20  1  0.143340  0.528057  0.040447  1
  Si  Si21  1  0.355480  0.029287  0.959748  1
  Si  Si22  1  0.853719  0.470670  0.541513  1
  Si  Si23  1  0.342412  0.028047  0.542060  1
  Si  Si24  1  0.855193  0.472016  0.959152  1
  Si  Si25  1  0.646038  0.972125  0.039346  1
  Si  Si26  1  0.146744  0.529792  0.461040  1
  Si  Si27  1  0.479258  0.394713  0.748994  1
  Si  Si28  1  0.976623  0.102327  0.751956  1
  Si  Si29  1  0.523652  0.603143  0.248347  1
  Si  Si30  1  0.025334  0.896098  0.247401  1
  Si  Si31  1  0.735787  0.870815  0.751822  1
  Si  Si32  1  0.235445  0.627278  0.750867  1
  Si  Si33  1  0.265059  0.127490  0.246977  1
  Si  Si34  1  0.765424  0.375335  0.248568  1
  Pd  Pd35  1  0.646556  0.977284  0.460129  1
