# generated using pymatgen
data_YTmTh2(GaRh)4
_symmetry_space_group_name_H-M   'P 1'
_cell_length_a   4.35064200
_cell_length_b   6.90707081
_cell_length_c   7.90480601
_cell_angle_alpha   90.29422122
_cell_angle_beta   90.00000000
_cell_angle_gamma   90.00000000
_symmetry_Int_Tables_number   1
_chemical_formula_structural   YTmTh2(GaRh)4
_chemical_formula_sum   'Y1 Tm1 Th2 Ga4 Rh4'
_cell_volume   237.53780917
_cell_formula_units_Z   1
loop_
 _symmetry_equiv_pos_site_id
 _symmetry_equiv_pos_as_xyz
  1  'x, y, z'
loop_
 _atom_site_type_symbol
 _atom_site_label
 _atom_site_symmetry_multiplicity
 _atom_site_fract_x
 _atom_site_fract_y
 _atom_site_fract_z
 _atom_site_occupancy
  Y  Y0  1  0.750000  0.533838  0.806319  1
  Tm  Tm1  1  0.750000  0.034319  0.692905  1
  Th  Th2  1  0.250000  0.968591  0.321261  1
  Th  Th3  1  0.250000  0.467347  0.179650  1
  Ga  Ga4  1  0.250000  0.352639  0.574925  1
  Ga  Ga5  1  0.250000  0.853954  0.924675  1
  Ga  Ga6  1  0.750000  0.645190  0.441253  1
  Ga  Ga7  1  0.750000  0.144446  0.057918  1
  Rh  Rh8  1  0.250000  0.238718  0.891294  1
  Rh  Rh9  1  0.250000  0.742988  0.607594  1
  Rh  Rh10  1  0.750000  0.759623  0.119438  1
  Rh  Rh11  1  0.750000  0.258345  0.382768  1
