# generated using pymatgen
data_Nd3Tm2Pb3
_symmetry_space_group_name_H-M   'P 1'
_cell_length_a   6.72556600
_cell_length_b   9.22879736
_cell_length_c   9.22933716
_cell_angle_alpha   119.99805942
_cell_angle_beta   90.00000000
_cell_angle_gamma   90.00000000
_symmetry_Int_Tables_number   1
_chemical_formula_structural   Nd3Tm2Pb3
_chemical_formula_sum   'Nd6 Tm4 Pb6'
_cell_volume   496.11640105
_cell_formula_units_Z   2
loop_
 _symmetry_equiv_pos_site_id
 _symmetry_equiv_pos_as_xyz
  1  'x, y, z'
loop_
 _atom_site_type_symbol
 _atom_site_label
 _atom_site_symmetry_multiplicity
 _atom_site_fract_x
 _atom_site_fract_y
 _atom_site_fract_z
 _atom_site_occupancy
  Nd  Nd0  1  0.750000  0.240237  0.000000  1
  Nd  Nd1  1  0.749997  0.759687  0.759719  1
  Nd  Nd2  1  0.749997  0.999968  0.240281  1
  Nd  Nd3  1  0.250000  0.759763  0.000000  1
  Nd  Nd4  1  0.249997  0.240313  0.240281  1
  Nd  Nd5  1  0.249997  0.000032  0.759719  1
  Tm  Tm6  1  0.499997  0.333336  0.666707  1
  Tm  Tm7  1  0.499997  0.666629  0.333293  1
  Tm  Tm8  1  0.999997  0.666664  0.333293  1
  Tm  Tm9  1  0.999997  0.333371  0.666707  1
  Pb  Pb10  1  0.750000  0.601849  0.000000  1
  Pb  Pb11  1  0.750007  0.398104  0.398083  1
  Pb  Pb12  1  0.750007  0.000021  0.601917  1
  Pb  Pb13  1  0.250000  0.398151  0.000000  1
  Pb  Pb14  1  0.250007  0.601896  0.601917  1
  Pb  Pb15  1  0.250007  0.999979  0.398083  1
