# generated using pymatgen
data_Dy3Ho5B24IrRu3
_symmetry_space_group_name_H-M   'P 1'
_cell_length_a   3.65497500
_cell_length_b   9.14448681
_cell_length_c   11.49272101
_cell_angle_alpha   90.04243058
_cell_angle_beta   90.00000000
_cell_angle_gamma   90.00000000
_symmetry_Int_Tables_number   1
_chemical_formula_structural   Dy3Ho5B24IrRu3
_chemical_formula_sum   'Dy3 Ho5 B24 Ir1 Ru3'
_cell_volume   384.11962290
_cell_formula_units_Z   1
loop_
 _symmetry_equiv_pos_site_id
 _symmetry_equiv_pos_as_xyz
  1  'x, y, z'
loop_
 _atom_site_type_symbol
 _atom_site_label
 _atom_site_symmetry_multiplicity
 _atom_site_fract_x
 _atom_site_fract_y
 _atom_site_fract_z
 _atom_site_occupancy
  Dy  Dy0  1  0.000000  0.319871  0.414360  1
  Dy  Dy1  1  0.000000  0.678358  0.588975  1
  Dy  Dy2  1  0.000000  0.823941  0.084287  1
  Ho  Ho3  1  0.000000  0.178080  0.913127  1
  Ho  Ho4  1  0.000000  0.945864  0.372993  1
  Ho  Ho5  1  0.000000  0.055798  0.627116  1
  Ho  Ho6  1  0.000000  0.442080  0.125702  1
  Ho  Ho7  1  0.000000  0.555665  0.873212  1
  B  B8  1  0.500000  0.553622  0.433500  1
  B  B9  1  0.500000  0.445876  0.567213  1
  B  B10  1  0.500000  0.054314  0.066905  1
  B  B11  1  0.500000  0.946250  0.932709  1
  B  B12  1  0.500000  0.749490  0.421006  1
  B  B13  1  0.500000  0.251567  0.580189  1
  B  B14  1  0.500000  0.247910  0.079676  1
  B  B15  1  0.500000  0.752066  0.919953  1
  B  B16  1  0.500000  0.792270  0.265774  1
  B  B17  1  0.500000  0.208682  0.733772  1
  B  B18  1  0.500000  0.291448  0.233828  1
  B  B19  1  0.500000  0.708540  0.766515  1
  B  B20  1  0.500000  0.632217  0.183821  1
  B  B21  1  0.500000  0.367988  0.814778  1
  B  B22  1  0.500000  0.132093  0.314887  1
  B  B23  1  0.500000  0.867882  0.685458  1
  B  B24  1  0.500000  0.983761  0.212953  1
  B  B25  1  0.500000  0.016574  0.786912  1
  B  B26  1  0.500000  0.482432  0.286732  1
  B  B27  1  0.500000  0.516327  0.713326  1
  B  B28  1  0.500000  0.609840  0.030515  1
  B  B29  1  0.500000  0.389852  0.969708  1
  B  B30  1  0.500000  0.109403  0.469922  1
  B  B31  1  0.500000  0.890001  0.529887  1
  Ir  Ir32  1  0.000000  0.637504  0.321548  1
  Ru  Ru33  1  0.000000  0.362140  0.678588  1
  Ru  Ru34  1  0.000000  0.138129  0.179053  1
  Ru  Ru35  1  0.000000  0.862163  0.821097  1
