# generated using pymatgen
data_Zn3In9Ir3Ru
_symmetry_space_group_name_H-M   'P 1'
_cell_length_a   6.88064635
_cell_length_b   6.95201017
_cell_length_c   7.37459400
_cell_angle_alpha   90.00000000
_cell_angle_beta   90.00000000
_cell_angle_gamma   89.54897536
_symmetry_Int_Tables_number   1
_chemical_formula_structural   Zn3In9Ir3Ru
_chemical_formula_sum   'Zn3 In9 Ir3 Ru1'
_cell_volume   352.74778485
_cell_formula_units_Z   1
loop_
 _symmetry_equiv_pos_site_id
 _symmetry_equiv_pos_as_xyz
  1  'x, y, z'
loop_
 _atom_site_type_symbol
 _atom_site_label
 _atom_site_symmetry_multiplicity
 _atom_site_fract_x
 _atom_site_fract_y
 _atom_site_fract_z
 _atom_site_occupancy
  Zn  Zn0  1  0.001137  0.499780  0.000000  1
  Zn  Zn1  1  0.500087  0.999174  0.000000  1
  Zn  Zn2  1  0.997920  0.499185  0.500000  1
  In  In3  1  0.335541  0.344974  0.263645  1
  In  In4  1  0.157515  0.832572  0.771831  1
  In  In5  1  0.157515  0.832572  0.228169  1
  In  In6  1  0.840846  0.169606  0.230812  1
  In  In7  1  0.840846  0.169606  0.769188  1
  In  In8  1  0.669139  0.651137  0.264065  1
  In  In9  1  0.669139  0.651137  0.735935  1
  In  In10  1  0.335541  0.344974  0.736355  1
  In  In11  1  0.502246  0.001151  0.500000  1
  Ir  Ir12  1  0.157889  0.156085  0.000000  1
  Ir  Ir13  1  0.338218  0.655197  0.500000  1
  Ir  Ir14  1  0.840961  0.844778  0.000000  1
  Ru  Ru15  1  0.655460  0.348071  0.500000  1
