# generated using pymatgen
data_PrNd11Os3Pd
_symmetry_space_group_name_H-M   'P 1'
_cell_length_a   6.54995416
_cell_length_b   7.50510640
_cell_length_c   9.77325300
_cell_angle_alpha   90.00000000
_cell_angle_beta   90.00000000
_cell_angle_gamma   90.42854388
_symmetry_Int_Tables_number   1
_chemical_formula_structural   PrNd11Os3Pd
_chemical_formula_sum   'Pr1 Nd11 Os3 Pd1'
_cell_volume   480.42113771
_cell_formula_units_Z   1
loop_
 _symmetry_equiv_pos_site_id
 _symmetry_equiv_pos_as_xyz
  1  'x, y, z'
loop_
 _atom_site_type_symbol
 _atom_site_label
 _atom_site_symmetry_multiplicity
 _atom_site_fract_x
 _atom_site_fract_y
 _atom_site_fract_z
 _atom_site_occupancy
  Pr  Pr0  1  0.854765  0.529778  0.250000  1
  Nd  Nd1  1  0.338428  0.670602  0.062008  1
  Nd  Nd2  1  0.168490  0.183806  0.438295  1
  Nd  Nd3  1  0.672951  0.322329  0.566966  1
  Nd  Nd4  1  0.826340  0.824795  0.930017  1
  Nd  Nd5  1  0.672951  0.322329  0.933034  1
  Nd  Nd6  1  0.826340  0.824795  0.569983  1
  Nd  Nd7  1  0.338428  0.670602  0.437992  1
  Nd  Nd8  1  0.168490  0.183806  0.061705  1
  Nd  Nd9  1  0.632254  0.044531  0.250000  1
  Nd  Nd10  1  0.139383  0.464102  0.750000  1
  Nd  Nd11  1  0.355948  0.960957  0.750000  1
  Os  Os12  1  0.441177  0.383104  0.250000  1
  Os  Os13  1  0.947877  0.114703  0.750000  1
  Os  Os14  1  0.552360  0.614944  0.750000  1
  Pd  Pd15  1  0.063818  0.884815  0.250000  1
