# generated using pymatgen
data_Ho2ErMg3AgPb2
_symmetry_space_group_name_H-M   'P 1'
_cell_length_a   7.53688663
_cell_length_b   7.54221990
_cell_length_c   4.54658700
_cell_angle_alpha   90.00000000
_cell_angle_beta   90.00000000
_cell_angle_gamma   120.02341477
_symmetry_Int_Tables_number   1
_chemical_formula_structural   Ho2ErMg3AgPb2
_chemical_formula_sum   'Ho2 Er1 Mg3 Ag1 Pb2'
_cell_volume   223.77151045
_cell_formula_units_Z   1
loop_
 _symmetry_equiv_pos_site_id
 _symmetry_equiv_pos_as_xyz
  1  'x, y, z'
loop_
 _atom_site_type_symbol
 _atom_site_label
 _atom_site_symmetry_multiplicity
 _atom_site_fract_x
 _atom_site_fract_y
 _atom_site_fract_z
 _atom_site_occupancy
  Ho  Ho0  1  0.411647  0.411763  0.500000  1
  Ho  Ho1  1  0.588353  0.000117  0.500000  1
  Er  Er2  1  0.000000  0.588454  0.500000  1
  Mg  Mg3  1  0.765829  0.765735  0.000000  1
  Mg  Mg4  1  0.234171  0.999905  0.000000  1
  Mg  Mg5  1  0.000000  0.234303  0.000000  1
  Ag  Ag6  1  0.000000  0.999634  0.500000  1
  Pb  Pb7  1  0.667079  0.333584  0.000000  1
  Pb  Pb8  1  0.332921  0.666506  0.000000  1
