# generated using pymatgen
data_TaCu(SO4)3
_symmetry_space_group_name_H-M   'P 1'
_cell_length_a   8.39359685
_cell_length_b   8.39359586
_cell_length_c   9.19327978
_cell_angle_alpha   63.58690863
_cell_angle_beta   63.58690809
_cell_angle_gamma   62.24368418
_symmetry_Int_Tables_number   1
_chemical_formula_structural   TaCu(SO4)3
_chemical_formula_sum   'Ta2 Cu2 S6 O24'
_cell_volume   489.70605766
_cell_formula_units_Z   2
loop_
 _symmetry_equiv_pos_site_id
 _symmetry_equiv_pos_as_xyz
  1  'x, y, z'
loop_
 _atom_site_type_symbol
 _atom_site_label
 _atom_site_symmetry_multiplicity
 _atom_site_fract_x
 _atom_site_fract_y
 _atom_site_fract_z
 _atom_site_occupancy
  Ta  Ta0  1  0.363302  0.861687  0.979445  1
  Ta  Ta1  1  0.861687  0.363302  0.479445  1
  Cu  Cu2  1  0.120616  0.655744  0.605651  1
  Cu  Cu3  1  0.655744  0.120616  0.105651  1
  S  S4  1  0.723013  0.548446  0.782500  1
  S  S5  1  0.548446  0.723013  0.282500  1
  S  S6  1  0.033701  0.983117  0.787889  1
  S  S7  1  0.983117  0.033701  0.287889  1
  S  S8  1  0.459017  0.234634  0.664292  1
  S  S9  1  0.234634  0.459017  0.164292  1
  O  O10  1  0.861934  0.970688  0.926573  1
  O  O11  1  0.970688  0.861934  0.426573  1
  O  O12  1  0.885271  0.571158  0.779547  1
  O  O13  1  0.549498  0.725895  0.807000  1
  O  O14  1  0.749515  0.555369  0.601947  1
  O  O15  1  0.571158  0.885271  0.279547  1
  O  O16  1  0.173316  0.983522  0.853574  1
  O  O17  1  0.674939  0.383004  0.904779  1
  O  O18  1  0.725895  0.549498  0.307000  1
  O  O19  1  0.555369  0.749515  0.101947  1
  O  O20  1  0.983522  0.173316  0.353574  1
  O  O21  1  0.643037  0.272213  0.618344  1
  O  O22  1  0.383004  0.674939  0.404779  1
  O  O23  1  0.128385  0.841949  0.700561  1
  O  O24  1  0.464323  0.072576  0.836017  1
  O  O25  1  0.297942  0.394542  0.707515  1
  O  O26  1  0.272213  0.643037  0.118344  1
  O  O27  1  0.841949  0.128385  0.200561  1
  O  O28  1  0.475173  0.167913  0.538229  1
  O  O29  1  0.072576  0.464323  0.336017  1
  O  O30  1  0.394542  0.297942  0.207515  1
  O  O31  1  0.167913  0.475173  0.038229  1
  O  O32  1  0.993653  0.180910  0.656135  1
  O  O33  1  0.180910  0.993653  0.156135  1
