# generated using pymatgen
data_Pa4Re6Ge6Rh
_symmetry_space_group_name_H-M   'P 1'
_cell_length_a   7.34240095
_cell_length_b   7.34240073
_cell_length_c   7.34240100
_cell_angle_alpha   109.47122137
_cell_angle_beta   109.47122076
_cell_angle_gamma   109.47122111
_symmetry_Int_Tables_number   1
_chemical_formula_structural   Pa4Re6Ge6Rh
_chemical_formula_sum   'Pa4 Re6 Ge6 Rh1'
_cell_volume   304.71398161
_cell_formula_units_Z   1
loop_
 _symmetry_equiv_pos_site_id
 _symmetry_equiv_pos_as_xyz
  1  'x, y, z'
loop_
 _atom_site_type_symbol
 _atom_site_label
 _atom_site_symmetry_multiplicity
 _atom_site_fract_x
 _atom_site_fract_y
 _atom_site_fract_z
 _atom_site_occupancy
  Pa  Pa0  1  0.500000  0.500000  0.500000  1
  Pa  Pa1  1  0.000000  0.500000  0.000000  1
  Pa  Pa2  1  0.500000  0.000000  0.000000  1
  Pa  Pa3  1  0.000000  0.000000  0.500000  1
  Re  Re4  1  0.750000  0.500000  0.250000  1
  Re  Re5  1  0.500000  0.250000  0.750000  1
  Re  Re6  1  0.750000  0.250000  0.500000  1
  Re  Re7  1  0.250000  0.750000  0.500000  1
  Re  Re8  1  0.250000  0.500000  0.750000  1
  Re  Re9  1  0.500000  0.750000  0.250000  1
  Ge  Ge10  1  0.686461  0.000000  0.686461  1
  Ge  Ge11  1  0.686461  0.686461  0.000000  1
  Ge  Ge12  1  0.313539  0.313539  0.000000  1
  Ge  Ge13  1  0.000000  0.686461  0.686461  1
  Ge  Ge14  1  0.000000  0.313539  0.313539  1
  Ge  Ge15  1  0.313539  0.000000  0.313539  1
  Rh  Rh16  1  0.000000  0.000000  0.000000  1
