# generated using pymatgen
data_Sc4Ti(Re11Tc)2
_symmetry_space_group_name_H-M   'P 1'
_cell_length_a   8.43735393
_cell_length_b   8.42997674
_cell_length_c   8.43106732
_cell_angle_alpha   109.45640827
_cell_angle_beta   109.42915985
_cell_angle_gamma   109.49075033
_symmetry_Int_Tables_number   1
_chemical_formula_structural   Sc4Ti(Re11Tc)2
_chemical_formula_sum   'Sc4 Ti1 Re22 Tc2'
_cell_volume   461.84176768
_cell_formula_units_Z   1
loop_
 _symmetry_equiv_pos_site_id
 _symmetry_equiv_pos_as_xyz
  1  'x, y, z'
loop_
 _atom_site_type_symbol
 _atom_site_label
 _atom_site_symmetry_multiplicity
 _atom_site_fract_x
 _atom_site_fract_y
 _atom_site_fract_z
 _atom_site_occupancy
  Sc  Sc0  1  0.000369  0.000482  0.000443  1
  Sc  Sc1  1  0.632911  0.000142  0.001256  1
  Sc  Sc2  1  0.000250  0.633294  0.000078  1
  Sc  Sc3  1  0.000039  0.000187  0.633224  1
  Ti  Ti4  1  0.367838  0.367814  0.367708  1
  Re  Re5  1  0.396416  0.998405  0.676579  1
  Re  Re6  1  0.676332  0.396476  0.998875  1
  Re  Re7  1  0.998686  0.396501  0.676516  1
  Re  Re8  1  0.323688  0.722194  0.323272  1
  Re  Re9  1  0.323365  0.323286  0.722161  1
  Re  Re10  1  0.998564  0.676397  0.396460  1
  Re  Re11  1  0.676299  0.998510  0.396264  1
  Re  Re12  1  0.598366  0.598078  0.281185  1
  Re  Re13  1  0.280900  0.598272  0.598681  1
  Re  Re14  1  0.598545  0.281085  0.598093  1
  Re  Re15  1  0.377626  0.194117  0.001902  1
  Re  Re16  1  0.186213  0.808039  0.807933  1
  Re  Re17  1  0.377589  0.001942  0.194038  1
  Re  Re18  1  0.194104  0.378544  0.001771  1
  Re  Re19  1  0.002374  0.378317  0.193591  1
  Re  Re20  1  0.808428  0.187031  0.808541  1
  Re  Re21  1  0.808631  0.808450  0.187187  1
  Re  Re22  1  0.002049  0.193612  0.378039  1
  Re  Re23  1  0.193609  0.001822  0.377684  1
  Re  Re24  1  0.622145  0.621637  0.814143  1
  Re  Re25  1  0.814384  0.621296  0.621314  1
  Re  Re26  1  0.622027  0.814517  0.622140  1
  Tc  Tc27  1  0.396623  0.677027  0.998409  1
  Tc  Tc28  1  0.721629  0.322525  0.322513  1
