# generated using pymatgen
data_HoTi4Pd15
_symmetry_space_group_name_H-M   'P 1'
_cell_length_a   3.97198800
_cell_length_b   3.97198800
_cell_length_c   19.83512800
_cell_angle_alpha   90.00000000
_cell_angle_beta   90.00000000
_cell_angle_gamma   90.00000000
_symmetry_Int_Tables_number   1
_chemical_formula_structural   HoTi4Pd15
_chemical_formula_sum   'Ho1 Ti4 Pd15'
_cell_volume   312.93263923
_cell_formula_units_Z   1
loop_
 _symmetry_equiv_pos_site_id
 _symmetry_equiv_pos_as_xyz
  1  'x, y, z'
loop_
 _atom_site_type_symbol
 _atom_site_label
 _atom_site_symmetry_multiplicity
 _atom_site_fract_x
 _atom_site_fract_y
 _atom_site_fract_z
 _atom_site_occupancy
  Ho  Ho0  1  0.000000  0.000000  0.000000  1
  Ti  Ti1  1  0.000000  0.000000  0.202829  1
  Ti  Ti2  1  0.000000  0.000000  0.400842  1
  Ti  Ti3  1  0.000000  0.000000  0.599158  1
  Ti  Ti4  1  0.000000  0.000000  0.797171  1
  Pd  Pd5  1  0.500000  0.500000  0.000000  1
  Pd  Pd6  1  0.500000  0.500000  0.207225  1
  Pd  Pd7  1  0.500000  0.500000  0.402335  1
  Pd  Pd8  1  0.500000  0.500000  0.597665  1
  Pd  Pd9  1  0.500000  0.500000  0.792775  1
  Pd  Pd10  1  0.500000  0.000000  0.109733  1
  Pd  Pd11  1  0.500000  0.000000  0.304755  1
  Pd  Pd12  1  0.500000  0.000000  0.500000  1
  Pd  Pd13  1  0.500000  0.000000  0.695245  1
  Pd  Pd14  1  0.500000  0.000000  0.890267  1
  Pd  Pd15  1  0.000000  0.500000  0.109733  1
  Pd  Pd16  1  0.000000  0.500000  0.304755  1
  Pd  Pd17  1  0.000000  0.500000  0.500000  1
  Pd  Pd18  1  0.000000  0.500000  0.695245  1
  Pd  Pd19  1  0.000000  0.500000  0.890267  1
