# generated using pymatgen
data_Ca2CdAu2
_symmetry_space_group_name_H-M   'P 1'
_cell_length_a   7.95295200
_cell_length_b   3.98283600
_cell_length_c   7.95295200
_cell_angle_alpha   90.00000000
_cell_angle_beta   90.00000000
_cell_angle_gamma   90.00000000
_symmetry_Int_Tables_number   1
_chemical_formula_structural   Ca2CdAu2
_chemical_formula_sum   'Ca4 Cd2 Au4'
_cell_volume   251.91216857
_cell_formula_units_Z   2
loop_
 _symmetry_equiv_pos_site_id
 _symmetry_equiv_pos_as_xyz
  1  'x, y, z'
loop_
 _atom_site_type_symbol
 _atom_site_label
 _atom_site_symmetry_multiplicity
 _atom_site_fract_x
 _atom_site_fract_y
 _atom_site_fract_z
 _atom_site_occupancy
  Ca  Ca0  1  0.331672  0.500000  0.168328  1
  Ca  Ca1  1  0.831672  0.500000  0.331672  1
  Ca  Ca2  1  0.168328  0.500000  0.668329  1
  Ca  Ca3  1  0.668329  0.500000  0.831672  1
  Cd  Cd4  1  0.000000  0.000000  0.000000  1
  Cd  Cd5  1  0.500000  0.000000  0.500000  1
  Au  Au6  1  0.630764  0.000000  0.130763  1
  Au  Au7  1  0.130763  0.000000  0.369238  1
  Au  Au8  1  0.869239  0.000000  0.630764  1
  Au  Au9  1  0.369238  0.000000  0.869239  1
