# generated using pymatgen
data_DyCoB4Ru3
_symmetry_space_group_name_H-M   'P 1'
_cell_length_a   9.10939283
_cell_length_b   7.39243026
_cell_length_c   7.39622003
_cell_angle_alpha   90.30087340
_cell_angle_beta   113.95290487
_cell_angle_gamma   114.23043753
_symmetry_Int_Tables_number   1
_chemical_formula_structural   DyCoB4Ru3
_chemical_formula_sum   'Dy4 Co4 B16 Ru12'
_cell_volume   406.14911726
_cell_formula_units_Z   4
loop_
 _symmetry_equiv_pos_site_id
 _symmetry_equiv_pos_as_xyz
  1  'x, y, z'
loop_
 _atom_site_type_symbol
 _atom_site_label
 _atom_site_symmetry_multiplicity
 _atom_site_fract_x
 _atom_site_fract_y
 _atom_site_fract_z
 _atom_site_occupancy
  Dy  Dy0  1  0.750327  0.869974  0.122313  1
  Dy  Dy1  1  0.248084  0.623466  0.371855  1
  Dy  Dy2  1  0.752582  0.376271  0.632947  1
  Dy  Dy3  1  0.249715  0.120590  0.880501  1
  Co  Co4  1  0.876164  0.557088  0.048007  1
  Co  Co5  1  0.376894  0.837090  0.046853  1
  Co  Co6  1  0.115655  0.942970  0.162845  1
  Co  Co7  1  0.630405  0.463497  0.172250  1
  B  B8  1  0.915451  0.295345  0.071395  1
  B  B9  1  0.424447  0.573862  0.129059  1
  B  B10  1  0.088091  0.209670  0.149941  1
  B  B11  1  0.574597  0.152821  0.203599  1
  B  B12  1  0.396325  0.041309  0.274491  1
  B  B13  1  0.909770  0.623493  0.347999  1
  B  B14  1  0.593872  0.641990  0.375821  1
  B  B15  1  0.082129  0.873695  0.430101  1
  B  B16  1  0.910551  0.126307  0.559939  1
  B  B17  1  0.415543  0.343483  0.624724  1
  B  B18  1  0.086952  0.377246  0.654265  1
  B  B19  1  0.584243  0.933085  0.707244  1
  B  B20  1  0.414541  0.850972  0.791781  1
  B  B21  1  0.916932  0.791450  0.859482  1
  B  B22  1  0.592975  0.443118  0.882253  1
  B  B23  1  0.092872  0.716968  0.950689  1
  Ru  Ru24  1  0.375414  0.324409  0.312833  1
  Ru  Ru25  1  0.866055  0.324274  0.331668  1
  Ru  Ru26  1  0.618968  0.953223  0.436771  1
  Ru  Ru27  1  0.126472  0.179919  0.456155  1
  Ru  Ru28  1  0.877352  0.826068  0.541916  1
  Ru  Ru29  1  0.367427  0.033029  0.543584  1
  Ru  Ru30  1  0.129852  0.682018  0.672551  1
  Ru  Ru31  1  0.627411  0.663725  0.677402  1
  Ru  Ru32  1  0.376954  0.541355  0.826301  1
  Ru  Ru33  1  0.873135  0.056017  0.834084  1
  Ru  Ru34  1  0.627876  0.174352  0.947515  1
  Ru  Ru35  1  0.133970  0.455853  0.968873  1
