# generated using pymatgen
data_La4Sn8IrPd3
_symmetry_space_group_name_H-M   'P 1'
_cell_length_a   9.16130261
_cell_length_b   9.16130372
_cell_length_c   9.67197088
_cell_angle_alpha   90.10336933
_cell_angle_beta   89.89663016
_cell_angle_gamma   150.33996027
_symmetry_Int_Tables_number   1
_chemical_formula_structural   La4Sn8IrPd3
_chemical_formula_sum   'La4 Sn8 Ir1 Pd3'
_cell_volume   401.70265821
_cell_formula_units_Z   1
loop_
 _symmetry_equiv_pos_site_id
 _symmetry_equiv_pos_as_xyz
  1  'x, y, z'
loop_
 _atom_site_type_symbol
 _atom_site_label
 _atom_site_symmetry_multiplicity
 _atom_site_fract_x
 _atom_site_fract_y
 _atom_site_fract_z
 _atom_site_occupancy
  La  La0  1  0.497852  0.502148  0.499708  1
  La  La1  1  0.499679  0.500321  0.999029  1
  La  La2  1  0.297396  0.702604  0.250338  1
  La  La3  1  0.704070  0.295930  0.749286  1
  Sn  Sn4  1  0.911534  0.088466  0.747301  1
  Sn  Sn5  1  0.927035  0.072965  0.253464  1
  Sn  Sn6  1  0.088094  0.911906  0.249784  1
  Sn  Sn7  1  0.071644  0.928356  0.750377  1
  Sn  Sn8  1  0.699919  0.300081  0.409795  1
  Sn  Sn9  1  0.303409  0.696591  0.590072  1
  Sn  Sn10  1  0.302789  0.697211  0.907394  1
  Sn  Sn11  1  0.697765  0.302235  0.092501  1
  Ir  Ir12  1  0.851377  0.148623  0.493983  1
  Pd  Pd13  1  0.147078  0.852922  0.506586  1
  Pd  Pd14  1  0.853637  0.146363  0.007208  1
  Pd  Pd15  1  0.146720  0.853280  0.993176  1
