# generated using pymatgen
data_Np3PaB16
_symmetry_space_group_name_H-M   'P 1'
_cell_length_a   7.06774410
_cell_length_b   7.06774410
_cell_length_c   3.99330500
_cell_angle_alpha   90.00000000
_cell_angle_beta   90.00000000
_cell_angle_gamma   90.36113597
_symmetry_Int_Tables_number   1
_chemical_formula_structural   Np3PaB16
_chemical_formula_sum   'Np3 Pa1 B16'
_cell_volume   199.47362877
_cell_formula_units_Z   1
loop_
 _symmetry_equiv_pos_site_id
 _symmetry_equiv_pos_as_xyz
  1  'x, y, z'
loop_
 _atom_site_type_symbol
 _atom_site_label
 _atom_site_symmetry_multiplicity
 _atom_site_fract_x
 _atom_site_fract_y
 _atom_site_fract_z
 _atom_site_occupancy
  Np  Np0  1  0.190110  0.690110  0.000000  1
  Np  Np1  1  0.311267  0.188117  0.000000  1
  Np  Np2  1  0.688117  0.811267  0.000000  1
  Pa  Pa3  1  0.811425  0.311425  0.000000  1
  B  B4  1  0.498739  0.500877  0.799906  1
  B  B5  1  0.000877  0.998739  0.799906  1
  B  B6  1  0.498739  0.500877  0.200094  1
  B  B7  1  0.000877  0.998739  0.200094  1
  B  B8  1  0.412912  0.912912  0.500000  1
  B  B9  1  0.588196  0.088196  0.500000  1
  B  B10  1  0.912831  0.586443  0.500000  1
  B  B11  1  0.086443  0.412831  0.500000  1
  B  B12  1  0.677593  0.538974  0.500000  1
  B  B13  1  0.321025  0.462082  0.500000  1
  B  B14  1  0.178501  0.959954  0.500000  1
  B  B15  1  0.822597  0.038741  0.500000  1
  B  B16  1  0.459954  0.678501  0.500000  1
  B  B17  1  0.538741  0.322597  0.500000  1
  B  B18  1  0.038974  0.177593  0.500000  1
  B  B19  1  0.962082  0.821025  0.500000  1
