# generated using pymatgen
data_HoCu2AgPt2
_symmetry_space_group_name_H-M   'P 1'
_cell_length_a   5.19338430
_cell_length_b   5.19338366
_cell_length_c   5.49438100
_cell_angle_alpha   58.06351572
_cell_angle_beta   58.06352013
_cell_angle_gamma   58.08682902
_symmetry_Int_Tables_number   1
_chemical_formula_structural   HoCu2AgPt2
_chemical_formula_sum   'Ho1 Cu2 Ag1 Pt2'
_cell_volume   100.15210359
_cell_formula_units_Z   1
loop_
 _symmetry_equiv_pos_site_id
 _symmetry_equiv_pos_as_xyz
  1  'x, y, z'
loop_
 _atom_site_type_symbol
 _atom_site_label
 _atom_site_symmetry_multiplicity
 _atom_site_fract_x
 _atom_site_fract_y
 _atom_site_fract_z
 _atom_site_occupancy
  Ho  Ho0  1  0.254986  0.254986  0.245014  1
  Cu  Cu1  1  0.619844  0.121432  0.629363  1
  Cu  Cu2  1  0.121432  0.619844  0.629363  1
  Ag  Ag3  1  0.006597  0.006597  0.993403  1
  Pt  Pt4  1  0.623571  0.623571  0.626515  1
  Pt  Pt5  1  0.623571  0.623571  0.126344  1
