# generated using pymatgen
data_Th2Fe10Co2P7
_symmetry_space_group_name_H-M   'P 1'
_cell_length_a   9.06587931
_cell_length_b   9.08421765
_cell_length_c   3.67813200
_cell_angle_alpha   90.00000000
_cell_angle_beta   90.00000000
_cell_angle_gamma   120.01335278
_symmetry_Int_Tables_number   1
_chemical_formula_structural   Th2Fe10Co2P7
_chemical_formula_sum   'Th2 Fe10 Co2 P7'
_cell_volume   262.29919427
_cell_formula_units_Z   1
loop_
 _symmetry_equiv_pos_site_id
 _symmetry_equiv_pos_as_xyz
  1  'x, y, z'
loop_
 _atom_site_type_symbol
 _atom_site_label
 _atom_site_symmetry_multiplicity
 _atom_site_fract_x
 _atom_site_fract_y
 _atom_site_fract_z
 _atom_site_occupancy
  Th  Th0  1  0.667915  0.333635  0.000000  1
  Th  Th1  1  0.332610  0.666612  0.500000  1
  Fe  Fe2  1  0.061218  0.630914  0.000000  1
  Fe  Fe3  1  0.568987  0.940818  0.000000  1
  Fe  Fe4  1  0.370804  0.431912  0.000000  1
  Fe  Fe5  1  0.272398  0.122251  0.000000  1
  Fe  Fe6  1  0.849731  0.728071  0.000000  1
  Fe  Fe7  1  0.878642  0.147699  0.000000  1
  Fe  Fe8  1  0.945711  0.379952  0.500000  1
  Fe  Fe9  1  0.102486  0.878409  0.500000  1
  Fe  Fe10  1  0.773644  0.895625  0.500000  1
  Fe  Fe11  1  0.120279  0.222348  0.500000  1
  Co  Co12  1  0.435553  0.054632  0.500000  1
  Co  Co13  1  0.618782  0.565114  0.500000  1
  P  P14  1  0.296877  0.895840  0.000000  1
  P  P15  1  0.598837  0.704191  0.000000  1
  P  P16  1  0.101946  0.401825  0.000000  1
  P  P17  1  0.391860  0.291665  0.500000  1
  P  P18  1  0.899610  0.605921  0.500000  1
  P  P19  1  0.711589  0.103590  0.500000  1
  P  P20  1  0.000518  0.998978  0.000000  1
