# generated using pymatgen
data_Ho4As6Ir5Rh2
_symmetry_space_group_name_H-M   'P 1'
_cell_length_a   7.28960091
_cell_length_b   7.28960128
_cell_length_c   7.28960134
_cell_angle_alpha   109.46941735
_cell_angle_beta   109.47482048
_cell_angle_gamma   109.46942049
_symmetry_Int_Tables_number   1
_chemical_formula_structural   Ho4As6Ir5Rh2
_chemical_formula_sum   'Ho4 As6 Ir5 Rh2'
_cell_volume   298.18749897
_cell_formula_units_Z   1
loop_
 _symmetry_equiv_pos_site_id
 _symmetry_equiv_pos_as_xyz
  1  'x, y, z'
loop_
 _atom_site_type_symbol
 _atom_site_label
 _atom_site_symmetry_multiplicity
 _atom_site_fract_x
 _atom_site_fract_y
 _atom_site_fract_z
 _atom_site_occupancy
  Ho  Ho0  1  0.500198  0.500000  0.499802  1
  Ho  Ho1  1  0.999802  0.500000  0.000198  1
  Ho  Ho2  1  0.500198  0.000396  0.000198  1
  Ho  Ho3  1  0.999802  0.999604  0.499802  1
  As  As4  1  0.681187  0.000000  0.681187  1
  As  As5  1  0.681833  0.681540  0.000293  1
  As  As6  1  0.318753  0.318460  0.000293  1
  As  As7  1  0.999707  0.681540  0.681247  1
  As  As8  1  0.999707  0.318460  0.318167  1
  As  As9  1  0.318813  0.000000  0.318813  1
  Ir  Ir10  1  0.499050  0.749569  0.248620  1
  Ir  Ir11  1  0.751380  0.250431  0.500950  1
  Ir  Ir12  1  0.250519  0.749569  0.500950  1
  Ir  Ir13  1  0.250000  0.500000  0.750000  1
  Ir  Ir14  1  0.499050  0.250431  0.749481  1
  Rh  Rh15  1  0.000000  0.000000  0.000000  1
  Rh  Rh16  1  0.750000  0.500000  0.250000  1
