# generated using pymatgen
data_La5Tb3Sb20
_symmetry_space_group_name_H-M   'P 1'
_cell_length_a   4.31991300
_cell_length_b   13.58792248
_cell_length_c   15.21146561
_cell_angle_alpha   78.47567360
_cell_angle_beta   90.00000000
_cell_angle_gamma   90.00000000
_symmetry_Int_Tables_number   1
_chemical_formula_structural   La5Tb3Sb20
_chemical_formula_sum   'La5 Tb3 Sb20'
_cell_volume   874.89165054
_cell_formula_units_Z   1
loop_
 _symmetry_equiv_pos_site_id
 _symmetry_equiv_pos_as_xyz
  1  'x, y, z'
loop_
 _atom_site_type_symbol
 _atom_site_label
 _atom_site_symmetry_multiplicity
 _atom_site_fract_x
 _atom_site_fract_y
 _atom_site_fract_z
 _atom_site_occupancy
  La  La0  1  0.750000  0.331822  0.143107  1
  La  La1  1  0.250000  0.949144  0.365781  1
  La  La2  1  0.250000  0.667279  0.858102  1
  La  La3  1  0.250000  0.665726  0.577110  1
  La  La4  1  0.750000  0.053805  0.633453  1
  Tb  Tb5  1  0.750000  0.334928  0.421652  1
  Tb  Tb6  1  0.250000  0.397732  0.769508  1
  Tb  Tb7  1  0.750000  0.598978  0.229555  1
  Sb  Sb8  1  0.750000  0.857693  0.816801  1
  Sb  Sb9  1  0.250000  0.863532  0.675153  1
  Sb  Sb10  1  0.250000  0.154763  0.474599  1
  Sb  Sb11  1  0.750000  0.287534  0.930497  1
  Sb  Sb12  1  0.250000  0.150947  0.778281  1
  Sb  Sb13  1  0.750000  0.572536  0.440549  1
  Sb  Sb14  1  0.750000  0.140589  0.327487  1
  Sb  Sb15  1  0.250000  0.701007  0.351912  1
  Sb  Sb16  1  0.750000  0.296829  0.643506  1
  Sb  Sb17  1  0.750000  0.848996  0.222401  1
  Sb  Sb18  1  0.250000  0.419510  0.970773  1
  Sb  Sb19  1  0.250000  0.423753  0.555830  1
  Sb  Sb20  1  0.750000  0.571481  0.737772  1
  Sb  Sb21  1  0.250000  0.423259  0.267782  1
  Sb  Sb22  1  0.750000  0.854095  0.524647  1
  Sb  Sb23  1  0.750000  0.039404  0.885738  1
  Sb  Sb24  1  0.250000  0.711135  0.069305  1
  Sb  Sb25  1  0.250000  0.961396  0.115446  1
  Sb  Sb26  1  0.250000  0.143253  0.184331  1
  Sb  Sb27  1  0.750000  0.578871  0.028921  1
