# generated using pymatgen
data_Ho6ZrCo14(NiP4)3
_symmetry_space_group_name_H-M   'P 1'
_cell_length_a   3.71400000
_cell_length_b   10.57922300
_cell_length_c   12.31331600
_cell_angle_alpha   90.00000000
_cell_angle_beta   90.00000000
_cell_angle_gamma   90.00000000
_symmetry_Int_Tables_number   1
_chemical_formula_structural   Ho6ZrCo14(NiP4)3
_chemical_formula_sum   'Ho6 Zr1 Co14 Ni3 P12'
_cell_volume   483.80538301
_cell_formula_units_Z   1
loop_
 _symmetry_equiv_pos_site_id
 _symmetry_equiv_pos_as_xyz
  1  'x, y, z'
loop_
 _atom_site_type_symbol
 _atom_site_label
 _atom_site_symmetry_multiplicity
 _atom_site_fract_x
 _atom_site_fract_y
 _atom_site_fract_z
 _atom_site_occupancy
  Ho  Ho0  1  0.000000  0.500000  0.527737  1
  Ho  Ho1  1  0.500000  0.000000  0.478576  1
  Ho  Ho2  1  0.500000  0.819272  0.207361  1
  Ho  Ho3  1  0.500000  0.180728  0.207361  1
  Ho  Ho4  1  0.000000  0.683404  0.796404  1
  Ho  Ho5  1  0.000000  0.316596  0.796404  1
  Zr  Zr6  1  0.500000  0.500000  0.154814  1
  Co  Co7  1  0.000000  0.500000  0.983712  1
  Co  Co8  1  0.500000  0.000000  0.014305  1
  Co  Co9  1  0.500000  0.295144  0.434930  1
  Co  Co10  1  0.500000  0.704856  0.434930  1
  Co  Co11  1  0.000000  0.200947  0.569775  1
  Co  Co12  1  0.000000  0.799053  0.569775  1
  Co  Co13  1  0.500000  0.879043  0.707702  1
  Co  Co14  1  0.500000  0.120957  0.707702  1
  Co  Co15  1  0.000000  0.623396  0.297227  1
  Co  Co16  1  0.000000  0.376604  0.297227  1
  Co  Co17  1  0.500000  0.327605  0.988286  1
  Co  Co18  1  0.500000  0.672395  0.988286  1
  Co  Co19  1  0.000000  0.161564  0.000840  1
  Co  Co20  1  0.000000  0.838436  0.000840  1
  Ni  Ni21  1  0.000000  0.000000  0.836204  1
  Ni  Ni22  1  0.500000  0.500000  0.702570  1
  Ni  Ni23  1  0.000000  0.000000  0.296824  1
  P  P24  1  0.500000  0.308902  0.617709  1
  P  P25  1  0.500000  0.691098  0.617709  1
  P  P26  1  0.000000  0.189112  0.386966  1
  P  P27  1  0.000000  0.810888  0.386966  1
  P  P28  1  0.500000  0.500000  0.881568  1
  P  P29  1  0.000000  0.000000  0.116243  1
  P  P30  1  0.500000  0.851334  0.889007  1
  P  P31  1  0.500000  0.148666  0.889007  1
  P  P32  1  0.000000  0.665341  0.099817  1
  P  P33  1  0.000000  0.334659  0.099817  1
  P  P34  1  0.500000  0.500000  0.362031  1
  P  P35  1  0.000000  0.000000  0.653367  1
