# generated using pymatgen
data_CeEr3Si6IrRh
_symmetry_space_group_name_H-M   'P 1'
_cell_length_a   8.15715100
_cell_length_b   8.15715213
_cell_length_c   7.96207000
_cell_angle_alpha   90.00000000
_cell_angle_beta   90.00000000
_cell_angle_gamma   119.99999949
_symmetry_Int_Tables_number   1
_chemical_formula_structural   CeEr3Si6IrRh
_chemical_formula_sum   'Ce2 Er6 Si12 Ir2 Rh2'
_cell_volume   458.81085979
_cell_formula_units_Z   2
loop_
 _symmetry_equiv_pos_site_id
 _symmetry_equiv_pos_as_xyz
  1  'x, y, z'
loop_
 _atom_site_type_symbol
 _atom_site_label
 _atom_site_symmetry_multiplicity
 _atom_site_fract_x
 _atom_site_fract_y
 _atom_site_fract_z
 _atom_site_occupancy
  Ce  Ce0  1  0.000000  0.000000  0.250000  1
  Ce  Ce1  1  0.000000  0.000000  0.750000  1
  Er  Er2  1  0.493655  0.506345  0.250000  1
  Er  Er3  1  0.493655  0.987309  0.250000  1
  Er  Er4  1  0.012691  0.506345  0.250000  1
  Er  Er5  1  0.507574  0.492426  0.750000  1
  Er  Er6  1  0.984850  0.492426  0.750000  1
  Er  Er7  1  0.507574  0.015150  0.750000  1
  Si  Si8  1  0.833235  0.166765  0.502283  1
  Si  Si9  1  0.833235  0.666472  0.502283  1
  Si  Si10  1  0.333528  0.166765  0.502283  1
  Si  Si11  1  0.833235  0.166765  0.997717  1
  Si  Si12  1  0.833235  0.666472  0.997717  1
  Si  Si13  1  0.333528  0.166765  0.997717  1
  Si  Si14  1  0.167566  0.832434  0.002390  1
  Si  Si15  1  0.664870  0.832434  0.002390  1
  Si  Si16  1  0.167566  0.335130  0.002390  1
  Si  Si17  1  0.167566  0.832434  0.497610  1
  Si  Si18  1  0.664870  0.832434  0.497610  1
  Si  Si19  1  0.167566  0.335130  0.497610  1
  Ir  Ir20  1  0.666667  0.333333  0.472758  1
  Ir  Ir21  1  0.666667  0.333333  0.027242  1
  Rh  Rh22  1  0.333333  0.666667  0.972092  1
  Rh  Rh23  1  0.333333  0.666667  0.527908  1
