# generated using pymatgen
data_La2Zn4CdIn
_symmetry_space_group_name_H-M   'P 1'
_cell_length_a   4.64418200
_cell_length_b   7.40522500
_cell_length_c   10.24580600
_cell_angle_alpha   90.00000000
_cell_angle_beta   90.00000000
_cell_angle_gamma   90.00000000
_symmetry_Int_Tables_number   1
_chemical_formula_structural   La2Zn4CdIn
_chemical_formula_sum   'La4 Zn8 Cd2 In2'
_cell_volume   352.36569293
_cell_formula_units_Z   2
loop_
 _symmetry_equiv_pos_site_id
 _symmetry_equiv_pos_as_xyz
  1  'x, y, z'
loop_
 _atom_site_type_symbol
 _atom_site_label
 _atom_site_symmetry_multiplicity
 _atom_site_fract_x
 _atom_site_fract_y
 _atom_site_fract_z
 _atom_site_occupancy
  La  La0  1  0.250000  0.311688  0.676282  1
  La  La1  1  0.250000  0.811688  0.823718  1
  La  La2  1  0.750000  0.692027  0.329541  1
  La  La3  1  0.750000  0.192027  0.170459  1
  Zn  Zn4  1  0.250000  0.905946  0.143963  1
  Zn  Zn5  1  0.250000  0.405946  0.356037  1
  Zn  Zn6  1  0.750000  0.096127  0.854981  1
  Zn  Zn7  1  0.750000  0.596127  0.645019  1
  Zn  Zn8  1  0.250000  0.178523  0.964272  1
  Zn  Zn9  1  0.250000  0.678523  0.535728  1
  Zn  Zn10  1  0.750000  0.815667  0.035704  1
  Zn  Zn11  1  0.750000  0.315667  0.464296  1
  Cd  Cd12  1  0.750000  0.476484  0.903346  1
  Cd  Cd13  1  0.750000  0.976484  0.596654  1
  In  In14  1  0.250000  0.523538  0.094733  1
  In  In15  1  0.250000  0.023538  0.405267  1
