# generated using pymatgen
data_Nd12Ga3AuI12
_symmetry_space_group_name_H-M   'P 1'
_cell_length_a   10.94038892
_cell_length_b   10.94039009
_cell_length_c   10.83135000
_cell_angle_alpha   109.26944829
_cell_angle_beta   109.26945043
_cell_angle_gamma   109.67223282
_symmetry_Int_Tables_number   1
_chemical_formula_structural   Nd12Ga3AuI12
_chemical_formula_sum   'Nd12 Ga3 Au1 I12'
_cell_volume   1000.46449196
_cell_formula_units_Z   1
loop_
 _symmetry_equiv_pos_site_id
 _symmetry_equiv_pos_as_xyz
  1  'x, y, z'
loop_
 _atom_site_type_symbol
 _atom_site_label
 _atom_site_symmetry_multiplicity
 _atom_site_fract_x
 _atom_site_fract_y
 _atom_site_fract_z
 _atom_site_occupancy
  Nd  Nd0  1  0.027671  0.263835  0.013835  1
  Nd  Nd1  1  0.753080  0.016821  0.486799  1
  Nd  Nd2  1  0.263740  0.746920  0.233718  1
  Nd  Nd3  1  0.483179  0.746920  0.013201  1
  Nd  Nd4  1  0.753080  0.236260  0.266282  1
  Nd  Nd5  1  0.014956  0.485044  0.750000  1
  Nd  Nd6  1  0.236165  0.263835  0.750000  1
  Nd  Nd7  1  0.483179  0.236260  0.469979  1
  Nd  Nd8  1  0.470088  0.485044  0.235044  1
  Nd  Nd9  1  0.263740  0.016821  0.030021  1
  Nd  Nd10  1  0.014956  0.029912  0.264956  1
  Nd  Nd11  1  0.236165  0.472329  0.486165  1
  Ga  Ga12  1  0.248819  0.497639  0.998819  1
  Ga  Ga13  1  0.248819  0.251181  0.250000  1
  Ga  Ga14  1  0.002361  0.251181  0.501181  1
  Au  Au15  1  0.500000  0.000000  0.250000  1
  I  I16  1  0.756916  0.743084  0.250000  1
  I  I17  1  0.993258  0.506742  0.250000  1
  I  I18  1  0.249996  0.756462  0.742075  1
  I  I19  1  0.756916  0.513833  0.506916  1
  I  I20  1  0.506464  0.250004  0.992078  1
  I  I21  1  0.743538  0.993536  0.985612  1
  I  I22  1  0.993258  0.986515  0.743258  1
  I  I23  1  0.513485  0.506742  0.756742  1
  I  I24  1  0.249996  0.993536  0.507922  1
  I  I25  1  0.743538  0.250004  0.757925  1
  I  I26  1  0.506464  0.756462  0.514388  1
  I  I27  1  0.986167  0.743084  0.993084  1
