# generated using pymatgen
data_YHoMn2(CuO5)2
_symmetry_space_group_name_H-M   'P 1'
_cell_length_a   5.64927800
_cell_length_b   7.48884374
_cell_length_c   8.46757901
_cell_angle_alpha   89.92142185
_cell_angle_beta   90.00000000
_cell_angle_gamma   90.00000000
_symmetry_Int_Tables_number   1
_chemical_formula_structural   YHoMn2(CuO5)2
_chemical_formula_sum   'Y2 Ho2 Mn4 Cu4 O20'
_cell_volume   358.23380430
_cell_formula_units_Z   2
loop_
 _symmetry_equiv_pos_site_id
 _symmetry_equiv_pos_as_xyz
  1  'x, y, z'
loop_
 _atom_site_type_symbol
 _atom_site_label
 _atom_site_symmetry_multiplicity
 _atom_site_fract_x
 _atom_site_fract_y
 _atom_site_fract_z
 _atom_site_occupancy
  Y  Y0  1  0.500000  0.148647  0.825533  1
  Y  Y1  1  0.500000  0.851353  0.174467  1
  Ho  Ho2  1  0.500000  0.351562  0.325825  1
  Ho  Ho3  1  0.500000  0.648438  0.674175  1
  Mn  Mn4  1  0.240544  0.000000  0.500000  1
  Mn  Mn5  1  0.759456  0.000000  0.500000  1
  Mn  Mn6  1  0.759209  0.500000  0.000000  1
  Mn  Mn7  1  0.240791  0.500000  0.000000  1
  Cu  Cu8  1  0.000000  0.072266  0.149760  1
  Cu  Cu9  1  0.000000  0.927734  0.850240  1
  Cu  Cu10  1  0.000000  0.429553  0.649659  1
  Cu  Cu11  1  0.000000  0.570447  0.350341  1
  O  O12  1  0.227319  0.000000  0.000000  1
  O  O13  1  0.772681  0.000000  0.000000  1
  O  O14  1  0.771138  0.500000  0.500000  1
  O  O15  1  0.228862  0.500000  0.500000  1
  O  O16  1  0.000000  0.346289  0.059933  1
  O  O17  1  0.000000  0.653711  0.940067  1
  O  O18  1  0.000000  0.152679  0.562530  1
  O  O19  1  0.000000  0.847321  0.437470  1
  O  O20  1  0.258198  0.097201  0.287033  1
  O  O21  1  0.741802  0.902799  0.712967  1
  O  O22  1  0.258198  0.902799  0.712967  1
  O  O23  1  0.741352  0.406900  0.786121  1
  O  O24  1  0.741802  0.097201  0.287033  1
  O  O25  1  0.258648  0.593100  0.213879  1
  O  O26  1  0.741352  0.593100  0.213879  1
  O  O27  1  0.258648  0.406900  0.786121  1
  O  O28  1  0.500000  0.334942  0.052228  1
  O  O29  1  0.500000  0.665058  0.947772  1
  O  O30  1  0.500000  0.165265  0.551147  1
  O  O31  1  0.500000  0.834735  0.448853  1
