# generated using pymatgen
data_Tb4Dy4Hf9Si16Mo3
_symmetry_space_group_name_H-M   'P 1'
_cell_length_a   7.20513173
_cell_length_b   7.20464682
_cell_length_c   13.17516505
_cell_angle_alpha   90.10886023
_cell_angle_beta   90.10807640
_cell_angle_gamma   90.07352552
_symmetry_Int_Tables_number   1
_chemical_formula_structural   Tb4Dy4Hf9Si16Mo3
_chemical_formula_sum   'Tb4 Dy4 Hf9 Si16 Mo3'
_cell_volume   683.92545794
_cell_formula_units_Z   1
loop_
 _symmetry_equiv_pos_site_id
 _symmetry_equiv_pos_as_xyz
  1  'x, y, z'
loop_
 _atom_site_type_symbol
 _atom_site_label
 _atom_site_symmetry_multiplicity
 _atom_site_fract_x
 _atom_site_fract_y
 _atom_site_fract_z
 _atom_site_occupancy
  Tb  Tb0  1  0.846129  0.501464  0.967701  1
  Tb  Tb1  1  0.498565  0.153918  0.532293  1
  Tb  Tb2  1  0.343082  0.996625  0.785449  1
  Tb  Tb3  1  0.655893  0.000410  0.284772  1
  Dy  Dy4  1  0.999813  0.344253  0.215178  1
  Dy  Dy5  1  0.003145  0.656791  0.714450  1
  Dy  Dy6  1  0.154993  0.500386  0.463957  1
  Dy  Dy7  1  0.499612  0.844958  0.036033  1
  Hf  Hf8  1  0.675533  0.324649  0.749988  1
  Hf  Hf9  1  0.146712  0.992779  0.373560  1
  Hf  Hf10  1  0.854712  0.004833  0.876668  1
  Hf  Hf11  1  0.506050  0.649462  0.621556  1
  Hf  Hf12  1  0.350471  0.494016  0.878435  1
  Hf  Hf13  1  0.492546  0.352722  0.125502  1
  Hf  Hf14  1  0.647338  0.507413  0.374485  1
  Hf  Hf15  1  0.995157  0.145258  0.623305  1
  Hf  Hf16  1  0.007210  0.853305  0.126426  1
  Si  Si17  1  0.361168  0.296991  0.316942  1
  Si  Si18  1  0.637620  0.705578  0.817450  1
  Si  Si19  1  0.204191  0.861701  0.566145  1
  Si  Si20  1  0.138105  0.795541  0.933936  1
  Si  Si21  1  0.796148  0.137713  0.067437  1
  Si  Si22  1  0.862508  0.204071  0.432647  1
  Si  Si23  1  0.294237  0.362732  0.682490  1
  Si  Si24  1  0.703197  0.638457  0.183000  1
  Si  Si25  1  0.295526  0.051154  0.184221  1
  Si  Si26  1  0.705181  0.947461  0.682580  1
  Si  Si27  1  0.448268  0.794929  0.432665  1
  Si  Si28  1  0.204894  0.551546  0.067442  1
  Si  Si29  1  0.547933  0.203122  0.936193  1
  Si  Si30  1  0.797027  0.452283  0.563904  1
  Si  Si31  1  0.052358  0.295177  0.817331  1
  Si  Si32  1  0.949037  0.704116  0.315730  1
  Mo  Mo33  1  0.176511  0.175339  0.001391  1
  Mo  Mo34  1  0.824776  0.823391  0.498738  1
  Mo  Mo35  1  0.324356  0.675454  0.250000  1
