# generated using pymatgen
data_ErLuAs4O9
_symmetry_space_group_name_H-M   'P 1'
_cell_length_a   6.66140114
_cell_length_b   7.44757334
_cell_length_c   9.76982257
_cell_angle_alpha   94.28227231
_cell_angle_beta   104.00038822
_cell_angle_gamma   105.01872131
_symmetry_Int_Tables_number   1
_chemical_formula_structural   ErLuAs4O9
_chemical_formula_sum   'Er2 Lu2 As8 O18'
_cell_volume   449.32451879
_cell_formula_units_Z   2
loop_
 _symmetry_equiv_pos_site_id
 _symmetry_equiv_pos_as_xyz
  1  'x, y, z'
loop_
 _atom_site_type_symbol
 _atom_site_label
 _atom_site_symmetry_multiplicity
 _atom_site_fract_x
 _atom_site_fract_y
 _atom_site_fract_z
 _atom_site_occupancy
  Er  Er0  1  0.240842  0.938406  0.614226  1
  Er  Er1  1  0.759158  0.061594  0.385774  1
  Lu  Lu2  1  0.720447  0.527556  0.410421  1
  Lu  Lu3  1  0.279553  0.472444  0.589579  1
  As  As4  1  0.684603  0.772438  0.081623  1
  As  As5  1  0.315397  0.227562  0.918377  1
  As  As6  1  0.168320  0.750564  0.912756  1
  As  As7  1  0.831680  0.249436  0.087244  1
  As  As8  1  0.741265  0.913056  0.710203  1
  As  As9  1  0.258735  0.086944  0.289797  1
  As  As10  1  0.810673  0.352925  0.701205  1
  As  As11  1  0.189327  0.647075  0.298795  1
  O  O12  1  0.720279  0.744645  0.262567  1
  O  O13  1  0.279721  0.255355  0.737433  1
  O  O14  1  0.315232  0.978404  0.866650  1
  O  O15  1  0.684768  0.021596  0.133350  1
  O  O16  1  0.608435  0.327466  0.985432  1
  O  O17  1  0.391565  0.672534  0.014568  1
  O  O18  1  0.124784  0.641960  0.738059  1
  O  O19  1  0.875216  0.358040  0.261941  1
  O  O20  1  0.847792  0.876039  0.560149  1
  O  O21  1  0.152208  0.123961  0.439851  1
  O  O22  1  0.476835  0.764160  0.665388  1
  O  O23  1  0.523165  0.235840  0.334612  1
  O  O24  1  0.373879  0.531642  0.383472  1
  O  O25  1  0.626121  0.468358  0.616528  1
  O  O26  1  0.086892  0.668181  0.454725  1
  O  O27  1  0.913108  0.331819  0.545275  1
  O  O28  1  0.381109  0.900401  0.359083  1
  O  O29  1  0.618891  0.099599  0.640917  1
