# generated using pymatgen
data_AlVSbO6
_symmetry_space_group_name_H-M   'P 1'
_cell_length_a   4.55710700
_cell_length_b   4.55709400
_cell_length_c   9.06887400
_cell_angle_alpha   90.00011174
_cell_angle_beta   89.99988142
_cell_angle_gamma   89.99906962
_symmetry_Int_Tables_number   1
_chemical_formula_structural   AlVSbO6
_chemical_formula_sum   'Al2 V2 Sb2 O12'
_cell_volume   188.33480265
_cell_formula_units_Z   2
loop_
 _symmetry_equiv_pos_site_id
 _symmetry_equiv_pos_as_xyz
  1  'x, y, z'
loop_
 _atom_site_type_symbol
 _atom_site_label
 _atom_site_symmetry_multiplicity
 _atom_site_fract_x
 _atom_site_fract_y
 _atom_site_fract_z
 _atom_site_occupancy
  Al  Al0  1  0.999997  0.999997  0.667899  1
  Al  Al1  1  0.500004  0.500000  0.167873  1
  V  V2  1  0.500003  0.500003  0.499661  1
  V  V3  1  0.999999  0.999999  0.999709  1
  Sb  Sb4  1  0.499997  0.499998  0.833328  1
  Sb  Sb5  1  0.000004  0.000001  0.333254  1
  O  O6  1  0.200275  0.799729  0.164034  1
  O  O7  1  0.799732  0.200273  0.164035  1
  O  O8  1  0.299697  0.299703  0.664024  1
  O  O9  1  0.700292  0.700299  0.664025  1
  O  O10  1  0.196953  0.803046  0.505579  1
  O  O11  1  0.803043  0.196952  0.505580  1
  O  O12  1  0.303058  0.303056  0.005567  1
  O  O13  1  0.696944  0.696944  0.005566  1
  O  O14  1  0.188966  0.811030  0.829966  1
  O  O15  1  0.811031  0.188969  0.829967  1
  O  O16  1  0.311039  0.311036  0.329964  1
  O  O17  1  0.688967  0.688966  0.329965  1
