# generated using pymatgen
data_Nd8Mg(AgAu4)5
_symmetry_space_group_name_H-M   'P 1'
_cell_length_a   8.76675552
_cell_length_b   8.76675719
_cell_length_c   10.36250100
_cell_angle_alpha   89.95651883
_cell_angle_beta   89.95651882
_cell_angle_gamma   108.40645866
_symmetry_Int_Tables_number   1
_chemical_formula_structural   Nd8Mg(AgAu4)5
_chemical_formula_sum   'Nd8 Mg1 Ag5 Au20'
_cell_volume   755.67537914
_cell_formula_units_Z   1
loop_
 _symmetry_equiv_pos_site_id
 _symmetry_equiv_pos_as_xyz
  1  'x, y, z'
loop_
 _atom_site_type_symbol
 _atom_site_label
 _atom_site_symmetry_multiplicity
 _atom_site_fract_x
 _atom_site_fract_y
 _atom_site_fract_z
 _atom_site_occupancy
  Nd  Nd0  1  0.701746  0.298262  0.000005  1
  Nd  Nd1  1  0.200774  0.799225  0.500000  1
  Nd  Nd2  1  0.793491  0.793492  0.303747  1
  Nd  Nd3  1  0.301263  0.301263  0.204016  1
  Nd  Nd4  1  0.799226  0.200775  0.500000  1
  Nd  Nd5  1  0.298254  0.701738  0.999995  1
  Nd  Nd6  1  0.698737  0.698737  0.795984  1
  Nd  Nd7  1  0.206509  0.206508  0.696253  1
  Mg  Mg8  1  0.000000  0.000000  0.000000  1
  Ag  Ag9  1  0.524055  0.024572  0.248514  1
  Ag  Ag10  1  0.975427  0.475945  0.751487  1
  Ag  Ag11  1  0.024573  0.524055  0.248513  1
  Ag  Ag12  1  0.475945  0.975428  0.751486  1
  Ag  Ag13  1  0.500000  0.500000  0.500000  1
  Au  Au14  1  0.152199  0.433468  0.480707  1
  Au  Au15  1  0.903489  0.903489  0.594556  1
  Au  Au16  1  0.566532  0.847802  0.519293  1
  Au  Au17  1  0.891790  0.164730  0.206343  1
  Au  Au18  1  0.388273  0.668264  0.291035  1
  Au  Au19  1  0.668263  0.388273  0.291037  1
  Au  Au20  1  0.403313  0.403312  0.905798  1
  Au  Au21  1  0.931361  0.658667  0.019677  1
  Au  Au22  1  0.331737  0.611727  0.708963  1
  Au  Au23  1  0.341335  0.068639  0.980323  1
  Au  Au24  1  0.596687  0.596688  0.094202  1
  Au  Au25  1  0.658665  0.931361  0.019677  1
  Au  Au26  1  0.096511  0.096511  0.405444  1
  Au  Au27  1  0.611727  0.331736  0.708965  1
  Au  Au28  1  0.108210  0.835270  0.793657  1
  Au  Au29  1  0.068639  0.341333  0.980323  1
  Au  Au30  1  0.847801  0.566532  0.519293  1
  Au  Au31  1  0.164731  0.891789  0.206342  1
  Au  Au32  1  0.433468  0.152198  0.480707  1
  Au  Au33  1  0.835269  0.108211  0.793658  1
