# generated using pymatgen
data_Ca2Tm(B3Rh4)2
_symmetry_space_group_name_H-M   'P 1'
_cell_length_a   9.91543082
_cell_length_b   9.07407409
_cell_length_c   5.58821792
_cell_angle_alpha   81.35086379
_cell_angle_beta   64.78821387
_cell_angle_gamma   33.86090931
_symmetry_Int_Tables_number   1
_chemical_formula_structural   Ca2Tm(B3Rh4)2
_chemical_formula_sum   'Ca2 Tm1 B6 Rh8'
_cell_volume   231.92396498
_cell_formula_units_Z   1
loop_
 _symmetry_equiv_pos_site_id
 _symmetry_equiv_pos_as_xyz
  1  'x, y, z'
loop_
 _atom_site_type_symbol
 _atom_site_label
 _atom_site_symmetry_multiplicity
 _atom_site_fract_x
 _atom_site_fract_y
 _atom_site_fract_z
 _atom_site_occupancy
  Ca  Ca0  1  0.316266  0.316266  0.683734  1
  Ca  Ca1  1  0.683734  0.683734  0.316266  1
  Tm  Tm2  1  0.500000  0.500000  0.500000  1
  B  B3  1  0.668926  0.987339  0.012661  1
  B  B4  1  0.987339  0.668926  0.331074  1
  B  B5  1  0.331074  0.012661  0.987339  1
  B  B6  1  0.012661  0.331074  0.668926  1
  B  B7  1  0.166512  0.833488  0.166512  1
  B  B8  1  0.833488  0.166512  0.833488  1
  Rh  Rh9  1  0.584674  0.584674  0.915326  1
  Rh  Rh10  1  0.914092  0.914092  0.085908  1
  Rh  Rh11  1  0.415326  0.415326  0.084674  1
  Rh  Rh12  1  0.084674  0.084674  0.415326  1
  Rh  Rh13  1  0.915326  0.915326  0.584674  1
  Rh  Rh14  1  0.250000  0.250000  0.250000  1
  Rh  Rh15  1  0.085908  0.085908  0.914092  1
  Rh  Rh16  1  0.750000  0.750000  0.750000  1
