# generated using pymatgen
data_SrHf2Al7Cu2
_symmetry_space_group_name_H-M   'P 1'
_cell_length_a   8.99277917
_cell_length_b   8.99277835
_cell_length_c   8.99277881
_cell_angle_alpha   34.74334346
_cell_angle_beta   34.74334984
_cell_angle_gamma   34.74334315
_symmetry_Int_Tables_number   1
_chemical_formula_structural   SrHf2Al7Cu2
_chemical_formula_sum   'Sr1 Hf2 Al7 Cu2'
_cell_volume   210.80683177
_cell_formula_units_Z   1
loop_
 _symmetry_equiv_pos_site_id
 _symmetry_equiv_pos_as_xyz
  1  'x, y, z'
loop_
 _atom_site_type_symbol
 _atom_site_label
 _atom_site_symmetry_multiplicity
 _atom_site_fract_x
 _atom_site_fract_y
 _atom_site_fract_z
 _atom_site_occupancy
  Sr  Sr0  1  0.000000  0.000000  0.000000  1
  Hf  Hf1  1  0.854529  0.854529  0.854529  1
  Hf  Hf2  1  0.145471  0.145471  0.145471  1
  Al  Al3  1  0.414099  0.414099  0.923565  1
  Al  Al4  1  0.923565  0.414099  0.414099  1
  Al  Al5  1  0.414099  0.923565  0.414099  1
  Al  Al6  1  0.500000  0.500000  0.500000  1
  Al  Al7  1  0.585901  0.076435  0.585901  1
  Al  Al8  1  0.076435  0.585901  0.585901  1
  Al  Al9  1  0.585901  0.585901  0.076435  1
  Cu  Cu10  1  0.665372  0.665372  0.665372  1
  Cu  Cu11  1  0.334628  0.334628  0.334628  1
