# generated using pymatgen
data_Tm2MnCoGe2C
_symmetry_space_group_name_H-M   'P 1'
_cell_length_a   5.66401223
_cell_length_b   5.66401159
_cell_length_c   6.76097751
_cell_angle_alpha   125.34173943
_cell_angle_beta   125.34173071
_cell_angle_gamma   40.60560402
_symmetry_Int_Tables_number   1
_chemical_formula_structural   Tm2MnCoGe2C
_chemical_formula_sum   'Tm2 Mn1 Co1 Ge2 C1'
_cell_volume   111.11975218
_cell_formula_units_Z   1
loop_
 _symmetry_equiv_pos_site_id
 _symmetry_equiv_pos_as_xyz
  1  'x, y, z'
loop_
 _atom_site_type_symbol
 _atom_site_label
 _atom_site_symmetry_multiplicity
 _atom_site_fract_x
 _atom_site_fract_y
 _atom_site_fract_z
 _atom_site_occupancy
  Tm  Tm0  1  0.556392  0.556392  0.286194  1
  Tm  Tm1  1  0.442573  0.442573  0.713705  1
  Mn  Mn2  1  0.195611  0.195611  0.087912  1
  Co  Co3  1  0.801420  0.801420  0.909419  1
  Ge  Ge4  1  0.840946  0.840946  0.299354  1
  Ge  Ge5  1  0.160802  0.160802  0.701022  1
  C  C6  1  0.002255  0.002255  0.002394  1
