# generated using pymatgen
data_Y4Hf3ScIr4
_symmetry_space_group_name_H-M   'P 1'
_cell_length_a   4.51584500
_cell_length_b   7.06811605
_cell_length_c   8.36587625
_cell_angle_alpha   90.34329254
_cell_angle_beta   90.00000000
_cell_angle_gamma   90.00000000
_symmetry_Int_Tables_number   1
_chemical_formula_structural   Y4Hf3ScIr4
_chemical_formula_sum   'Y4 Hf3 Sc1 Ir4'
_cell_volume   267.02156620
_cell_formula_units_Z   1
loop_
 _symmetry_equiv_pos_site_id
 _symmetry_equiv_pos_as_xyz
  1  'x, y, z'
loop_
 _atom_site_type_symbol
 _atom_site_label
 _atom_site_symmetry_multiplicity
 _atom_site_fract_x
 _atom_site_fract_y
 _atom_site_fract_z
 _atom_site_occupancy
  Y  Y0  1  0.250000  0.986227  0.324104  1
  Y  Y1  1  0.250000  0.481823  0.174693  1
  Y  Y2  1  0.750000  0.019959  0.679352  1
  Y  Y3  1  0.750000  0.513132  0.822924  1
  Hf  Hf4  1  0.250000  0.362854  0.570945  1
  Hf  Hf5  1  0.250000  0.855365  0.931254  1
  Hf  Hf6  1  0.750000  0.646148  0.428311  1
  Sc  Sc7  1  0.750000  0.138946  0.071551  1
  Ir  Ir8  1  0.250000  0.227726  0.894796  1
  Ir  Ir9  1  0.250000  0.733969  0.595423  1
  Ir  Ir10  1  0.750000  0.760540  0.096150  1
  Ir  Ir11  1  0.750000  0.273309  0.410498  1
