# generated using pymatgen
data_Tc5Ge10Rh
_symmetry_space_group_name_H-M   'P 1'
_cell_length_a   5.92003900
_cell_length_b   5.92003900
_cell_length_c   14.23888300
_cell_angle_alpha   90.00000000
_cell_angle_beta   90.00000000
_cell_angle_gamma   90.00000000
_symmetry_Int_Tables_number   1
_chemical_formula_structural   Tc5Ge10Rh
_chemical_formula_sum   'Tc10 Ge20 Rh2'
_cell_volume   499.02816414
_cell_formula_units_Z   2
loop_
 _symmetry_equiv_pos_site_id
 _symmetry_equiv_pos_as_xyz
  1  'x, y, z'
loop_
 _atom_site_type_symbol
 _atom_site_label
 _atom_site_symmetry_multiplicity
 _atom_site_fract_x
 _atom_site_fract_y
 _atom_site_fract_z
 _atom_site_occupancy
  Tc  Tc0  1  0.000000  0.000000  0.000000  1
  Tc  Tc1  1  0.500000  0.500000  0.500000  1
  Tc  Tc2  1  0.500000  0.000000  0.085972  1
  Tc  Tc3  1  0.000000  0.500000  0.914028  1
  Tc  Tc4  1  0.000000  0.500000  0.585974  1
  Tc  Tc5  1  0.500000  0.000000  0.414026  1
  Tc  Tc6  1  0.000000  0.000000  0.326514  1
  Tc  Tc7  1  0.000000  0.000000  0.673486  1
  Tc  Tc8  1  0.500000  0.500000  0.826516  1
  Tc  Tc9  1  0.500000  0.500000  0.173484  1
  Ge  Ge10  1  0.662371  0.162367  0.250000  1
  Ge  Ge11  1  0.837633  0.662371  0.750000  1
  Ge  Ge12  1  0.337629  0.837633  0.250000  1
  Ge  Ge13  1  0.162367  0.337629  0.750000  1
  Ge  Ge14  1  0.154270  0.188820  0.153930  1
  Ge  Ge15  1  0.811180  0.154270  0.846070  1
  Ge  Ge16  1  0.845730  0.811180  0.153930  1
  Ge  Ge17  1  0.188820  0.845730  0.846070  1
  Ge  Ge18  1  0.345726  0.688814  0.653931  1
  Ge  Ge19  1  0.688814  0.654274  0.346069  1
  Ge  Ge20  1  0.654274  0.311186  0.653931  1
  Ge  Ge21  1  0.311186  0.345726  0.346069  1
  Ge  Ge22  1  0.348205  0.235104  0.949561  1
  Ge  Ge23  1  0.764896  0.348205  0.050439  1
  Ge  Ge24  1  0.651795  0.764896  0.949561  1
  Ge  Ge25  1  0.235104  0.651795  0.050439  1
  Ge  Ge26  1  0.151796  0.735101  0.449560  1
  Ge  Ge27  1  0.735101  0.848204  0.550440  1
  Ge  Ge28  1  0.848204  0.264899  0.449560  1
  Ge  Ge29  1  0.264899  0.151796  0.550440  1
  Rh  Rh30  1  0.500000  0.000000  0.749999  1
  Rh  Rh31  1  0.000000  0.500000  0.250001  1
