# generated using pymatgen
data_Sc12Al(ReI8)2
_symmetry_space_group_name_H-M   'P 1'
_cell_length_a   9.20920364
_cell_length_b   12.10602570
_cell_length_c   12.87360400
_cell_angle_alpha   117.02860410
_cell_angle_beta   101.06932148
_cell_angle_gamma   100.56284782
_symmetry_Int_Tables_number   1
_chemical_formula_structural   Sc12Al(ReI8)2
_chemical_formula_sum   'Sc12 Al1 Re2 I16'
_cell_volume   1193.09056128
_cell_formula_units_Z   1
loop_
 _symmetry_equiv_pos_site_id
 _symmetry_equiv_pos_as_xyz
  1  'x, y, z'
loop_
 _atom_site_type_symbol
 _atom_site_label
 _atom_site_symmetry_multiplicity
 _atom_site_fract_x
 _atom_site_fract_y
 _atom_site_fract_z
 _atom_site_occupancy
  Sc  Sc0  1  0.101681  0.265998  0.356659  1
  Sc  Sc1  1  0.898319  0.734002  0.643341  1
  Sc  Sc2  1  0.765601  0.536727  0.326422  1
  Sc  Sc3  1  0.234399  0.463273  0.673578  1
  Sc  Sc4  1  0.291775  0.734445  0.643193  1
  Sc  Sc5  1  0.708225  0.265555  0.356807  1
  Sc  Sc6  1  0.158406  0.536807  0.326512  1
  Sc  Sc7  1  0.841594  0.463193  0.673488  1
  Sc  Sc8  1  0.411638  0.368251  0.288395  1
  Sc  Sc9  1  0.588362  0.631749  0.711605  1
  Sc  Sc10  1  0.461591  0.319367  0.520242  1
  Sc  Sc11  1  0.538409  0.680633  0.479758  1
  Al  Al12  1  0.000000  0.500000  0.500000  1
  Re  Re13  1  0.329159  0.500119  0.499865  1
  Re  Re14  1  0.670842  0.499881  0.500135  1
  I  I15  1  0.391395  0.737296  0.879096  1
  I  I16  1  0.608605  0.262704  0.120904  1
  I  I17  1  0.183627  0.954866  0.776440  1
  I  I18  1  0.816373  0.045134  0.223560  1
  I  I19  1  0.339041  0.100097  0.255922  1
  I  I20  1  0.660959  0.899903  0.744078  1
  I  I21  1  0.561340  0.436521  0.795455  1
  I  I22  1  0.438660  0.563479  0.204545  1
  I  I23  1  0.303551  0.824961  0.463579  1
  I  I24  1  0.696449  0.175039  0.536421  1
  I  I25  1  0.165060  0.174889  0.534995  1
  I  I26  1  0.834940  0.825111  0.465005  1
  I  I27  1  0.927361  0.573853  0.165826  1
  I  I28  1  0.072639  0.426147  0.834174  1
  I  I29  1  0.925284  0.736365  0.879238  1
  I  I30  1  0.074716  0.263635  0.120762  1
