# generated using pymatgen
data_Y10Ga2Sn3Sb
_symmetry_space_group_name_H-M   'P 1'
_cell_length_a   6.56413400
_cell_length_b   8.85496991
_cell_length_c   8.86795201
_cell_angle_alpha   120.04986112
_cell_angle_beta   89.99992156
_cell_angle_gamma   89.99989252
_symmetry_Int_Tables_number   1
_chemical_formula_structural   Y10Ga2Sn3Sb
_chemical_formula_sum   'Y10 Ga2 Sn3 Sb1'
_cell_volume   446.16969693
_cell_formula_units_Z   1
loop_
 _symmetry_equiv_pos_site_id
 _symmetry_equiv_pos_as_xyz
  1  'x, y, z'
loop_
 _atom_site_type_symbol
 _atom_site_label
 _atom_site_symmetry_multiplicity
 _atom_site_fract_x
 _atom_site_fract_y
 _atom_site_fract_z
 _atom_site_occupancy
  Y  Y0  1  0.501263  0.343413  0.685847  1
  Y  Y1  1  0.501059  0.656589  0.315124  1
  Y  Y2  1  0.998940  0.656593  0.315133  1
  Y  Y3  1  0.998735  0.343408  0.685839  1
  Y  Y4  1  0.750003  0.242667  0.001424  1
  Y  Y5  1  0.749998  0.756048  0.767611  1
  Y  Y6  1  0.750000  0.990134  0.234632  1
  Y  Y7  1  0.249998  0.755462  0.996849  1
  Y  Y8  1  0.250003  0.245328  0.232277  1
  Y  Y9  1  0.250003  0.010360  0.766566  1
  Ga  Ga10  1  0.750003  0.603466  0.001316  1
  Ga  Ga11  1  0.249994  0.397874  0.999694  1
  Sn  Sn12  1  0.749995  0.392591  0.398607  1
  Sn  Sn13  1  0.749998  0.994546  0.602724  1
  Sn  Sn14  1  0.250001  0.606395  0.600757  1
  Sb  Sb15  1  0.250008  0.005125  0.395601  1
