# generated using pymatgen
data_Np3CdO12
_symmetry_space_group_name_H-M   'P 1'
_cell_length_a   7.14647002
_cell_length_b   7.21875339
_cell_length_c   7.12283881
_cell_angle_alpha   109.66534456
_cell_angle_beta   109.75914510
_cell_angle_gamma   109.57319276
_symmetry_Int_Tables_number   1
_chemical_formula_structural   Np3CdO12
_chemical_formula_sum   'Np3 Cd1 O12'
_cell_volume   280.81091688
_cell_formula_units_Z   1
loop_
 _symmetry_equiv_pos_site_id
 _symmetry_equiv_pos_as_xyz
  1  'x, y, z'
loop_
 _atom_site_type_symbol
 _atom_site_label
 _atom_site_symmetry_multiplicity
 _atom_site_fract_x
 _atom_site_fract_y
 _atom_site_fract_z
 _atom_site_occupancy
  Np  Np0  1  0.499883  0.496622  0.496622  1
  Np  Np1  1  0.000086  0.496598  0.996522  1
  Np  Np2  1  0.999971  0.996511  0.496551  1
  Cd  Cd3  1  0.500120  0.996824  0.996713  1
  O  O4  1  0.236176  0.415657  0.220319  1
  O  O5  1  0.763791  0.577769  0.773089  1
  O  O6  1  0.186658  0.995171  0.753452  1
  O  O7  1  0.813262  0.997927  0.239739  1
  O  O8  1  0.272996  0.208051  0.521360  1
  O  O9  1  0.726940  0.784992  0.471789  1
  O  O10  1  0.745720  0.251802  0.943236  1
  O  O11  1  0.254588  0.741399  0.050007  1
  O  O12  1  0.011261  0.698437  0.266023  1
  O  O13  1  0.988856  0.294856  0.726994  1
  O  O14  1  0.560649  0.297171  0.313423  1
  O  O15  1  0.439043  0.695937  0.679882  1
