# generated using pymatgen
data_LiTm8Sc10Si16Os
_symmetry_space_group_name_H-M   'P 1'
_cell_length_a   6.91449138
_cell_length_b   7.29727824
_cell_length_c   13.81508300
_cell_angle_alpha   90.00000000
_cell_angle_beta   90.00000000
_cell_angle_gamma   89.99710116
_symmetry_Int_Tables_number   1
_chemical_formula_structural   LiTm8Sc10Si16Os
_chemical_formula_sum   'Li1 Tm8 Sc10 Si16 Os1'
_cell_volume   697.06719296
_cell_formula_units_Z   1
loop_
 _symmetry_equiv_pos_site_id
 _symmetry_equiv_pos_as_xyz
  1  'x, y, z'
loop_
 _atom_site_type_symbol
 _atom_site_label
 _atom_site_symmetry_multiplicity
 _atom_site_fract_x
 _atom_site_fract_y
 _atom_site_fract_z
 _atom_site_occupancy
  Li  Li0  1  0.842191  0.492897  0.250000  1
  Tm  Tm1  1  0.010869  0.186114  0.094284  1
  Tm  Tm2  1  0.992791  0.818334  0.901671  1
  Tm  Tm3  1  0.490618  0.673614  0.903936  1
  Tm  Tm4  1  0.992791  0.818334  0.598329  1
  Tm  Tm5  1  0.515337  0.325140  0.094934  1
  Tm  Tm6  1  0.010869  0.186114  0.405716  1
  Tm  Tm7  1  0.515337  0.325140  0.405066  1
  Tm  Tm8  1  0.490618  0.673614  0.596064  1
  Sc  Sc9  1  0.344758  0.003547  0.250000  1
  Sc  Sc10  1  0.656026  0.994549  0.750000  1
  Sc  Sc11  1  0.325027  0.175906  0.627315  1
  Sc  Sc12  1  0.675679  0.820265  0.373683  1
  Sc  Sc13  1  0.168103  0.670015  0.375812  1
  Sc  Sc14  1  0.675679  0.820265  0.126317  1
  Sc  Sc15  1  0.823001  0.330327  0.628668  1
  Sc  Sc16  1  0.325027  0.175906  0.872685  1
  Sc  Sc17  1  0.823001  0.330327  0.871332  1
  Sc  Sc18  1  0.168103  0.670015  0.124188  1
  Si  Si19  1  0.026805  0.113722  0.750000  1
  Si  Si20  1  0.975100  0.898546  0.250000  1
  Si  Si21  1  0.469415  0.610871  0.250000  1
  Si  Si22  1  0.512843  0.397721  0.750000  1
  Si  Si23  1  0.284783  0.854651  0.750000  1
  Si  Si24  1  0.717575  0.125669  0.250000  1
  Si  Si25  1  0.221173  0.370531  0.250000  1
  Si  Si26  1  0.795485  0.631807  0.750000  1
  Si  Si27  1  0.156400  0.466191  0.549170  1
  Si  Si28  1  0.840665  0.538705  0.468073  1
  Si  Si29  1  0.342831  0.965766  0.462178  1
  Si  Si30  1  0.840665  0.538705  0.031927  1
  Si  Si31  1  0.659517  0.033343  0.538738  1
  Si  Si32  1  0.156400  0.466191  0.950830  1
  Si  Si33  1  0.659517  0.033343  0.961262  1
  Si  Si34  1  0.342831  0.965766  0.037822  1
  Os  Os35  1  0.152170  0.498057  0.750000  1
