# generated using pymatgen
data_Pa8Ti10Nb2Si15Sn
_symmetry_space_group_name_H-M   'P 1'
_cell_length_a   7.13030991
_cell_length_b   7.09590876
_cell_length_c   13.08896400
_cell_angle_alpha   89.97735916
_cell_angle_beta   89.83969108
_cell_angle_gamma   89.93752115
_symmetry_Int_Tables_number   1
_chemical_formula_structural   Pa8Ti10Nb2Si15Sn
_chemical_formula_sum   'Pa8 Ti10 Nb2 Si15 Sn1'
_cell_volume   662.24655979
_cell_formula_units_Z   1
loop_
 _symmetry_equiv_pos_site_id
 _symmetry_equiv_pos_as_xyz
  1  'x, y, z'
loop_
 _atom_site_type_symbol
 _atom_site_label
 _atom_site_symmetry_multiplicity
 _atom_site_fract_x
 _atom_site_fract_y
 _atom_site_fract_z
 _atom_site_occupancy
  Pa  Pa0  1  0.341624  0.996183  0.461481  1
  Pa  Pa1  1  0.506183  0.830717  0.720038  1
  Pa  Pa2  1  0.500880  0.162175  0.217985  1
  Pa  Pa3  1  0.838167  0.497672  0.281038  1
  Pa  Pa4  1  0.165709  0.511735  0.785024  1
  Pa  Pa5  1  0.664955  0.997777  0.968995  1
  Pa  Pa6  1  0.990374  0.348292  0.525483  1
  Pa  Pa7  1  0.000566  0.662069  0.033680  1
  Ti  Ti8  1  0.818272  0.170327  0.751477  1
  Ti  Ti9  1  0.669861  0.669242  0.500242  1
  Ti  Ti10  1  0.156638  0.000574  0.883927  1
  Ti  Ti11  1  0.499764  0.654672  0.126445  1
  Ti  Ti12  1  0.509547  0.349852  0.626232  1
  Ti  Ti13  1  0.658064  0.501105  0.875938  1
  Ti  Ti14  1  0.341637  0.503419  0.372882  1
  Ti  Ti15  1  0.840702  0.000780  0.374600  1
  Ti  Ti16  1  0.002989  0.156342  0.123361  1
  Ti  Ti17  1  0.984331  0.827155  0.619670  1
  Nb  Nb18  1  0.330850  0.331260  0.000789  1
  Nb  Nb19  1  0.170281  0.830870  0.249342  1
  Si  Si20  1  0.375927  0.706047  0.935520  1
  Si  Si21  1  0.623180  0.297046  0.432261  1
  Si  Si22  1  0.706187  0.372561  0.067156  1
  Si  Si23  1  0.295514  0.626982  0.566683  1
  Si  Si24  1  0.795635  0.873032  0.183742  1
  Si  Si25  1  0.126274  0.205077  0.316328  1
  Si  Si26  1  0.874403  0.799329  0.816808  1
  Si  Si27  1  0.293000  0.956848  0.066480  1
  Si  Si28  1  0.547057  0.786424  0.314280  1
  Si  Si29  1  0.466446  0.211827  0.818063  1
  Si  Si30  1  0.793086  0.537079  0.686604  1
  Si  Si31  1  0.210403  0.456750  0.185595  1
  Si  Si32  1  0.707057  0.042260  0.564979  1
  Si  Si33  1  0.957255  0.291053  0.933608  1
  Si  Si34  1  0.040558  0.712575  0.432746  1
  Sn  Sn35  1  0.196624  0.122892  0.680514  1
