# generated using pymatgen
data_Er5Lu7IrOs3
_symmetry_space_group_name_H-M   'P 1'
_cell_length_a   7.30977477
_cell_length_b   8.84566401
_cell_length_c   6.23505642
_cell_angle_alpha   90.07641111
_cell_angle_beta   90.05887136
_cell_angle_gamma   89.98965633
_symmetry_Int_Tables_number   1
_chemical_formula_structural   Er5Lu7IrOs3
_chemical_formula_sum   'Er5 Lu7 Ir1 Os3'
_cell_volume   403.15699564
_cell_formula_units_Z   1
loop_
 _symmetry_equiv_pos_site_id
 _symmetry_equiv_pos_as_xyz
  1  'x, y, z'
loop_
 _atom_site_type_symbol
 _atom_site_label
 _atom_site_symmetry_multiplicity
 _atom_site_fract_x
 _atom_site_fract_y
 _atom_site_fract_z
 _atom_site_occupancy
  Er  Er0  1  0.674501  0.061226  0.334116  1
  Er  Er1  1  0.537235  0.250284  0.873320  1
  Er  Er2  1  0.038827  0.250097  0.626932  1
  Er  Er3  1  0.461349  0.749662  0.126364  1
  Er  Er4  1  0.961976  0.749765  0.373263  1
  Lu  Lu5  1  0.176976  0.438707  0.167101  1
  Lu  Lu6  1  0.324963  0.562514  0.667156  1
  Lu  Lu7  1  0.824309  0.935611  0.831216  1
  Lu  Lu8  1  0.324603  0.937292  0.667328  1
  Lu  Lu9  1  0.824159  0.564121  0.831240  1
  Lu  Lu10  1  0.674046  0.438954  0.334203  1
  Lu  Lu11  1  0.176898  0.061359  0.167123  1
  Ir  Ir12  1  0.884418  0.250418  0.040119  1
  Os  Os13  1  0.382896  0.250418  0.459749  1
  Os  Os14  1  0.115984  0.750114  0.960990  1
  Os  Os15  1  0.616860  0.749458  0.539779  1
