# generated using pymatgen
data_Nd3Sm2(B3Ru)2
_symmetry_space_group_name_H-M   'P 1'
_cell_length_a   8.75192048
_cell_length_b   8.75192058
_cell_length_c   8.75192136
_cell_angle_alpha   37.25264814
_cell_angle_beta   37.25264695
_cell_angle_gamma   37.25264342
_symmetry_Int_Tables_number   1
_chemical_formula_structural   Nd3Sm2(B3Ru)2
_chemical_formula_sum   'Nd3 Sm2 B6 Ru2'
_cell_volume   220.19563412
_cell_formula_units_Z   1
loop_
 _symmetry_equiv_pos_site_id
 _symmetry_equiv_pos_as_xyz
  1  'x, y, z'
loop_
 _atom_site_type_symbol
 _atom_site_label
 _atom_site_symmetry_multiplicity
 _atom_site_fract_x
 _atom_site_fract_y
 _atom_site_fract_z
 _atom_site_occupancy
  Nd  Nd0  1  0.750210  0.750210  0.750210  1
  Nd  Nd1  1  0.249790  0.249790  0.249790  1
  Nd  Nd2  1  0.000000  0.000000  0.000000  1
  Sm  Sm3  1  0.581243  0.581243  0.581243  1
  Sm  Sm4  1  0.418757  0.418757  0.418757  1
  B  B5  1  0.500000  0.827245  0.172755  1
  B  B6  1  0.172755  0.500000  0.827245  1
  B  B7  1  0.827245  0.172755  0.500000  1
  B  B8  1  0.500000  0.172755  0.827245  1
  B  B9  1  0.827245  0.500000  0.172755  1
  B  B10  1  0.172755  0.827245  0.500000  1
  Ru  Ru11  1  0.884120  0.884120  0.884120  1
  Ru  Ru12  1  0.115880  0.115880  0.115880  1
