# generated using pymatgen
data_Tm8ZnInRh2
_symmetry_space_group_name_H-M   'P 1'
_cell_length_a   9.43904774
_cell_length_b   9.43904789
_cell_length_c   9.47013500
_cell_angle_alpha   59.89098983
_cell_angle_beta   59.89098932
_cell_angle_gamma   59.80921875
_symmetry_Int_Tables_number   1
_chemical_formula_structural   Tm8ZnInRh2
_chemical_formula_sum   'Tm16 Zn2 In2 Rh4'
_cell_volume   594.77398449
_cell_formula_units_Z   2
loop_
 _symmetry_equiv_pos_site_id
 _symmetry_equiv_pos_as_xyz
  1  'x, y, z'
loop_
 _atom_site_type_symbol
 _atom_site_label
 _atom_site_symmetry_multiplicity
 _atom_site_fract_x
 _atom_site_fract_y
 _atom_site_fract_z
 _atom_site_occupancy
  Tm  Tm0  1  0.601583  0.601583  0.599592  1
  Tm  Tm1  1  0.601583  0.601583  0.197243  1
  Tm  Tm2  1  0.604857  0.192645  0.601250  1
  Tm  Tm3  1  0.192645  0.604857  0.601250  1
  Tm  Tm4  1  0.058670  0.441118  0.441367  1
  Tm  Tm5  1  0.441118  0.058670  0.058846  1
  Tm  Tm6  1  0.441118  0.058670  0.441367  1
  Tm  Tm7  1  0.058670  0.441118  0.058846  1
  Tm  Tm8  1  0.441976  0.441976  0.058024  1
  Tm  Tm9  1  0.059384  0.059384  0.440616  1
  Tm  Tm10  1  0.180848  0.812778  0.814837  1
  Tm  Tm11  1  0.812778  0.180848  0.191538  1
  Tm  Tm12  1  0.812778  0.180848  0.814837  1
  Tm  Tm13  1  0.180848  0.812778  0.191538  1
  Tm  Tm14  1  0.813512  0.813512  0.186488  1
  Tm  Tm15  1  0.186633  0.186633  0.813367  1
  Zn  Zn16  1  0.834102  0.834102  0.831280  1
  Zn  Zn17  1  0.834102  0.834102  0.500515  1
  In  In18  1  0.833313  0.508244  0.829221  1
  In  In19  1  0.508244  0.833313  0.829221  1
  Rh  Rh20  1  0.392824  0.392824  0.393685  1
  Rh  Rh21  1  0.392824  0.392824  0.820665  1
  Rh  Rh22  1  0.392602  0.822989  0.392203  1
  Rh  Rh23  1  0.822989  0.392602  0.392203  1
