# generated using pymatgen
data_Hf3Be2SiPt
_symmetry_space_group_name_H-M   'P 1'
_cell_length_a   3.71301600
_cell_length_b   10.23374800
_cell_length_c   11.36179800
_cell_angle_alpha   90.00000000
_cell_angle_beta   90.00000000
_cell_angle_gamma   90.00000000
_symmetry_Int_Tables_number   1
_chemical_formula_structural   Hf3Be2SiPt
_chemical_formula_sum   'Hf12 Be8 Si4 Pt4'
_cell_volume   431.72639646
_cell_formula_units_Z   4
loop_
 _symmetry_equiv_pos_site_id
 _symmetry_equiv_pos_as_xyz
  1  'x, y, z'
loop_
 _atom_site_type_symbol
 _atom_site_label
 _atom_site_symmetry_multiplicity
 _atom_site_fract_x
 _atom_site_fract_y
 _atom_site_fract_z
 _atom_site_occupancy
  Hf  Hf0  1  0.250000  0.876469  0.015573  1
  Hf  Hf1  1  0.250000  0.623531  0.515573  1
  Hf  Hf2  1  0.750000  0.123531  0.984427  1
  Hf  Hf3  1  0.750000  0.376469  0.484427  1
  Hf  Hf4  1  0.250000  0.921499  0.608558  1
  Hf  Hf5  1  0.250000  0.578501  0.108558  1
  Hf  Hf6  1  0.750000  0.078501  0.391442  1
  Hf  Hf7  1  0.750000  0.421499  0.891442  1
  Hf  Hf8  1  0.250000  0.656690  0.794187  1
  Hf  Hf9  1  0.250000  0.843310  0.294187  1
  Hf  Hf10  1  0.750000  0.343310  0.205813  1
  Hf  Hf11  1  0.750000  0.156690  0.705813  1
  Be  Be12  1  0.250000  0.031995  0.830463  1
  Be  Be13  1  0.250000  0.468005  0.330463  1
  Be  Be14  1  0.750000  0.968005  0.169537  1
  Be  Be15  1  0.750000  0.531995  0.669537  1
  Be  Be16  1  0.250000  0.243676  0.847952  1
  Be  Be17  1  0.250000  0.256324  0.347952  1
  Be  Be18  1  0.750000  0.756324  0.152048  1
  Be  Be19  1  0.750000  0.743676  0.652048  1
  Si  Si20  1  0.250000  0.186079  0.539232  1
  Si  Si21  1  0.250000  0.313921  0.039232  1
  Si  Si22  1  0.750000  0.813921  0.460768  1
  Si  Si23  1  0.750000  0.686079  0.960768  1
  Pt  Pt24  1  0.250000  0.390748  0.685292  1
  Pt  Pt25  1  0.250000  0.109252  0.185292  1
  Pt  Pt26  1  0.750000  0.609252  0.314708  1
  Pt  Pt27  1  0.750000  0.890748  0.814708  1
