# generated using pymatgen
data_PrEuTi2(Co4P3)2
_symmetry_space_group_name_H-M   'P 1'
_cell_length_a   3.69210300
_cell_length_b   10.58247200
_cell_length_c   12.06752900
_cell_angle_alpha   90.00000000
_cell_angle_beta   90.00000000
_cell_angle_gamma   90.00000000
_symmetry_Int_Tables_number   1
_chemical_formula_structural   PrEuTi2(Co4P3)2
_chemical_formula_sum   'Pr2 Eu2 Ti4 Co16 P12'
_cell_volume   471.49738392
_cell_formula_units_Z   2
loop_
 _symmetry_equiv_pos_site_id
 _symmetry_equiv_pos_as_xyz
  1  'x, y, z'
loop_
 _atom_site_type_symbol
 _atom_site_label
 _atom_site_symmetry_multiplicity
 _atom_site_fract_x
 _atom_site_fract_y
 _atom_site_fract_z
 _atom_site_occupancy
  Pr  Pr0  1  0.750000  0.418469  0.295158  1
  Pr  Pr1  1  0.750000  0.081531  0.795158  1
  Eu  Eu2  1  0.250000  0.581944  0.704802  1
  Eu  Eu3  1  0.250000  0.918056  0.204802  1
  Ti  Ti4  1  0.250000  0.699573  0.991675  1
  Ti  Ti5  1  0.250000  0.800427  0.491675  1
  Ti  Ti6  1  0.750000  0.299656  0.009400  1
  Ti  Ti7  1  0.750000  0.200344  0.509400  1
  Co  Co8  1  0.250000  0.406233  0.491948  1
  Co  Co9  1  0.250000  0.093767  0.991948  1
  Co  Co10  1  0.750000  0.593619  0.509161  1
  Co  Co11  1  0.750000  0.906381  0.009161  1
  Co  Co12  1  0.250000  0.220604  0.173697  1
  Co  Co13  1  0.250000  0.279396  0.673697  1
  Co  Co14  1  0.750000  0.780559  0.826409  1
  Co  Co15  1  0.750000  0.719441  0.326409  1
  Co  Co16  1  0.250000  0.882515  0.699061  1
  Co  Co17  1  0.250000  0.617485  0.199061  1
  Co  Co18  1  0.750000  0.116837  0.300539  1
  Co  Co19  1  0.750000  0.383163  0.800539  1
  Co  Co20  1  0.250000  0.465628  0.933694  1
  Co  Co21  1  0.250000  0.034372  0.433694  1
  Co  Co22  1  0.750000  0.536546  0.065172  1
  Co  Co23  1  0.750000  0.963454  0.565172  1
  P  P24  1  0.250000  0.422856  0.112231  1
  P  P25  1  0.250000  0.077144  0.612231  1
  P  P26  1  0.750000  0.578787  0.884531  1
  P  P27  1  0.750000  0.921213  0.384531  1
  P  P28  1  0.250000  0.275561  0.861269  1
  P  P29  1  0.250000  0.224439  0.361269  1
  P  P30  1  0.750000  0.728368  0.139275  1
  P  P31  1  0.750000  0.771632  0.639275  1
  P  P32  1  0.250000  0.597960  0.393708  1
  P  P33  1  0.250000  0.902040  0.893708  1
  P  P34  1  0.750000  0.405098  0.608270  1
  P  P35  1  0.750000  0.094902  0.108270  1
