# generated using pymatgen
data_LiDy2(ScSi2)2
_symmetry_space_group_name_H-M   'P 1'
_cell_length_a   6.89941400
_cell_length_b   7.39894600
_cell_length_c   14.08292800
_cell_angle_alpha   90.00000000
_cell_angle_beta   90.00000000
_cell_angle_gamma   90.00000000
_symmetry_Int_Tables_number   1
_chemical_formula_structural   LiDy2(ScSi2)2
_chemical_formula_sum   'Li4 Dy8 Sc8 Si16'
_cell_volume   718.91082367
_cell_formula_units_Z   4
loop_
 _symmetry_equiv_pos_site_id
 _symmetry_equiv_pos_as_xyz
  1  'x, y, z'
loop_
 _atom_site_type_symbol
 _atom_site_label
 _atom_site_symmetry_multiplicity
 _atom_site_fract_x
 _atom_site_fract_y
 _atom_site_fract_z
 _atom_site_occupancy
  Li  Li0  1  0.159408  0.504835  0.750000  1
  Li  Li1  1  0.840592  0.495165  0.250000  1
  Li  Li2  1  0.340592  0.004835  0.250000  1
  Li  Li3  1  0.659408  0.995165  0.750000  1
  Dy  Dy4  1  0.013830  0.181468  0.099264  1
  Dy  Dy5  1  0.986170  0.818532  0.900736  1
  Dy  Dy6  1  0.486170  0.681468  0.900736  1
  Dy  Dy7  1  0.986170  0.818532  0.599264  1
  Dy  Dy8  1  0.513830  0.318532  0.099264  1
  Dy  Dy9  1  0.013830  0.181468  0.400736  1
  Dy  Dy10  1  0.513830  0.318532  0.400736  1
  Dy  Dy11  1  0.486170  0.681468  0.599264  1
  Sc  Sc12  1  0.330271  0.178831  0.626434  1
  Sc  Sc13  1  0.669729  0.821169  0.373566  1
  Sc  Sc14  1  0.169729  0.678831  0.373566  1
  Sc  Sc15  1  0.669729  0.821169  0.126434  1
  Sc  Sc16  1  0.830271  0.321169  0.626434  1
  Sc  Sc17  1  0.330271  0.178831  0.873566  1
  Sc  Sc18  1  0.830271  0.321169  0.873566  1
  Sc  Sc19  1  0.169729  0.678831  0.126434  1
  Si  Si20  1  0.031912  0.104744  0.750000  1
  Si  Si21  1  0.968088  0.895256  0.250000  1
  Si  Si22  1  0.468088  0.604744  0.250000  1
  Si  Si23  1  0.531912  0.395256  0.750000  1
  Si  Si24  1  0.282230  0.881300  0.750000  1
  Si  Si25  1  0.717770  0.118700  0.250000  1
  Si  Si26  1  0.217770  0.381300  0.250000  1
  Si  Si27  1  0.782230  0.618700  0.750000  1
  Si  Si28  1  0.157764  0.463181  0.535425  1
  Si  Si29  1  0.842236  0.536819  0.464575  1
  Si  Si30  1  0.342236  0.963181  0.464575  1
  Si  Si31  1  0.842236  0.536819  0.035425  1
  Si  Si32  1  0.657764  0.036819  0.535425  1
  Si  Si33  1  0.157764  0.463181  0.964575  1
  Si  Si34  1  0.657764  0.036819  0.964575  1
  Si  Si35  1  0.342236  0.963181  0.035425  1
