# generated using pymatgen
data_Y2HoCd3Sn2Au
_symmetry_space_group_name_H-M   'P 1'
_cell_length_a   7.49832011
_cell_length_b   7.49831831
_cell_length_c   4.53842700
_cell_angle_alpha   90.00000000
_cell_angle_beta   90.00000000
_cell_angle_gamma   119.98029414
_symmetry_Int_Tables_number   1
_chemical_formula_structural   Y2HoCd3Sn2Au
_chemical_formula_sum   'Y2 Ho1 Cd3 Sn2 Au1'
_cell_volume   221.02939692
_cell_formula_units_Z   1
loop_
 _symmetry_equiv_pos_site_id
 _symmetry_equiv_pos_as_xyz
  1  'x, y, z'
loop_
 _atom_site_type_symbol
 _atom_site_label
 _atom_site_symmetry_multiplicity
 _atom_site_fract_x
 _atom_site_fract_y
 _atom_site_fract_z
 _atom_site_occupancy
  Y  Y0  1  0.592932  0.999924  0.000000  1
  Y  Y1  1  0.999924  0.592932  0.000000  1
  Ho  Ho2  1  0.406128  0.406128  0.000000  1
  Cd  Cd3  1  0.240194  0.000108  0.500000  1
  Cd  Cd4  1  0.000108  0.240194  0.500000  1
  Cd  Cd5  1  0.759816  0.759816  0.500000  1
  Sn  Sn6  1  0.333532  0.666106  0.500000  1
  Sn  Sn7  1  0.666106  0.333532  0.500000  1
  Au  Au8  1  0.001260  0.001260  0.000000  1
