# generated using pymatgen
data_Cs2RbFe3F12
_symmetry_space_group_name_H-M   'P 1'
_cell_length_a   7.62031429
_cell_length_b   7.62031407
_cell_length_c   13.42949540
_cell_angle_alpha   74.21175805
_cell_angle_beta   74.21175695
_cell_angle_gamma   60.03534525
_symmetry_Int_Tables_number   1
_chemical_formula_structural   Cs2RbFe3F12
_chemical_formula_sum   'Cs4 Rb2 Fe6 F24'
_cell_volume   641.38022028
_cell_formula_units_Z   2
loop_
 _symmetry_equiv_pos_site_id
 _symmetry_equiv_pos_as_xyz
  1  'x, y, z'
loop_
 _atom_site_type_symbol
 _atom_site_label
 _atom_site_symmetry_multiplicity
 _atom_site_fract_x
 _atom_site_fract_y
 _atom_site_fract_z
 _atom_site_occupancy
  Cs  Cs0  1  0.900790  0.474218  0.681180  1
  Cs  Cs1  1  0.099210  0.525782  0.318820  1
  Cs  Cs2  1  0.525782  0.099210  0.818820  1
  Cs  Cs3  1  0.474218  0.900790  0.181180  1
  Rb  Rb4  1  0.224030  0.775970  0.750000  1
  Rb  Rb5  1  0.775970  0.224030  0.250000  1
  Fe  Fe6  1  0.500000  0.000000  0.500000  1
  Fe  Fe7  1  0.000000  0.500000  0.000000  1
  Fe  Fe8  1  0.000000  0.000000  0.500000  1
  Fe  Fe9  1  0.000000  0.000000  0.000000  1
  Fe  Fe10  1  0.500000  0.500000  0.500000  1
  Fe  Fe11  1  0.500000  0.500000  0.000000  1
  F  F12  1  0.887708  0.974401  0.644183  1
  F  F13  1  0.522439  0.896065  0.643918  1
  F  F14  1  0.279808  0.413586  0.026265  1
  F  F15  1  0.699984  0.198913  0.027408  1
  F  F16  1  0.896065  0.522439  0.143918  1
  F  F17  1  0.103935  0.477561  0.856082  1
  F  F18  1  0.477561  0.103935  0.356082  1
  F  F19  1  0.801087  0.300016  0.472592  1
  F  F20  1  0.112292  0.025599  0.355817  1
  F  F21  1  0.586414  0.720192  0.473735  1
  F  F22  1  0.450936  0.514705  0.143638  1
  F  F23  1  0.413586  0.279808  0.526265  1
  F  F24  1  0.514705  0.450936  0.643638  1
  F  F25  1  0.801229  0.931427  0.465209  1
  F  F26  1  0.198771  0.068573  0.534791  1
  F  F27  1  0.549064  0.485295  0.856362  1
  F  F28  1  0.931427  0.801229  0.965209  1
  F  F29  1  0.485295  0.549064  0.356362  1
  F  F30  1  0.720192  0.586414  0.973735  1
  F  F31  1  0.974401  0.887708  0.144183  1
  F  F32  1  0.068573  0.198771  0.034791  1
  F  F33  1  0.300016  0.801087  0.972592  1
  F  F34  1  0.025599  0.112292  0.855817  1
  F  F35  1  0.198913  0.699984  0.527408  1
