# generated using pymatgen
data_Na2Ag(NO3)4
_symmetry_space_group_name_H-M   'P 1'
_cell_length_a   7.95825200
_cell_length_b   7.35019067
_cell_length_c   9.36023484
_cell_angle_alpha   88.47580723
_cell_angle_beta   90.00000000
_cell_angle_gamma   90.00000000
_symmetry_Int_Tables_number   1
_chemical_formula_structural   Na2Ag(NO3)4
_chemical_formula_sum   'Na4 Ag2 N8 O24'
_cell_volume   547.33012149
_cell_formula_units_Z   2
loop_
 _symmetry_equiv_pos_site_id
 _symmetry_equiv_pos_as_xyz
  1  'x, y, z'
loop_
 _atom_site_type_symbol
 _atom_site_label
 _atom_site_symmetry_multiplicity
 _atom_site_fract_x
 _atom_site_fract_y
 _atom_site_fract_z
 _atom_site_occupancy
  Na  Na0  1  0.948680  0.724951  0.386948  1
  Na  Na1  1  0.448680  0.275049  0.113052  1
  Na  Na2  1  0.051320  0.275049  0.613052  1
  Na  Na3  1  0.551320  0.724951  0.886948  1
  Ag  Ag4  1  0.500000  0.000000  0.500000  1
  Ag  Ag5  1  0.000000  0.000000  0.000000  1
  N  N6  1  0.608545  0.854599  0.220049  1
  N  N7  1  0.108545  0.145401  0.279951  1
  N  N8  1  0.391455  0.145401  0.779951  1
  N  N9  1  0.891455  0.854599  0.720049  1
  N  N10  1  0.718992  0.319689  0.435023  1
  N  N11  1  0.218992  0.680311  0.064977  1
  N  N12  1  0.281008  0.680311  0.564977  1
  N  N13  1  0.781008  0.319689  0.935023  1
  O  O14  1  0.659143  0.840075  0.352472  1
  O  O15  1  0.159143  0.159925  0.147528  1
  O  O16  1  0.340857  0.159925  0.647528  1
  O  O17  1  0.840857  0.840075  0.852472  1
  O  O18  1  0.687551  0.767010  0.129623  1
  O  O19  1  0.187551  0.232990  0.370377  1
  O  O20  1  0.312449  0.232990  0.870377  1
  O  O21  1  0.812449  0.767010  0.629623  1
  O  O22  1  0.984762  0.046545  0.309800  1
  O  O23  1  0.484762  0.953455  0.190200  1
  O  O24  1  0.015238  0.953455  0.690200  1
  O  O25  1  0.515238  0.046545  0.809800  1
  O  O26  1  0.711791  0.188705  0.531362  1
  O  O27  1  0.211791  0.811295  0.968638  1
  O  O28  1  0.288209  0.811295  0.468638  1
  O  O29  1  0.788209  0.188705  0.031362  1
  O  O30  1  0.154573  0.578478  0.559418  1
  O  O31  1  0.654573  0.421522  0.940582  1
  O  O32  1  0.845427  0.421522  0.440582  1
  O  O33  1  0.345427  0.578478  0.059418  1
  O  O34  1  0.105080  0.661854  0.155165  1
  O  O35  1  0.605080  0.338146  0.344835  1
  O  O36  1  0.894920  0.338146  0.844835  1
  O  O37  1  0.394920  0.661854  0.655165  1
