# generated using pymatgen
data_Ce3Sm2Er3(Si3Rh)4
_symmetry_space_group_name_H-M   'P 1'
_cell_length_a   8.18841887
_cell_length_b   8.18841960
_cell_length_c   8.08055100
_cell_angle_alpha   90.00000000
_cell_angle_beta   90.00000000
_cell_angle_gamma   119.73518421
_symmetry_Int_Tables_number   1
_chemical_formula_structural   Ce3Sm2Er3(Si3Rh)4
_chemical_formula_sum   'Ce3 Sm2 Er3 Si12 Rh4'
_cell_volume   470.46191301
_cell_formula_units_Z   1
loop_
 _symmetry_equiv_pos_site_id
 _symmetry_equiv_pos_as_xyz
  1  'x, y, z'
loop_
 _atom_site_type_symbol
 _atom_site_label
 _atom_site_symmetry_multiplicity
 _atom_site_fract_x
 _atom_site_fract_y
 _atom_site_fract_z
 _atom_site_occupancy
  Ce  Ce0  1  0.999968  0.000032  0.250000  1
  Ce  Ce1  1  0.999888  0.000112  0.750000  1
  Ce  Ce2  1  0.498165  0.501835  0.250000  1
  Sm  Sm3  1  0.495154  0.990456  0.250000  1
  Sm  Sm4  1  0.009544  0.504846  0.250000  1
  Er  Er5  1  0.506998  0.493002  0.750000  1
  Er  Er6  1  0.986059  0.492834  0.750000  1
  Er  Er7  1  0.507166  0.013941  0.750000  1
  Si  Si8  1  0.833596  0.166404  0.504458  1
  Si  Si9  1  0.834707  0.668625  0.504743  1
  Si  Si10  1  0.331375  0.165293  0.504743  1
  Si  Si11  1  0.833596  0.166404  0.995542  1
  Si  Si12  1  0.834707  0.668625  0.995257  1
  Si  Si13  1  0.331375  0.165293  0.995257  1
  Si  Si14  1  0.167679  0.832321  0.997824  1
  Si  Si15  1  0.664710  0.832549  0.998445  1
  Si  Si16  1  0.167451  0.335290  0.998445  1
  Si  Si17  1  0.167679  0.832321  0.502176  1
  Si  Si18  1  0.664710  0.832549  0.501555  1
  Si  Si19  1  0.167451  0.335290  0.501555  1
  Rh  Rh20  1  0.665538  0.334462  0.491694  1
  Rh  Rh21  1  0.665538  0.334462  0.008306  1
  Rh  Rh22  1  0.333473  0.666527  0.960078  1
  Rh  Rh23  1  0.333473  0.666527  0.539922  1
