# generated using pymatgen
data_Th4ZnSi5Pd2
_symmetry_space_group_name_H-M   'P 1'
_cell_length_a   8.37079901
_cell_length_b   8.37082404
_cell_length_c   8.32960300
_cell_angle_alpha   89.99963730
_cell_angle_beta   90.00034997
_cell_angle_gamma   120.00465805
_symmetry_Int_Tables_number   1
_chemical_formula_structural   Th4ZnSi5Pd2
_chemical_formula_sum   'Th8 Zn2 Si10 Pd4'
_cell_volume   505.44007740
_cell_formula_units_Z   2
loop_
 _symmetry_equiv_pos_site_id
 _symmetry_equiv_pos_as_xyz
  1  'x, y, z'
loop_
 _atom_site_type_symbol
 _atom_site_label
 _atom_site_symmetry_multiplicity
 _atom_site_fract_x
 _atom_site_fract_y
 _atom_site_fract_z
 _atom_site_occupancy
  Th  Th0  1  0.499896  0.500105  0.752386  1
  Th  Th1  1  0.500104  0.499895  0.247614  1
  Th  Th2  1  0.000228  0.500105  0.752834  1
  Th  Th3  1  0.999772  0.499895  0.247166  1
  Th  Th4  1  0.499895  0.999773  0.752832  1
  Th  Th5  1  0.500105  0.000227  0.247168  1
  Th  Th6  1  0.000020  0.999979  0.746124  1
  Th  Th7  1  0.999980  0.000021  0.253876  1
  Zn  Zn8  1  0.836678  0.163317  0.999750  1
  Zn  Zn9  1  0.163322  0.836683  0.000250  1
  Si  Si10  1  0.329220  0.166006  0.999829  1
  Si  Si11  1  0.165697  0.834307  0.499796  1
  Si  Si12  1  0.670780  0.833994  0.000171  1
  Si  Si13  1  0.834303  0.165693  0.500204  1
  Si  Si14  1  0.833989  0.670778  0.999828  1
  Si  Si15  1  0.667277  0.833104  0.499816  1
  Si  Si16  1  0.166011  0.329222  0.000172  1
  Si  Si17  1  0.332723  0.166896  0.500184  1
  Si  Si18  1  0.166897  0.332724  0.499816  1
  Si  Si19  1  0.833103  0.667276  0.500184  1
  Pd  Pd20  1  0.662870  0.337131  0.999751  1
  Pd  Pd21  1  0.337130  0.662869  0.000249  1
  Pd  Pd22  1  0.333164  0.666837  0.499702  1
  Pd  Pd23  1  0.666836  0.333163  0.500298  1
