# generated using pymatgen
data_Tb3NbSn2Ir2Ru
_symmetry_space_group_name_H-M   'P 1'
_cell_length_a   7.17465900
_cell_length_b   7.35452913
_cell_length_c   4.17925100
_cell_angle_alpha   90.00000000
_cell_angle_beta   90.00000000
_cell_angle_gamma   119.19421631
_symmetry_Int_Tables_number   1
_chemical_formula_structural   Tb3NbSn2Ir2Ru
_chemical_formula_sum   'Tb3 Nb1 Sn2 Ir2 Ru1'
_cell_volume   192.51056466
_cell_formula_units_Z   1
loop_
 _symmetry_equiv_pos_site_id
 _symmetry_equiv_pos_as_xyz
  1  'x, y, z'
loop_
 _atom_site_type_symbol
 _atom_site_label
 _atom_site_symmetry_multiplicity
 _atom_site_fract_x
 _atom_site_fract_y
 _atom_site_fract_z
 _atom_site_occupancy
  Tb  Tb0  1  0.596143  0.000000  0.000000  1
  Tb  Tb1  1  0.997378  0.583643  0.000000  1
  Tb  Tb2  1  0.413735  0.416357  0.000000  1
  Nb  Nb3  1  0.245348  0.000000  0.500000  1
  Sn  Sn4  1  0.003589  0.251649  0.500000  1
  Sn  Sn5  1  0.751940  0.748351  0.500000  1
  Ir  Ir6  1  0.325165  0.686402  0.500000  1
  Ir  Ir7  1  0.638764  0.313598  0.500000  1
  Ru  Ru8  1  0.027937  0.000000  0.000000  1
