# generated using pymatgen
data_Ca3Ga8Ag3
_symmetry_space_group_name_H-M   'P 1'
_cell_length_a   4.40950694
_cell_length_b   8.40499079
_cell_length_c   8.40499111
_cell_angle_alpha   72.51497037
_cell_angle_beta   74.79253164
_cell_angle_gamma   74.79253252
_symmetry_Int_Tables_number   1
_chemical_formula_structural   Ca3Ga8Ag3
_chemical_formula_sum   'Ca3 Ga8 Ag3'
_cell_volume   280.95161395
_cell_formula_units_Z   1
loop_
 _symmetry_equiv_pos_site_id
 _symmetry_equiv_pos_as_xyz
  1  'x, y, z'
loop_
 _atom_site_type_symbol
 _atom_site_label
 _atom_site_symmetry_multiplicity
 _atom_site_fract_x
 _atom_site_fract_y
 _atom_site_fract_z
 _atom_site_occupancy
  Ca  Ca0  1  0.500000  0.500000  0.500000  1
  Ca  Ca1  1  0.201043  0.798957  0.798957  1
  Ca  Ca2  1  0.798957  0.201043  0.201043  1
  Ga  Ga3  1  0.358433  0.364004  0.919129  1
  Ga  Ga4  1  0.641567  0.635996  0.080871  1
  Ga  Ga5  1  0.358433  0.919129  0.364004  1
  Ga  Ga6  1  0.641567  0.080871  0.635996  1
  Ga  Ga7  1  0.160087  0.471756  0.208071  1
  Ga  Ga8  1  0.839913  0.528244  0.791929  1
  Ga  Ga9  1  0.160087  0.208071  0.471756  1
  Ga  Ga10  1  0.839913  0.791929  0.528244  1
  Ag  Ag11  1  0.500000  0.000000  0.000000  1
  Ag  Ag12  1  0.000000  0.806720  0.193280  1
  Ag  Ag13  1  0.000000  0.193280  0.806720  1
