# generated using pymatgen
data_DyLuB6Ru
_symmetry_space_group_name_H-M   'P 1'
_cell_length_a   3.62189100
_cell_length_b   9.07096900
_cell_length_c   11.46051600
_cell_angle_alpha   90.00000000
_cell_angle_beta   90.00000000
_cell_angle_gamma   90.00000000
_symmetry_Int_Tables_number   1
_chemical_formula_structural   DyLuB6Ru
_chemical_formula_sum   'Dy4 Lu4 B24 Ru4'
_cell_volume   376.52449155
_cell_formula_units_Z   4
loop_
 _symmetry_equiv_pos_site_id
 _symmetry_equiv_pos_as_xyz
  1  'x, y, z'
loop_
 _atom_site_type_symbol
 _atom_site_label
 _atom_site_symmetry_multiplicity
 _atom_site_fract_x
 _atom_site_fract_y
 _atom_site_fract_z
 _atom_site_occupancy
  Dy  Dy0  1  0.000000  0.321896  0.414085  1
  Dy  Dy1  1  0.000000  0.678104  0.585915  1
  Dy  Dy2  1  0.000000  0.821896  0.085915  1
  Dy  Dy3  1  0.000000  0.178104  0.914085  1
  Lu  Lu4  1  0.000000  0.943975  0.372613  1
  Lu  Lu5  1  0.000000  0.056025  0.627387  1
  Lu  Lu6  1  0.000000  0.443975  0.127387  1
  Lu  Lu7  1  0.000000  0.556025  0.872613  1
  B  B8  1  0.500000  0.554526  0.432843  1
  B  B9  1  0.500000  0.445474  0.567157  1
  B  B10  1  0.500000  0.054526  0.067157  1
  B  B11  1  0.500000  0.945474  0.932843  1
  B  B12  1  0.500000  0.749737  0.419475  1
  B  B13  1  0.500000  0.250263  0.580525  1
  B  B14  1  0.500000  0.249737  0.080525  1
  B  B15  1  0.500000  0.750263  0.919475  1
  B  B16  1  0.500000  0.792138  0.265961  1
  B  B17  1  0.500000  0.207862  0.734039  1
  B  B18  1  0.500000  0.292138  0.234039  1
  B  B19  1  0.500000  0.707862  0.765961  1
  B  B20  1  0.500000  0.630955  0.184323  1
  B  B21  1  0.500000  0.369045  0.815677  1
  B  B22  1  0.500000  0.130955  0.315677  1
  B  B23  1  0.500000  0.869045  0.684323  1
  B  B24  1  0.500000  0.982889  0.213651  1
  B  B25  1  0.500000  0.017111  0.786349  1
  B  B26  1  0.500000  0.482889  0.286349  1
  B  B27  1  0.500000  0.517111  0.713651  1
  B  B28  1  0.500000  0.603816  0.028564  1
  B  B29  1  0.500000  0.396184  0.971436  1
  B  B30  1  0.500000  0.103816  0.471436  1
  B  B31  1  0.500000  0.896184  0.528564  1
  Ru  Ru32  1  0.000000  0.638464  0.320155  1
  Ru  Ru33  1  0.000000  0.361536  0.679845  1
  Ru  Ru34  1  0.000000  0.138464  0.179845  1
  Ru  Ru35  1  0.000000  0.861536  0.820155  1
