# generated using pymatgen
data_Cs6Tm(IrBr6)3
_symmetry_space_group_name_H-M   'P 1'
_cell_length_a   7.86387100
_cell_length_b   7.86387107
_cell_length_c   19.79512000
_cell_angle_alpha   90.00000000
_cell_angle_beta   90.00000000
_cell_angle_gamma   119.99998710
_symmetry_Int_Tables_number   1
_chemical_formula_structural   Cs6Tm(IrBr6)3
_chemical_formula_sum   'Cs6 Tm1 Ir3 Br18'
_cell_volume   1060.13602299
_cell_formula_units_Z   1
loop_
 _symmetry_equiv_pos_site_id
 _symmetry_equiv_pos_as_xyz
  1  'x, y, z'
loop_
 _atom_site_type_symbol
 _atom_site_label
 _atom_site_symmetry_multiplicity
 _atom_site_fract_x
 _atom_site_fract_y
 _atom_site_fract_z
 _atom_site_occupancy
  Cs  Cs0  1  0.333333  0.666667  0.068903  1
  Cs  Cs1  1  0.666667  0.333333  0.934946  1
  Cs  Cs2  1  0.666667  0.333333  0.569798  1
  Cs  Cs3  1  0.333333  0.666667  0.434155  1
  Cs  Cs4  1  0.000000  0.000000  0.250501  1
  Cs  Cs5  1  0.000000  0.000000  0.746114  1
  Tm  Tm6  1  0.333333  0.666667  0.837648  1
  Ir  Ir7  1  0.333333  0.666667  0.668024  1
  Ir  Ir8  1  0.666667  0.333333  0.333989  1
  Ir  Ir9  1  0.666667  0.333333  0.166096  1
  Br  Br10  1  0.183023  0.366047  0.595856  1
  Br  Br11  1  0.817605  0.635209  0.405262  1
  Br  Br12  1  0.633953  0.816977  0.595856  1
  Br  Br13  1  0.817493  0.634987  0.094739  1
  Br  Br14  1  0.364791  0.182395  0.405262  1
  Br  Br15  1  0.166545  0.333091  0.909659  1
  Br  Br16  1  0.183023  0.816977  0.595856  1
  Br  Br17  1  0.365013  0.182507  0.094739  1
  Br  Br18  1  0.817605  0.182395  0.405262  1
  Br  Br19  1  0.666909  0.833455  0.909659  1
  Br  Br20  1  0.817493  0.182507  0.094739  1
  Br  Br21  1  0.166545  0.833455  0.909659  1
  Br  Br22  1  0.523989  0.047978  0.249996  1
  Br  Br23  1  0.488899  0.977797  0.741096  1
  Br  Br24  1  0.952022  0.476011  0.249996  1
  Br  Br25  1  0.022203  0.511101  0.741096  1
  Br  Br26  1  0.523989  0.476011  0.249996  1
  Br  Br27  1  0.488899  0.511101  0.741096  1
