# generated using pymatgen
data_Pr15NdCd4(IrPd)2
_symmetry_space_group_name_H-M   'P 1'
_cell_length_a   10.07963627
_cell_length_b   10.07963542
_cell_length_c   10.05840800
_cell_angle_alpha   60.06810368
_cell_angle_beta   60.06810680
_cell_angle_gamma   60.24631009
_symmetry_Int_Tables_number   1
_chemical_formula_structural   Pr15NdCd4(IrPd)2
_chemical_formula_sum   'Pr15 Nd1 Cd4 Ir2 Pd2'
_cell_volume   724.69259178
_cell_formula_units_Z   1
loop_
 _symmetry_equiv_pos_site_id
 _symmetry_equiv_pos_as_xyz
  1  'x, y, z'
loop_
 _atom_site_type_symbol
 _atom_site_label
 _atom_site_symmetry_multiplicity
 _atom_site_fract_x
 _atom_site_fract_y
 _atom_site_fract_z
 _atom_site_occupancy
  Pr  Pr0  1  0.350323  0.350323  0.954440  1
  Pr  Pr1  1  0.356498  0.945365  0.349164  1
  Pr  Pr2  1  0.945365  0.356498  0.349164  1
  Pr  Pr3  1  0.804727  0.190919  0.190266  1
  Pr  Pr4  1  0.190819  0.804943  0.814015  1
  Pr  Pr5  1  0.190919  0.804727  0.190266  1
  Pr  Pr6  1  0.804943  0.190819  0.814015  1
  Pr  Pr7  1  0.191844  0.191844  0.808038  1
  Pr  Pr8  1  0.810412  0.810412  0.189552  1
  Pr  Pr9  1  0.939249  0.564787  0.560674  1
  Pr  Pr10  1  0.564812  0.939119  0.935258  1
  Pr  Pr11  1  0.564787  0.939249  0.560674  1
  Pr  Pr12  1  0.939119  0.564812  0.935258  1
  Pr  Pr13  1  0.562792  0.562792  0.937264  1
  Pr  Pr14  1  0.937722  0.937722  0.562256  1
  Nd  Nd15  1  0.350174  0.350174  0.344672  1
  Cd  Cd16  1  0.580139  0.580139  0.580543  1
  Cd  Cd17  1  0.580034  0.580034  0.259192  1
  Cd  Cd18  1  0.578855  0.260261  0.580296  1
  Cd  Cd19  1  0.260261  0.578855  0.580296  1
  Ir  Ir20  1  0.141273  0.571513  0.144055  1
  Ir  Ir21  1  0.571513  0.141273  0.144055  1
  Pd  Pd22  1  0.141538  0.141538  0.146584  1
  Pd  Pd23  1  0.141882  0.141882  0.570000  1
