# generated using pymatgen
data_TbSm2(YSn2)2
_symmetry_space_group_name_H-M   'P 1'
_cell_length_a   8.10980500
_cell_length_b   8.26746000
_cell_length_c   15.62581300
_cell_angle_alpha   90.00000000
_cell_angle_beta   90.00000000
_cell_angle_gamma   90.00000000
_symmetry_Int_Tables_number   1
_chemical_formula_structural   TbSm2(YSn2)2
_chemical_formula_sum   'Tb4 Sm8 Y8 Sn16'
_cell_volume   1047.67151657
_cell_formula_units_Z   4
loop_
 _symmetry_equiv_pos_site_id
 _symmetry_equiv_pos_as_xyz
  1  'x, y, z'
loop_
 _atom_site_type_symbol
 _atom_site_label
 _atom_site_symmetry_multiplicity
 _atom_site_fract_x
 _atom_site_fract_y
 _atom_site_fract_z
 _atom_site_occupancy
  Tb  Tb0  1  0.633740  0.164502  0.121784  1
  Tb  Tb1  1  0.133740  0.335498  0.378216  1
  Tb  Tb2  1  0.366260  0.835498  0.621784  1
  Tb  Tb3  1  0.866260  0.664502  0.878216  1
  Sm  Sm4  1  0.518538  0.320430  0.902024  1
  Sm  Sm5  1  0.018538  0.179570  0.597976  1
  Sm  Sm6  1  0.481462  0.679570  0.402024  1
  Sm  Sm7  1  0.981462  0.820430  0.097976  1
  Sm  Sm8  1  0.481376  0.679446  0.097993  1
  Sm  Sm9  1  0.981376  0.820554  0.402007  1
  Sm  Sm10  1  0.518624  0.320554  0.597993  1
  Sm  Sm11  1  0.018624  0.179446  0.902007  1
  Y  Y12  1  0.366053  0.835706  0.878246  1
  Y  Y13  1  0.866053  0.664294  0.621754  1
  Y  Y14  1  0.633947  0.164294  0.378246  1
  Y  Y15  1  0.133947  0.335706  0.121754  1
  Y  Y16  1  0.198252  0.502374  0.750057  1
  Y  Y17  1  0.698252  0.997626  0.749943  1
  Y  Y18  1  0.801748  0.497626  0.250057  1
  Y  Y19  1  0.301748  0.002374  0.249943  1
  Sn  Sn20  1  0.295522  0.036715  0.041762  1
  Sn  Sn21  1  0.795522  0.463285  0.458238  1
  Sn  Sn22  1  0.704478  0.963285  0.541762  1
  Sn  Sn23  1  0.204478  0.536715  0.958238  1
  Sn  Sn24  1  0.704202  0.963245  0.958130  1
  Sn  Sn25  1  0.204202  0.536755  0.541870  1
  Sn  Sn26  1  0.295798  0.036755  0.458130  1
  Sn  Sn27  1  0.795798  0.463245  0.041870  1
  Sn  Sn28  1  0.564937  0.620342  0.749948  1
  Sn  Sn29  1  0.064937  0.879658  0.750052  1
  Sn  Sn30  1  0.435063  0.379658  0.249948  1
  Sn  Sn31  1  0.935063  0.120342  0.250052  1
  Sn  Sn32  1  0.326468  0.144000  0.750009  1
  Sn  Sn33  1  0.826468  0.356000  0.749991  1
  Sn  Sn34  1  0.673532  0.856000  0.250009  1
  Sn  Sn35  1  0.173532  0.644000  0.249991  1
