# generated using pymatgen
data_Eu2Ho3TmTa2O14
_symmetry_space_group_name_H-M   'P 1'
_cell_length_a   6.46210614
_cell_length_b   6.45483244
_cell_length_c   7.53726401
_cell_angle_alpha   89.89407371
_cell_angle_beta   90.10932232
_cell_angle_gamma   108.86315925
_symmetry_Int_Tables_number   1
_chemical_formula_structural   Eu2Ho3TmTa2O14
_chemical_formula_sum   'Eu2 Ho3 Tm1 Ta2 O14'
_cell_volume   297.50718474
_cell_formula_units_Z   1
loop_
 _symmetry_equiv_pos_site_id
 _symmetry_equiv_pos_as_xyz
  1  'x, y, z'
loop_
 _atom_site_type_symbol
 _atom_site_label
 _atom_site_symmetry_multiplicity
 _atom_site_fract_x
 _atom_site_fract_y
 _atom_site_fract_z
 _atom_site_occupancy
  Eu  Eu0  1  0.501992  0.502062  0.500465  1
  Eu  Eu1  1  0.495946  0.496239  0.999537  1
  Ho  Ho2  1  0.000353  0.533648  0.248713  1
  Ho  Ho3  1  0.534219  0.000177  0.751334  1
  Ho  Ho4  1  0.465860  0.999577  0.251245  1
  Tm  Tm5  1  0.999125  0.466576  0.748814  1
  Ta  Ta6  1  0.999903  0.999819  0.500529  1
  Ta  Ta7  1  0.000029  0.999875  0.999528  1
  O  O8  1  0.643326  0.359484  0.750337  1
  O  O9  1  0.359046  0.640189  0.249705  1
  O  O10  1  0.932693  0.068607  0.749981  1
  O  O11  1  0.066041  0.932302  0.250017  1
  O  O12  1  0.933452  0.679033  0.535007  1
  O  O13  1  0.068059  0.322287  0.030724  1
  O  O14  1  0.322231  0.069847  0.968038  1
  O  O15  1  0.678367  0.930109  0.467812  1
  O  O16  1  0.362169  0.632867  0.749832  1
  O  O17  1  0.634702  0.365702  0.250099  1
  O  O18  1  0.937313  0.682008  0.961884  1
  O  O19  1  0.064522  0.319458  0.466229  1
  O  O20  1  0.319456  0.066371  0.534973  1
  O  O21  1  0.681195  0.933762  0.035198  1
