# generated using pymatgen
data_Cs4YTaBr12
_symmetry_space_group_name_H-M   'P 1'
_cell_length_a   13.56090859
_cell_length_b   13.56090842
_cell_length_c   13.56090000
_cell_angle_alpha   131.65836523
_cell_angle_beta   131.65837026
_cell_angle_gamma   70.76930804
_symmetry_Int_Tables_number   1
_chemical_formula_structural   Cs4YTaBr12
_chemical_formula_sum   'Cs8 Y2 Ta2 Br24'
_cell_volume   1363.49630411
_cell_formula_units_Z   2
loop_
 _symmetry_equiv_pos_site_id
 _symmetry_equiv_pos_as_xyz
  1  'x, y, z'
loop_
 _atom_site_type_symbol
 _atom_site_label
 _atom_site_symmetry_multiplicity
 _atom_site_fract_x
 _atom_site_fract_y
 _atom_site_fract_z
 _atom_site_occupancy
  Cs  Cs0  1  0.374999  0.846639  0.971643  1
  Cs  Cs1  1  0.596639  0.624999  0.471643  1
  Cs  Cs2  1  0.875002  0.846639  0.471632  1
  Cs  Cs3  1  0.596639  0.125002  0.971632  1
  Cs  Cs4  1  0.874998  0.403361  0.028368  1
  Cs  Cs5  1  0.153361  0.124998  0.528368  1
  Cs  Cs6  1  0.375001  0.403361  0.528357  1
  Cs  Cs7  1  0.153361  0.625001  0.028357  1
  Y  Y8  1  0.500006  0.499994  0.000000  1
  Y  Y9  1  0.249994  0.750006  0.500000  1
  Ta  Ta10  1  0.000011  0.999989  0.000000  1
  Ta  Ta11  1  0.749989  0.250011  0.500000  1
  Br  Br12  1  0.746719  0.494882  0.251843  1
  Br  Br13  1  0.505118  0.253281  0.748157  1
  Br  Br14  1  0.373428  0.373427  0.000016  1
  Br  Br15  1  0.123427  0.623428  0.500016  1
  Br  Br16  1  0.376572  0.876573  0.499984  1
  Br  Br17  1  0.626573  0.626572  0.999984  1
  Br  Br18  1  0.114672  0.114666  0.999948  1
  Br  Br19  1  0.864666  0.364672  0.499948  1
  Br  Br20  1  0.635328  0.135334  0.500052  1
  Br  Br21  1  0.885334  0.885328  0.000052  1
  Br  Br22  1  0.230625  0.001826  0.228812  1
  Br  Br23  1  0.751841  0.023025  0.271183  1
  Br  Br24  1  0.505093  0.756919  0.251844  1
  Br  Br25  1  0.519375  0.248174  0.271188  1
  Br  Br26  1  0.976975  0.248159  0.728817  1
  Br  Br27  1  0.998159  0.226975  0.228817  1
  Br  Br28  1  0.998174  0.769375  0.771188  1
  Br  Br29  1  0.773025  0.001841  0.771183  1
  Br  Br30  1  0.751826  0.480625  0.728812  1
  Br  Br31  1  0.244907  0.493081  0.248156  1
  Br  Br32  1  0.244882  0.996719  0.751843  1
  Br  Br33  1  0.003281  0.755118  0.248157  1
  Br  Br34  1  0.506919  0.755093  0.751844  1
  Br  Br35  1  0.243081  0.494907  0.748156  1
