# generated using pymatgen
data_CaCeGeRh3
_symmetry_space_group_name_H-M   'P 1'
_cell_length_a   5.14764889
_cell_length_b   5.14764942
_cell_length_c   5.14764922
_cell_angle_alpha   66.61173623
_cell_angle_beta   66.61173709
_cell_angle_gamma   66.61175922
_symmetry_Int_Tables_number   1
_chemical_formula_structural   CaCeGeRh3
_chemical_formula_sum   'Ca1 Ce1 Ge1 Rh3'
_cell_volume   110.17285184
_cell_formula_units_Z   1
loop_
 _symmetry_equiv_pos_site_id
 _symmetry_equiv_pos_as_xyz
  1  'x, y, z'
loop_
 _atom_site_type_symbol
 _atom_site_label
 _atom_site_symmetry_multiplicity
 _atom_site_fract_x
 _atom_site_fract_y
 _atom_site_fract_z
 _atom_site_occupancy
  Ca  Ca0  1  0.625649  0.625649  0.625649  1
  Ce  Ce1  1  0.362319  0.362319  0.362319  1
  Ge  Ge2  1  0.003686  0.003686  0.003686  1
  Rh  Rh3  1  0.002257  0.002257  0.503830  1
  Rh  Rh4  1  0.503830  0.002257  0.002257  1
  Rh  Rh5  1  0.002257  0.503830  0.002257  1
