# generated using pymatgen
data_BaHgRhO5
_symmetry_space_group_name_H-M   'P 1'
_cell_length_a   10.36590800
_cell_length_b   10.36590829
_cell_length_c   8.62070100
_cell_angle_alpha   90.00000000
_cell_angle_beta   90.00000000
_cell_angle_gamma   119.99999906
_symmetry_Int_Tables_number   1
_chemical_formula_structural   BaHgRhO5
_chemical_formula_sum   'Ba6 Hg6 Rh6 O30'
_cell_volume   802.20973970
_cell_formula_units_Z   6
loop_
 _symmetry_equiv_pos_site_id
 _symmetry_equiv_pos_as_xyz
  1  'x, y, z'
loop_
 _atom_site_type_symbol
 _atom_site_label
 _atom_site_symmetry_multiplicity
 _atom_site_fract_x
 _atom_site_fract_y
 _atom_site_fract_z
 _atom_site_occupancy
  Ba  Ba0  1  0.333333  0.666667  0.484219  1
  Ba  Ba1  1  0.666667  0.333333  0.515781  1
  Ba  Ba2  1  0.666667  0.333333  0.984219  1
  Ba  Ba3  1  0.000000  0.000000  0.000000  1
  Ba  Ba4  1  0.333333  0.666667  0.015781  1
  Ba  Ba5  1  0.000000  0.000000  0.500000  1
  Hg  Hg6  1  0.662006  0.982279  0.750000  1
  Hg  Hg7  1  0.017721  0.679727  0.750000  1
  Hg  Hg8  1  0.679727  0.662006  0.250000  1
  Hg  Hg9  1  0.320273  0.337994  0.750000  1
  Hg  Hg10  1  0.982279  0.320273  0.250000  1
  Hg  Hg11  1  0.337994  0.017721  0.250000  1
  Rh  Rh12  1  0.656325  0.986373  0.250000  1
  Rh  Rh13  1  0.986373  0.330048  0.750000  1
  Rh  Rh14  1  0.343675  0.013627  0.750000  1
  Rh  Rh15  1  0.013627  0.669952  0.250000  1
  Rh  Rh16  1  0.330048  0.343675  0.250000  1
  Rh  Rh17  1  0.669952  0.656325  0.750000  1
  O  O18  1  0.089488  0.208208  0.750000  1
  O  O19  1  0.243697  0.350222  0.429914  1
  O  O20  1  0.570812  0.120648  0.750000  1
  O  O21  1  0.337113  0.834031  0.750000  1
  O  O22  1  0.649778  0.893475  0.070086  1
  O  O23  1  0.649778  0.893475  0.429914  1
  O  O24  1  0.756303  0.649778  0.929914  1
  O  O25  1  0.165969  0.503081  0.750000  1
  O  O26  1  0.503081  0.337113  0.250000  1
  O  O27  1  0.791792  0.881280  0.750000  1
  O  O28  1  0.350222  0.106525  0.929914  1
  O  O29  1  0.893475  0.243697  0.570086  1
  O  O30  1  0.893475  0.243697  0.929914  1
  O  O31  1  0.106525  0.756303  0.429914  1
  O  O32  1  0.910512  0.791792  0.250000  1
  O  O33  1  0.834031  0.496919  0.250000  1
  O  O34  1  0.881280  0.089488  0.250000  1
  O  O35  1  0.879352  0.450164  0.750000  1
  O  O36  1  0.350222  0.106525  0.570086  1
  O  O37  1  0.429188  0.879352  0.250000  1
  O  O38  1  0.118720  0.910512  0.750000  1
  O  O39  1  0.496919  0.662887  0.750000  1
  O  O40  1  0.450164  0.570812  0.250000  1
  O  O41  1  0.756303  0.649778  0.570086  1
  O  O42  1  0.243697  0.350222  0.070086  1
  O  O43  1  0.106525  0.756303  0.070086  1
  O  O44  1  0.549836  0.429188  0.750000  1
  O  O45  1  0.662887  0.165969  0.250000  1
  O  O46  1  0.120648  0.549836  0.250000  1
  O  O47  1  0.208208  0.118720  0.250000  1
