# generated using pymatgen
data_Dy2Y2V3ReB16
_symmetry_space_group_name_H-M   'P 1'
_cell_length_a   3.50773900
_cell_length_b   5.99539205
_cell_length_c   11.60369526
_cell_angle_alpha   90.00451836
_cell_angle_beta   90.00000000
_cell_angle_gamma   90.00000000
_symmetry_Int_Tables_number   1
_chemical_formula_structural   Dy2Y2V3ReB16
_chemical_formula_sum   'Dy2 Y2 V3 Re1 B16'
_cell_volume   244.02884956
_cell_formula_units_Z   1
loop_
 _symmetry_equiv_pos_site_id
 _symmetry_equiv_pos_as_xyz
  1  'x, y, z'
loop_
 _atom_site_type_symbol
 _atom_site_label
 _atom_site_symmetry_multiplicity
 _atom_site_fract_x
 _atom_site_fract_y
 _atom_site_fract_z
 _atom_site_occupancy
  Dy  Dy0  1  0.000000  0.126533  0.151817  1
  Dy  Dy1  1  0.000000  0.875223  0.848749  1
  Y  Y2  1  0.000000  0.623393  0.350139  1
  Y  Y3  1  0.000000  0.375896  0.651175  1
  V  V4  1  0.000000  0.371633  0.917712  1
  V  V5  1  0.000000  0.126815  0.416280  1
  V  V6  1  0.000000  0.873319  0.582498  1
  Re  Re7  1  0.000000  0.627947  0.082835  1
  B  B8  1  0.500000  0.785319  0.184963  1
  B  B9  1  0.500000  0.215023  0.814911  1
  B  B10  1  0.500000  0.285143  0.314491  1
  B  B11  1  0.500000  0.714459  0.685615  1
  B  B12  1  0.500000  0.865148  0.031736  1
  B  B13  1  0.500000  0.135488  0.967428  1
  B  B14  1  0.500000  0.363932  0.467468  1
  B  B15  1  0.500000  0.635992  0.532730  1
  B  B16  1  0.500000  0.885909  0.452743  1
  B  B17  1  0.500000  0.114382  0.547353  1
  B  B18  1  0.500000  0.385799  0.046866  1
  B  B19  1  0.500000  0.613641  0.952353  1
  B  B20  1  0.500000  0.976758  0.307711  1
  B  B21  1  0.500000  0.023135  0.692390  1
  B  B22  1  0.500000  0.476271  0.192278  1
  B  B23  1  0.500000  0.522843  0.807760  1
