# generated using pymatgen
data_NdSmURu3
_symmetry_space_group_name_H-M   'P 1'
_cell_length_a   5.26511712
_cell_length_b   5.26511644
_cell_length_c   5.26511717
_cell_angle_alpha   68.55643667
_cell_angle_beta   68.55644155
_cell_angle_gamma   68.55643364
_symmetry_Int_Tables_number   1
_chemical_formula_structural   NdSmURu3
_chemical_formula_sum   'Nd1 Sm1 U1 Ru3'
_cell_volume   121.83373102
_cell_formula_units_Z   1
loop_
 _symmetry_equiv_pos_site_id
 _symmetry_equiv_pos_as_xyz
  1  'x, y, z'
loop_
 _atom_site_type_symbol
 _atom_site_label
 _atom_site_symmetry_multiplicity
 _atom_site_fract_x
 _atom_site_fract_y
 _atom_site_fract_z
 _atom_site_occupancy
  Nd  Nd0  1  0.624264  0.624264  0.624264  1
  Sm  Sm1  1  0.374769  0.374769  0.374769  1
  U  U2  1  0.000184  0.000184  0.000184  1
  Ru  Ru3  1  0.000415  0.499951  0.000415  1
  Ru  Ru4  1  0.499951  0.000415  0.000415  1
  Ru  Ru5  1  0.000415  0.000415  0.499951  1
