# generated using pymatgen
data_NaHo7(Si4W3)4
_symmetry_space_group_name_H-M   'P 1'
_cell_length_a   6.73289857
_cell_length_b   6.91237004
_cell_length_c   12.91717537
_cell_angle_alpha   89.91704759
_cell_angle_beta   89.89876482
_cell_angle_gamma   89.78429631
_symmetry_Int_Tables_number   1
_chemical_formula_structural   NaHo7(Si4W3)4
_chemical_formula_sum   'Na1 Ho7 Si16 W12'
_cell_volume   601.16321839
_cell_formula_units_Z   1
loop_
 _symmetry_equiv_pos_site_id
 _symmetry_equiv_pos_as_xyz
  1  'x, y, z'
loop_
 _atom_site_type_symbol
 _atom_site_label
 _atom_site_symmetry_multiplicity
 _atom_site_fract_x
 _atom_site_fract_y
 _atom_site_fract_z
 _atom_site_occupancy
  Na  Na0  1  0.491152  0.334717  0.087308  1
  Ho  Ho1  1  0.996881  0.170436  0.404704  1
  Ho  Ho2  1  0.505500  0.668223  0.593707  1
  Ho  Ho3  1  0.002551  0.831952  0.908521  1
  Ho  Ho4  1  0.503360  0.665240  0.910569  1
  Ho  Ho5  1  0.004847  0.830956  0.593273  1
  Ho  Ho6  1  0.497443  0.329872  0.406758  1
  Ho  Ho7  1  0.998075  0.169314  0.093725  1
  Si  Si8  1  0.801801  0.634162  0.750911  1
  Si  Si9  1  0.303215  0.862689  0.751521  1
  Si  Si10  1  0.205242  0.366552  0.246142  1
  Si  Si11  1  0.692229  0.141392  0.245143  1
  Si  Si12  1  0.534540  0.369971  0.751428  1
  Si  Si13  1  0.033719  0.126664  0.750154  1
  Si  Si14  1  0.467054  0.623440  0.248075  1
  Si  Si15  1  0.965652  0.875096  0.250806  1
  Si  Si16  1  0.664095  0.044304  0.545076  1
  Si  Si17  1  0.160069  0.457135  0.954845  1
  Si  Si18  1  0.341217  0.962149  0.047383  1
  Si  Si19  1  0.836544  0.543501  0.454569  1
  Si  Si20  1  0.336856  0.955374  0.455440  1
  Si  Si21  1  0.833313  0.538350  0.047167  1
  Si  Si22  1  0.659515  0.045434  0.954667  1
  Si  Si23  1  0.164779  0.456807  0.545246  1
  W  W24  1  0.664083  0.001823  0.749756  1
  W  W25  1  0.165053  0.497650  0.749237  1
  W  W26  1  0.338092  0.992640  0.251869  1
  W  W27  1  0.837658  0.503878  0.251519  1
  W  W28  1  0.833241  0.337507  0.625794  1
  W  W29  1  0.327098  0.160050  0.874226  1
  W  W30  1  0.163569  0.667835  0.125028  1
  W  W31  1  0.669422  0.839771  0.374796  1
  W  W32  1  0.168036  0.662926  0.373617  1
  W  W33  1  0.670113  0.835447  0.127029  1
  W  W34  1  0.833588  0.336674  0.874443  1
  W  W35  1  0.330397  0.160068  0.625550  1
