# generated using pymatgen
data_Tm(P2Ru3)2
_symmetry_space_group_name_H-M   'P 1'
_cell_length_a   6.94292700
_cell_length_b   6.94292661
_cell_length_c   3.71476700
_cell_angle_alpha   90.00000000
_cell_angle_beta   90.00000000
_cell_angle_gamma   119.99999708
_symmetry_Int_Tables_number   1
_chemical_formula_structural   Tm(P2Ru3)2
_chemical_formula_sum   'Tm1 P4 Ru6'
_cell_volume   155.07700220
_cell_formula_units_Z   1
loop_
 _symmetry_equiv_pos_site_id
 _symmetry_equiv_pos_as_xyz
  1  'x, y, z'
loop_
 _atom_site_type_symbol
 _atom_site_label
 _atom_site_symmetry_multiplicity
 _atom_site_fract_x
 _atom_site_fract_y
 _atom_site_fract_z
 _atom_site_occupancy
  Tm  Tm0  1  0.000000  0.000000  0.000000  1
  P  P1  1  0.189072  0.378144  0.500000  1
  P  P2  1  0.621856  0.810928  0.500000  1
  P  P3  1  0.189072  0.810928  0.500000  1
  P  P4  1  0.666667  0.333333  0.000000  1
  Ru  Ru5  1  0.801731  0.603461  0.500000  1
  Ru  Ru6  1  0.396539  0.198269  0.500000  1
  Ru  Ru7  1  0.801731  0.198269  0.500000  1
  Ru  Ru8  1  0.464844  0.929686  0.000000  1
  Ru  Ru9  1  0.070314  0.535156  0.000000  1
  Ru  Ru10  1  0.464844  0.535156  0.000000  1
