# generated using pymatgen
data_Ca2Zn(TcO4)6
_symmetry_space_group_name_H-M   'P 1'
_cell_length_a   10.68859900
_cell_length_b   10.68859902
_cell_length_c   5.35062300
_cell_angle_alpha   90.00000000
_cell_angle_beta   90.00000000
_cell_angle_gamma   120.00000303
_symmetry_Int_Tables_number   1
_chemical_formula_structural   Ca2Zn(TcO4)6
_chemical_formula_sum   'Ca2 Zn1 Tc6 O24'
_cell_volume   529.39098274
_cell_formula_units_Z   1
loop_
 _symmetry_equiv_pos_site_id
 _symmetry_equiv_pos_as_xyz
  1  'x, y, z'
loop_
 _atom_site_type_symbol
 _atom_site_label
 _atom_site_symmetry_multiplicity
 _atom_site_fract_x
 _atom_site_fract_y
 _atom_site_fract_z
 _atom_site_occupancy
  Ca  Ca0  1  0.333333  0.666667  0.366344  1
  Ca  Ca1  1  0.666667  0.333333  0.366344  1
  Zn  Zn2  1  0.000000  0.000000  0.848084  1
  Tc  Tc3  1  0.334233  0.000000  0.987662  1
  Tc  Tc4  1  0.000000  0.334233  0.987662  1
  Tc  Tc5  1  0.665767  0.665767  0.987662  1
  Tc  Tc6  1  0.314022  0.314022  0.501031  1
  Tc  Tc7  1  0.000000  0.685978  0.501031  1
  Tc  Tc8  1  0.685978  0.000000  0.501031  1
  O  O9  1  0.641783  0.641783  0.670922  1
  O  O10  1  0.000000  0.358217  0.670922  1
  O  O11  1  0.358217  0.000000  0.670922  1
  O  O12  1  0.160606  0.160606  0.615766  1
  O  O13  1  0.000000  0.839394  0.615766  1
  O  O14  1  0.839394  0.000000  0.615766  1
  O  O15  1  0.316854  0.471127  0.601821  1
  O  O16  1  0.528873  0.845726  0.601821  1
  O  O17  1  0.154274  0.683146  0.601821  1
  O  O18  1  0.172151  0.000000  0.044759  1
  O  O19  1  0.000000  0.172151  0.044759  1
  O  O20  1  0.827849  0.827849  0.044759  1
  O  O21  1  0.480723  0.153114  0.117576  1
  O  O22  1  0.846886  0.327609  0.117576  1
  O  O23  1  0.672391  0.519277  0.117576  1
  O  O24  1  0.153114  0.480723  0.117576  1
  O  O25  1  0.327609  0.846886  0.117576  1
  O  O26  1  0.519277  0.672391  0.117576  1
  O  O27  1  0.686650  0.000000  0.180843  1
  O  O28  1  0.000000  0.686650  0.180843  1
  O  O29  1  0.313350  0.313350  0.180843  1
  O  O30  1  0.683146  0.154274  0.601821  1
  O  O31  1  0.845726  0.528873  0.601821  1
  O  O32  1  0.471127  0.316854  0.601821  1
