# generated using pymatgen
data_NdEr(CuP)3
_symmetry_space_group_name_H-M   'P 1'
_cell_length_a   3.91598700
_cell_length_b   10.75267800
_cell_length_c   12.96075200
_cell_angle_alpha   90.00000000
_cell_angle_beta   90.00000000
_cell_angle_gamma   90.00000000
_symmetry_Int_Tables_number   1
_chemical_formula_structural   NdEr(CuP)3
_chemical_formula_sum   'Nd4 Er4 Cu12 P12'
_cell_volume   545.74288526
_cell_formula_units_Z   4
loop_
 _symmetry_equiv_pos_site_id
 _symmetry_equiv_pos_as_xyz
  1  'x, y, z'
loop_
 _atom_site_type_symbol
 _atom_site_label
 _atom_site_symmetry_multiplicity
 _atom_site_fract_x
 _atom_site_fract_y
 _atom_site_fract_z
 _atom_site_occupancy
  Nd  Nd0  1  0.250000  0.932449  0.792620  1
  Nd  Nd1  1  0.750000  0.432449  0.707380  1
  Nd  Nd2  1  0.250000  0.567551  0.292620  1
  Nd  Nd3  1  0.750000  0.067551  0.207380  1
  Er  Er4  1  0.250000  0.842266  0.502720  1
  Er  Er5  1  0.750000  0.342266  0.997280  1
  Er  Er6  1  0.250000  0.657734  0.002720  1
  Er  Er7  1  0.750000  0.157734  0.497280  1
  Cu  Cu8  1  0.250000  0.402845  0.511169  1
  Cu  Cu9  1  0.750000  0.902845  0.988831  1
  Cu  Cu10  1  0.250000  0.097155  0.011169  1
  Cu  Cu11  1  0.750000  0.597155  0.488831  1
  Cu  Cu12  1  0.250000  0.270063  0.332173  1
  Cu  Cu13  1  0.750000  0.770063  0.167827  1
  Cu  Cu14  1  0.250000  0.229937  0.832173  1
  Cu  Cu15  1  0.750000  0.729937  0.667827  1
  Cu  Cu16  1  0.250000  0.858261  0.281725  1
  Cu  Cu17  1  0.750000  0.358261  0.218275  1
  Cu  Cu18  1  0.250000  0.641739  0.781725  1
  Cu  Cu19  1  0.750000  0.141739  0.718275  1
  P  P20  1  0.250000  0.238384  0.641534  1
  P  P21  1  0.750000  0.738384  0.858466  1
  P  P22  1  0.250000  0.261616  0.141534  1
  P  P23  1  0.750000  0.761616  0.358466  1
  P  P24  1  0.250000  0.607910  0.599950  1
  P  P25  1  0.750000  0.107910  0.900050  1
  P  P26  1  0.250000  0.892090  0.099950  1
  P  P27  1  0.750000  0.392090  0.400050  1
  P  P28  1  0.250000  0.056677  0.373985  1
  P  P29  1  0.750000  0.556677  0.126015  1
  P  P30  1  0.250000  0.443323  0.873985  1
  P  P31  1  0.750000  0.943323  0.626015  1
