# generated using pymatgen
data_NaTbGaPt3
_symmetry_space_group_name_H-M   'P 1'
_cell_length_a   5.56301111
_cell_length_b   5.56301043
_cell_length_c   5.20369921
_cell_angle_alpha   57.68831848
_cell_angle_beta   57.68832697
_cell_angle_gamma   59.99998391
_symmetry_Int_Tables_number   1
_chemical_formula_structural   NaTbGaPt3
_chemical_formula_sum   'Na1 Tb1 Ga1 Pt3'
_cell_volume   109.72953419
_cell_formula_units_Z   1
loop_
 _symmetry_equiv_pos_site_id
 _symmetry_equiv_pos_as_xyz
  1  'x, y, z'
loop_
 _atom_site_type_symbol
 _atom_site_label
 _atom_site_symmetry_multiplicity
 _atom_site_fract_x
 _atom_site_fract_y
 _atom_site_fract_z
 _atom_site_occupancy
  Na  Na0  1  0.750246  0.750246  0.749262  1
  Tb  Tb1  1  0.502719  0.502719  0.491842  1
  Ga  Ga2  1  0.124110  0.124110  0.627671  1
  Pt  Pt3  1  0.123284  0.123284  0.127075  1
  Pt  Pt4  1  0.626357  0.123284  0.127075  1
  Pt  Pt5  1  0.123284  0.626357  0.127075  1
