# generated using pymatgen
data_Li2La3AgGe2Pb
_symmetry_space_group_name_H-M   'P 1'
_cell_length_a   7.54739821
_cell_length_b   7.54739993
_cell_length_c   4.54730800
_cell_angle_alpha   90.00000000
_cell_angle_beta   90.00000000
_cell_angle_gamma   119.73255032
_symmetry_Int_Tables_number   1
_chemical_formula_structural   Li2La3AgGe2Pb
_chemical_formula_sum   'Li2 La3 Ag1 Ge2 Pb1'
_cell_volume   224.92812197
_cell_formula_units_Z   1
loop_
 _symmetry_equiv_pos_site_id
 _symmetry_equiv_pos_as_xyz
  1  'x, y, z'
loop_
 _atom_site_type_symbol
 _atom_site_label
 _atom_site_symmetry_multiplicity
 _atom_site_fract_x
 _atom_site_fract_y
 _atom_site_fract_z
 _atom_site_occupancy
  Li  Li0  1  0.239915  0.995844  0.500000  1
  Li  Li1  1  0.995844  0.239915  0.500000  1
  La  La2  1  0.443423  0.443423  0.000000  1
  La  La3  1  0.566244  0.997341  0.000000  1
  La  La4  1  0.997341  0.566244  0.000000  1
  Ag  Ag5  1  0.748688  0.748688  0.500000  1
  Ge  Ge6  1  0.668931  0.331093  0.500000  1
  Ge  Ge7  1  0.331093  0.668931  0.500000  1
  Pb  Pb8  1  0.008522  0.008522  0.000000  1
