# generated using pymatgen
data_CrSb8
_symmetry_space_group_name_H-M   'P 1'
_cell_length_a   4.25414300
_cell_length_b   4.25414283
_cell_length_c   16.71799600
_cell_angle_alpha   90.00000000
_cell_angle_beta   90.00000000
_cell_angle_gamma   119.99999356
_symmetry_Int_Tables_number   1
_chemical_formula_structural   CrSb8
_chemical_formula_sum   'Cr1 Sb8'
_cell_volume   262.02276667
_cell_formula_units_Z   1
loop_
 _symmetry_equiv_pos_site_id
 _symmetry_equiv_pos_as_xyz
  1  'x, y, z'
loop_
 _atom_site_type_symbol
 _atom_site_label
 _atom_site_symmetry_multiplicity
 _atom_site_fract_x
 _atom_site_fract_y
 _atom_site_fract_z
 _atom_site_occupancy
  Cr  Cr0  1  0.000000  0.000000  0.000000  1
  Sb  Sb1  1  0.333333  0.666667  0.548078  1
  Sb  Sb2  1  0.666667  0.333333  0.451922  1
  Sb  Sb3  1  0.666667  0.333333  0.782627  1
  Sb  Sb4  1  0.333333  0.666667  0.217373  1
  Sb  Sb5  1  0.333333  0.666667  0.927753  1
  Sb  Sb6  1  0.666667  0.333333  0.072247  1
  Sb  Sb7  1  0.000000  0.000000  0.685745  1
  Sb  Sb8  1  0.000000  0.000000  0.314255  1
