# generated using pymatgen
data_Y4Zr(Pd3Pt2)3
_symmetry_space_group_name_H-M   'P 1'
_cell_length_a   4.12327400
_cell_length_b   4.10979400
_cell_length_c   20.58491400
_cell_angle_alpha   90.00000000
_cell_angle_beta   90.00000000
_cell_angle_gamma   90.00000000
_symmetry_Int_Tables_number   1
_chemical_formula_structural   Y4Zr(Pd3Pt2)3
_chemical_formula_sum   'Y4 Zr1 Pd9 Pt6'
_cell_volume   348.82797452
_cell_formula_units_Z   1
loop_
 _symmetry_equiv_pos_site_id
 _symmetry_equiv_pos_as_xyz
  1  'x, y, z'
loop_
 _atom_site_type_symbol
 _atom_site_label
 _atom_site_symmetry_multiplicity
 _atom_site_fract_x
 _atom_site_fract_y
 _atom_site_fract_z
 _atom_site_occupancy
  Y  Y0  1  0.000000  0.000000  0.198612  1
  Y  Y1  1  0.000000  0.000000  0.398587  1
  Y  Y2  1  0.000000  0.000000  0.601424  1
  Y  Y3  1  0.000000  0.000000  0.801545  1
  Zr  Zr4  1  0.000000  0.000000  0.000106  1
  Pd  Pd5  1  0.500000  0.500000  0.196846  1
  Pd  Pd6  1  0.500000  0.500000  0.399385  1
  Pd  Pd7  1  0.500000  0.500000  0.600604  1
  Pd  Pd8  1  0.500000  0.500000  0.803254  1
  Pd  Pd9  1  0.500000  0.000000  0.500014  1
  Pd  Pd10  1  0.000000  0.500000  0.298288  1
  Pd  Pd11  1  0.000000  0.500000  0.500002  1
  Pd  Pd12  1  0.000000  0.500000  0.701736  1
  Pd  Pd13  1  0.000000  0.500000  0.904851  1
  Pt  Pt14  1  0.500000  0.500000  0.999760  1
  Pt  Pt15  1  0.500000  0.000000  0.094874  1
  Pt  Pt16  1  0.500000  0.000000  0.298322  1
  Pt  Pt17  1  0.500000  0.000000  0.701815  1
  Pt  Pt18  1  0.500000  0.000000  0.905077  1
  Pt  Pt19  1  0.000000  0.500000  0.094897  1
