# generated using pymatgen
data_Sc2Mn4P7Rh7W
_symmetry_space_group_name_H-M   'P 1'
_cell_length_a   9.34744538
_cell_length_b   9.41331272
_cell_length_c   3.77207100
_cell_angle_alpha   90.00000000
_cell_angle_beta   90.00000000
_cell_angle_gamma   120.25698401
_symmetry_Int_Tables_number   1
_chemical_formula_structural   Sc2Mn4P7Rh7W
_chemical_formula_sum   'Sc2 Mn4 P7 Rh7 W1'
_cell_volume   286.69192108
_cell_formula_units_Z   1
loop_
 _symmetry_equiv_pos_site_id
 _symmetry_equiv_pos_as_xyz
  1  'x, y, z'
loop_
 _atom_site_type_symbol
 _atom_site_label
 _atom_site_symmetry_multiplicity
 _atom_site_fract_x
 _atom_site_fract_y
 _atom_site_fract_z
 _atom_site_occupancy
  Sc  Sc0  1  0.999490  0.000321  0.000000  1
  Sc  Sc1  1  0.669602  0.333021  0.500000  1
  Mn  Mn2  1  0.605174  0.781872  0.000000  1
  Mn  Mn3  1  0.175641  0.397916  0.000000  1
  Mn  Mn4  1  0.223497  0.830348  0.000000  1
  Mn  Mn5  1  0.452698  0.888580  0.500000  1
  P  P6  1  0.631546  0.556475  0.000000  1
  P  P7  1  0.922878  0.368099  0.000000  1
  P  P8  1  0.447136  0.079799  0.000000  1
  P  P9  1  0.732984  0.942406  0.500000  1
  P  P10  1  0.209050  0.262929  0.500000  1
  P  P11  1  0.055793  0.788223  0.500000  1
  P  P12  1  0.332881  0.670290  0.000000  1
  Rh  Rh13  1  0.398614  0.302103  0.000000  1
  Rh  Rh14  1  0.899587  0.596509  0.000000  1
  Rh  Rh15  1  0.697696  0.099600  0.000000  1
  Rh  Rh16  1  0.778231  0.723096  0.500000  1
  Rh  Rh17  1  0.946313  0.216990  0.500000  1
  Rh  Rh18  1  0.276106  0.056732  0.500000  1
  Rh  Rh19  1  0.424976  0.537920  0.500000  1
  W  W20  1  0.120106  0.566771  0.500000  1
