# generated using pymatgen
data_Rb7Na5(AsS3)4
_symmetry_space_group_name_H-M   'P 1'
_cell_length_a   9.36510052
_cell_length_b   9.36510052
_cell_length_c   9.36510052
_cell_angle_alpha   91.34131826
_cell_angle_beta   88.65868174
_cell_angle_gamma   91.34131826
_symmetry_Int_Tables_number   1
_chemical_formula_structural   Rb7Na5(AsS3)4
_chemical_formula_sum   'Rb7 Na5 As4 S12'
_cell_volume   820.70231782
_cell_formula_units_Z   1
loop_
 _symmetry_equiv_pos_site_id
 _symmetry_equiv_pos_as_xyz
  1  'x, y, z'
loop_
 _atom_site_type_symbol
 _atom_site_label
 _atom_site_symmetry_multiplicity
 _atom_site_fract_x
 _atom_site_fract_y
 _atom_site_fract_z
 _atom_site_occupancy
  Rb  Rb0  1  0.576101  0.572797  0.567906  1
  Rb  Rb1  1  0.927203  0.432094  0.076101  1
  Rb  Rb2  1  0.067906  0.923899  0.427203  1
  Rb  Rb3  1  0.427181  0.072819  0.927181  1
  Rb  Rb4  1  0.302981  0.294617  0.294080  1
  Rb  Rb5  1  0.205383  0.705920  0.802981  1
  Rb  Rb6  1  0.794080  0.197019  0.705383  1
  Na  Na7  1  0.687289  0.812711  0.187289  1
  Na  Na8  1  0.815713  0.806802  0.820948  1
  Na  Na9  1  0.693198  0.179052  0.315713  1
  Na  Na10  1  0.320948  0.684287  0.193198  1
  Na  Na11  1  0.191555  0.308445  0.691555  1
  As  As12  1  0.975687  0.524313  0.475687  1
  As  As13  1  0.474555  0.963171  0.514028  1
  As  As14  1  0.014028  0.025445  0.036829  1
  As  As15  1  0.536829  0.485972  0.974555  1
  S  S16  1  0.778384  0.079094  0.035214  1
  S  S17  1  0.710065  0.909194  0.500613  1
  S  S18  1  0.300094  0.419247  0.972641  1
  S  S19  1  0.080753  0.027359  0.800094  1
  S  S20  1  0.212708  0.585831  0.473011  1
  S  S21  1  0.472641  0.199906  0.580753  1
  S  S22  1  0.590806  0.499387  0.210065  1
  S  S23  1  0.914169  0.526989  0.712708  1
  S  S24  1  0.973011  0.287292  0.414169  1
  S  S25  1  0.420906  0.964786  0.278384  1
  S  S26  1  0.000613  0.789935  0.090806  1
  S  S27  1  0.535214  0.721616  0.920906  1
