# generated using pymatgen
data_ErTm2Mn8CoP6
_symmetry_space_group_name_H-M   'P 1'
_cell_length_a   3.60693700
_cell_length_b   10.82307700
_cell_length_c   12.56754800
_cell_angle_alpha   90.00000000
_cell_angle_beta   90.00000000
_cell_angle_gamma   90.00000000
_symmetry_Int_Tables_number   1
_chemical_formula_structural   ErTm2Mn8CoP6
_chemical_formula_sum   'Er2 Tm4 Mn16 Co2 P12'
_cell_volume   490.61391049
_cell_formula_units_Z   2
loop_
 _symmetry_equiv_pos_site_id
 _symmetry_equiv_pos_as_xyz
  1  'x, y, z'
loop_
 _atom_site_type_symbol
 _atom_site_label
 _atom_site_symmetry_multiplicity
 _atom_site_fract_x
 _atom_site_fract_y
 _atom_site_fract_z
 _atom_site_occupancy
  Er  Er0  1  0.000000  0.500000  0.531907  1
  Er  Er1  1  0.500000  0.000000  0.468093  1
  Tm  Tm2  1  0.500000  0.823293  0.206790  1
  Tm  Tm3  1  0.500000  0.176707  0.206790  1
  Tm  Tm4  1  0.000000  0.676707  0.793210  1
  Tm  Tm5  1  0.000000  0.323293  0.793210  1
  Mn  Mn6  1  0.500000  0.500000  0.165541  1
  Mn  Mn7  1  0.000000  0.000000  0.834459  1
  Mn  Mn8  1  0.000000  0.500000  0.992563  1
  Mn  Mn9  1  0.500000  0.000000  0.007437  1
  Mn  Mn10  1  0.500000  0.332762  0.996691  1
  Mn  Mn11  1  0.500000  0.667238  0.996691  1
  Mn  Mn12  1  0.000000  0.167238  0.003309  1
  Mn  Mn13  1  0.000000  0.832762  0.003309  1
  Mn  Mn14  1  0.500000  0.298113  0.432475  1
  Mn  Mn15  1  0.500000  0.701887  0.432475  1
  Mn  Mn16  1  0.000000  0.201887  0.567525  1
  Mn  Mn17  1  0.000000  0.798113  0.567525  1
  Mn  Mn18  1  0.500000  0.880590  0.702759  1
  Mn  Mn19  1  0.500000  0.119410  0.702759  1
  Mn  Mn20  1  0.000000  0.619410  0.297241  1
  Mn  Mn21  1  0.000000  0.380590  0.297241  1
  Co  Co22  1  0.500000  0.500000  0.705441  1
  Co  Co23  1  0.000000  0.000000  0.294559  1
  P  P24  1  0.500000  0.500000  0.879786  1
  P  P25  1  0.000000  0.000000  0.120214  1
  P  P26  1  0.500000  0.500000  0.359313  1
  P  P27  1  0.000000  0.000000  0.640687  1
  P  P28  1  0.500000  0.318911  0.619328  1
  P  P29  1  0.500000  0.681089  0.619328  1
  P  P30  1  0.000000  0.181089  0.380672  1
  P  P31  1  0.000000  0.818911  0.380672  1
  P  P32  1  0.500000  0.844504  0.884412  1
  P  P33  1  0.500000  0.155496  0.884412  1
  P  P34  1  0.000000  0.655496  0.115588  1
  P  P35  1  0.000000  0.344504  0.115588  1
