# generated using pymatgen
data_ReMoOs5Ru
_symmetry_space_group_name_H-M   'P 1'
_cell_length_a   5.55342607
_cell_length_b   5.55342649
_cell_length_c   4.36486100
_cell_angle_alpha   90.00000000
_cell_angle_beta   90.00000000
_cell_angle_gamma   120.02088741
_symmetry_Int_Tables_number   1
_chemical_formula_structural   ReMoOs5Ru
_chemical_formula_sum   'Re1 Mo1 Os5 Ru1'
_cell_volume   116.55519214
_cell_formula_units_Z   1
loop_
 _symmetry_equiv_pos_site_id
 _symmetry_equiv_pos_as_xyz
  1  'x, y, z'
loop_
 _atom_site_type_symbol
 _atom_site_label
 _atom_site_symmetry_multiplicity
 _atom_site_fract_x
 _atom_site_fract_y
 _atom_site_fract_z
 _atom_site_occupancy
  Re  Re0  1  0.667212  0.332788  0.250000  1
  Mo  Mo1  1  0.334649  0.665351  0.750000  1
  Os  Os2  1  0.165778  0.332482  0.250000  1
  Os  Os3  1  0.667518  0.834222  0.250000  1
  Os  Os4  1  0.166694  0.833306  0.250000  1
  Os  Os5  1  0.830029  0.664730  0.750000  1
  Os  Os6  1  0.335270  0.169971  0.750000  1
  Ru  Ru7  1  0.832850  0.167150  0.750000  1
