# generated using pymatgen
data_TbCeTcOs3
_symmetry_space_group_name_H-M   'P 1'
_cell_length_a   5.35107149
_cell_length_b   5.21710941
_cell_length_c   9.08664535
_cell_angle_alpha   90.00000111
_cell_angle_beta   90.05479627
_cell_angle_gamma   119.17525396
_symmetry_Int_Tables_number   1
_chemical_formula_structural   TbCeTcOs3
_chemical_formula_sum   'Tb2 Ce2 Tc2 Os6'
_cell_volume   221.49007476
_cell_formula_units_Z   2
loop_
 _symmetry_equiv_pos_site_id
 _symmetry_equiv_pos_as_xyz
  1  'x, y, z'
loop_
 _atom_site_type_symbol
 _atom_site_label
 _atom_site_symmetry_multiplicity
 _atom_site_fract_x
 _atom_site_fract_y
 _atom_site_fract_z
 _atom_site_occupancy
  Tb  Tb0  1  0.329363  0.664682  0.435727  1
  Tb  Tb1  1  0.666704  0.333352  0.566255  1
  Ce  Ce2  1  0.666424  0.333211  0.935385  1
  Ce  Ce3  1  0.330082  0.665041  0.063024  1
  Tc  Tc4  1  0.831095  0.168999  0.253394  1
  Tc  Tc5  1  0.831095  0.662096  0.253394  1
  Os  Os6  1  0.993785  0.996893  0.500671  1
  Os  Os7  1  0.994756  0.997378  0.998505  1
  Os  Os8  1  0.345196  0.172598  0.251863  1
  Os  Os9  1  0.173649  0.831435  0.746962  1
  Os  Os10  1  0.173649  0.342214  0.746962  1
  Os  Os11  1  0.664200  0.832100  0.747858  1
