# generated using pymatgen
data_TbTh3Pd5Pt7
_symmetry_space_group_name_H-M   'P 1'
_cell_length_a   5.93925008
_cell_length_b   5.93353485
_cell_length_c   9.78523821
_cell_angle_alpha   89.94694355
_cell_angle_beta   89.93511300
_cell_angle_gamma   120.05530013
_symmetry_Int_Tables_number   1
_chemical_formula_structural   TbTh3Pd5Pt7
_chemical_formula_sum   'Tb1 Th3 Pd5 Pt7'
_cell_volume   298.47223824
_cell_formula_units_Z   1
loop_
 _symmetry_equiv_pos_site_id
 _symmetry_equiv_pos_as_xyz
  1  'x, y, z'
loop_
 _atom_site_type_symbol
 _atom_site_label
 _atom_site_symmetry_multiplicity
 _atom_site_fract_x
 _atom_site_fract_y
 _atom_site_fract_z
 _atom_site_occupancy
  Tb  Tb0  1  0.999655  0.000253  0.499618  1
  Th  Th1  1  0.999832  0.000221  0.000152  1
  Th  Th2  1  0.333252  0.667009  0.253657  1
  Th  Th3  1  0.667169  0.332603  0.746243  1
  Pd  Pd4  1  0.499979  0.500028  0.500606  1
  Pd  Pd5  1  0.500034  0.000079  0.500326  1
  Pd  Pd6  1  0.499965  0.500020  0.999493  1
  Pd  Pd7  1  0.999893  0.500063  0.999677  1
  Pd  Pd8  1  0.174536  0.825228  0.749322  1
  Pt  Pt9  1  0.999900  0.499825  0.500397  1
  Pt  Pt10  1  0.500064  0.000175  0.999584  1
  Pt  Pt11  1  0.825286  0.651123  0.251383  1
  Pt  Pt12  1  0.349025  0.174893  0.250336  1
  Pt  Pt13  1  0.825782  0.174462  0.250888  1
  Pt  Pt14  1  0.174915  0.349094  0.748545  1
  Pt  Pt15  1  0.650711  0.824925  0.749772  1
