# generated using pymatgen
data_Tb4Hf3TcF28
_symmetry_space_group_name_H-M   'P 1'
_cell_length_a   5.68247930
_cell_length_b   9.04841257
_cell_length_c   12.17969023
_cell_angle_alpha   62.38275429
_cell_angle_beta   90.01888797
_cell_angle_gamma   90.03736869
_symmetry_Int_Tables_number   1
_chemical_formula_structural   Tb4Hf3TcF28
_chemical_formula_sum   'Tb4 Hf3 Tc1 F28'
_cell_volume   554.89593474
_cell_formula_units_Z   1
loop_
 _symmetry_equiv_pos_site_id
 _symmetry_equiv_pos_as_xyz
  1  'x, y, z'
loop_
 _atom_site_type_symbol
 _atom_site_label
 _atom_site_symmetry_multiplicity
 _atom_site_fract_x
 _atom_site_fract_y
 _atom_site_fract_z
 _atom_site_occupancy
  Tb  Tb0  1  0.257101  0.814706  0.266121  1
  Tb  Tb1  1  0.743534  0.186803  0.734175  1
  Tb  Tb2  1  0.757082  0.184490  0.235315  1
  Tb  Tb3  1  0.242292  0.814887  0.762800  1
  Hf  Hf4  1  0.756197  0.726172  0.043080  1
  Hf  Hf5  1  0.244034  0.274869  0.956088  1
  Hf  Hf6  1  0.256022  0.274383  0.456697  1
  Tc  Tc7  1  0.742064  0.726419  0.543517  1
  F  F8  1  0.947740  0.708517  0.420684  1
  F  F9  1  0.043364  0.289736  0.581807  1
  F  F10  1  0.456652  0.290436  0.081386  1
  F  F11  1  0.543178  0.710573  0.917810  1
  F  F12  1  0.480283  0.732703  0.143744  1
  F  F13  1  0.520425  0.268239  0.856073  1
  F  F14  1  0.979232  0.266347  0.357300  1
  F  F15  1  0.017709  0.730781  0.639749  1
  F  F16  1  0.960663  0.746441  0.171542  1
  F  F17  1  0.040680  0.253536  0.828256  1
  F  F18  1  0.460825  0.252701  0.329239  1
  F  F19  1  0.541784  0.743858  0.669855  1
  F  F20  1  0.773632  0.477097  0.140040  1
  F  F21  1  0.226062  0.523754  0.858749  1
  F  F22  1  0.270453  0.523550  0.360682  1
  F  F23  1  0.729571  0.481973  0.640181  1
  F  F24  1  0.950077  0.277961  0.048424  1
  F  F25  1  0.049951  0.722610  0.950777  1
  F  F26  1  0.455669  0.720453  0.453416  1
  F  F27  1  0.550244  0.279640  0.547901  1
  F  F28  1  0.741659  0.970186  0.447306  1
  F  F29  1  0.260278  0.025536  0.556878  1
  F  F30  1  0.239655  0.026047  0.057871  1
  F  F31  1  0.760363  0.975095  0.942467  1
  F  F32  1  0.579072  0.970581  0.232820  1
  F  F33  1  0.421845  0.028806  0.766376  1
  F  F34  1  0.079159  0.028792  0.268463  1
  F  F35  1  0.921452  0.971323  0.732412  1
