# generated using pymatgen
data_Tb2Nd3Y3(CdIr)2
_symmetry_space_group_name_H-M   'P 1'
_cell_length_a   9.77905743
_cell_length_b   9.77905822
_cell_length_c   9.77905800
_cell_angle_alpha   60.00000073
_cell_angle_beta   59.99999809
_cell_angle_gamma   60.00000528
_symmetry_Int_Tables_number   1
_chemical_formula_structural   Tb2Nd3Y3(CdIr)2
_chemical_formula_sum   'Tb4 Nd6 Y6 Cd4 Ir4'
_cell_volume   661.26580607
_cell_formula_units_Z   2
loop_
 _symmetry_equiv_pos_site_id
 _symmetry_equiv_pos_as_xyz
  1  'x, y, z'
loop_
 _atom_site_type_symbol
 _atom_site_label
 _atom_site_symmetry_multiplicity
 _atom_site_fract_x
 _atom_site_fract_y
 _atom_site_fract_z
 _atom_site_occupancy
  Tb  Tb0  1  0.347834  0.347834  0.347834  1
  Tb  Tb1  1  0.347834  0.347834  0.956499  1
  Tb  Tb2  1  0.347834  0.956499  0.347834  1
  Tb  Tb3  1  0.956499  0.347834  0.347834  1
  Nd  Nd4  1  0.940398  0.559602  0.559602  1
  Nd  Nd5  1  0.559602  0.940398  0.940398  1
  Nd  Nd6  1  0.559602  0.940398  0.559602  1
  Nd  Nd7  1  0.940398  0.559602  0.940398  1
  Nd  Nd8  1  0.559602  0.559602  0.940398  1
  Nd  Nd9  1  0.940398  0.940398  0.559602  1
  Y  Y10  1  0.811847  0.188153  0.188153  1
  Y  Y11  1  0.188153  0.811847  0.811847  1
  Y  Y12  1  0.188153  0.811847  0.188153  1
  Y  Y13  1  0.811847  0.188153  0.811847  1
  Y  Y14  1  0.188153  0.188153  0.811847  1
  Y  Y15  1  0.811847  0.811847  0.188153  1
  Cd  Cd16  1  0.579593  0.579593  0.579593  1
  Cd  Cd17  1  0.579593  0.579593  0.261219  1
  Cd  Cd18  1  0.579593  0.261219  0.579593  1
  Cd  Cd19  1  0.261219  0.579593  0.579593  1
  Ir  Ir20  1  0.141607  0.141607  0.141607  1
  Ir  Ir21  1  0.141607  0.141607  0.575179  1
  Ir  Ir22  1  0.141607  0.575179  0.141607  1
  Ir  Ir23  1  0.575179  0.141607  0.141607  1
