# generated using pymatgen
data_DySc(IrO4)2
_symmetry_space_group_name_H-M   'P 1'
_cell_length_a   5.27309662
_cell_length_b   7.31070252
_cell_length_c   7.51808305
_cell_angle_alpha   80.51597251
_cell_angle_beta   86.83807220
_cell_angle_gamma   90.76733795
_symmetry_Int_Tables_number   1
_chemical_formula_structural   DySc(IrO4)2
_chemical_formula_sum   'Dy2 Sc2 Ir4 O16'
_cell_volume   285.35143364
_cell_formula_units_Z   2
loop_
 _symmetry_equiv_pos_site_id
 _symmetry_equiv_pos_as_xyz
  1  'x, y, z'
loop_
 _atom_site_type_symbol
 _atom_site_label
 _atom_site_symmetry_multiplicity
 _atom_site_fract_x
 _atom_site_fract_y
 _atom_site_fract_z
 _atom_site_occupancy
  Dy  Dy0  1  0.752921  0.378043  0.373603  1
  Dy  Dy1  1  0.247079  0.621957  0.626397  1
  Sc  Sc2  1  0.712442  0.872044  0.330168  1
  Sc  Sc3  1  0.287558  0.127956  0.669832  1
  Ir  Ir4  1  0.780097  0.300284  0.841167  1
  Ir  Ir5  1  0.219903  0.699716  0.158833  1
  Ir  Ir6  1  0.251607  0.196946  0.168412  1
  Ir  Ir7  1  0.748393  0.803054  0.831588  1
  O  O8  1  0.895833  0.807836  0.064331  1
  O  O9  1  0.104167  0.192164  0.935669  1
  O  O10  1  0.376266  0.943558  0.175346  1
  O  O11  1  0.623734  0.056442  0.824654  1
  O  O12  1  0.101478  0.442091  0.171771  1
  O  O13  1  0.898522  0.557909  0.828229  1
  O  O14  1  0.580641  0.308980  0.063709  1
  O  O15  1  0.419359  0.691020  0.936291  1
  O  O16  1  0.003640  0.318742  0.609336  1
  O  O17  1  0.996360  0.681258  0.390664  1
  O  O18  1  0.418032  0.176180  0.403819  1
  O  O19  1  0.581968  0.823820  0.596181  1
  O  O20  1  0.487649  0.616330  0.327644  1
  O  O21  1  0.512351  0.383670  0.672356  1
  O  O22  1  0.928709  0.108243  0.294812  1
  O  O23  1  0.071291  0.891757  0.705188  1
