# generated using pymatgen
data_Tm4Tc5Ir2Ru
_symmetry_space_group_name_H-M   'P 1'
_cell_length_a   5.25515805
_cell_length_b   5.14369091
_cell_length_c   9.14213500
_cell_angle_alpha   90.00000000
_cell_angle_beta   90.00000000
_cell_angle_gamma   119.27719667
_symmetry_Int_Tables_number   1
_chemical_formula_structural   Tm4Tc5Ir2Ru
_chemical_formula_sum   'Tm4 Tc5 Ir2 Ru1'
_cell_volume   215.55406209
_cell_formula_units_Z   1
loop_
 _symmetry_equiv_pos_site_id
 _symmetry_equiv_pos_as_xyz
  1  'x, y, z'
loop_
 _atom_site_type_symbol
 _atom_site_label
 _atom_site_symmetry_multiplicity
 _atom_site_fract_x
 _atom_site_fract_y
 _atom_site_fract_z
 _atom_site_occupancy
  Tm  Tm0  1  0.667629  0.333575  0.565847  1
  Tm  Tm1  1  0.330064  0.665281  0.434227  1
  Tm  Tm2  1  0.330064  0.665281  0.065773  1
  Tm  Tm3  1  0.667629  0.333575  0.934153  1
  Tc  Tc4  1  0.171255  0.342260  0.750000  1
  Tc  Tc5  1  0.171204  0.829191  0.750000  1
  Tc  Tc6  1  0.661898  0.830654  0.750000  1
  Tc  Tc7  1  0.834670  0.661901  0.250000  1
  Tc  Tc8  1  0.834628  0.173259  0.250000  1
  Ir  Ir9  1  0.991770  0.995579  0.498530  1
  Ir  Ir10  1  0.991770  0.995579  0.001470  1
  Ru  Ru11  1  0.347420  0.173865  0.250000  1
