# generated using pymatgen
data_Pu2NiN3
_symmetry_space_group_name_H-M   'P 1'
_cell_length_a   3.35581822
_cell_length_b   3.67568022
_cell_length_c   6.46285900
_cell_angle_alpha   106.52115865
_cell_angle_beta   105.04771834
_cell_angle_gamma   89.99999398
_symmetry_Int_Tables_number   1
_chemical_formula_structural   Pu2NiN3
_chemical_formula_sum   'Pu2 Ni1 N3'
_cell_volume   73.57185985
_cell_formula_units_Z   1
loop_
 _symmetry_equiv_pos_site_id
 _symmetry_equiv_pos_as_xyz
  1  'x, y, z'
loop_
 _atom_site_type_symbol
 _atom_site_label
 _atom_site_symmetry_multiplicity
 _atom_site_fract_x
 _atom_site_fract_y
 _atom_site_fract_z
 _atom_site_occupancy
  Pu  Pu0  1  0.643771  0.643771  0.287540  1
  Pu  Pu1  1  0.356230  0.356230  0.712460  1
  Ni  Ni2  1  0.000000  0.000000  0.000000  1
  N  N3  1  0.000000  0.500001  0.000000  1
  N  N4  1  0.168252  0.168252  0.336504  1
  N  N5  1  0.831749  0.831749  0.663496  1
