# generated using pymatgen
data_Tb3(Ho2Au5)2
_symmetry_space_group_name_H-M   'P 1'
_cell_length_a   8.73930724
_cell_length_b   8.73930594
_cell_length_c   10.41354200
_cell_angle_alpha   90.00000000
_cell_angle_beta   90.00000000
_cell_angle_gamma   107.22489561
_symmetry_Int_Tables_number   1
_chemical_formula_structural   Tb3(Ho2Au5)2
_chemical_formula_sum   'Tb6 Ho8 Au20'
_cell_volume   759.66812735
_cell_formula_units_Z   2
loop_
 _symmetry_equiv_pos_site_id
 _symmetry_equiv_pos_as_xyz
  1  'x, y, z'
loop_
 _atom_site_type_symbol
 _atom_site_label
 _atom_site_symmetry_multiplicity
 _atom_site_fract_x
 _atom_site_fract_y
 _atom_site_fract_z
 _atom_site_occupancy
  Tb  Tb0  1  0.000000  0.000000  0.000000  1
  Tb  Tb1  1  0.500000  0.500000  0.500000  1
  Tb  Tb2  1  0.312648  0.312648  0.188352  1
  Tb  Tb3  1  0.687352  0.687352  0.811648  1
  Tb  Tb4  1  0.187352  0.187352  0.688352  1
  Tb  Tb5  1  0.812648  0.812648  0.311648  1
  Ho  Ho6  1  0.693666  0.306334  0.000000  1
  Ho  Ho7  1  0.306334  0.693666  0.000000  1
  Ho  Ho8  1  0.806334  0.193666  0.500000  1
  Ho  Ho9  1  0.193666  0.806334  0.500000  1
  Ho  Ho10  1  0.002418  0.502418  0.250000  1
  Ho  Ho11  1  0.997582  0.497582  0.750000  1
  Ho  Ho12  1  0.497582  0.997582  0.750000  1
  Ho  Ho13  1  0.502418  0.002418  0.250000  1
  Au  Au14  1  0.859150  0.150449  0.209964  1
  Au  Au15  1  0.140850  0.849551  0.790036  1
  Au  Au16  1  0.640850  0.349551  0.709964  1
  Au  Au17  1  0.650449  0.359150  0.290036  1
  Au  Au18  1  0.359150  0.650449  0.290036  1
  Au  Au19  1  0.349551  0.640850  0.709964  1
  Au  Au20  1  0.849551  0.140850  0.790036  1
  Au  Au21  1  0.150449  0.859150  0.209964  1
  Au  Au22  1  0.937579  0.643662  0.002676  1
  Au  Au23  1  0.062421  0.356338  0.997324  1
  Au  Au24  1  0.562421  0.856338  0.502676  1
  Au  Au25  1  0.143662  0.437579  0.497324  1
  Au  Au26  1  0.437579  0.143662  0.497324  1
  Au  Au27  1  0.856338  0.562421  0.502676  1
  Au  Au28  1  0.356338  0.062421  0.997324  1
  Au  Au29  1  0.643662  0.937579  0.002676  1
  Au  Au30  1  0.104662  0.104662  0.397343  1
  Au  Au31  1  0.895338  0.895338  0.602657  1
  Au  Au32  1  0.395338  0.395338  0.897343  1
  Au  Au33  1  0.604662  0.604662  0.102657  1
