# generated using pymatgen
data_La11Nd5(CdPd)4
_symmetry_space_group_name_H-M   'P 1'
_cell_length_a   10.16590625
_cell_length_b   10.16671387
_cell_length_c   10.16685518
_cell_angle_alpha   59.98223758
_cell_angle_beta   60.00373634
_cell_angle_gamma   60.00367977
_symmetry_Int_Tables_number   1
_chemical_formula_structural   La11Nd5(CdPd)4
_chemical_formula_sum   'La11 Nd5 Cd4 Pd4'
_cell_volume   742.95813078
_cell_formula_units_Z   1
loop_
 _symmetry_equiv_pos_site_id
 _symmetry_equiv_pos_as_xyz
  1  'x, y, z'
loop_
 _atom_site_type_symbol
 _atom_site_label
 _atom_site_symmetry_multiplicity
 _atom_site_fract_x
 _atom_site_fract_y
 _atom_site_fract_z
 _atom_site_occupancy
  La  La0  1  0.351523  0.350863  0.350886  1
  La  La1  1  0.351427  0.351156  0.945996  1
  La  La2  1  0.351424  0.946015  0.351149  1
  La  La3  1  0.946731  0.350878  0.350858  1
  La  La4  1  0.807015  0.193006  0.192972  1
  La  La5  1  0.193243  0.806741  0.806767  1
  La  La6  1  0.193344  0.807330  0.192784  1
  La  La7  1  0.806569  0.192749  0.807354  1
  La  La8  1  0.193340  0.192772  0.807317  1
  La  La9  1  0.806560  0.807339  0.192771  1
  La  La10  1  0.934190  0.565807  0.565800  1
  Nd  Nd11  1  0.565771  0.934234  0.934227  1
  Nd  Nd12  1  0.565462  0.935127  0.565546  1
  Nd  Nd13  1  0.933854  0.565532  0.935133  1
  Nd  Nd14  1  0.565472  0.565543  0.935127  1
  Nd  Nd15  1  0.933845  0.935129  0.565538  1
  Cd  Cd16  1  0.579901  0.580384  0.580380  1
  Cd  Cd17  1  0.580411  0.580417  0.258760  1
  Cd  Cd18  1  0.580410  0.258766  0.580416  1
  Cd  Cd19  1  0.259336  0.580382  0.580383  1
  Pd  Pd20  1  0.143175  0.143216  0.143217  1
  Pd  Pd21  1  0.143304  0.142866  0.570530  1
  Pd  Pd22  1  0.143306  0.570530  0.142863  1
  Pd  Pd23  1  0.570389  0.143219  0.143227  1
