# generated using pymatgen
data_K3RbSn2(AuSe2)4
_symmetry_space_group_name_H-M   'P 1'
_cell_length_a   7.75447844
_cell_length_b   8.90613490
_cell_length_c   9.84455050
_cell_angle_alpha   71.74460719
_cell_angle_beta   82.68683301
_cell_angle_gamma   67.64095544
_symmetry_Int_Tables_number   1
_chemical_formula_structural   K3RbSn2(AuSe2)4
_chemical_formula_sum   'K3 Rb1 Sn2 Au4 Se8'
_cell_volume   597.10137857
_cell_formula_units_Z   1
loop_
 _symmetry_equiv_pos_site_id
 _symmetry_equiv_pos_as_xyz
  1  'x, y, z'
loop_
 _atom_site_type_symbol
 _atom_site_label
 _atom_site_symmetry_multiplicity
 _atom_site_fract_x
 _atom_site_fract_y
 _atom_site_fract_z
 _atom_site_occupancy
  K  K0  1  0.220907  0.189131  0.577566  1
  K  K1  1  0.023369  0.253463  0.077510  1
  K  K2  1  0.977134  0.745510  0.922364  1
  Rb  Rb3  1  0.774961  0.820324  0.422041  1
  Sn  Sn4  1  0.621591  0.286057  0.803534  1
  Sn  Sn5  1  0.377778  0.713350  0.196659  1
  Au  Au6  1  0.535206  0.712767  0.835898  1
  Au  Au7  1  0.254997  0.666541  0.575739  1
  Au  Au8  1  0.463630  0.287117  0.164663  1
  Au  Au9  1  0.747835  0.332267  0.424007  1
  Se  Se10  1  0.734947  0.576771  0.219068  1
  Se  Se11  1  0.767582  0.093308  0.636116  1
  Se  Se12  1  0.290102  0.915036  0.940712  1
  Se  Se13  1  0.210913  0.497106  0.256136  1
  Se  Se14  1  0.264373  0.419032  0.776668  1
  Se  Se15  1  0.708047  0.084857  0.059117  1
  Se  Se16  1  0.237621  0.906584  0.364814  1
  Se  Se17  1  0.789008  0.500781  0.747387  1
