# generated using pymatgen
data_Hf8ZnIn4Pt7
_symmetry_space_group_name_H-M   'P 1'
_cell_length_a   7.51038169
_cell_length_b   7.51038248
_cell_length_c   6.85871069
_cell_angle_alpha   90.10979906
_cell_angle_beta   89.89020148
_cell_angle_gamma   89.62424904
_symmetry_Int_Tables_number   1
_chemical_formula_structural   Hf8ZnIn4Pt7
_chemical_formula_sum   'Hf8 Zn1 In4 Pt7'
_cell_volume   386.86158183
_cell_formula_units_Z   1
loop_
 _symmetry_equiv_pos_site_id
 _symmetry_equiv_pos_as_xyz
  1  'x, y, z'
loop_
 _atom_site_type_symbol
 _atom_site_label
 _atom_site_symmetry_multiplicity
 _atom_site_fract_x
 _atom_site_fract_y
 _atom_site_fract_z
 _atom_site_occupancy
  Hf  Hf0  1  0.148233  0.150883  0.006014  1
  Hf  Hf1  1  0.849117  0.851767  0.006014  1
  Hf  Hf2  1  0.650763  0.349237  0.503380  1
  Hf  Hf3  1  0.354097  0.645903  0.495714  1
  Hf  Hf4  1  0.685940  0.314060  0.997533  1
  Hf  Hf5  1  0.317096  0.682904  0.003787  1
  Hf  Hf6  1  0.806726  0.814135  0.494252  1
  Hf  Hf7  1  0.185865  0.193274  0.494252  1
  Zn  Zn8  1  0.129016  0.870984  0.705612  1
  In  In9  1  0.498171  0.000724  0.246856  1
  In  In10  1  0.497448  0.998780  0.751737  1
  In  In11  1  0.999276  0.501829  0.246856  1
  In  In12  1  0.001220  0.502552  0.751737  1
  Pt  Pt13  1  0.369366  0.368674  0.214363  1
  Pt  Pt14  1  0.631611  0.631923  0.784754  1
  Pt  Pt15  1  0.631326  0.630634  0.214363  1
  Pt  Pt16  1  0.877941  0.122059  0.720192  1
  Pt  Pt17  1  0.867658  0.132342  0.287212  1
  Pt  Pt18  1  0.368077  0.368389  0.784754  1
  Pt  Pt19  1  0.131053  0.868947  0.290620  1
