# generated using pymatgen
data_Pr6Er9Th(CdIr)4
_symmetry_space_group_name_H-M   'P 1'
_cell_length_a   9.73849472
_cell_length_b   9.73849364
_cell_length_c   9.73849355
_cell_angle_alpha   60.31264692
_cell_angle_beta   60.31265142
_cell_angle_gamma   60.31264932
_symmetry_Int_Tables_number   1
_chemical_formula_structural   Pr6Er9Th(CdIr)4
_chemical_formula_sum   'Pr6 Er9 Th1 Cd4 Ir4'
_cell_volume   657.69110934
_cell_formula_units_Z   1
loop_
 _symmetry_equiv_pos_site_id
 _symmetry_equiv_pos_as_xyz
  1  'x, y, z'
loop_
 _atom_site_type_symbol
 _atom_site_label
 _atom_site_symmetry_multiplicity
 _atom_site_fract_x
 _atom_site_fract_y
 _atom_site_fract_z
 _atom_site_occupancy
  Pr  Pr0  1  0.940473  0.560419  0.560419  1
  Pr  Pr1  1  0.557275  0.943611  0.943611  1
  Pr  Pr2  1  0.560419  0.940473  0.560419  1
  Pr  Pr3  1  0.943611  0.557275  0.943611  1
  Pr  Pr4  1  0.560419  0.560419  0.940473  1
  Pr  Pr5  1  0.943611  0.943611  0.557275  1
  Er  Er6  1  0.347902  0.347902  0.956270  1
  Er  Er7  1  0.347902  0.956270  0.347902  1
  Er  Er8  1  0.956270  0.347902  0.347902  1
  Er  Er9  1  0.814779  0.185639  0.185639  1
  Er  Er10  1  0.185512  0.812916  0.812916  1
  Er  Er11  1  0.185639  0.814779  0.185639  1
  Er  Er12  1  0.812916  0.185512  0.812916  1
  Er  Er13  1  0.185639  0.185639  0.814779  1
  Er  Er14  1  0.812916  0.812916  0.185512  1
  Th  Th15  1  0.345481  0.345481  0.345481  1
  Cd  Cd16  1  0.578489  0.578489  0.578489  1
  Cd  Cd17  1  0.579820  0.579820  0.262031  1
  Cd  Cd18  1  0.579820  0.262031  0.579820  1
  Cd  Cd19  1  0.262031  0.579820  0.579820  1
  Ir  Ir20  1  0.141741  0.141741  0.141741  1
  Ir  Ir21  1  0.140852  0.140852  0.575629  1
  Ir  Ir22  1  0.140852  0.575629  0.140852  1
  Ir  Ir23  1  0.575629  0.140852  0.140852  1
