# generated using pymatgen
data_Ac2Sb4Pd3
_symmetry_space_group_name_H-M   'P 1'
_cell_length_a   4.64138420
_cell_length_b   4.64138551
_cell_length_c   21.61802352
_cell_angle_alpha   96.16257550
_cell_angle_beta   96.16257792
_cell_angle_gamma   90.00000404
_symmetry_Int_Tables_number   1
_chemical_formula_structural   Ac2Sb4Pd3
_chemical_formula_sum   'Ac4 Sb8 Pd6'
_cell_volume   460.30718140
_cell_formula_units_Z   2
loop_
 _symmetry_equiv_pos_site_id
 _symmetry_equiv_pos_as_xyz
  1  'x, y, z'
loop_
 _atom_site_type_symbol
 _atom_site_label
 _atom_site_symmetry_multiplicity
 _atom_site_fract_x
 _atom_site_fract_y
 _atom_site_fract_z
 _atom_site_occupancy
  Ac  Ac0  1  0.059475  0.059475  0.118951  1
  Ac  Ac1  1  0.187111  0.187111  0.374223  1
  Ac  Ac2  1  0.812888  0.812888  0.625777  1
  Ac  Ac3  1  0.940524  0.940524  0.881049  1
  Sb  Sb4  1  0.537049  0.537049  0.074098  1
  Sb  Sb5  1  0.620723  0.120723  0.241448  1
  Sb  Sb6  1  0.120723  0.620723  0.241448  1
  Sb  Sb7  1  0.717458  0.717458  0.434916  1
  Sb  Sb8  1  0.282541  0.282541  0.565084  1
  Sb  Sb9  1  0.879277  0.379277  0.758553  1
  Sb  Sb10  1  0.379277  0.879277  0.758553  1
  Sb  Sb11  1  0.462951  0.462951  0.925902  1
  Pd  Pd12  1  0.500000  0.000000  0.000000  1
  Pd  Pd13  1  0.000000  0.500000  0.000000  1
  Pd  Pd14  1  0.655034  0.655034  0.310069  1
  Pd  Pd15  1  0.750000  0.250000  0.500000  1
  Pd  Pd16  1  0.250000  0.750000  0.500000  1
  Pd  Pd17  1  0.344966  0.344966  0.689931  1
