# generated using pymatgen
data_Sr20Si11Br
_symmetry_space_group_name_H-M   'P 1'
_cell_length_a   8.13939800
_cell_length_b   8.13939800
_cell_length_c   15.76101300
_cell_angle_alpha   90.00000000
_cell_angle_beta   90.00000000
_cell_angle_gamma   90.00000000
_symmetry_Int_Tables_number   1
_chemical_formula_structural   Sr20Si11Br
_chemical_formula_sum   'Sr20 Si11 Br1'
_cell_volume   1044.16395593
_cell_formula_units_Z   1
loop_
 _symmetry_equiv_pos_site_id
 _symmetry_equiv_pos_as_xyz
  1  'x, y, z'
loop_
 _atom_site_type_symbol
 _atom_site_label
 _atom_site_symmetry_multiplicity
 _atom_site_fract_x
 _atom_site_fract_y
 _atom_site_fract_z
 _atom_site_occupancy
  Sr  Sr0  1  0.336965  0.688236  0.113757  1
  Sr  Sr1  1  0.188236  0.163035  0.113757  1
  Sr  Sr2  1  0.500000  0.000000  0.728223  1
  Sr  Sr3  1  0.323904  0.675063  0.394981  1
  Sr  Sr4  1  0.661527  0.689864  0.886465  1
  Sr  Sr5  1  0.175063  0.176096  0.394981  1
  Sr  Sr6  1  0.676096  0.324937  0.394981  1
  Sr  Sr7  1  0.172353  0.821326  0.605374  1
  Sr  Sr8  1  0.338473  0.310136  0.886465  1
  Sr  Sr9  1  0.189864  0.838473  0.886465  1
  Sr  Sr10  1  0.500000  0.000000  0.267801  1
  Sr  Sr11  1  0.827647  0.178674  0.605374  1
  Sr  Sr12  1  0.321326  0.327647  0.605374  1
  Sr  Sr13  1  0.824937  0.823904  0.394981  1
  Sr  Sr14  1  0.810136  0.161527  0.886465  1
  Sr  Sr15  1  0.811764  0.836965  0.113757  1
  Sr  Sr16  1  0.000000  0.500000  0.266968  1
  Sr  Sr17  1  0.000000  0.500000  0.738450  1
  Sr  Sr18  1  0.663035  0.311764  0.113757  1
  Sr  Sr19  1  0.678674  0.672353  0.605374  1
  Si  Si20  1  0.107355  0.111902  0.748795  1
  Si  Si21  1  0.388098  0.607355  0.748795  1
  Si  Si22  1  0.612359  0.607273  0.251531  1
  Si  Si23  1  0.500000  0.000000  0.001746  1
  Si  Si24  1  0.107273  0.887641  0.251531  1
  Si  Si25  1  0.611902  0.392645  0.748795  1
  Si  Si26  1  0.892645  0.888098  0.748795  1
  Si  Si27  1  0.387641  0.392727  0.251531  1
  Si  Si28  1  0.892727  0.112359  0.251531  1
  Si  Si29  1  0.500000  0.000000  0.500286  1
  Si  Si30  1  0.000000  0.500000  0.499493  1
  Br  Br31  1  0.000000  0.500000  0.993427  1
