# generated using pymatgen
data_LiY16Cd3Pt4
_symmetry_space_group_name_H-M   'P 1'
_cell_length_a   9.72719745
_cell_length_b   9.72719703
_cell_length_c   9.72719759
_cell_angle_alpha   59.89969876
_cell_angle_beta   59.89970243
_cell_angle_gamma   59.89969783
_symmetry_Int_Tables_number   1
_chemical_formula_structural   LiY16Cd3Pt4
_chemical_formula_sum   'Li1 Y16 Cd3 Pt4'
_cell_volume   649.32006831
_cell_formula_units_Z   1
loop_
 _symmetry_equiv_pos_site_id
 _symmetry_equiv_pos_as_xyz
  1  'x, y, z'
loop_
 _atom_site_type_symbol
 _atom_site_label
 _atom_site_symmetry_multiplicity
 _atom_site_fract_x
 _atom_site_fract_y
 _atom_site_fract_z
 _atom_site_occupancy
  Li  Li0  1  0.572551  0.572551  0.572551  1
  Y  Y1  1  0.351204  0.351204  0.351204  1
  Y  Y2  1  0.353101  0.353101  0.942435  1
  Y  Y3  1  0.353101  0.942435  0.353101  1
  Y  Y4  1  0.942435  0.353101  0.353101  1
  Y  Y5  1  0.809156  0.192563  0.192563  1
  Y  Y6  1  0.188472  0.811975  0.811975  1
  Y  Y7  1  0.192563  0.809156  0.192563  1
  Y  Y8  1  0.811975  0.188472  0.811975  1
  Y  Y9  1  0.192563  0.192563  0.809156  1
  Y  Y10  1  0.811975  0.811975  0.188472  1
  Y  Y11  1  0.937120  0.564546  0.564546  1
  Y  Y12  1  0.562504  0.936615  0.936615  1
  Y  Y13  1  0.564546  0.937120  0.564546  1
  Y  Y14  1  0.936615  0.562504  0.936615  1
  Y  Y15  1  0.564546  0.564546  0.937120  1
  Y  Y16  1  0.936615  0.936615  0.562504  1
  Cd  Cd17  1  0.582091  0.582091  0.254513  1
  Cd  Cd18  1  0.582091  0.254513  0.582091  1
  Cd  Cd19  1  0.254513  0.582091  0.582091  1
  Pt  Pt20  1  0.144062  0.144062  0.144062  1
  Pt  Pt21  1  0.142664  0.142664  0.570873  1
  Pt  Pt22  1  0.142664  0.570873  0.142664  1
  Pt  Pt23  1  0.570873  0.142664  0.142664  1
