# generated using pymatgen
data_La4Tc5OsO19
_symmetry_space_group_name_H-M   'P 1'
_cell_length_a   7.90350154
_cell_length_b   7.90442746
_cell_length_c   7.90429058
_cell_angle_alpha   109.56270917
_cell_angle_beta   109.30457124
_cell_angle_gamma   109.53647959
_symmetry_Int_Tables_number   1
_chemical_formula_structural   La4Tc5OsO19
_chemical_formula_sum   'La4 Tc5 Os1 O19'
_cell_volume   380.17366255
_cell_formula_units_Z   1
loop_
 _symmetry_equiv_pos_site_id
 _symmetry_equiv_pos_as_xyz
  1  'x, y, z'
loop_
 _atom_site_type_symbol
 _atom_site_label
 _atom_site_symmetry_multiplicity
 _atom_site_fract_x
 _atom_site_fract_y
 _atom_site_fract_z
 _atom_site_occupancy
  La  La0  1  0.001662  0.003134  0.316716  1
  La  La1  1  0.999092  0.314270  0.000078  1
  La  La2  1  0.685871  0.685716  0.684778  1
  La  La3  1  0.313647  0.996929  0.998680  1
  Tc  Tc4  1  0.364918  0.500004  0.864911  1
  Tc  Tc5  1  0.867074  0.367171  0.500068  1
  Tc  Tc6  1  0.499892  0.133044  0.632761  1
  Tc  Tc7  1  0.132830  0.632775  0.499914  1
  Tc  Tc8  1  0.499680  0.866868  0.366831  1
  Os  Os9  1  0.635300  0.499997  0.135262  1
  O  O10  1  0.322281  0.000045  0.322347  1
  O  O11  1  0.325265  0.324651  0.001426  1
  O  O12  1  0.000164  0.677903  0.678330  1
  O  O13  1  0.676754  0.675325  0.000588  1
  O  O14  1  0.000586  0.322263  0.322264  1
  O  O15  1  0.677620  0.000015  0.677669  1
  O  O16  1  0.999893  0.000002  0.999889  1
  O  O17  1  0.356591  0.295634  0.628048  1
  O  O18  1  0.060202  0.332863  0.702617  1
  O  O19  1  0.727013  0.370636  0.666274  1
  O  O20  1  0.369614  0.667080  0.727231  1
  O  O21  1  0.272429  0.939113  0.642876  1
  O  O22  1  0.629590  0.357747  0.295945  1
  O  O23  1  0.295582  0.629401  0.356444  1
  O  O24  1  0.703828  0.060835  0.333163  1
  O  O25  1  0.938212  0.642199  0.271919  1
  O  O26  1  0.668401  0.728873  0.372565  1
  O  O27  1  0.643636  0.271115  0.939444  1
  O  O28  1  0.332374  0.704390  0.060959  1
