# generated using pymatgen
data_Tb7Y13(Bi2Rh)4
_symmetry_space_group_name_H-M   'P 1'
_cell_length_a   8.07857002
_cell_length_b   8.99301106
_cell_length_c   12.50914009
_cell_angle_alpha   89.98786508
_cell_angle_beta   90.00651177
_cell_angle_gamma   89.99605086
_symmetry_Int_Tables_number   1
_chemical_formula_structural   Tb7Y13(Bi2Rh)4
_chemical_formula_sum   'Tb7 Y13 Bi8 Rh4'
_cell_volume   908.79737384
_cell_formula_units_Z   1
loop_
 _symmetry_equiv_pos_site_id
 _symmetry_equiv_pos_as_xyz
  1  'x, y, z'
loop_
 _atom_site_type_symbol
 _atom_site_label
 _atom_site_symmetry_multiplicity
 _atom_site_fract_x
 _atom_site_fract_y
 _atom_site_fract_z
 _atom_site_occupancy
  Tb  Tb0  1  0.322839  0.958980  0.434622  1
  Tb  Tb1  1  0.177802  0.959132  0.934348  1
  Tb  Tb2  1  0.322160  0.540199  0.434370  1
  Tb  Tb3  1  0.822134  0.040859  0.065679  1
  Tb  Tb4  1  0.677944  0.459048  0.565752  1
  Tb  Tb5  1  0.822033  0.459154  0.065594  1
  Tb  Tb6  1  0.177850  0.540894  0.934394  1
  Y  Y7  1  0.841076  0.749996  0.793181  1
  Y  Y8  1  0.158968  0.250093  0.206866  1
  Y  Y9  1  0.341032  0.250153  0.706864  1
  Y  Y10  1  0.658826  0.750034  0.293205  1
  Y  Y11  1  0.375415  0.750025  0.695443  1
  Y  Y12  1  0.624897  0.249778  0.304433  1
  Y  Y13  1  0.875216  0.250237  0.804248  1
  Y  Y14  1  0.124705  0.750069  0.195702  1
  Y  Y15  1  0.953644  0.749614  0.500657  1
  Y  Y16  1  0.046353  0.250418  0.499042  1
  Y  Y17  1  0.453818  0.250001  0.999140  1
  Y  Y18  1  0.546117  0.750065  0.000816  1
  Y  Y19  1  0.678246  0.041762  0.566530  1
  Bi  Bi20  1  0.569938  0.491264  0.826610  1
  Bi  Bi21  1  0.430046  0.508876  0.173411  1
  Bi  Bi22  1  0.069972  0.509005  0.673433  1
  Bi  Bi23  1  0.429994  0.991201  0.173428  1
  Bi  Bi24  1  0.929905  0.491181  0.326459  1
  Bi  Bi25  1  0.569955  0.008909  0.826428  1
  Bi  Bi26  1  0.930079  0.008918  0.326787  1
  Bi  Bi27  1  0.069440  0.991165  0.673059  1
  Rh  Rh28  1  0.569841  0.748449  0.509892  1
  Rh  Rh29  1  0.429532  0.250558  0.489665  1
  Rh  Rh30  1  0.070140  0.250015  0.989677  1
  Rh  Rh31  1  0.930082  0.749950  0.010270  1
