# generated using pymatgen
data_Ho3Si3Pd
_symmetry_space_group_name_H-M   'P 1'
_cell_length_a   4.24390000
_cell_length_b   10.71542000
_cell_length_c   12.34009400
_cell_angle_alpha   90.00000000
_cell_angle_beta   90.00000000
_cell_angle_gamma   90.00000000
_symmetry_Int_Tables_number   1
_chemical_formula_structural   Ho3Si3Pd
_chemical_formula_sum   'Ho12 Si12 Pd4'
_cell_volume   561.16788404
_cell_formula_units_Z   4
loop_
 _symmetry_equiv_pos_site_id
 _symmetry_equiv_pos_as_xyz
  1  'x, y, z'
loop_
 _atom_site_type_symbol
 _atom_site_label
 _atom_site_symmetry_multiplicity
 _atom_site_fract_x
 _atom_site_fract_y
 _atom_site_fract_z
 _atom_site_occupancy
  Ho  Ho0  1  0.250000  0.878756  0.021483  1
  Ho  Ho1  1  0.250000  0.621244  0.521483  1
  Ho  Ho2  1  0.750000  0.121244  0.978517  1
  Ho  Ho3  1  0.750000  0.378756  0.478517  1
  Ho  Ho4  1  0.250000  0.919766  0.601685  1
  Ho  Ho5  1  0.250000  0.580234  0.101685  1
  Ho  Ho6  1  0.750000  0.080234  0.398315  1
  Ho  Ho7  1  0.750000  0.419766  0.898315  1
  Ho  Ho8  1  0.250000  0.661097  0.800686  1
  Ho  Ho9  1  0.250000  0.838903  0.300686  1
  Ho  Ho10  1  0.750000  0.338903  0.199314  1
  Ho  Ho11  1  0.750000  0.161097  0.699314  1
  Si  Si12  1  0.250000  0.017543  0.823490  1
  Si  Si13  1  0.250000  0.482457  0.323490  1
  Si  Si14  1  0.750000  0.982457  0.176510  1
  Si  Si15  1  0.750000  0.517543  0.676510  1
  Si  Si16  1  0.250000  0.246008  0.844250  1
  Si  Si17  1  0.250000  0.253992  0.344250  1
  Si  Si18  1  0.750000  0.753992  0.155750  1
  Si  Si19  1  0.750000  0.746008  0.655750  1
  Si  Si20  1  0.250000  0.194219  0.539615  1
  Si  Si21  1  0.250000  0.305781  0.039615  1
  Si  Si22  1  0.750000  0.805781  0.460385  1
  Si  Si23  1  0.750000  0.694219  0.960385  1
  Pd  Pd24  1  0.250000  0.389193  0.681884  1
  Pd  Pd25  1  0.250000  0.110807  0.181884  1
  Pd  Pd26  1  0.750000  0.610807  0.318116  1
  Pd  Pd27  1  0.750000  0.889193  0.818116  1
