# generated using pymatgen
data_Pu3Ga5Ir
_symmetry_space_group_name_H-M   'P 1'
_cell_length_a   6.84312100
_cell_length_b   6.84312021
_cell_length_c   4.42016000
_cell_angle_alpha   90.00000000
_cell_angle_beta   90.00000000
_cell_angle_gamma   119.99999900
_symmetry_Int_Tables_number   1
_chemical_formula_structural   Pu3Ga5Ir
_chemical_formula_sum   'Pu3 Ga5 Ir1'
_cell_volume   179.25736755
_cell_formula_units_Z   1
loop_
 _symmetry_equiv_pos_site_id
 _symmetry_equiv_pos_as_xyz
  1  'x, y, z'
loop_
 _atom_site_type_symbol
 _atom_site_label
 _atom_site_symmetry_multiplicity
 _atom_site_fract_x
 _atom_site_fract_y
 _atom_site_fract_z
 _atom_site_occupancy
  Pu  Pu0  1  0.579862  0.000000  0.500000  1
  Pu  Pu1  1  0.420138  0.420138  0.500000  1
  Pu  Pu2  1  0.000000  0.579862  0.500000  1
  Ga  Ga3  1  0.234875  0.000000  0.000000  1
  Ga  Ga4  1  0.000000  0.234875  0.000000  1
  Ga  Ga5  1  0.666667  0.333333  0.000000  1
  Ga  Ga6  1  0.333333  0.666667  0.000000  1
  Ga  Ga7  1  0.765125  0.765125  0.000000  1
  Ir  Ir8  1  0.000000  0.000000  0.500000  1
