# generated using pymatgen
data_NaTb6RuI12
_symmetry_space_group_name_H-M   'P 1'
_cell_length_a   9.82037829
_cell_length_b   9.82037764
_cell_length_c   9.82037709
_cell_angle_alpha   106.94350799
_cell_angle_beta   106.94351412
_cell_angle_gamma   106.94349855
_symmetry_Int_Tables_number   1
_chemical_formula_structural   NaTb6RuI12
_chemical_formula_sum   'Na1 Tb6 Ru1 I12'
_cell_volume   789.94582476
_cell_formula_units_Z   1
loop_
 _symmetry_equiv_pos_site_id
 _symmetry_equiv_pos_as_xyz
  1  'x, y, z'
loop_
 _atom_site_type_symbol
 _atom_site_label
 _atom_site_symmetry_multiplicity
 _atom_site_fract_x
 _atom_site_fract_y
 _atom_site_fract_z
 _atom_site_occupancy
  Na  Na0  1  0.500000  0.500000  0.500000  1
  Tb  Tb1  1  0.898854  0.697033  0.969787  1
  Tb  Tb2  1  0.969787  0.898854  0.697033  1
  Tb  Tb3  1  0.697033  0.969787  0.898854  1
  Tb  Tb4  1  0.101146  0.302967  0.030213  1
  Tb  Tb5  1  0.030213  0.101146  0.302967  1
  Tb  Tb6  1  0.302967  0.030213  0.101146  1
  Ru  Ru7  1  0.000000  0.000000  0.000000  1
  I  I8  1  0.626287  0.856790  0.548199  1
  I  I9  1  0.548199  0.626287  0.856790  1
  I  I10  1  0.856790  0.548199  0.626287  1
  I  I11  1  0.373713  0.143210  0.451801  1
  I  I12  1  0.451801  0.373713  0.143210  1
  I  I13  1  0.143210  0.451801  0.373713  1
  I  I14  1  0.683691  0.074484  0.223651  1
  I  I15  1  0.223651  0.683691  0.074484  1
  I  I16  1  0.074484  0.223651  0.683691  1
  I  I17  1  0.316309  0.925516  0.776349  1
  I  I18  1  0.776349  0.316309  0.925516  1
  I  I19  1  0.925516  0.776349  0.316309  1
