# generated using pymatgen
data_DyY3Co19P12Os
_symmetry_space_group_name_H-M   'P 1'
_cell_length_a   3.66615800
_cell_length_b   10.29879572
_cell_length_c   11.74495126
_cell_angle_alpha   89.89709045
_cell_angle_beta   90.00000000
_cell_angle_gamma   90.00000000
_symmetry_Int_Tables_number   1
_chemical_formula_structural   DyY3Co19P12Os
_chemical_formula_sum   'Dy1 Y3 Co19 P12 Os1'
_cell_volume   443.45355428
_cell_formula_units_Z   1
loop_
 _symmetry_equiv_pos_site_id
 _symmetry_equiv_pos_as_xyz
  1  'x, y, z'
loop_
 _atom_site_type_symbol
 _atom_site_label
 _atom_site_symmetry_multiplicity
 _atom_site_fract_x
 _atom_site_fract_y
 _atom_site_fract_z
 _atom_site_occupancy
  Dy  Dy0  1  0.750000  0.083634  0.797505  1
  Y  Y1  1  0.250000  0.916256  0.202174  1
  Y  Y2  1  0.750000  0.414084  0.295467  1
  Y  Y3  1  0.250000  0.581680  0.702254  1
  Co  Co4  1  0.750000  0.215647  0.509411  1
  Co  Co5  1  0.750000  0.283669  0.008524  1
  Co  Co6  1  0.250000  0.716810  0.991801  1
  Co  Co7  1  0.250000  0.093536  0.988344  1
  Co  Co8  1  0.750000  0.906844  0.011304  1
  Co  Co9  1  0.750000  0.592016  0.510416  1
  Co  Co10  1  0.250000  0.406354  0.487931  1
  Co  Co11  1  0.250000  0.279414  0.677263  1
  Co  Co12  1  0.750000  0.721500  0.323242  1
  Co  Co13  1  0.750000  0.777453  0.823446  1
  Co  Co14  1  0.250000  0.221485  0.176019  1
  Co  Co15  1  0.250000  0.616690  0.198547  1
  Co  Co16  1  0.750000  0.383426  0.801902  1
  Co  Co17  1  0.750000  0.117195  0.300788  1
  Co  Co18  1  0.250000  0.886380  0.701480  1
  Co  Co19  1  0.250000  0.035417  0.433019  1
  Co  Co20  1  0.750000  0.966563  0.568214  1
  Co  Co21  1  0.750000  0.531995  0.068429  1
  Co  Co22  1  0.250000  0.467920  0.932185  1
  P  P23  1  0.250000  0.083239  0.613060  1
  P  P24  1  0.750000  0.921354  0.386111  1
  P  P25  1  0.750000  0.580718  0.888464  1
  P  P26  1  0.250000  0.418342  0.111564  1
  P  P27  1  0.250000  0.229884  0.369122  1
  P  P28  1  0.750000  0.770816  0.633406  1
  P  P29  1  0.750000  0.728658  0.129114  1
  P  P30  1  0.250000  0.271336  0.870179  1
  P  P31  1  0.250000  0.899002  0.892988  1
  P  P32  1  0.750000  0.102134  0.108088  1
  P  P33  1  0.750000  0.396975  0.608931  1
  P  P34  1  0.250000  0.595236  0.388659  1
  Os  Os35  1  0.250000  0.786340  0.490650  1
