# generated using pymatgen
data_RbPaBr6
_symmetry_space_group_name_H-M   'P 1'
_cell_length_a   11.37466500
_cell_length_b   8.07510120
_cell_length_c   8.01514944
_cell_angle_alpha   89.87366869
_cell_angle_beta   90.00000000
_cell_angle_gamma   90.00000000
_symmetry_Int_Tables_number   1
_chemical_formula_structural   RbPaBr6
_chemical_formula_sum   'Rb2 Pa2 Br12'
_cell_volume   736.20227784
_cell_formula_units_Z   2
loop_
 _symmetry_equiv_pos_site_id
 _symmetry_equiv_pos_as_xyz
  1  'x, y, z'
loop_
 _atom_site_type_symbol
 _atom_site_label
 _atom_site_symmetry_multiplicity
 _atom_site_fract_x
 _atom_site_fract_y
 _atom_site_fract_z
 _atom_site_occupancy
  Rb  Rb0  1  0.726593  0.256351  0.299876  1
  Rb  Rb1  1  0.226593  0.743649  0.700124  1
  Pa  Pa2  1  0.993486  0.248699  0.756603  1
  Pa  Pa3  1  0.493486  0.751301  0.243397  1
  Br  Br4  1  0.491890  0.989940  0.485012  1
  Br  Br5  1  0.753695  0.247030  0.761153  1
  Br  Br6  1  0.999300  0.008946  0.993099  1
  Br  Br7  1  0.997617  0.490339  0.990655  1
  Br  Br8  1  0.499300  0.991054  0.006901  1
  Br  Br9  1  0.732472  0.747680  0.251080  1
  Br  Br10  1  0.253695  0.752970  0.238847  1
  Br  Br11  1  0.489400  0.512821  0.486428  1
  Br  Br12  1  0.991889  0.010060  0.514988  1
  Br  Br13  1  0.989400  0.487179  0.513572  1
  Br  Br14  1  0.232472  0.252320  0.748920  1
  Br  Br15  1  0.497617  0.509661  0.009345  1
