# generated using pymatgen
data_Tb3Ho4Tm(SiBr6)2
_symmetry_space_group_name_H-M   'P 1'
_cell_length_a   4.04730300
_cell_length_b   13.21617517
_cell_length_c   13.98369619
_cell_angle_alpha   90.03035070
_cell_angle_beta   90.00000000
_cell_angle_gamma   90.00000000
_symmetry_Int_Tables_number   1
_chemical_formula_structural   Tb3Ho4Tm(SiBr6)2
_chemical_formula_sum   'Tb3 Ho4 Tm1 Si2 Br12'
_cell_volume   747.98592188
_cell_formula_units_Z   1
loop_
 _symmetry_equiv_pos_site_id
 _symmetry_equiv_pos_as_xyz
  1  'x, y, z'
loop_
 _atom_site_type_symbol
 _atom_site_label
 _atom_site_symmetry_multiplicity
 _atom_site_fract_x
 _atom_site_fract_y
 _atom_site_fract_z
 _atom_site_occupancy
  Tb  Tb0  1  0.000000  0.881972  0.421547  1
  Tb  Tb1  1  0.000000  0.618696  0.921028  1
  Tb  Tb2  1  0.000000  0.381214  0.078943  1
  Ho  Ho3  1  0.500000  0.882599  0.658232  1
  Ho  Ho4  1  0.500000  0.617810  0.158471  1
  Ho  Ho5  1  0.500000  0.382054  0.841429  1
  Ho  Ho6  1  0.000000  0.117815  0.578356  1
  Tm  Tm7  1  0.500000  0.117637  0.342051  1
  Si  Si8  1  0.500000  0.001324  0.499974  1
  Si  Si9  1  0.500000  0.499917  0.999924  1
  Br  Br10  1  0.500000  0.241997  0.165237  1
  Br  Br11  1  0.500000  0.757639  0.835686  1
  Br  Br12  1  0.500000  0.743200  0.336168  1
  Br  Br13  1  0.500000  0.255054  0.662983  1
  Br  Br14  1  0.000000  0.253505  0.410332  1
  Br  Br15  1  0.000000  0.745143  0.590023  1
  Br  Br16  1  0.000000  0.755197  0.090139  1
  Br  Br17  1  0.000000  0.244758  0.909778  1
  Br  Br18  1  0.000000  0.004839  0.243525  1
  Br  Br19  1  0.000000  0.997936  0.756351  1
  Br  Br20  1  0.000000  0.503420  0.257408  1
  Br  Br21  1  0.000000  0.496272  0.742417  1
