# generated using pymatgen
data_Tb11Y(CuRu)6
_symmetry_space_group_name_H-M   'P 1'
_cell_length_a   4.86021500
_cell_length_b   6.90140500
_cell_length_c   14.67963200
_cell_angle_alpha   89.99978279
_cell_angle_beta   89.99983551
_cell_angle_gamma   89.99968901
_symmetry_Int_Tables_number   1
_chemical_formula_structural   Tb11Y(CuRu)6
_chemical_formula_sum   'Tb11 Y1 Cu6 Ru6'
_cell_volume   492.38879808
_cell_formula_units_Z   1
loop_
 _symmetry_equiv_pos_site_id
 _symmetry_equiv_pos_as_xyz
  1  'x, y, z'
loop_
 _atom_site_type_symbol
 _atom_site_label
 _atom_site_symmetry_multiplicity
 _atom_site_fract_x
 _atom_site_fract_y
 _atom_site_fract_z
 _atom_site_occupancy
  Tb  Tb0  1  0.499996  0.250404  0.999932  1
  Tb  Tb1  1  0.499997  0.749415  0.999868  1
  Tb  Tb2  1  0.999741  0.249708  0.166686  1
  Tb  Tb3  1  0.999741  0.750578  0.166628  1
  Tb  Tb4  1  0.499745  0.250327  0.333336  1
  Tb  Tb5  1  0.499740  0.749627  0.333337  1
  Tb  Tb6  1  0.999998  0.249681  0.500004  1
  Tb  Tb7  1  0.999999  0.750608  0.500063  1
  Tb  Tb8  1  0.500261  0.250334  0.666725  1
  Tb  Tb9  1  0.500257  0.749492  0.666790  1
  Tb  Tb10  1  0.000251  0.249581  0.833304  1
  Y  Y11  1  0.000250  0.750367  0.833310  1
  Cu  Cu12  1  0.999996  0.499855  0.999949  1
  Cu  Cu13  1  0.499666  0.000045  0.166644  1
  Cu  Cu14  1  0.999667  0.499953  0.333295  1
  Cu  Cu15  1  0.499993  0.000051  0.500018  1
  Cu  Cu16  1  0.000330  0.499859  0.666736  1
  Cu  Cu17  1  0.500321  0.000214  0.833326  1
  Ru  Ru18  1  0.999996  0.000506  0.000471  1
  Ru  Ru19  1  0.499692  0.500099  0.166643  1
  Ru  Ru20  1  0.999700  0.999968  0.333352  1
  Ru  Ru21  1  0.499999  0.500112  0.499996  1
  Ru  Ru22  1  0.000354  0.000485  0.666252  1
  Ru  Ru23  1  0.500305  0.498733  0.833333  1
