# generated using pymatgen
data_Ti4CoTcOs2
_symmetry_space_group_name_H-M   'P 1'
_cell_length_a   4.35040000
_cell_length_b   4.35013431
_cell_length_c   7.52657217
_cell_angle_alpha   73.22331768
_cell_angle_beta   89.99996108
_cell_angle_gamma   120.00244071
_symmetry_Int_Tables_number   1
_chemical_formula_structural   Ti4CoTcOs2
_chemical_formula_sum   'Ti4 Co1 Tc1 Os2'
_cell_volume   116.29942712
_cell_formula_units_Z   1
loop_
 _symmetry_equiv_pos_site_id
 _symmetry_equiv_pos_as_xyz
  1  'x, y, z'
loop_
 _atom_site_type_symbol
 _atom_site_label
 _atom_site_symmetry_multiplicity
 _atom_site_fract_x
 _atom_site_fract_y
 _atom_site_fract_z
 _atom_site_occupancy
  Ti  Ti0  1  0.999828  0.999653  0.000605  1
  Ti  Ti1  1  0.500337  0.000670  0.499021  1
  Ti  Ti2  1  0.249668  0.499336  0.250971  1
  Ti  Ti3  1  0.750171  0.500342  0.749402  1
  Co  Co4  1  0.875003  0.750005  0.374992  1
  Tc  Tc5  1  0.374996  0.749993  0.875011  1
  Os  Os6  1  0.623172  0.246340  0.130821  1
  Os  Os7  1  0.126827  0.253660  0.619178  1
