# generated using pymatgen
data_Tb7Zr(Si4W3)4
_symmetry_space_group_name_H-M   'P 1'
_cell_length_a   6.77009600
_cell_length_b   6.92061878
_cell_length_c   12.93365957
_cell_angle_alpha   90.16592824
_cell_angle_beta   89.97071530
_cell_angle_gamma   90.11703848
_symmetry_Int_Tables_number   1
_chemical_formula_structural   Tb7Zr(Si4W3)4
_chemical_formula_sum   'Tb7 Zr1 Si16 W12'
_cell_volume   605.98014788
_cell_formula_units_Z   1
loop_
 _symmetry_equiv_pos_site_id
 _symmetry_equiv_pos_as_xyz
  1  'x, y, z'
loop_
 _atom_site_type_symbol
 _atom_site_label
 _atom_site_symmetry_multiplicity
 _atom_site_fract_x
 _atom_site_fract_y
 _atom_site_fract_z
 _atom_site_occupancy
  Tb  Tb0  1  0.494981  0.667511  0.592882  1
  Tb  Tb1  1  0.996028  0.833142  0.906687  1
  Tb  Tb2  1  0.503781  0.333094  0.093712  1
  Tb  Tb3  1  0.003015  0.166346  0.407851  1
  Tb  Tb4  1  0.503339  0.332729  0.407843  1
  Tb  Tb5  1  0.003837  0.167299  0.093648  1
  Tb  Tb6  1  0.495764  0.667336  0.905277  1
  Zr  Zr7  1  0.993926  0.829994  0.596553  1
  Si  Si8  1  0.664270  0.956595  0.455967  1
  Si  Si9  1  0.160658  0.542406  0.046621  1
  Si  Si10  1  0.339790  0.043802  0.952672  1
  Si  Si11  1  0.840688  0.459850  0.546279  1
  Si  Si12  1  0.331427  0.039916  0.545728  1
  Si  Si13  1  0.839434  0.456721  0.952354  1
  Si  Si14  1  0.660859  0.956541  0.046321  1
  Si  Si15  1  0.160315  0.546000  0.455769  1
  Si  Si16  1  0.464101  0.369352  0.749735  1
  Si  Si17  1  0.964394  0.127597  0.747994  1
  Si  Si18  1  0.537367  0.630591  0.250469  1
  Si  Si19  1  0.036742  0.870566  0.249982  1
  Si  Si20  1  0.699702  0.866346  0.748952  1
  Si  Si21  1  0.194150  0.634578  0.748354  1
  Si  Si22  1  0.303156  0.133251  0.250620  1
  Si  Si23  1  0.804158  0.368122  0.250844  1
  W  W24  1  0.667321  0.160847  0.625467  1
  W  W25  1  0.166123  0.335346  0.872859  1
  W  W26  1  0.333317  0.837298  0.125052  1
  W  W27  1  0.834843  0.665841  0.376446  1
  W  W28  1  0.333082  0.836697  0.374549  1
  W  W29  1  0.833920  0.664778  0.125986  1
  W  W30  1  0.668206  0.161411  0.873946  1
  W  W31  1  0.167617  0.336534  0.624988  1
  W  W32  1  0.833768  0.501354  0.748198  1
  W  W33  1  0.334423  0.999211  0.747051  1
  W  W34  1  0.166412  0.502447  0.250481  1
  W  W35  1  0.665091  0.998548  0.251860  1
