# generated using pymatgen
data_Sc10GaAs5
_symmetry_space_group_name_H-M   'P 1'
_cell_length_a   7.96301200
_cell_length_b   7.95408782
_cell_length_c   5.78220300
_cell_angle_alpha   90.00000000
_cell_angle_beta   90.00000000
_cell_angle_gamma   120.03712113
_symmetry_Int_Tables_number   1
_chemical_formula_structural   Sc10GaAs5
_chemical_formula_sum   'Sc10 Ga1 As5'
_cell_volume   317.05101346
_cell_formula_units_Z   1
loop_
 _symmetry_equiv_pos_site_id
 _symmetry_equiv_pos_as_xyz
  1  'x, y, z'
loop_
 _atom_site_type_symbol
 _atom_site_label
 _atom_site_symmetry_multiplicity
 _atom_site_fract_x
 _atom_site_fract_y
 _atom_site_fract_z
 _atom_site_occupancy
  Sc  Sc0  1  0.333468  0.666857  0.000293  1
  Sc  Sc1  1  0.666612  0.333143  0.499707  1
  Sc  Sc2  1  0.666612  0.333143  0.000293  1
  Sc  Sc3  1  0.333468  0.666857  0.499707  1
  Sc  Sc4  1  0.243391  0.000000  0.250000  1
  Sc  Sc5  1  0.246898  0.244502  0.750000  1
  Sc  Sc6  1  0.002396  0.755498  0.750000  1
  Sc  Sc7  1  0.998072  0.245865  0.250000  1
  Sc  Sc8  1  0.752207  0.754135  0.250000  1
  Sc  Sc9  1  0.755931  0.000000  0.750000  1
  Ga  Ga10  1  0.393413  0.000000  0.750000  1
  As  As11  1  0.608545  0.000000  0.250000  1
  As  As12  1  0.612292  0.611940  0.750000  1
  As  As13  1  0.000352  0.388060  0.750000  1
  As  As14  1  0.999218  0.612095  0.250000  1
  As  As15  1  0.387123  0.387905  0.250000  1
