# generated using pymatgen
data_Cs12Na8Zr3SnAs12
_symmetry_space_group_name_H-M   'P 1'
_cell_length_a   11.12707575
_cell_length_b   11.12707644
_cell_length_c   16.96127573
_cell_angle_alpha   90.02086580
_cell_angle_beta   90.02086806
_cell_angle_gamma   142.75107837
_symmetry_Int_Tables_number   1
_chemical_formula_structural   Cs12Na8Zr3SnAs12
_chemical_formula_sum   'Cs12 Na8 Zr3 Sn1 As12'
_cell_volume   1271.08899541
_cell_formula_units_Z   1
loop_
 _symmetry_equiv_pos_site_id
 _symmetry_equiv_pos_as_xyz
  1  'x, y, z'
loop_
 _atom_site_type_symbol
 _atom_site_label
 _atom_site_symmetry_multiplicity
 _atom_site_fract_x
 _atom_site_fract_y
 _atom_site_fract_z
 _atom_site_occupancy
  Cs  Cs0  1  0.940100  0.604923  0.827753  1
  Cs  Cs1  1  0.551140  0.891240  0.324919  1
  Cs  Cs2  1  0.395077  0.059900  0.172247  1
  Cs  Cs3  1  0.050903  0.390582  0.173863  1
  Cs  Cs4  1  0.890909  0.551090  0.326239  1
  Cs  Cs5  1  0.448910  0.109091  0.673761  1
  Cs  Cs6  1  0.609418  0.949097  0.826137  1
  Cs  Cs7  1  0.282209  0.282263  0.317677  1
  Cs  Cs8  1  0.779611  0.776952  0.183217  1
  Cs  Cs9  1  0.223048  0.220389  0.816783  1
  Cs  Cs10  1  0.717737  0.717791  0.682323  1
  Cs  Cs11  1  0.108760  0.448860  0.675081  1
  Na  Na12  1  0.919238  0.080762  0.000000  1
  Na  Na13  1  0.580259  0.419741  0.500000  1
  Na  Na14  1  0.080708  0.919292  0.000000  1
  Na  Na15  1  0.419620  0.580380  0.500000  1
  Na  Na16  1  0.753711  0.246289  0.000000  1
  Na  Na17  1  0.745490  0.254510  0.500000  1
  Na  Na18  1  0.246232  0.753768  0.000000  1
  Na  Na19  1  0.254645  0.745355  0.500000  1
  Zr  Zr20  1  0.913980  0.086020  0.500000  1
  Zr  Zr21  1  0.417579  0.582421  0.000000  1
  Zr  Zr22  1  0.085999  0.914001  0.500000  1
  Sn  Sn23  1  0.583985  0.416015  0.000000  1
  As  As24  1  0.875959  0.563011  0.093580  1
  As  As25  1  0.436989  0.124041  0.906420  1
  As  As26  1  0.627677  0.940385  0.591242  1
  As  As27  1  0.940234  0.627561  0.591206  1
  As  As28  1  0.131858  0.441807  0.909364  1
  As  As29  1  0.558193  0.868142  0.090636  1
  As  As30  1  0.372439  0.059766  0.408794  1
  As  As31  1  0.200210  0.200217  0.583405  1
  As  As32  1  0.706580  0.708807  0.912043  1
  As  As33  1  0.291193  0.293420  0.087957  1
  As  As34  1  0.059615  0.372323  0.408758  1
  As  As35  1  0.799783  0.799790  0.416595  1
