# generated using pymatgen
data_AcSm(Co3Si2)2
_symmetry_space_group_name_H-M   'P 1'
_cell_length_a   6.40534925
_cell_length_b   6.40534878
_cell_length_c   6.40535016
_cell_angle_alpha   130.23359257
_cell_angle_beta   115.11055470
_cell_angle_gamma   85.97040335
_symmetry_Int_Tables_number   1
_chemical_formula_structural   AcSm(Co3Si2)2
_chemical_formula_sum   'Ac1 Sm1 Co6 Si4'
_cell_volume   173.58943653
_cell_formula_units_Z   1
loop_
 _symmetry_equiv_pos_site_id
 _symmetry_equiv_pos_as_xyz
  1  'x, y, z'
loop_
 _atom_site_type_symbol
 _atom_site_label
 _atom_site_symmetry_multiplicity
 _atom_site_fract_x
 _atom_site_fract_y
 _atom_site_fract_z
 _atom_site_occupancy
  Ac  Ac0  1  0.750000  0.466588  0.716588  1
  Sm  Sm1  1  0.250000  0.541035  0.291035  1
  Co  Co2  1  0.995707  0.997915  0.493621  1
  Co  Co3  1  0.504293  0.997915  0.002208  1
  Co  Co4  1  0.718004  0.996524  0.719108  1
  Co  Co5  1  0.222583  0.501104  0.719108  1
  Co  Co6  1  0.277417  0.996524  0.278521  1
  Co  Co7  1  0.781996  0.501104  0.278521  1
  Si  Si8  1  0.085652  0.883370  0.797718  1
  Si  Si9  1  0.927924  0.130852  0.202927  1
  Si  Si10  1  0.572076  0.775005  0.202927  1
  Si  Si11  1  0.414348  0.212064  0.797718  1
