# generated using pymatgen
data_Tb3Eu4Ho5Se16
_symmetry_space_group_name_H-M   'P 1'
_cell_length_a   12.48670903
_cell_length_b   4.13887600
_cell_length_c   14.92746200
_cell_angle_alpha   90.00000000
_cell_angle_beta   90.00395532
_cell_angle_gamma   90.00000000
_symmetry_Int_Tables_number   1
_chemical_formula_structural   Tb3Eu4Ho5Se16
_chemical_formula_sum   'Tb3 Eu4 Ho5 Se16'
_cell_volume   771.46527095
_cell_formula_units_Z   1
loop_
 _symmetry_equiv_pos_site_id
 _symmetry_equiv_pos_as_xyz
  1  'x, y, z'
loop_
 _atom_site_type_symbol
 _atom_site_label
 _atom_site_symmetry_multiplicity
 _atom_site_fract_x
 _atom_site_fract_y
 _atom_site_fract_z
 _atom_site_occupancy
  Tb  Tb0  1  0.418023  0.250000  0.097708  1
  Tb  Tb1  1  0.067182  0.750001  0.110333  1
  Tb  Tb2  1  0.567666  0.750001  0.389951  1
  Eu  Eu3  1  0.742695  0.750001  0.164247  1
  Eu  Eu4  1  0.242582  0.750001  0.335891  1
  Eu  Eu5  1  0.757430  0.250000  0.664525  1
  Eu  Eu6  1  0.257385  0.250000  0.835301  1
  Ho  Ho7  1  0.918319  0.250000  0.402104  1
  Ho  Ho8  1  0.081696  0.750001  0.598068  1
  Ho  Ho9  1  0.433324  0.250000  0.610868  1
  Ho  Ho10  1  0.933300  0.250000  0.889123  1
  Ho  Ho11  1  0.581936  0.750001  0.901707  1
  Se  Se12  1  0.634301  0.250000  0.029727  1
  Se  Se13  1  0.910149  0.250000  0.078988  1
  Se  Se14  1  0.207409  0.250000  0.179366  1
  Se  Se15  1  0.475990  0.750001  0.215633  1
  Se  Se16  1  0.975364  0.750001  0.285548  1
  Se  Se17  1  0.708828  0.250000  0.321276  1
  Se  Se18  1  0.410090  0.250000  0.421122  1
  Se  Se19  1  0.133147  0.250000  0.469762  1
  Se  Se20  1  0.866355  0.750001  0.530446  1
  Se  Se21  1  0.588585  0.750001  0.580781  1
  Se  Se22  1  0.292612  0.750001  0.677457  1
  Se  Se23  1  0.024207  0.250000  0.714981  1
  Se  Se24  1  0.524292  0.250000  0.784976  1
  Se  Se25  1  0.792648  0.750001  0.822414  1
  Se  Se26  1  0.088555  0.750001  0.919339  1
  Se  Se27  1  0.365929  0.750001  0.968358  1
