# generated using pymatgen
data_NaZr3(Ga3Rh)6
_symmetry_space_group_name_H-M   'P 1'
_cell_length_a   7.49639355
_cell_length_b   7.48863236
_cell_length_c   9.41511100
_cell_angle_alpha   90.00000000
_cell_angle_beta   90.00000000
_cell_angle_gamma   119.91691599
_symmetry_Int_Tables_number   1
_chemical_formula_structural   NaZr3(Ga3Rh)6
_chemical_formula_sum   'Na1 Zr3 Ga18 Rh6'
_cell_volume   458.11440933
_cell_formula_units_Z   1
loop_
 _symmetry_equiv_pos_site_id
 _symmetry_equiv_pos_as_xyz
  1  'x, y, z'
loop_
 _atom_site_type_symbol
 _atom_site_label
 _atom_site_symmetry_multiplicity
 _atom_site_fract_x
 _atom_site_fract_y
 _atom_site_fract_z
 _atom_site_occupancy
  Na  Na0  1  0.329616  0.002856  0.750000  1
  Zr  Zr1  1  0.000757  0.674197  0.250000  1
  Zr  Zr2  1  0.005792  0.333009  0.750000  1
  Zr  Zr3  1  0.665867  0.994663  0.250000  1
  Ga  Ga4  1  0.337310  0.548710  0.250000  1
  Ga  Ga5  1  0.665463  0.447818  0.750000  1
  Ga  Ga6  1  0.553340  0.337216  0.250000  1
  Ga  Ga7  1  0.445216  0.657519  0.750000  1
  Ga  Ga8  1  0.996349  0.334048  0.083104  1
  Ga  Ga9  1  0.004833  0.667465  0.918343  1
  Ga  Ga10  1  0.004833  0.667465  0.581657  1
  Ga  Ga11  1  0.334499  0.998608  0.419928  1
  Ga  Ga12  1  0.996349  0.334048  0.416896  1
  Ga  Ga13  1  0.663904  0.003223  0.582280  1
  Ga  Ga14  1  0.663904  0.003223  0.917720  1
  Ga  Ga15  1  0.334499  0.998608  0.080072  1
  Ga  Ga16  1  0.330563  0.328036  0.570315  1
  Ga  Ga17  1  0.669268  0.668914  0.427624  1
  Ga  Ga18  1  0.669268  0.668914  0.072376  1
  Ga  Ga19  1  0.330563  0.328036  0.929685  1
  Ga  Ga20  1  0.123707  0.123746  0.250000  1
  Ga  Ga21  1  0.876967  0.879382  0.750000  1
  Rh  Rh22  1  0.675255  0.330948  0.003160  1
  Rh  Rh23  1  0.328094  0.670174  0.003978  1
  Rh  Rh24  1  0.328094  0.670174  0.496022  1
  Rh  Rh25  1  0.675255  0.330948  0.496840  1
  Rh  Rh26  1  0.995220  0.999028  0.003390  1
  Rh  Rh27  1  0.995220  0.999028  0.496610  1
