# generated using pymatgen
data_Hf10BeSnGeSb5
_symmetry_space_group_name_H-M   'P 1'
_cell_length_a   8.56206400
_cell_length_b   8.57035066
_cell_length_c   5.77392301
_cell_angle_alpha   90.00208516
_cell_angle_beta   89.99583902
_cell_angle_gamma   119.96802041
_symmetry_Int_Tables_number   1
_chemical_formula_structural   Hf10BeSnGeSb5
_chemical_formula_sum   'Hf10 Be1 Sn1 Ge1 Sb5'
_cell_volume   367.04434787
_cell_formula_units_Z   1
loop_
 _symmetry_equiv_pos_site_id
 _symmetry_equiv_pos_as_xyz
  1  'x, y, z'
loop_
 _atom_site_type_symbol
 _atom_site_label
 _atom_site_symmetry_multiplicity
 _atom_site_fract_x
 _atom_site_fract_y
 _atom_site_fract_z
 _atom_site_occupancy
  Hf  Hf0  1  0.743690  0.744103  0.260879  1
  Hf  Hf1  1  0.741407  0.000000  0.738862  1
  Hf  Hf2  1  0.999586  0.255897  0.260879  1
  Hf  Hf3  1  0.999922  0.740244  0.738882  1
  Hf  Hf4  1  0.259678  0.259756  0.738882  1
  Hf  Hf5  1  0.255789  0.000000  0.260817  1
  Hf  Hf6  1  0.333519  0.666387  0.500783  1
  Hf  Hf7  1  0.666876  0.333429  0.999205  1
  Hf  Hf8  1  0.667134  0.333613  0.500783  1
  Hf  Hf9  1  0.333444  0.666571  0.999205  1
  Be  Be10  1  0.000497  0.000000  0.503205  1
  Sn  Sn11  1  0.391503  0.000000  0.752521  1
  Ge  Ge12  1  0.000496  0.000000  0.996269  1
  Sb  Sb13  1  0.394888  0.394274  0.248577  1
  Sb  Sb14  1  0.000614  0.605726  0.248577  1
  Sb  Sb15  1  0.000072  0.392905  0.751466  1
  Sb  Sb16  1  0.607167  0.607095  0.751466  1
  Sb  Sb17  1  0.603719  0.000000  0.248742  1
