# generated using pymatgen
data_Yb3Al12FeIr3
_symmetry_space_group_name_H-M   'P 1'
_cell_length_a   8.80523000
_cell_length_b   8.80522975
_cell_length_c   9.51849500
_cell_angle_alpha   90.00000000
_cell_angle_beta   90.00000000
_cell_angle_gamma   120.00000845
_symmetry_Int_Tables_number   1
_chemical_formula_structural   Yb3Al12FeIr3
_chemical_formula_sum   'Yb6 Al24 Fe2 Ir6'
_cell_volume   639.11686470
_cell_formula_units_Z   2
loop_
 _symmetry_equiv_pos_site_id
 _symmetry_equiv_pos_as_xyz
  1  'x, y, z'
loop_
 _atom_site_type_symbol
 _atom_site_label
 _atom_site_symmetry_multiplicity
 _atom_site_fract_x
 _atom_site_fract_y
 _atom_site_fract_z
 _atom_site_occupancy
  Yb  Yb0  1  0.806069  0.193931  0.750000  1
  Yb  Yb1  1  0.193931  0.806069  0.250000  1
  Yb  Yb2  1  0.387862  0.193931  0.750000  1
  Yb  Yb3  1  0.612138  0.806069  0.250000  1
  Yb  Yb4  1  0.806069  0.612138  0.750000  1
  Yb  Yb5  1  0.193931  0.387862  0.250000  1
  Al  Al6  1  0.666667  0.333333  0.996571  1
  Al  Al7  1  0.333333  0.666667  0.003429  1
  Al  Al8  1  0.333333  0.666667  0.496571  1
  Al  Al9  1  0.666667  0.333333  0.503429  1
  Al  Al10  1  0.842453  0.157547  0.422678  1
  Al  Al11  1  0.157547  0.842453  0.577322  1
  Al  Al12  1  0.315095  0.157547  0.422678  1
  Al  Al13  1  0.157547  0.842453  0.922678  1
  Al  Al14  1  0.684905  0.842453  0.577322  1
  Al  Al15  1  0.842453  0.157547  0.077322  1
  Al  Al16  1  0.842453  0.684905  0.422678  1
  Al  Al17  1  0.684905  0.842453  0.922678  1
  Al  Al18  1  0.157547  0.315095  0.577322  1
  Al  Al19  1  0.315095  0.157547  0.077322  1
  Al  Al20  1  0.157547  0.315095  0.922678  1
  Al  Al21  1  0.842453  0.684905  0.077322  1
  Al  Al22  1  0.437531  0.562469  0.750000  1
  Al  Al23  1  0.562469  0.437531  0.250000  1
  Al  Al24  1  0.124937  0.562469  0.750000  1
  Al  Al25  1  0.875063  0.437531  0.250000  1
  Al  Al26  1  0.437531  0.875063  0.750000  1
  Al  Al27  1  0.562469  0.124937  0.250000  1
  Al  Al28  1  0.000000  0.000000  0.750000  1
  Al  Al29  1  0.000000  0.000000  0.250000  1
  Fe  Fe30  1  0.000000  0.000000  0.000000  1
  Fe  Fe31  1  0.000000  0.000000  0.500000  1
  Ir  Ir32  1  0.500000  0.500000  0.000000  1
  Ir  Ir33  1  0.000000  0.500000  0.000000  1
  Ir  Ir34  1  0.500000  0.500000  0.500000  1
  Ir  Ir35  1  0.500000  0.000000  0.000000  1
  Ir  Ir36  1  0.000000  0.500000  0.500000  1
  Ir  Ir37  1  0.500000  0.000000  0.500000  1
