# generated using pymatgen
data_Sc12Co3Tc
_symmetry_space_group_name_H-M   'P 1'
_cell_length_a   5.83760000
_cell_length_b   8.52105000
_cell_length_c   13.17143500
_cell_angle_alpha   90.00000000
_cell_angle_beta   90.00000000
_cell_angle_gamma   90.00000000
_symmetry_Int_Tables_number   1
_chemical_formula_structural   Sc12Co3Tc
_chemical_formula_sum   'Sc24 Co6 Tc2'
_cell_volume   655.17986155
_cell_formula_units_Z   2
loop_
 _symmetry_equiv_pos_site_id
 _symmetry_equiv_pos_as_xyz
  1  'x, y, z'
loop_
 _atom_site_type_symbol
 _atom_site_label
 _atom_site_symmetry_multiplicity
 _atom_site_fract_x
 _atom_site_fract_y
 _atom_site_fract_z
 _atom_site_occupancy
  Sc  Sc0  1  0.530682  0.750000  0.352777  1
  Sc  Sc1  1  0.030682  0.250000  0.147223  1
  Sc  Sc2  1  0.453763  0.250000  0.647474  1
  Sc  Sc3  1  0.953763  0.750000  0.852526  1
  Sc  Sc4  1  0.780390  0.750000  0.106522  1
  Sc  Sc5  1  0.280390  0.250000  0.393478  1
  Sc  Sc6  1  0.208446  0.250000  0.883663  1
  Sc  Sc7  1  0.708446  0.750000  0.616337  1
  Sc  Sc8  1  0.407236  0.933872  0.790590  1
  Sc  Sc9  1  0.907236  0.066128  0.709410  1
  Sc  Sc10  1  0.587917  0.434460  0.216977  1
  Sc  Sc11  1  0.087917  0.565540  0.283023  1
  Sc  Sc12  1  0.587917  0.065540  0.216977  1
  Sc  Sc13  1  0.087917  0.934460  0.283023  1
  Sc  Sc14  1  0.407236  0.566128  0.790590  1
  Sc  Sc15  1  0.907236  0.433872  0.709410  1
  Sc  Sc16  1  0.256023  0.936592  0.537780  1
  Sc  Sc17  1  0.756023  0.063408  0.962220  1
  Sc  Sc18  1  0.763032  0.438557  0.464311  1
  Sc  Sc19  1  0.263032  0.561443  0.035689  1
  Sc  Sc20  1  0.763032  0.061443  0.464311  1
  Sc  Sc21  1  0.263032  0.938557  0.035689  1
  Sc  Sc22  1  0.256023  0.563408  0.537780  1
  Sc  Sc23  1  0.756023  0.436592  0.962220  1
  Co  Co24  1  0.059623  0.250000  0.560844  1
  Co  Co25  1  0.559623  0.750000  0.939156  1
  Co  Co26  1  0.373050  0.750000  0.179936  1
  Co  Co27  1  0.873050  0.250000  0.320064  1
  Co  Co28  1  0.630207  0.250000  0.818649  1
  Co  Co29  1  0.130207  0.750000  0.681351  1
  Tc  Tc30  1  0.935424  0.750000  0.443239  1
  Tc  Tc31  1  0.435424  0.250000  0.056761  1
