# generated using pymatgen
data_Nd4OsBr4
_symmetry_space_group_name_H-M   'P 1'
_cell_length_a   9.37474634
_cell_length_b   9.37474688
_cell_length_c   6.70235086
_cell_angle_alpha   90.04783723
_cell_angle_beta   90.04783396
_cell_angle_gamma   89.62563849
_symmetry_Int_Tables_number   1
_chemical_formula_structural   Nd4OsBr4
_chemical_formula_sum   'Nd8 Os2 Br8'
_cell_volume   589.02898191
_cell_formula_units_Z   2
loop_
 _symmetry_equiv_pos_site_id
 _symmetry_equiv_pos_as_xyz
  1  'x, y, z'
loop_
 _atom_site_type_symbol
 _atom_site_label
 _atom_site_symmetry_multiplicity
 _atom_site_fract_x
 _atom_site_fract_y
 _atom_site_fract_z
 _atom_site_occupancy
  Nd  Nd0  1  0.249540  0.903167  0.010062  1
  Nd  Nd1  1  0.750460  0.096833  0.989938  1
  Nd  Nd2  1  0.096833  0.750460  0.489938  1
  Nd  Nd3  1  0.903167  0.249540  0.510062  1
  Nd  Nd4  1  0.751097  0.904026  0.499894  1
  Nd  Nd5  1  0.248903  0.095974  0.500106  1
  Nd  Nd6  1  0.095974  0.248903  0.000106  1
  Nd  Nd7  1  0.904026  0.751097  0.999894  1
  Os  Os8  1  0.997634  0.002366  0.250000  1
  Os  Os9  1  0.002366  0.997634  0.750000  1
  Br  Br10  1  0.410445  0.818281  0.426672  1
  Br  Br11  1  0.589555  0.181719  0.573328  1
  Br  Br12  1  0.181719  0.589555  0.073328  1
  Br  Br13  1  0.818281  0.410445  0.926672  1
  Br  Br14  1  0.408075  0.184566  0.077976  1
  Br  Br15  1  0.591925  0.815434  0.922024  1
  Br  Br16  1  0.815434  0.591925  0.422024  1
  Br  Br17  1  0.184566  0.408075  0.577976  1
