# generated using pymatgen
data_Nb3Hg3SbPbO14
_symmetry_space_group_name_H-M   'P 1'
_cell_length_a   7.61941521
_cell_length_b   7.54105992
_cell_length_c   7.49139583
_cell_angle_alpha   59.78046600
_cell_angle_beta   60.13865380
_cell_angle_gamma   60.33960554
_symmetry_Int_Tables_number   1
_chemical_formula_structural   Nb3Hg3SbPbO14
_chemical_formula_sum   'Nb3 Hg3 Sb1 Pb1 O14'
_cell_volume   304.94992672
_cell_formula_units_Z   1
loop_
 _symmetry_equiv_pos_site_id
 _symmetry_equiv_pos_as_xyz
  1  'x, y, z'
loop_
 _atom_site_type_symbol
 _atom_site_label
 _atom_site_symmetry_multiplicity
 _atom_site_fract_x
 _atom_site_fract_y
 _atom_site_fract_z
 _atom_site_occupancy
  Nb  Nb0  1  0.125000  0.625000  0.125000  1
  Nb  Nb1  1  0.625000  0.125000  0.125000  1
  Nb  Nb2  1  0.125000  0.125000  0.125000  1
  Hg  Hg3  1  0.625000  0.625000  0.625000  1
  Hg  Hg4  1  0.625000  0.125000  0.625000  1
  Hg  Hg5  1  0.625000  0.625000  0.125000  1
  Sb  Sb6  1  0.125000  0.125000  0.625000  1
  Pb  Pb7  1  0.125000  0.625000  0.625000  1
  O  O8  1  0.713589  0.760275  0.765860  1
  O  O9  1  0.189283  0.809624  0.806190  1
  O  O10  1  0.181825  0.810539  0.197098  1
  O  O11  1  0.816170  0.813317  0.187649  1
  O  O12  1  0.812349  0.190343  0.806965  1
  O  O13  1  0.189283  0.194903  0.806190  1
  O  O14  1  0.433830  0.067136  0.062351  1
  O  O15  1  0.816170  0.182864  0.187649  1
  O  O16  1  0.068175  0.439461  0.052902  1
  O  O17  1  0.060717  0.055097  0.443810  1
  O  O18  1  0.433830  0.436683  0.062351  1
  O  O19  1  0.437651  0.059657  0.443035  1
  O  O20  1  0.060717  0.440376  0.443810  1
  O  O21  1  0.536411  0.489725  0.484140  1
