# generated using pymatgen
data_Hf2InPt2Rh3
_symmetry_space_group_name_H-M   'P 1'
_cell_length_a   4.21888700
_cell_length_b   5.61319800
_cell_length_c   11.17958100
_cell_angle_alpha   90.00000000
_cell_angle_beta   90.00000000
_cell_angle_gamma   90.00000000
_symmetry_Int_Tables_number   1
_chemical_formula_structural   Hf2InPt2Rh3
_chemical_formula_sum   'Hf4 In2 Pt4 Rh6'
_cell_volume   264.74866690
_cell_formula_units_Z   2
loop_
 _symmetry_equiv_pos_site_id
 _symmetry_equiv_pos_as_xyz
  1  'x, y, z'
loop_
 _atom_site_type_symbol
 _atom_site_label
 _atom_site_symmetry_multiplicity
 _atom_site_fract_x
 _atom_site_fract_y
 _atom_site_fract_z
 _atom_site_occupancy
  Hf  Hf0  1  0.500000  0.186250  0.635588  1
  Hf  Hf1  1  0.500000  0.813750  0.364412  1
  Hf  Hf2  1  0.500000  0.686250  0.864412  1
  Hf  Hf3  1  0.500000  0.313750  0.135588  1
  In  In4  1  0.000000  0.500000  0.500000  1
  In  In5  1  0.000000  0.000000  0.000000  1
  Pt  Pt6  1  0.000000  0.444974  0.750434  1
  Pt  Pt7  1  0.000000  0.555026  0.249566  1
  Pt  Pt8  1  0.000000  0.055026  0.250434  1
  Pt  Pt9  1  0.000000  0.944974  0.749566  1
  Rh  Rh10  1  0.500000  0.207684  0.882164  1
  Rh  Rh11  1  0.500000  0.792316  0.117836  1
  Rh  Rh12  1  0.500000  0.707684  0.617836  1
  Rh  Rh13  1  0.500000  0.292316  0.382164  1
  Rh  Rh14  1  0.000000  0.000000  0.500000  1
  Rh  Rh15  1  0.000000  0.500000  0.000000  1
