# generated using pymatgen
data_Tb2NiB8Ru7
_symmetry_space_group_name_H-M   'P 1'
_cell_length_a   9.20622825
_cell_length_b   7.46031684
_cell_length_c   7.46460365
_cell_angle_alpha   89.97830317
_cell_angle_beta   113.96403034
_cell_angle_gamma   114.53157090
_symmetry_Int_Tables_number   1
_chemical_formula_structural   Tb2NiB8Ru7
_chemical_formula_sum   'Tb4 Ni2 B16 Ru14'
_cell_volume   417.37654541
_cell_formula_units_Z   2
loop_
 _symmetry_equiv_pos_site_id
 _symmetry_equiv_pos_as_xyz
  1  'x, y, z'
loop_
 _atom_site_type_symbol
 _atom_site_label
 _atom_site_symmetry_multiplicity
 _atom_site_fract_x
 _atom_site_fract_y
 _atom_site_fract_z
 _atom_site_occupancy
  Tb  Tb0  1  0.749943  0.876153  0.123624  1
  Tb  Tb1  1  0.248523  0.624933  0.371445  1
  Tb  Tb2  1  0.747567  0.375005  0.629340  1
  Tb  Tb3  1  0.248078  0.117432  0.874782  1
  Ni  Ni4  1  0.878496  0.549869  0.041316  1
  Ni  Ni5  1  0.375885  0.837688  0.049890  1
  B  B6  1  0.916405  0.288682  0.073978  1
  B  B7  1  0.418170  0.566517  0.127060  1
  B  B8  1  0.087209  0.210344  0.151541  1
  B  B9  1  0.582338  0.152911  0.205998  1
  B  B10  1  0.405964  0.055996  0.283136  1
  B  B11  1  0.918212  0.627968  0.355230  1
  B  B12  1  0.587287  0.648899  0.374966  1
  B  B13  1  0.088269  0.878952  0.443404  1
  B  B14  1  0.910857  0.123657  0.558253  1
  B  B15  1  0.413080  0.349342  0.622812  1
  B  B16  1  0.087688  0.376007  0.656539  1
  B  B17  1  0.587689  0.938822  0.707717  1
  B  B18  1  0.416911  0.848014  0.788945  1
  B  B19  1  0.908137  0.787476  0.847971  1
  B  B20  1  0.586442  0.435032  0.875057  1
  B  B21  1  0.081211  0.706738  0.933228  1
  Ru  Ru22  1  0.115888  0.938098  0.163739  1
  Ru  Ru23  1  0.632277  0.463763  0.175839  1
  Ru  Ru24  1  0.372923  0.330690  0.317169  1
  Ru  Ru25  1  0.872747  0.325237  0.336466  1
  Ru  Ru26  1  0.620983  0.957102  0.438056  1
  Ru  Ru27  1  0.126877  0.179704  0.459718  1
  Ru  Ru28  1  0.873177  0.821672  0.539386  1
  Ru  Ru29  1  0.373817  0.038585  0.550885  1
  Ru  Ru30  1  0.132776  0.681001  0.674613  1
  Ru  Ru31  1  0.621045  0.666026  0.673487  1
  Ru  Ru32  1  0.375759  0.540170  0.827768  1
  Ru  Ru33  1  0.873280  0.055496  0.831356  1
  Ru  Ru34  1  0.632677  0.171968  0.949793  1
  Ru  Ru35  1  0.131407  0.454051  0.965488  1
