# generated using pymatgen
data_NaOs(OF)2
_symmetry_space_group_name_H-M   'P 1'
_cell_length_a   5.41686300
_cell_length_b   7.35174967
_cell_length_c   8.12725329
_cell_angle_alpha   78.96106881
_cell_angle_beta   90.00000000
_cell_angle_gamma   90.00000000
_symmetry_Int_Tables_number   1
_chemical_formula_structural   NaOs(OF)2
_chemical_formula_sum   'Na4 Os4 O8 F8'
_cell_volume   317.66653782
_cell_formula_units_Z   4
loop_
 _symmetry_equiv_pos_site_id
 _symmetry_equiv_pos_as_xyz
  1  'x, y, z'
loop_
 _atom_site_type_symbol
 _atom_site_label
 _atom_site_symmetry_multiplicity
 _atom_site_fract_x
 _atom_site_fract_y
 _atom_site_fract_z
 _atom_site_occupancy
  Na  Na0  1  0.782688  0.108465  0.631456  1
  Na  Na1  1  0.217312  0.891535  0.368544  1
  Na  Na2  1  0.717312  0.608465  0.631456  1
  Na  Na3  1  0.282688  0.391535  0.368544  1
  Os  Os4  1  0.734935  0.709528  0.148244  1
  Os  Os5  1  0.234935  0.790472  0.851756  1
  Os  Os6  1  0.265065  0.290472  0.851756  1
  Os  Os7  1  0.765065  0.209528  0.148244  1
  O  O8  1  0.437847  0.800308  0.039881  1
  O  O9  1  0.937847  0.699692  0.960119  1
  O  O10  1  0.825335  0.953076  0.163871  1
  O  O11  1  0.674665  0.453076  0.163871  1
  O  O12  1  0.562153  0.199692  0.960119  1
  O  O13  1  0.062153  0.300308  0.039881  1
  O  O14  1  0.174665  0.046924  0.836129  1
  O  O15  1  0.325335  0.546924  0.836129  1
  F  F16  1  0.458192  0.321684  0.629670  1
  F  F17  1  0.527286  0.867093  0.695400  1
  F  F18  1  0.958192  0.178316  0.370330  1
  F  F19  1  0.472714  0.132907  0.304600  1
  F  F20  1  0.027286  0.632907  0.304600  1
  F  F21  1  0.972714  0.367093  0.695400  1
  F  F22  1  0.541808  0.678316  0.370330  1
  F  F23  1  0.041808  0.821684  0.629670  1
