# generated using pymatgen
data_Ca7Tb(Si3Pd)4
_symmetry_space_group_name_H-M   'P 1'
_cell_length_a   8.26523100
_cell_length_b   8.26523037
_cell_length_c   8.37992500
_cell_angle_alpha   90.00000000
_cell_angle_beta   90.00000000
_cell_angle_gamma   120.00000652
_symmetry_Int_Tables_number   1
_chemical_formula_structural   Ca7Tb(Si3Pd)4
_chemical_formula_sum   'Ca7 Tb1 Si12 Pd4'
_cell_volume   495.77051426
_cell_formula_units_Z   1
loop_
 _symmetry_equiv_pos_site_id
 _symmetry_equiv_pos_as_xyz
  1  'x, y, z'
loop_
 _atom_site_type_symbol
 _atom_site_label
 _atom_site_symmetry_multiplicity
 _atom_site_fract_x
 _atom_site_fract_y
 _atom_site_fract_z
 _atom_site_occupancy
  Ca  Ca0  1  0.501374  0.002746  0.250000  1
  Ca  Ca1  1  0.498414  0.996830  0.750000  1
  Ca  Ca2  1  0.997254  0.498626  0.250000  1
  Ca  Ca3  1  0.003170  0.501586  0.750000  1
  Ca  Ca4  1  0.501374  0.498626  0.250000  1
  Ca  Ca5  1  0.498414  0.501586  0.750000  1
  Ca  Ca6  1  0.000000  0.000000  0.250000  1
  Tb  Tb7  1  0.000000  0.000000  0.750000  1
  Si  Si8  1  0.164743  0.329485  0.997435  1
  Si  Si9  1  0.835296  0.670593  0.995629  1
  Si  Si10  1  0.670515  0.835257  0.997435  1
  Si  Si11  1  0.835296  0.670593  0.504371  1
  Si  Si12  1  0.329407  0.164704  0.995629  1
  Si  Si13  1  0.164743  0.329485  0.502565  1
  Si  Si14  1  0.164743  0.835257  0.997435  1
  Si  Si15  1  0.329407  0.164704  0.504371  1
  Si  Si16  1  0.835296  0.164704  0.995629  1
  Si  Si17  1  0.670515  0.835257  0.502565  1
  Si  Si18  1  0.835296  0.164704  0.504371  1
  Si  Si19  1  0.164743  0.835257  0.502565  1
  Pd  Pd20  1  0.333333  0.666667  0.004432  1
  Pd  Pd21  1  0.666667  0.333333  0.997037  1
  Pd  Pd22  1  0.666667  0.333333  0.502963  1
  Pd  Pd23  1  0.333333  0.666667  0.495568  1
