# generated using pymatgen
data_PaNiGe2Ir
_symmetry_space_group_name_H-M   'P 1'
_cell_length_a   4.15763600
_cell_length_b   4.15763600
_cell_length_c   9.70005300
_cell_angle_alpha   90.00000000
_cell_angle_beta   90.00000000
_cell_angle_gamma   90.00000000
_symmetry_Int_Tables_number   1
_chemical_formula_structural   PaNiGe2Ir
_chemical_formula_sum   'Pa2 Ni2 Ge4 Ir2'
_cell_volume   167.67450611
_cell_formula_units_Z   2
loop_
 _symmetry_equiv_pos_site_id
 _symmetry_equiv_pos_as_xyz
  1  'x, y, z'
loop_
 _atom_site_type_symbol
 _atom_site_label
 _atom_site_symmetry_multiplicity
 _atom_site_fract_x
 _atom_site_fract_y
 _atom_site_fract_z
 _atom_site_occupancy
  Pa  Pa0  1  0.000000  0.500000  0.252622  1
  Pa  Pa1  1  0.500000  0.000000  0.747378  1
  Ni  Ni2  1  0.000000  0.500000  0.617668  1
  Ni  Ni3  1  0.500000  0.000000  0.382332  1
  Ge  Ge4  1  0.000000  0.000000  0.500000  1
  Ge  Ge5  1  0.500000  0.500000  0.500000  1
  Ge  Ge6  1  0.000000  0.500000  0.852118  1
  Ge  Ge7  1  0.500000  0.000000  0.147882  1
  Ir  Ir8  1  0.000000  0.000000  0.000000  1
  Ir  Ir9  1  0.500000  0.500000  0.000000  1
