# generated using pymatgen
data_Dy8Nb11Si16Pt
_symmetry_space_group_name_H-M   'P 1'
_cell_length_a   7.06799040
_cell_length_b   7.06799058
_cell_length_c   13.01127585
_cell_angle_alpha   89.77062798
_cell_angle_beta   90.22937099
_cell_angle_gamma   89.67322874
_symmetry_Int_Tables_number   1
_chemical_formula_structural   Dy8Nb11Si16Pt
_chemical_formula_sum   'Dy8 Nb11 Si16 Pt1'
_cell_volume   649.97661853
_cell_formula_units_Z   1
loop_
 _symmetry_equiv_pos_site_id
 _symmetry_equiv_pos_as_xyz
  1  'x, y, z'
loop_
 _atom_site_type_symbol
 _atom_site_label
 _atom_site_symmetry_multiplicity
 _atom_site_fract_x
 _atom_site_fract_y
 _atom_site_fract_z
 _atom_site_occupancy
  Dy  Dy0  1  0.996996  0.658360  0.032616  1
  Dy  Dy1  1  0.000642  0.344601  0.532028  1
  Dy  Dy2  1  0.658360  0.996996  0.967384  1
  Dy  Dy3  1  0.158345  0.504336  0.781637  1
  Dy  Dy4  1  0.842019  0.498532  0.284385  1
  Dy  Dy5  1  0.504336  0.158345  0.218363  1
  Dy  Dy6  1  0.498532  0.842019  0.715615  1
  Dy  Dy7  1  0.344601  0.000642  0.467972  1
  Nb  Nb8  1  0.344194  0.504593  0.376348  1
  Nb  Nb9  1  0.849231  0.994991  0.376390  1
  Nb  Nb10  1  0.006808  0.151696  0.126162  1
  Nb  Nb11  1  0.994991  0.849231  0.623610  1
  Nb  Nb12  1  0.504593  0.344194  0.623652  1
  Nb  Nb13  1  0.151696  0.006808  0.873838  1
  Nb  Nb14  1  0.825661  0.173176  0.748061  1
  Nb  Nb15  1  0.173176  0.825661  0.251939  1
  Nb  Nb16  1  0.328377  0.328377  0.000000  1
  Nb  Nb17  1  0.495272  0.651273  0.125453  1
  Nb  Nb18  1  0.651273  0.495272  0.874547  1
  Si  Si19  1  0.053036  0.711661  0.437764  1
  Si  Si20  1  0.953273  0.293895  0.935911  1
  Si  Si21  1  0.711661  0.053036  0.562236  1
  Si  Si22  1  0.205922  0.453720  0.186898  1
  Si  Si23  1  0.791659  0.550166  0.685136  1
  Si  Si24  1  0.453720  0.205922  0.813102  1
  Si  Si25  1  0.550166  0.791659  0.314864  1
  Si  Si26  1  0.293895  0.953273  0.064089  1
  Si  Si27  1  0.797306  0.864574  0.184083  1
  Si  Si28  1  0.290331  0.629369  0.568200  1
  Si  Si29  1  0.704937  0.365322  0.067322  1
  Si  Si30  1  0.629369  0.290331  0.431800  1
  Si  Si31  1  0.365322  0.704937  0.932678  1
  Si  Si32  1  0.133964  0.203444  0.317278  1
  Si  Si33  1  0.203444  0.133964  0.682722  1
  Si  Si34  1  0.864574  0.797306  0.815917  1
  Pt  Pt35  1  0.668314  0.668314  0.500000  1
