# generated using pymatgen
data_LiTb19(Ir2Pt)4
_symmetry_space_group_name_H-M   'P 1'
_cell_length_a   10.97985700
_cell_length_b   10.97985700
_cell_length_c   6.32955800
_cell_angle_alpha   90.00000000
_cell_angle_beta   90.00000000
_cell_angle_gamma   90.00000000
_symmetry_Int_Tables_number   1
_chemical_formula_structural   LiTb19(Ir2Pt)4
_chemical_formula_sum   'Li1 Tb19 Ir8 Pt4'
_cell_volume   763.07416785
_cell_formula_units_Z   1
loop_
 _symmetry_equiv_pos_site_id
 _symmetry_equiv_pos_as_xyz
  1  'x, y, z'
loop_
 _atom_site_type_symbol
 _atom_site_label
 _atom_site_symmetry_multiplicity
 _atom_site_fract_x
 _atom_site_fract_y
 _atom_site_fract_z
 _atom_site_occupancy
  Li  Li0  1  0.000000  0.000000  0.500000  1
  Tb  Tb1  1  0.284741  0.085014  0.376190  1
  Tb  Tb2  1  0.294770  0.909161  0.876584  1
  Tb  Tb3  1  0.705230  0.090839  0.876584  1
  Tb  Tb4  1  0.715259  0.914986  0.376190  1
  Tb  Tb5  1  0.588496  0.791054  0.882298  1
  Tb  Tb6  1  0.583412  0.209126  0.378806  1
  Tb  Tb7  1  0.416588  0.790874  0.378806  1
  Tb  Tb8  1  0.411504  0.208946  0.882298  1
  Tb  Tb9  1  0.209126  0.416588  0.621194  1
  Tb  Tb10  1  0.208946  0.588496  0.117702  1
  Tb  Tb11  1  0.791054  0.411504  0.117702  1
  Tb  Tb12  1  0.790874  0.583412  0.621194  1
  Tb  Tb13  1  0.909161  0.705230  0.123416  1
  Tb  Tb14  1  0.914986  0.284741  0.623810  1
  Tb  Tb15  1  0.085014  0.715259  0.623810  1
  Tb  Tb16  1  0.090839  0.294770  0.123416  1
  Tb  Tb17  1  0.000000  0.000000  0.000000  1
  Tb  Tb18  1  0.500000  0.500000  0.000000  1
  Tb  Tb19  1  0.500000  0.500000  0.500000  1
  Ir  Ir20  1  0.655549  0.344290  0.747140  1
  Ir  Ir21  1  0.655710  0.655549  0.252860  1
  Ir  Ir22  1  0.344290  0.344451  0.252860  1
  Ir  Ir23  1  0.344451  0.655710  0.747140  1
  Ir  Ir24  1  0.500000  0.000000  0.126264  1
  Ir  Ir25  1  0.500000  0.000000  0.622322  1
  Ir  Ir26  1  0.000000  0.500000  0.873736  1
  Ir  Ir27  1  0.000000  0.500000  0.377678  1
  Pt  Pt28  1  0.847776  0.154157  0.245873  1
  Pt  Pt29  1  0.845843  0.847776  0.754127  1
  Pt  Pt30  1  0.154157  0.152224  0.754127  1
  Pt  Pt31  1  0.152224  0.845843  0.245873  1
