# generated using pymatgen
data_Y2Lu2MnRu7
_symmetry_space_group_name_H-M   'P 1'
_cell_length_a   5.32234300
_cell_length_b   5.21285360
_cell_length_c   8.88002882
_cell_angle_alpha   89.85345843
_cell_angle_beta   90.00000000
_cell_angle_gamma   120.69724549
_symmetry_Int_Tables_number   1
_chemical_formula_structural   Y2Lu2MnRu7
_chemical_formula_sum   'Y2 Lu2 Mn1 Ru7'
_cell_volume   211.84932349
_cell_formula_units_Z   1
loop_
 _symmetry_equiv_pos_site_id
 _symmetry_equiv_pos_as_xyz
  1  'x, y, z'
loop_
 _atom_site_type_symbol
 _atom_site_label
 _atom_site_symmetry_multiplicity
 _atom_site_fract_x
 _atom_site_fract_y
 _atom_site_fract_z
 _atom_site_occupancy
  Y  Y0  1  0.331322  0.662646  0.432041  1
  Y  Y1  1  0.667733  0.335466  0.567183  1
  Lu  Lu2  1  0.668144  0.336287  0.935105  1
  Lu  Lu3  1  0.330932  0.661867  0.065889  1
  Mn  Mn4  1  0.166299  0.332600  0.752929  1
  Ru  Ru5  1  0.173735  0.826083  0.753507  1
  Ru  Ru6  1  0.347023  0.172784  0.246514  1
  Ru  Ru7  1  0.834955  0.669909  0.246792  1
  Ru  Ru8  1  0.652347  0.826083  0.753507  1
  Ru  Ru9  1  0.001215  0.002431  0.997805  1
  Ru  Ru10  1  0.825761  0.172784  0.246514  1
  Ru  Ru11  1  0.000533  0.001065  0.502213  1
