# generated using pymatgen
data_Ho9ErIn8(IrPt)2
_symmetry_space_group_name_H-M   'P 1'
_cell_length_a   3.61140700
_cell_length_b   8.11905903
_cell_length_c   18.19646965
_cell_angle_alpha   90.03179862
_cell_angle_beta   90.00000000
_cell_angle_gamma   90.00000000
_symmetry_Int_Tables_number   1
_chemical_formula_structural   Ho9ErIn8(IrPt)2
_chemical_formula_sum   'Ho9 Er1 In8 Ir2 Pt2'
_cell_volume   533.54272780
_cell_formula_units_Z   1
loop_
 _symmetry_equiv_pos_site_id
 _symmetry_equiv_pos_as_xyz
  1  'x, y, z'
loop_
 _atom_site_type_symbol
 _atom_site_label
 _atom_site_symmetry_multiplicity
 _atom_site_fract_x
 _atom_site_fract_y
 _atom_site_fract_z
 _atom_site_occupancy
  Ho  Ho0  1  0.000000  0.884855  0.587603  1
  Ho  Ho1  1  0.000000  0.383530  0.913779  1
  Ho  Ho2  1  0.000000  0.616426  0.086300  1
  Ho  Ho3  1  0.000000  0.235040  0.222151  1
  Ho  Ho4  1  0.000000  0.764826  0.777918  1
  Ho  Ho5  1  0.000000  0.248968  0.720553  1
  Ho  Ho6  1  0.000000  0.751088  0.279475  1
  Ho  Ho7  1  0.000000  0.000104  0.000017  1
  Ho  Ho8  1  0.000000  0.500011  0.499911  1
  Er  Er9  1  0.000000  0.114908  0.411996  1
  In  In10  1  0.500000  0.423663  0.351151  1
  In  In11  1  0.500000  0.575837  0.648851  1
  In  In12  1  0.500000  0.073783  0.851053  1
  In  In13  1  0.500000  0.926222  0.149065  1
  In  In14  1  0.500000  0.292167  0.066622  1
  In  In15  1  0.500000  0.707925  0.933652  1
  In  In16  1  0.500000  0.206802  0.567128  1
  In  In17  1  0.500000  0.793830  0.432441  1
  Ir  Ir18  1  0.500000  0.020965  0.304247  1
  Ir  Ir19  1  0.500000  0.979194  0.695860  1
  Pt  Pt20  1  0.500000  0.479088  0.803521  1
  Pt  Pt21  1  0.500000  0.520768  0.196707  1
