# generated using pymatgen
data_HoZrB6Ru
_symmetry_space_group_name_H-M   'P 1'
_cell_length_a   3.55546700
_cell_length_b   9.04008900
_cell_length_c   11.40110300
_cell_angle_alpha   90.00000000
_cell_angle_beta   90.00000000
_cell_angle_gamma   90.00000000
_symmetry_Int_Tables_number   1
_chemical_formula_structural   HoZrB6Ru
_chemical_formula_sum   'Ho4 Zr4 B24 Ru4'
_cell_volume   366.45126687
_cell_formula_units_Z   4
loop_
 _symmetry_equiv_pos_site_id
 _symmetry_equiv_pos_as_xyz
  1  'x, y, z'
loop_
 _atom_site_type_symbol
 _atom_site_label
 _atom_site_symmetry_multiplicity
 _atom_site_fract_x
 _atom_site_fract_y
 _atom_site_fract_z
 _atom_site_occupancy
  Ho  Ho0  1  0.000000  0.322215  0.413352  1
  Ho  Ho1  1  0.000000  0.677785  0.586648  1
  Ho  Ho2  1  0.000000  0.822215  0.086648  1
  Ho  Ho3  1  0.000000  0.177785  0.913352  1
  Zr  Zr4  1  0.000000  0.944680  0.374091  1
  Zr  Zr5  1  0.000000  0.055320  0.625909  1
  Zr  Zr6  1  0.000000  0.444680  0.125909  1
  Zr  Zr7  1  0.000000  0.555320  0.874091  1
  B  B8  1  0.500000  0.554055  0.433944  1
  B  B9  1  0.500000  0.445945  0.566056  1
  B  B10  1  0.500000  0.054055  0.066056  1
  B  B11  1  0.500000  0.945945  0.933944  1
  B  B12  1  0.500000  0.751192  0.419332  1
  B  B13  1  0.500000  0.248808  0.580668  1
  B  B14  1  0.500000  0.251192  0.080668  1
  B  B15  1  0.500000  0.748808  0.919332  1
  B  B16  1  0.500000  0.794748  0.264127  1
  B  B17  1  0.500000  0.205252  0.735873  1
  B  B18  1  0.500000  0.294748  0.235873  1
  B  B19  1  0.500000  0.705252  0.764127  1
  B  B20  1  0.500000  0.630684  0.183328  1
  B  B21  1  0.500000  0.369316  0.816672  1
  B  B22  1  0.500000  0.130684  0.316672  1
  B  B23  1  0.500000  0.869316  0.683328  1
  B  B24  1  0.500000  0.981886  0.212832  1
  B  B25  1  0.500000  0.018114  0.787168  1
  B  B26  1  0.500000  0.481886  0.287168  1
  B  B27  1  0.500000  0.518114  0.712832  1
  B  B28  1  0.500000  0.603004  0.028048  1
  B  B29  1  0.500000  0.396996  0.971952  1
  B  B30  1  0.500000  0.103004  0.471952  1
  B  B31  1  0.500000  0.896996  0.528048  1
  Ru  Ru32  1  0.000000  0.641517  0.319647  1
  Ru  Ru33  1  0.000000  0.358483  0.680353  1
  Ru  Ru34  1  0.000000  0.141517  0.180353  1
  Ru  Ru35  1  0.000000  0.858483  0.819647  1
