# generated using pymatgen
data_Dy2YInF10
_symmetry_space_group_name_H-M   'P 1'
_cell_length_a   8.31048018
_cell_length_b   8.30981931
_cell_length_c   8.30981903
_cell_angle_alpha   60.00526470
_cell_angle_beta   59.99736690
_cell_angle_gamma   59.99736712
_symmetry_Int_Tables_number   1
_chemical_formula_structural   Dy2YInF10
_chemical_formula_sum   'Dy4 Y2 In2 F20'
_cell_volume   405.78338132
_cell_formula_units_Z   2
loop_
 _symmetry_equiv_pos_site_id
 _symmetry_equiv_pos_as_xyz
  1  'x, y, z'
loop_
 _atom_site_type_symbol
 _atom_site_label
 _atom_site_symmetry_multiplicity
 _atom_site_fract_x
 _atom_site_fract_y
 _atom_site_fract_z
 _atom_site_occupancy
  Dy  Dy0  1  0.240757  0.759243  0.240757  1
  Dy  Dy1  1  0.759243  0.240757  0.759243  1
  Dy  Dy2  1  0.240757  0.240757  0.759243  1
  Dy  Dy3  1  0.759243  0.759243  0.240757  1
  Y  Y4  1  0.759286  0.240714  0.240714  1
  Y  Y5  1  0.240714  0.759286  0.759286  1
  In  In6  1  0.250000  0.250000  0.250000  1
  In  In7  1  0.750000  0.750000  0.750000  1
  F  F8  1  0.828454  0.500000  0.500000  1
  F  F9  1  0.171546  0.500000  0.500000  1
  F  F10  1  0.500000  0.828454  0.171546  1
  F  F11  1  0.500000  0.171546  0.828454  1
  F  F12  1  0.500297  0.828537  0.499703  1
  F  F13  1  0.171463  0.499703  0.828537  1
  F  F14  1  0.499703  0.171463  0.500297  1
  F  F15  1  0.828537  0.500297  0.171463  1
  F  F16  1  0.500297  0.499703  0.828537  1
  F  F17  1  0.499703  0.500297  0.171463  1
  F  F18  1  0.171463  0.828537  0.499703  1
  F  F19  1  0.828537  0.171463  0.500297  1
  F  F20  1  0.110443  0.110154  0.110154  1
  F  F21  1  0.889557  0.889846  0.889846  1
  F  F22  1  0.110154  0.110443  0.669249  1
  F  F23  1  0.110154  0.669249  0.110443  1
  F  F24  1  0.889846  0.889557  0.330751  1
  F  F25  1  0.889846  0.330751  0.889557  1
  F  F26  1  0.669249  0.110154  0.110154  1
  F  F27  1  0.330751  0.889846  0.889846  1
