# generated using pymatgen
data_Y8ZnCo2Si12Ir
_symmetry_space_group_name_H-M   'P 1'
_cell_length_a   8.05348700
_cell_length_b   8.05348733
_cell_length_c   8.11938200
_cell_angle_alpha   90.00000000
_cell_angle_beta   90.00000000
_cell_angle_gamma   119.99999454
_symmetry_Int_Tables_number   1
_chemical_formula_structural   Y8ZnCo2Si12Ir
_chemical_formula_sum   'Y8 Zn1 Co2 Si12 Ir1'
_cell_volume   456.05956833
_cell_formula_units_Z   1
loop_
 _symmetry_equiv_pos_site_id
 _symmetry_equiv_pos_as_xyz
  1  'x, y, z'
loop_
 _atom_site_type_symbol
 _atom_site_label
 _atom_site_symmetry_multiplicity
 _atom_site_fract_x
 _atom_site_fract_y
 _atom_site_fract_z
 _atom_site_occupancy
  Y  Y0  1  0.497903  0.995808  0.244360  1
  Y  Y1  1  0.497864  0.995727  0.755574  1
  Y  Y2  1  0.004192  0.502097  0.244360  1
  Y  Y3  1  0.004273  0.502136  0.755574  1
  Y  Y4  1  0.497903  0.502097  0.244360  1
  Y  Y5  1  0.497864  0.502136  0.755574  1
  Y  Y6  1  0.000000  0.000000  0.247211  1
  Y  Y7  1  0.000000  0.000000  0.753029  1
  Zn  Zn8  1  0.666667  0.333333  0.499631  1
  Co  Co9  1  0.333333  0.666667  0.000735  1
  Co  Co10  1  0.666667  0.333333  0.999325  1
  Si  Si11  1  0.171904  0.343808  0.999866  1
  Si  Si12  1  0.827760  0.655522  0.000142  1
  Si  Si13  1  0.656192  0.828096  0.999866  1
  Si  Si14  1  0.836022  0.672042  0.500495  1
  Si  Si15  1  0.344478  0.172240  0.000142  1
  Si  Si16  1  0.167403  0.334807  0.499572  1
  Si  Si17  1  0.171904  0.828096  0.999866  1
  Si  Si18  1  0.327958  0.163978  0.500495  1
  Si  Si19  1  0.827760  0.172240  0.000142  1
  Si  Si20  1  0.665193  0.832597  0.499572  1
  Si  Si21  1  0.836022  0.163978  0.500495  1
  Si  Si22  1  0.167403  0.832597  0.499572  1
  Ir  Ir23  1  0.333333  0.666667  0.500047  1
