# generated using pymatgen
data_SrOs2F12
_symmetry_space_group_name_H-M   'P 1'
_cell_length_a   7.28937727
_cell_length_b   7.28937899
_cell_length_c   10.38963900
_cell_angle_alpha   68.11789328
_cell_angle_beta   68.11788786
_cell_angle_gamma   76.72213586
_symmetry_Int_Tables_number   1
_chemical_formula_structural   SrOs2F12
_chemical_formula_sum   'Sr2 Os4 F24'
_cell_volume   472.72295428
_cell_formula_units_Z   2
loop_
 _symmetry_equiv_pos_site_id
 _symmetry_equiv_pos_as_xyz
  1  'x, y, z'
loop_
 _atom_site_type_symbol
 _atom_site_label
 _atom_site_symmetry_multiplicity
 _atom_site_fract_x
 _atom_site_fract_y
 _atom_site_fract_z
 _atom_site_occupancy
  Sr  Sr0  1  0.175675  0.824325  0.750000  1
  Sr  Sr1  1  0.824325  0.175675  0.250000  1
  Os  Os2  1  0.247351  0.272275  0.365132  1
  Os  Os3  1  0.272275  0.247351  0.865132  1
  Os  Os4  1  0.752649  0.727725  0.634868  1
  Os  Os5  1  0.727725  0.752649  0.134868  1
  F  F6  1  0.845852  0.858932  0.228347  1
  F  F7  1  0.154148  0.141068  0.771653  1
  F  F8  1  0.305069  0.003488  0.488884  1
  F  F9  1  0.994202  0.282101  0.506706  1
  F  F10  1  0.282101  0.994202  0.006706  1
  F  F11  1  0.370995  0.369220  0.453546  1
  F  F12  1  0.369220  0.370995  0.953546  1
  F  F13  1  0.858932  0.845852  0.728347  1
  F  F14  1  0.759203  0.497300  0.279980  1
  F  F15  1  0.996512  0.694931  0.011116  1
  F  F16  1  0.694931  0.996512  0.511116  1
  F  F17  1  0.003488  0.305069  0.988884  1
  F  F18  1  0.526966  0.193870  0.741534  1
  F  F19  1  0.629005  0.630780  0.546454  1
  F  F20  1  0.240797  0.502700  0.720020  1
  F  F21  1  0.630780  0.629005  0.046454  1
  F  F22  1  0.497300  0.759203  0.779980  1
  F  F23  1  0.806130  0.473034  0.758466  1
  F  F24  1  0.502700  0.240797  0.220020  1
  F  F25  1  0.473034  0.806130  0.258466  1
  F  F26  1  0.193870  0.526966  0.241534  1
  F  F27  1  0.717899  0.005798  0.993294  1
  F  F28  1  0.141068  0.154148  0.271653  1
  F  F29  1  0.005798  0.717899  0.493294  1
