# generated using pymatgen
data_Sc10GaSi4As
_symmetry_space_group_name_H-M   'P 1'
_cell_length_a   7.93283023
_cell_length_b   7.92593479
_cell_length_c   5.85534500
_cell_angle_alpha   90.00000000
_cell_angle_beta   90.00000000
_cell_angle_gamma   120.06157813
_symmetry_Int_Tables_number   1
_chemical_formula_structural   Sc10GaSi4As
_chemical_formula_sum   'Sc10 Ga1 Si4 As1'
_cell_volume   318.63388635
_cell_formula_units_Z   1
loop_
 _symmetry_equiv_pos_site_id
 _symmetry_equiv_pos_as_xyz
  1  'x, y, z'
loop_
 _atom_site_type_symbol
 _atom_site_label
 _atom_site_symmetry_multiplicity
 _atom_site_fract_x
 _atom_site_fract_y
 _atom_site_fract_z
 _atom_site_occupancy
  Sc  Sc0  1  0.994499  0.754329  0.750000  1
  Sc  Sc1  1  0.999955  0.241662  0.250000  1
  Sc  Sc2  1  0.761758  0.760837  0.250000  1
  Sc  Sc3  1  0.758868  0.999091  0.750000  1
  Sc  Sc4  1  0.238666  0.243199  0.750000  1
  Sc  Sc5  1  0.242137  0.998835  0.250000  1
  Sc  Sc6  1  0.333103  0.665723  0.499385  1
  Sc  Sc7  1  0.669984  0.335483  0.000697  1
  Sc  Sc8  1  0.669984  0.335483  0.499303  1
  Sc  Sc9  1  0.333103  0.665723  0.000615  1
  Ga  Ga10  1  0.398508  0.397218  0.250000  1
  Si  Si11  1  0.001344  0.604906  0.250000  1
  Si  Si12  1  0.999012  0.395572  0.750000  1
  Si  Si13  1  0.602133  0.602595  0.750000  1
  Si  Si14  1  0.606659  0.999698  0.250000  1
  As  As15  1  0.390286  0.999646  0.750000  1
