# generated using pymatgen
data_ErPa3Ge6Os7
_symmetry_space_group_name_H-M   'P 1'
_cell_length_a   7.27124026
_cell_length_b   7.27124019
_cell_length_c   7.26054900
_cell_angle_alpha   109.44143852
_cell_angle_beta   109.44143833
_cell_angle_gamma   109.50098671
_symmetry_Int_Tables_number   1
_chemical_formula_structural   ErPa3Ge6Os7
_chemical_formula_sum   'Er1 Pa3 Ge6 Os7'
_cell_volume   295.61335396
_cell_formula_units_Z   1
loop_
 _symmetry_equiv_pos_site_id
 _symmetry_equiv_pos_as_xyz
  1  'x, y, z'
loop_
 _atom_site_type_symbol
 _atom_site_label
 _atom_site_symmetry_multiplicity
 _atom_site_fract_x
 _atom_site_fract_y
 _atom_site_fract_z
 _atom_site_occupancy
  Er  Er0  1  0.000000  0.000000  0.500000  1
  Pa  Pa1  1  0.000000  0.500000  0.000000  1
  Pa  Pa2  1  0.500000  0.000000  0.000000  1
  Pa  Pa3  1  0.500000  0.500000  0.500000  1
  Ge  Ge4  1  0.690222  0.690222  0.003961  1
  Ge  Ge5  1  0.309778  0.000000  0.313739  1
  Ge  Ge6  1  0.000000  0.309778  0.313739  1
  Ge  Ge7  1  0.309778  0.309778  0.996039  1
  Ge  Ge8  1  0.690222  0.000000  0.686261  1
  Ge  Ge9  1  0.000000  0.690222  0.686261  1
  Os  Os10  1  0.748107  0.251893  0.500000  1
  Os  Os11  1  0.748107  0.496215  0.248107  1
  Os  Os12  1  0.503785  0.251893  0.751893  1
  Os  Os13  1  0.251893  0.503785  0.751893  1
  Os  Os14  1  0.251893  0.748107  0.500000  1
  Os  Os15  1  0.496215  0.748107  0.248107  1
  Os  Os16  1  0.000000  0.000000  0.000000  1
