# generated using pymatgen
data_Pr13Nd4Lu3Pb16
_symmetry_space_group_name_H-M   'P 1'
_cell_length_a   8.38547001
_cell_length_b   8.51798005
_cell_length_c   16.24110103
_cell_angle_alpha   90.00698716
_cell_angle_beta   90.00125643
_cell_angle_gamma   89.99727047
_symmetry_Int_Tables_number   1
_chemical_formula_structural   Pr13Nd4Lu3Pb16
_chemical_formula_sum   'Pr13 Nd4 Lu3 Pb16'
_cell_volume   1160.05743673
_cell_formula_units_Z   1
loop_
 _symmetry_equiv_pos_site_id
 _symmetry_equiv_pos_as_xyz
  1  'x, y, z'
loop_
 _atom_site_type_symbol
 _atom_site_label
 _atom_site_symmetry_multiplicity
 _atom_site_fract_x
 _atom_site_fract_y
 _atom_site_fract_z
 _atom_site_occupancy
  Pr  Pr0  1  0.877952  0.659163  0.381315  1
  Pr  Pr1  1  0.375444  0.839453  0.381456  1
  Pr  Pr2  1  0.877986  0.659241  0.118705  1
  Pr  Pr3  1  0.623183  0.159688  0.879938  1
  Pr  Pr4  1  0.123303  0.340192  0.619395  1
  Pr  Pr5  1  0.469461  0.679100  0.600539  1
  Pr  Pr6  1  0.969295  0.820933  0.898855  1
  Pr  Pr7  1  0.530092  0.322125  0.100442  1
  Pr  Pr8  1  0.031096  0.180278  0.399944  1
  Pr  Pr9  1  0.530131  0.322171  0.399594  1
  Pr  Pr10  1  0.031171  0.180233  0.100007  1
  Pr  Pr11  1  0.469392  0.679040  0.899498  1
  Pr  Pr12  1  0.969248  0.821024  0.601160  1
  Nd  Nd13  1  0.623259  0.159628  0.620081  1
  Nd  Nd14  1  0.123394  0.340204  0.880574  1
  Nd  Nd15  1  0.375323  0.839482  0.118525  1
  Nd  Nd16  1  0.706388  0.998012  0.249980  1
  Lu  Lu17  1  0.791743  0.496887  0.750008  1
  Lu  Lu18  1  0.291249  0.002974  0.750005  1
  Lu  Lu19  1  0.208400  0.503826  0.249967  1
  Pb  Pb20  1  0.717926  0.968349  0.456898  1
  Pb  Pb21  1  0.218470  0.530546  0.045126  1
  Pb  Pb22  1  0.282168  0.030612  0.954258  1
  Pb  Pb23  1  0.781853  0.468745  0.545896  1
  Pb  Pb24  1  0.282609  0.030582  0.545908  1
  Pb  Pb25  1  0.782385  0.468954  0.954105  1
  Pb  Pb26  1  0.717692  0.968041  0.043332  1
  Pb  Pb27  1  0.218356  0.530409  0.454755  1
  Pb  Pb28  1  0.429564  0.375501  0.749992  1
  Pb  Pb29  1  0.929995  0.124965  0.750016  1
  Pb  Pb30  1  0.569526  0.621514  0.249916  1
  Pb  Pb31  1  0.074906  0.873065  0.249897  1
  Pb  Pb32  1  0.659915  0.847381  0.749930  1
  Pb  Pb33  1  0.159465  0.651519  0.750067  1
  Pb  Pb34  1  0.337207  0.152862  0.249930  1
  Pb  Pb35  1  0.840451  0.353301  0.249986  1
