# generated using pymatgen
data_La4Nd2Cd23P
_symmetry_space_group_name_H-M   'P 1'
_cell_length_a   10.13966378
_cell_length_b   10.13966445
_cell_length_c   10.14243400
_cell_angle_alpha   59.99095767
_cell_angle_beta   59.99095546
_cell_angle_gamma   60.07734362
_symmetry_Int_Tables_number   1
_chemical_formula_structural   La4Nd2Cd23P
_chemical_formula_sum   'La4 Nd2 Cd23 P1'
_cell_volume   737.68014725
_cell_formula_units_Z   1
loop_
 _symmetry_equiv_pos_site_id
 _symmetry_equiv_pos_as_xyz
  1  'x, y, z'
loop_
 _atom_site_type_symbol
 _atom_site_label
 _atom_site_symmetry_multiplicity
 _atom_site_fract_x
 _atom_site_fract_y
 _atom_site_fract_z
 _atom_site_occupancy
  La  La0  1  0.795421  0.795421  0.204035  1
  La  La1  1  0.204377  0.795623  0.203912  1
  La  La2  1  0.795623  0.204377  0.203912  1
  La  La3  1  0.204579  0.204579  0.794879  1
  Nd  Nd4  1  0.796863  0.203137  0.796184  1
  Nd  Nd5  1  0.203137  0.796863  0.796184  1
  Cd  Cd6  1  0.831898  0.831898  0.503569  1
  Cd  Cd7  1  0.832022  0.502827  0.831830  1
  Cd  Cd8  1  0.502827  0.832022  0.831830  1
  Cd  Cd9  1  0.833426  0.833426  0.832532  1
  Cd  Cd10  1  0.166574  0.166574  0.499385  1
  Cd  Cd11  1  0.167978  0.497173  0.166680  1
  Cd  Cd12  1  0.497173  0.167978  0.166680  1
  Cd  Cd13  1  0.168102  0.168102  0.167366  1
  Cd  Cd14  1  0.621573  0.621573  0.135356  1
  Cd  Cd15  1  0.622259  0.135722  0.622110  1
  Cd  Cd16  1  0.135722  0.622259  0.622110  1
  Cd  Cd17  1  0.620545  0.620545  0.622706  1
  Cd  Cd18  1  0.379455  0.379455  0.863795  1
  Cd  Cd19  1  0.377741  0.864278  0.380091  1
  Cd  Cd20  1  0.864278  0.377741  0.380091  1
  Cd  Cd21  1  0.378427  0.378427  0.378503  1
  Cd  Cd22  1  0.000000  0.000000  0.500495  1
  Cd  Cd23  1  0.499522  0.999812  0.499991  1
  Cd  Cd24  1  0.999812  0.499522  0.499991  1
  Cd  Cd25  1  0.500000  0.500000  0.999070  1
  Cd  Cd26  1  0.000188  0.500478  0.999325  1
  Cd  Cd27  1  0.500478  0.000188  0.999325  1
  Cd  Cd28  1  0.500000  0.500000  0.499849  1
  P  P29  1  0.000000  0.000000  0.998213  1
