# generated using pymatgen
data_Hf2Ti3Ir
_symmetry_space_group_name_H-M   'P 1'
_cell_length_a   5.20165717
_cell_length_b   5.20165649
_cell_length_c   5.20165759
_cell_angle_alpha   64.19549157
_cell_angle_beta   64.19550080
_cell_angle_gamma   64.19550103
_symmetry_Int_Tables_number   1
_chemical_formula_structural   Hf2Ti3Ir
_chemical_formula_sum   'Hf2 Ti3 Ir1'
_cell_volume   108.70071929
_cell_formula_units_Z   1
loop_
 _symmetry_equiv_pos_site_id
 _symmetry_equiv_pos_as_xyz
  1  'x, y, z'
loop_
 _atom_site_type_symbol
 _atom_site_label
 _atom_site_symmetry_multiplicity
 _atom_site_fract_x
 _atom_site_fract_y
 _atom_site_fract_z
 _atom_site_occupancy
  Hf  Hf0  1  0.500237  0.500237  0.500237  1
  Hf  Hf1  1  0.749763  0.749763  0.749763  1
  Ti  Ti2  1  0.625000  0.125000  0.125000  1
  Ti  Ti3  1  0.125000  0.125000  0.625000  1
  Ti  Ti4  1  0.125000  0.625000  0.125000  1
  Ir  Ir5  1  0.125000  0.125000  0.125000  1
