# generated using pymatgen
data_Ce2P2RuRh3Au2
_symmetry_space_group_name_H-M   'P 1'
_cell_length_a   3.98669000
_cell_length_b   3.98669000
_cell_length_c   11.22310900
_cell_angle_alpha   90.00000000
_cell_angle_beta   90.00000000
_cell_angle_gamma   90.00000000
_symmetry_Int_Tables_number   1
_chemical_formula_structural   Ce2P2RuRh3Au2
_chemical_formula_sum   'Ce2 P2 Ru1 Rh3 Au2'
_cell_volume   178.37669560
_cell_formula_units_Z   1
loop_
 _symmetry_equiv_pos_site_id
 _symmetry_equiv_pos_as_xyz
  1  'x, y, z'
loop_
 _atom_site_type_symbol
 _atom_site_label
 _atom_site_symmetry_multiplicity
 _atom_site_fract_x
 _atom_site_fract_y
 _atom_site_fract_z
 _atom_site_occupancy
  Ce  Ce0  1  0.500000  0.000000  0.751606  1
  Ce  Ce1  1  0.000000  0.500000  0.248394  1
  P  P2  1  0.500000  0.000000  0.113055  1
  P  P3  1  0.000000  0.500000  0.886945  1
  Ru  Ru4  1  0.000000  0.000000  0.000000  1
  Rh  Rh5  1  0.000000  0.500000  0.683976  1
  Rh  Rh6  1  0.500000  0.000000  0.316024  1
  Rh  Rh7  1  0.500000  0.500000  0.000000  1
  Au  Au8  1  0.500000  0.500000  0.500000  1
  Au  Au9  1  0.000000  0.000000  0.500000  1
