# generated using pymatgen
data_Ho6Fe11Co2P12Ru5
_symmetry_space_group_name_H-M   'P 1'
_cell_length_a   3.78092300
_cell_length_b   10.55289744
_cell_length_c   12.31231605
_cell_angle_alpha   90.37404405
_cell_angle_beta   90.00000000
_cell_angle_gamma   90.00000000
_symmetry_Int_Tables_number   1
_chemical_formula_structural   Ho6Fe11Co2P12Ru5
_chemical_formula_sum   'Ho6 Fe11 Co2 P12 Ru5'
_cell_volume   491.24715804
_cell_formula_units_Z   1
loop_
 _symmetry_equiv_pos_site_id
 _symmetry_equiv_pos_as_xyz
  1  'x, y, z'
loop_
 _atom_site_type_symbol
 _atom_site_label
 _atom_site_symmetry_multiplicity
 _atom_site_fract_x
 _atom_site_fract_y
 _atom_site_fract_z
 _atom_site_occupancy
  Ho  Ho0  1  0.000000  0.500180  0.529735  1
  Ho  Ho1  1  0.500000  0.998387  0.473606  1
  Ho  Ho2  1  0.500000  0.820887  0.206429  1
  Ho  Ho3  1  0.500000  0.182035  0.198072  1
  Ho  Ho4  1  0.000000  0.679891  0.793472  1
  Ho  Ho5  1  0.000000  0.317829  0.801437  1
  Fe  Fe6  1  0.000000  0.507007  0.986850  1
  Fe  Fe7  1  0.500000  0.993316  0.012455  1
  Fe  Fe8  1  0.000000  0.799288  0.573031  1
  Fe  Fe9  1  0.500000  0.881339  0.708473  1
  Fe  Fe10  1  0.500000  0.116962  0.715796  1
  Fe  Fe11  1  0.000000  0.618295  0.290172  1
  Fe  Fe12  1  0.000000  0.382002  0.282996  1
  Fe  Fe13  1  0.500000  0.333651  0.991653  1
  Fe  Fe14  1  0.500000  0.678927  0.993880  1
  Fe  Fe15  1  0.000000  0.165955  0.007216  1
  Fe  Fe16  1  0.000000  0.821614  0.005784  1
  Co  Co17  1  0.500000  0.501591  0.701024  1
  Co  Co18  1  0.000000  0.999092  0.299281  1
  P  P19  1  0.500000  0.308580  0.623939  1
  P  P20  1  0.500000  0.695030  0.619843  1
  P  P21  1  0.000000  0.191042  0.376410  1
  P  P22  1  0.000000  0.811524  0.385029  1
  P  P23  1  0.500000  0.501538  0.884473  1
  P  P24  1  0.000000  0.998861  0.115216  1
  P  P25  1  0.500000  0.850016  0.885390  1
  P  P26  1  0.500000  0.153521  0.898915  1
  P  P27  1  0.000000  0.650488  0.114102  1
  P  P28  1  0.000000  0.345965  0.099663  1
  P  P29  1  0.500000  0.499650  0.337352  1
  P  P30  1  0.000000  0.995475  0.659526  1
  Ru  Ru31  1  0.500000  0.300233  0.426518  1
  Ru  Ru32  1  0.500000  0.701291  0.430600  1
  Ru  Ru33  1  0.000000  0.199035  0.573507  1
  Ru  Ru34  1  0.500000  0.504634  0.149889  1
  Ru  Ru35  1  0.000000  0.994870  0.848267  1
