# generated using pymatgen
data_Th5OsPb3
_symmetry_space_group_name_H-M   'P 1'
_cell_length_a   6.54143000
_cell_length_b   9.75322281
_cell_length_c   9.75401500
_cell_angle_alpha   119.99731786
_cell_angle_beta   89.99992993
_cell_angle_gamma   90.00014077
_symmetry_Int_Tables_number   1
_chemical_formula_structural   Th5OsPb3
_chemical_formula_sum   'Th10 Os2 Pb6'
_cell_volume   538.94771135
_cell_formula_units_Z   2
loop_
 _symmetry_equiv_pos_site_id
 _symmetry_equiv_pos_as_xyz
  1  'x, y, z'
loop_
 _atom_site_type_symbol
 _atom_site_label
 _atom_site_symmetry_multiplicity
 _atom_site_fract_x
 _atom_site_fract_y
 _atom_site_fract_z
 _atom_site_occupancy
  Th  Th0  1  0.499812  0.333371  0.666745  1
  Th  Th1  1  0.499812  0.666627  0.333255  1
  Th  Th2  1  0.000197  0.666632  0.333261  1
  Th  Th3  1  0.000197  0.333372  0.666739  1
  Th  Th4  1  0.749973  0.243796  0.000000  1
  Th  Th5  1  0.749984  0.756209  0.756045  1
  Th  Th6  1  0.749984  0.000164  0.243955  1
  Th  Th7  1  0.250002  0.756094  0.000000  1
  Th  Th8  1  0.250021  0.243896  0.244037  1
  Th  Th9  1  0.250021  0.999859  0.755963  1
  Os  Os10  1  0.500023  0.999975  0.000000  1
  Os  Os11  1  0.999971  0.999983  0.000000  1
  Pb  Pb12  1  0.750000  0.602543  0.000000  1
  Pb  Pb13  1  0.750000  0.397214  0.397301  1
  Pb  Pb14  1  0.750000  0.999915  0.602699  1
  Pb  Pb15  1  0.249994  0.397402  0.000000  1
  Pb  Pb16  1  0.250004  0.602867  0.602785  1
  Pb  Pb17  1  0.250004  0.000082  0.397215  1
