# generated using pymatgen
data_Na4YbUS6
_symmetry_space_group_name_H-M   'P 1'
_cell_length_a   6.96485000
_cell_length_b   6.96485040
_cell_length_c   6.97312263
_cell_angle_alpha   80.31634840
_cell_angle_beta   80.31635370
_cell_angle_gamma   119.99495164
_symmetry_Int_Tables_number   1
_chemical_formula_structural   Na4YbUS6
_chemical_formula_sum   'Na4 Yb1 U1 S6'
_cell_volume   275.88403936
_cell_formula_units_Z   1
loop_
 _symmetry_equiv_pos_site_id
 _symmetry_equiv_pos_as_xyz
  1  'x, y, z'
loop_
 _atom_site_type_symbol
 _atom_site_label
 _atom_site_symmetry_multiplicity
 _atom_site_fract_x
 _atom_site_fract_y
 _atom_site_fract_z
 _atom_site_occupancy
  Na  Na0  1  0.000058  0.999942  0.000000  1
  Na  Na1  1  0.500823  0.499177  0.500000  1
  Na  Na2  1  0.838306  0.161694  0.500000  1
  Na  Na3  1  0.160388  0.839612  0.500000  1
  Yb  Yb4  1  0.666682  0.333318  0.000000  1
  U  U5  1  0.332898  0.667102  0.000000  1
  S  S6  1  0.267661  0.291512  0.226936  1
  S  S7  1  0.418957  0.050929  0.772689  1
  S  S8  1  0.101300  0.444630  0.777586  1
  S  S9  1  0.708488  0.732339  0.773064  1
  S  S10  1  0.555370  0.898700  0.222414  1
  S  S11  1  0.949071  0.581043  0.227311  1
