# generated using pymatgen
data_AcAl2SiPd
_symmetry_space_group_name_H-M   'P 1'
_cell_length_a   4.38684231
_cell_length_b   4.38684282
_cell_length_c   6.23097400
_cell_angle_alpha   69.38914430
_cell_angle_beta   69.38914183
_cell_angle_gamma   89.99998546
_symmetry_Int_Tables_number   1
_chemical_formula_structural   AcAl2SiPd
_chemical_formula_sum   'Ac1 Al2 Si1 Pd1'
_cell_volume   103.99601075
_cell_formula_units_Z   1
loop_
 _symmetry_equiv_pos_site_id
 _symmetry_equiv_pos_as_xyz
  1  'x, y, z'
loop_
 _atom_site_type_symbol
 _atom_site_label
 _atom_site_symmetry_multiplicity
 _atom_site_fract_x
 _atom_site_fract_y
 _atom_site_fract_z
 _atom_site_occupancy
  Ac  Ac0  1  0.984292  0.984293  0.030321  1
  Al  Al1  1  0.744927  0.244845  0.510915  1
  Al  Al2  1  0.244845  0.744927  0.510915  1
  Si  Si3  1  0.396793  0.396793  0.205546  1
  Pd  Pd4  1  0.629143  0.629143  0.742305  1
