# generated using pymatgen
data_Yb4EuSb3
_symmetry_space_group_name_H-M   'P 1'
_cell_length_a   9.16225086
_cell_length_b   9.16225163
_cell_length_c   6.96993100
_cell_angle_alpha   90.00000000
_cell_angle_beta   90.00000000
_cell_angle_gamma   119.83188354
_symmetry_Int_Tables_number   1
_chemical_formula_structural   Yb4EuSb3
_chemical_formula_sum   'Yb8 Eu2 Sb6'
_cell_volume   507.57091965
_cell_formula_units_Z   2
loop_
 _symmetry_equiv_pos_site_id
 _symmetry_equiv_pos_as_xyz
  1  'x, y, z'
loop_
 _atom_site_type_symbol
 _atom_site_label
 _atom_site_symmetry_multiplicity
 _atom_site_fract_x
 _atom_site_fract_y
 _atom_site_fract_z
 _atom_site_occupancy
  Yb  Yb0  1  0.665902  0.333172  0.499764  1
  Yb  Yb1  1  0.333172  0.665902  0.499764  1
  Yb  Yb2  1  0.333172  0.665902  0.000236  1
  Yb  Yb3  1  0.665902  0.333172  0.000236  1
  Yb  Yb4  1  0.743805  0.743805  0.250000  1
  Yb  Yb5  1  0.255915  0.000454  0.250000  1
  Yb  Yb6  1  0.000454  0.255915  0.250000  1
  Yb  Yb7  1  0.255299  0.255299  0.750000  1
  Eu  Eu8  1  0.747203  0.999771  0.750000  1
  Eu  Eu9  1  0.999771  0.747203  0.750000  1
  Sb  Sb10  1  0.388422  0.388422  0.250000  1
  Sb  Sb11  1  0.611590  0.000394  0.250000  1
  Sb  Sb12  1  0.000394  0.611590  0.250000  1
  Sb  Sb13  1  0.605182  0.605182  0.750000  1
  Sb  Sb14  1  0.390672  0.003143  0.750000  1
  Sb  Sb15  1  0.003143  0.390672  0.750000  1
