# generated using pymatgen
data_RbLa(TeO3)2
_symmetry_space_group_name_H-M   'P 1'
_cell_length_a   6.14459200
_cell_length_b   8.81386700
_cell_length_c   14.00441500
_cell_angle_alpha   90.00000000
_cell_angle_beta   90.00000000
_cell_angle_gamma   90.00000000
_symmetry_Int_Tables_number   1
_chemical_formula_structural   RbLa(TeO3)2
_chemical_formula_sum   'Rb4 La4 Te8 O24'
_cell_volume   758.44573908
_cell_formula_units_Z   4
loop_
 _symmetry_equiv_pos_site_id
 _symmetry_equiv_pos_as_xyz
  1  'x, y, z'
loop_
 _atom_site_type_symbol
 _atom_site_label
 _atom_site_symmetry_multiplicity
 _atom_site_fract_x
 _atom_site_fract_y
 _atom_site_fract_z
 _atom_site_occupancy
  Rb  Rb0  1  0.250000  0.009990  0.635991  1
  Rb  Rb1  1  0.250000  0.490010  0.135991  1
  Rb  Rb2  1  0.750000  0.990010  0.364009  1
  Rb  Rb3  1  0.750000  0.509990  0.864009  1
  La  La4  1  0.250000  0.787971  0.914391  1
  La  La5  1  0.250000  0.712029  0.414391  1
  La  La6  1  0.750000  0.212029  0.085609  1
  La  La7  1  0.750000  0.287971  0.585609  1
  Te  Te8  1  0.750000  0.004127  0.804134  1
  Te  Te9  1  0.750000  0.495873  0.304134  1
  Te  Te10  1  0.250000  0.995873  0.195866  1
  Te  Te11  1  0.250000  0.504127  0.695866  1
  Te  Te12  1  0.750000  0.724764  0.585259  1
  Te  Te13  1  0.750000  0.775236  0.085259  1
  Te  Te14  1  0.250000  0.275236  0.414741  1
  Te  Te15  1  0.250000  0.224764  0.914741  1
  O  O16  1  0.984782  0.867465  0.798972  1
  O  O17  1  0.515218  0.632535  0.298972  1
  O  O18  1  0.484782  0.132535  0.201028  1
  O  O19  1  0.015218  0.367465  0.701028  1
  O  O20  1  0.015218  0.132535  0.201028  1
  O  O21  1  0.484782  0.367465  0.701028  1
  O  O22  1  0.515218  0.867465  0.798972  1
  O  O23  1  0.984782  0.632535  0.298972  1
  O  O24  1  0.750000  0.052395  0.672639  1
  O  O25  1  0.750000  0.447605  0.172639  1
  O  O26  1  0.250000  0.947605  0.327361  1
  O  O27  1  0.250000  0.552395  0.827361  1
  O  O28  1  0.983681  0.814562  0.519866  1
  O  O29  1  0.516319  0.685438  0.019866  1
  O  O30  1  0.483681  0.185438  0.480134  1
  O  O31  1  0.016319  0.314562  0.980134  1
  O  O32  1  0.016319  0.185438  0.480134  1
  O  O33  1  0.483681  0.314562  0.980134  1
  O  O34  1  0.516319  0.814562  0.519866  1
  O  O35  1  0.983681  0.685438  0.019866  1
  O  O36  1  0.750000  0.537708  0.518359  1
  O  O37  1  0.750000  0.962292  0.018359  1
  O  O38  1  0.250000  0.462292  0.481641  1
  O  O39  1  0.250000  0.037708  0.981641  1
