# generated using pymatgen
data_Ce2Mg2As6Ru7
_symmetry_space_group_name_H-M   'P 1'
_cell_length_a   7.11410376
_cell_length_b   7.22936003
_cell_length_c   7.11517902
_cell_angle_alpha   109.42028562
_cell_angle_beta   108.93549421
_cell_angle_gamma   109.40830376
_symmetry_Int_Tables_number   1
_chemical_formula_structural   Ce2Mg2As6Ru7
_chemical_formula_sum   'Ce2 Mg2 As6 Ru7'
_cell_volume   283.92900646
_cell_formula_units_Z   1
loop_
 _symmetry_equiv_pos_site_id
 _symmetry_equiv_pos_as_xyz
  1  'x, y, z'
loop_
 _atom_site_type_symbol
 _atom_site_label
 _atom_site_symmetry_multiplicity
 _atom_site_fract_x
 _atom_site_fract_y
 _atom_site_fract_z
 _atom_site_occupancy
  Ce  Ce0  1  0.000000  0.000000  0.500000  1
  Ce  Ce1  1  0.500000  0.000000  0.000000  1
  Mg  Mg2  1  0.000000  0.500000  0.000000  1
  Mg  Mg3  1  0.500000  0.500000  0.500000  1
  As  As4  1  0.313234  0.000072  0.313259  1
  As  As5  1  0.008495  0.321809  0.313249  1
  As  As6  1  0.991505  0.678191  0.686751  1
  As  As7  1  0.313241  0.321878  0.008591  1
  As  As8  1  0.686759  0.678122  0.991409  1
  As  As9  1  0.686766  0.999928  0.686741  1
  Ru  Ru10  1  0.749967  0.500085  0.250114  1
  Ru  Ru11  1  0.493006  0.743856  0.250783  1
  Ru  Ru12  1  0.506994  0.256144  0.749217  1
  Ru  Ru13  1  0.749282  0.256229  0.507145  1
  Ru  Ru14  1  0.250718  0.743771  0.492855  1
  Ru  Ru15  1  0.250033  0.499915  0.749886  1
  Ru  Ru16  1  0.000000  0.000000  0.000000  1
