# generated using pymatgen
data_Ho3TmAl3ZnPt4
_symmetry_space_group_name_H-M   'P 1'
_cell_length_a   4.41710600
_cell_length_b   6.78960196
_cell_length_c   7.79382876
_cell_angle_alpha   89.58954044
_cell_angle_beta   90.00000000
_cell_angle_gamma   90.00000000
_symmetry_Int_Tables_number   1
_chemical_formula_structural   Ho3TmAl3ZnPt4
_chemical_formula_sum   'Ho3 Tm1 Al3 Zn1 Pt4'
_cell_volume   233.73397834
_cell_formula_units_Z   1
loop_
 _symmetry_equiv_pos_site_id
 _symmetry_equiv_pos_as_xyz
  1  'x, y, z'
loop_
 _atom_site_type_symbol
 _atom_site_label
 _atom_site_symmetry_multiplicity
 _atom_site_fract_x
 _atom_site_fract_y
 _atom_site_fract_z
 _atom_site_occupancy
  Ho  Ho0  1  0.250000  0.027968  0.686295  1
  Ho  Ho1  1  0.750000  0.971340  0.317191  1
  Ho  Ho2  1  0.750000  0.467915  0.178204  1
  Tm  Tm3  1  0.250000  0.526923  0.817805  1
  Al  Al4  1  0.250000  0.648892  0.438287  1
  Al  Al5  1  0.750000  0.854145  0.937231  1
  Al  Al6  1  0.750000  0.356414  0.559919  1
  Zn  Zn7  1  0.250000  0.150479  0.066468  1
  Pt  Pt8  1  0.250000  0.274013  0.391237  1
  Pt  Pt9  1  0.250000  0.761023  0.114491  1
  Pt  Pt10  1  0.750000  0.728517  0.618970  1
  Pt  Pt11  1  0.750000  0.232372  0.873901  1
