# generated using pymatgen
data_Dy2YPa(Ga3Ir)6
_symmetry_space_group_name_H-M   'P 1'
_cell_length_a   7.62736003
_cell_length_b   7.61691182
_cell_length_c   9.45738000
_cell_angle_alpha   90.00000000
_cell_angle_beta   90.00000000
_cell_angle_gamma   119.89032893
_symmetry_Int_Tables_number   1
_chemical_formula_structural   Dy2YPa(Ga3Ir)6
_chemical_formula_sum   'Dy2 Y1 Pa1 Ga18 Ir6'
_cell_volume   476.35807633
_cell_formula_units_Z   1
loop_
 _symmetry_equiv_pos_site_id
 _symmetry_equiv_pos_as_xyz
  1  'x, y, z'
loop_
 _atom_site_type_symbol
 _atom_site_label
 _atom_site_symmetry_multiplicity
 _atom_site_fract_x
 _atom_site_fract_y
 _atom_site_fract_z
 _atom_site_occupancy
  Dy  Dy0  1  0.003959  0.331276  0.750000  1
  Dy  Dy1  1  0.669645  0.996368  0.250000  1
  Y  Y2  1  0.330962  0.003056  0.750000  1
  Pa  Pa3  1  0.997577  0.669178  0.250000  1
  Ga  Ga4  1  0.130511  0.130127  0.250000  1
  Ga  Ga5  1  0.872614  0.873743  0.750000  1
  Ga  Ga6  1  0.998697  0.330929  0.080071  1
  Ga  Ga7  1  0.001012  0.665414  0.917017  1
  Ga  Ga8  1  0.001012  0.665414  0.582983  1
  Ga  Ga9  1  0.338242  0.002430  0.419703  1
  Ga  Ga10  1  0.998697  0.330929  0.419929  1
  Ga  Ga11  1  0.665784  0.001673  0.581009  1
  Ga  Ga12  1  0.665784  0.001673  0.918991  1
  Ga  Ga13  1  0.338242  0.002430  0.080297  1
  Ga  Ga14  1  0.331559  0.331597  0.567436  1
  Ga  Ga15  1  0.664098  0.667580  0.434437  1
  Ga  Ga16  1  0.664098  0.667580  0.065563  1
  Ga  Ga17  1  0.331559  0.331597  0.932564  1
  Ga  Ga18  1  0.339106  0.544618  0.250000  1
  Ga  Ga19  1  0.660447  0.452801  0.750000  1
  Ga  Ga20  1  0.544410  0.340239  0.250000  1
  Ga  Ga21  1  0.452908  0.661204  0.750000  1
  Ir  Ir22  1  0.674001  0.331632  0.002105  1
  Ir  Ir23  1  0.326130  0.671115  0.002119  1
  Ir  Ir24  1  0.326130  0.671115  0.497881  1
  Ir  Ir25  1  0.674001  0.331632  0.497895  1
  Ir  Ir26  1  0.999405  0.996326  0.002651  1
  Ir  Ir27  1  0.999405  0.996326  0.497349  1
