# generated using pymatgen
data_Sr2CrBrO4
_symmetry_space_group_name_H-M   'P 1'
_cell_length_a   6.63377300
_cell_length_b   7.61444000
_cell_length_c   11.75431100
_cell_angle_alpha   90.00000000
_cell_angle_beta   90.00000000
_cell_angle_gamma   90.00000000
_symmetry_Int_Tables_number   1
_chemical_formula_structural   Sr2CrBrO4
_chemical_formula_sum   'Sr8 Cr4 Br4 O16'
_cell_volume   593.73924041
_cell_formula_units_Z   4
loop_
 _symmetry_equiv_pos_site_id
 _symmetry_equiv_pos_as_xyz
  1  'x, y, z'
loop_
 _atom_site_type_symbol
 _atom_site_label
 _atom_site_symmetry_multiplicity
 _atom_site_fract_x
 _atom_site_fract_y
 _atom_site_fract_z
 _atom_site_occupancy
  Sr  Sr0  1  0.118860  0.467985  0.250000  1
  Sr  Sr1  1  0.625882  0.250000  0.000000  1
  Sr  Sr2  1  0.374118  0.750000  0.000000  1
  Sr  Sr3  1  0.625882  0.250000  0.500000  1
  Sr  Sr4  1  0.118860  0.032015  0.750000  1
  Sr  Sr5  1  0.881140  0.967985  0.250000  1
  Sr  Sr6  1  0.881140  0.532015  0.750000  1
  Sr  Sr7  1  0.374118  0.750000  0.500000  1
  Cr  Cr8  1  0.873279  0.750000  0.500000  1
  Cr  Cr9  1  0.126721  0.250000  0.000000  1
  Cr  Cr10  1  0.873279  0.750000  0.000000  1
  Cr  Cr11  1  0.126721  0.250000  0.500000  1
  Br  Br12  1  0.528141  0.833674  0.750000  1
  Br  Br13  1  0.471859  0.333674  0.750000  1
  Br  Br14  1  0.528141  0.666326  0.250000  1
  Br  Br15  1  0.471859  0.166326  0.250000  1
  O  O16  1  0.032893  0.731823  0.383045  1
  O  O17  1  0.967107  0.268177  0.616955  1
  O  O18  1  0.283505  0.077097  0.967869  1
  O  O19  1  0.967107  0.231823  0.116955  1
  O  O20  1  0.716495  0.577097  0.967869  1
  O  O21  1  0.716495  0.922903  0.032131  1
  O  O22  1  0.032893  0.768177  0.616955  1
  O  O23  1  0.967107  0.231823  0.383045  1
  O  O24  1  0.716495  0.922903  0.467869  1
  O  O25  1  0.967107  0.268177  0.883045  1
  O  O26  1  0.283505  0.422903  0.032131  1
  O  O27  1  0.716495  0.577097  0.532131  1
  O  O28  1  0.283505  0.422903  0.467869  1
  O  O29  1  0.032893  0.731823  0.116955  1
  O  O30  1  0.283505  0.077097  0.532131  1
  O  O31  1  0.032893  0.768177  0.883045  1
