# generated using pymatgen
data_Tb8Dy2Ir5Au
_symmetry_space_group_name_H-M   'P 1'
_cell_length_a   11.09349105
_cell_length_b   11.03341000
_cell_length_c   6.35104009
_cell_angle_alpha   90.00000000
_cell_angle_beta   89.90603181
_cell_angle_gamma   90.00000000
_symmetry_Int_Tables_number   1
_chemical_formula_structural   Tb8Dy2Ir5Au
_chemical_formula_sum   'Tb16 Dy4 Ir10 Au2'
_cell_volume   777.36013306
_cell_formula_units_Z   2
loop_
 _symmetry_equiv_pos_site_id
 _symmetry_equiv_pos_as_xyz
  1  'x, y, z'
loop_
 _atom_site_type_symbol
 _atom_site_label
 _atom_site_symmetry_multiplicity
 _atom_site_fract_x
 _atom_site_fract_y
 _atom_site_fract_z
 _atom_site_occupancy
  Tb  Tb0  1  0.291643  0.088906  0.373557  1
  Tb  Tb1  1  0.291643  0.911094  0.873557  1
  Tb  Tb2  1  0.698210  0.092317  0.866357  1
  Tb  Tb3  1  0.698210  0.907683  0.366357  1
  Tb  Tb4  1  0.578454  0.789589  0.878722  1
  Tb  Tb5  1  0.578454  0.210411  0.378722  1
  Tb  Tb6  1  0.408169  0.790805  0.378089  1
  Tb  Tb7  1  0.408169  0.209195  0.878089  1
  Tb  Tb8  1  0.210065  0.411160  0.620065  1
  Tb  Tb9  1  0.210065  0.588840  0.120065  1
  Tb  Tb10  1  0.789077  0.419394  0.121861  1
  Tb  Tb11  1  0.789077  0.580606  0.621861  1
  Tb  Tb12  1  0.916909  0.705469  0.138221  1
  Tb  Tb13  1  0.916909  0.294531  0.638221  1
  Tb  Tb14  1  0.096359  0.702718  0.622773  1
  Tb  Tb15  1  0.096359  0.297282  0.122773  1
  Dy  Dy16  1  0.009354  0.997271  0.499879  1
  Dy  Dy17  1  0.009354  0.002729  0.999879  1
  Dy  Dy18  1  0.499609  0.498914  0.000339  1
  Dy  Dy19  1  0.499609  0.501086  0.500339  1
  Ir  Ir20  1  0.153417  0.153303  0.750666  1
  Ir  Ir21  1  0.153417  0.846697  0.250666  1
  Ir  Ir22  1  0.655389  0.346991  0.748065  1
  Ir  Ir23  1  0.655389  0.653009  0.248065  1
  Ir  Ir24  1  0.348146  0.346532  0.251506  1
  Ir  Ir25  1  0.348146  0.653468  0.751506  1
  Ir  Ir26  1  0.499788  0.999573  0.120936  1
  Ir  Ir27  1  0.499788  0.000427  0.620936  1
  Ir  Ir28  1  0.999519  0.501136  0.878997  1
  Ir  Ir29  1  0.999519  0.498864  0.378997  1
  Au  Au30  1  0.845893  0.154704  0.249965  1
  Au  Au31  1  0.845893  0.845296  0.749965  1
