# generated using pymatgen
data_Ho4PI6
_symmetry_space_group_name_H-M   'P 1'
_cell_length_a   4.15177600
_cell_length_b   13.77193200
_cell_length_c   14.52385700
_cell_angle_alpha   90.00000000
_cell_angle_beta   90.00000000
_cell_angle_gamma   90.00000000
_symmetry_Int_Tables_number   1
_chemical_formula_structural   Ho4PI6
_chemical_formula_sum   'Ho8 P2 I12'
_cell_volume   830.44475788
_cell_formula_units_Z   2
loop_
 _symmetry_equiv_pos_site_id
 _symmetry_equiv_pos_as_xyz
  1  'x, y, z'
loop_
 _atom_site_type_symbol
 _atom_site_label
 _atom_site_symmetry_multiplicity
 _atom_site_fract_x
 _atom_site_fract_y
 _atom_site_fract_z
 _atom_site_occupancy
  Ho  Ho0  1  0.500000  0.113023  0.350037  1
  Ho  Ho1  1  0.500000  0.886977  0.649963  1
  Ho  Ho2  1  0.500000  0.613023  0.149963  1
  Ho  Ho3  1  0.500000  0.386977  0.850037  1
  Ho  Ho4  1  0.000000  0.107412  0.571880  1
  Ho  Ho5  1  0.000000  0.892588  0.428120  1
  Ho  Ho6  1  0.000000  0.607412  0.928120  1
  Ho  Ho7  1  0.000000  0.392588  0.071880  1
  P  P8  1  0.500000  0.000000  0.500000  1
  P  P9  1  0.500000  0.500000  0.000000  1
  I  I10  1  0.500000  0.246596  0.161083  1
  I  I11  1  0.500000  0.753404  0.838917  1
  I  I12  1  0.500000  0.746596  0.338917  1
  I  I13  1  0.500000  0.253404  0.661083  1
  I  I14  1  0.000000  0.260148  0.415431  1
  I  I15  1  0.000000  0.739852  0.584569  1
  I  I16  1  0.000000  0.760148  0.084569  1
  I  I17  1  0.000000  0.239852  0.915431  1
  I  I18  1  0.000000  0.998909  0.239933  1
  I  I19  1  0.000000  0.001091  0.760067  1
  I  I20  1  0.000000  0.498909  0.260067  1
  I  I21  1  0.000000  0.501091  0.739933  1
