# generated using pymatgen
data_Ce3AlGa2Ni3
_symmetry_space_group_name_H-M   'P 1'
_cell_length_a   6.90346337
_cell_length_b   6.86152975
_cell_length_c   4.01073900
_cell_angle_alpha   90.00000000
_cell_angle_beta   90.00000000
_cell_angle_gamma   119.79926739
_symmetry_Int_Tables_number   1
_chemical_formula_structural   Ce3AlGa2Ni3
_chemical_formula_sum   'Ce3 Al1 Ga2 Ni3'
_cell_volume   164.86099364
_cell_formula_units_Z   1
loop_
 _symmetry_equiv_pos_site_id
 _symmetry_equiv_pos_as_xyz
  1  'x, y, z'
loop_
 _atom_site_type_symbol
 _atom_site_label
 _atom_site_symmetry_multiplicity
 _atom_site_fract_x
 _atom_site_fract_y
 _atom_site_fract_z
 _atom_site_occupancy
  Ce  Ce0  1  0.000000  0.580882  0.500000  1
  Ce  Ce1  1  0.575420  0.999238  0.500000  1
  Ce  Ce2  1  0.424580  0.423818  0.500000  1
  Al  Al3  1  0.000000  0.231768  0.000000  1
  Ga  Ga4  1  0.237229  0.001583  0.000000  1
  Ga  Ga5  1  0.762771  0.764354  0.000000  1
  Ni  Ni6  1  0.330322  0.662230  0.000000  1
  Ni  Ni7  1  0.669678  0.331907  0.000000  1
  Ni  Ni8  1  0.000000  0.004221  0.500000  1
