# generated using pymatgen
data_Nd8Cd2OsAu
_symmetry_space_group_name_H-M   'P 1'
_cell_length_a   10.05040779
_cell_length_b   10.05040876
_cell_length_c   10.16125900
_cell_angle_alpha   59.63447719
_cell_angle_beta   59.63447393
_cell_angle_gamma   59.32272189
_symmetry_Int_Tables_number   1
_chemical_formula_structural   Nd8Cd2OsAu
_chemical_formula_sum   'Nd16 Cd4 Os2 Au2'
_cell_volume   718.01001832
_cell_formula_units_Z   2
loop_
 _symmetry_equiv_pos_site_id
 _symmetry_equiv_pos_as_xyz
  1  'x, y, z'
loop_
 _atom_site_type_symbol
 _atom_site_label
 _atom_site_symmetry_multiplicity
 _atom_site_fract_x
 _atom_site_fract_y
 _atom_site_fract_z
 _atom_site_occupancy
  Nd  Nd0  1  0.348222  0.348222  0.364127  1
  Nd  Nd1  1  0.348222  0.348222  0.939430  1
  Nd  Nd2  1  0.341018  0.956133  0.351424  1
  Nd  Nd3  1  0.956133  0.341018  0.351424  1
  Nd  Nd4  1  0.819995  0.188739  0.192622  1
  Nd  Nd5  1  0.188739  0.819995  0.798645  1
  Nd  Nd6  1  0.188739  0.819995  0.192622  1
  Nd  Nd7  1  0.819995  0.188739  0.798645  1
  Nd  Nd8  1  0.188279  0.188279  0.811721  1
  Nd  Nd9  1  0.804948  0.804948  0.195052  1
  Nd  Nd10  1  0.936000  0.556697  0.568546  1
  Nd  Nd11  1  0.556697  0.936000  0.938755  1
  Nd  Nd12  1  0.556697  0.936000  0.568546  1
  Nd  Nd13  1  0.936000  0.556697  0.938755  1
  Nd  Nd14  1  0.562007  0.562007  0.937993  1
  Nd  Nd15  1  0.937194  0.937194  0.562806  1
  Cd  Cd16  1  0.580002  0.580002  0.579391  1
  Cd  Cd17  1  0.580002  0.580002  0.260606  1
  Cd  Cd18  1  0.581994  0.257433  0.580287  1
  Cd  Cd19  1  0.257433  0.581994  0.580287  1
  Os  Os20  1  0.145143  0.145143  0.136536  1
  Os  Os21  1  0.145143  0.145143  0.573176  1
  Au  Au22  1  0.150685  0.570710  0.139301  1
  Au  Au23  1  0.570710  0.150685  0.139301  1
