# generated using pymatgen
data_Tb2GdCCl3
_symmetry_space_group_name_H-M   'P 1'
_cell_length_a   9.30758918
_cell_length_b   9.29520545
_cell_length_c   9.33615857
_cell_angle_alpha   109.51889249
_cell_angle_beta   109.55618447
_cell_angle_gamma   109.32865228
_symmetry_Int_Tables_number   1
_chemical_formula_structural   Tb2GdCCl3
_chemical_formula_sum   'Tb8 Gd4 C4 Cl12'
_cell_volume   621.86236781
_cell_formula_units_Z   4
loop_
 _symmetry_equiv_pos_site_id
 _symmetry_equiv_pos_as_xyz
  1  'x, y, z'
loop_
 _atom_site_type_symbol
 _atom_site_label
 _atom_site_symmetry_multiplicity
 _atom_site_fract_x
 _atom_site_fract_y
 _atom_site_fract_z
 _atom_site_occupancy
  Tb  Tb0  1  0.537127  0.768249  0.018810  1
  Tb  Tb1  1  0.981923  0.250794  0.019129  1
  Tb  Tb2  1  0.768144  0.518137  0.036351  1
  Tb  Tb3  1  0.963722  0.981335  0.232172  1
  Tb  Tb4  1  0.768672  0.251029  0.232087  1
  Tb  Tb5  1  0.518461  0.535793  0.267276  1
  Tb  Tb6  1  0.248641  0.731247  0.267476  1
  Tb  Tb7  1  0.981823  0.731663  0.463205  1
  Gd  Gd8  1  0.732705  0.964868  0.481839  1
  Gd  Gd9  1  0.248964  0.516742  0.481720  1
  Gd  Gd10  1  0.517356  0.982485  0.749879  1
  Gd  Gd11  1  0.732420  0.767301  0.750063  1
  C  C12  1  0.750744  0.000425  0.001327  1
  C  C13  1  0.749618  0.749876  0.249391  1
  C  C14  1  0.999679  0.499718  0.249447  1
  C  C15  1  0.499633  0.749204  0.498881  1
  Cl  Cl16  1  0.492686  0.006291  0.248914  1
  Cl  Cl17  1  0.256346  0.242644  0.248911  1
  Cl  Cl18  1  0.749864  0.492922  0.505633  1
  Cl  Cl19  1  0.255744  0.012957  0.505509  1
  Cl  Cl20  1  0.006364  0.256477  0.512730  1
  Cl  Cl21  1  0.751300  0.258405  0.744529  1
  Cl  Cl22  1  0.493372  0.486309  0.744449  1
  Cl  Cl23  1  0.014447  0.007221  0.757203  1
  Cl  Cl24  1  0.242429  0.749759  0.757136  1
  Cl  Cl25  1  0.243506  0.493653  0.987148  1
  Cl  Cl26  1  0.487173  0.244267  0.994424  1
  Cl  Cl27  1  0.007125  0.750218  0.994351  1
