# generated using pymatgen
data_Ac20Si11Pb
_symmetry_space_group_name_H-M   'P 1'
_cell_length_a   8.19472500
_cell_length_b   8.19472500
_cell_length_c   15.66875800
_cell_angle_alpha   90.00000000
_cell_angle_beta   90.00000000
_cell_angle_gamma   90.00000000
_symmetry_Int_Tables_number   1
_chemical_formula_structural   Ac20Si11Pb
_chemical_formula_sum   'Ac20 Si11 Pb1'
_cell_volume   1052.21221966
_cell_formula_units_Z   1
loop_
 _symmetry_equiv_pos_site_id
 _symmetry_equiv_pos_as_xyz
  1  'x, y, z'
loop_
 _atom_site_type_symbol
 _atom_site_label
 _atom_site_symmetry_multiplicity
 _atom_site_fract_x
 _atom_site_fract_y
 _atom_site_fract_z
 _atom_site_occupancy
  Ac  Ac0  1  0.340123  0.690171  0.112631  1
  Ac  Ac1  1  0.190171  0.159877  0.112631  1
  Ac  Ac2  1  0.500000  0.000000  0.715418  1
  Ac  Ac3  1  0.316767  0.668771  0.394949  1
  Ac  Ac4  1  0.658185  0.691859  0.887977  1
  Ac  Ac5  1  0.168771  0.183233  0.394949  1
  Ac  Ac6  1  0.683233  0.331229  0.394949  1
  Ac  Ac7  1  0.165682  0.814054  0.604656  1
  Ac  Ac8  1  0.341815  0.308141  0.887977  1
  Ac  Ac9  1  0.191859  0.841815  0.887977  1
  Ac  Ac10  1  0.500000  0.000000  0.281438  1
  Ac  Ac11  1  0.834318  0.185946  0.604656  1
  Ac  Ac12  1  0.314054  0.334318  0.604656  1
  Ac  Ac13  1  0.831229  0.816767  0.394949  1
  Ac  Ac14  1  0.808141  0.158185  0.887977  1
  Ac  Ac15  1  0.809829  0.840123  0.112631  1
  Ac  Ac16  1  0.000000  0.500000  0.232789  1
  Ac  Ac17  1  0.000000  0.500000  0.771824  1
  Ac  Ac18  1  0.659877  0.309829  0.112631  1
  Ac  Ac19  1  0.685946  0.665682  0.604656  1
  Si  Si20  1  0.112002  0.112770  0.745891  1
  Si  Si21  1  0.387230  0.612002  0.745891  1
  Si  Si22  1  0.612830  0.612097  0.254090  1
  Si  Si23  1  0.500000  0.000000  0.002156  1
  Si  Si24  1  0.112097  0.887170  0.254090  1
  Si  Si25  1  0.612770  0.387998  0.745891  1
  Si  Si26  1  0.887998  0.887230  0.745891  1
  Si  Si27  1  0.387170  0.387903  0.254090  1
  Si  Si28  1  0.887903  0.112830  0.254090  1
  Si  Si29  1  0.500000  0.000000  0.498658  1
  Si  Si30  1  0.000000  0.500000  0.495624  1
  Pb  Pb31  1  0.000000  0.500000  0.001321  1
