# generated using pymatgen
data_Tb3Dy3Tm10(CdPt)4
_symmetry_space_group_name_H-M   'P 1'
_cell_length_a   9.61048880
_cell_length_b   9.60982457
_cell_length_c   9.61265926
_cell_angle_alpha   59.99466474
_cell_angle_beta   60.01860680
_cell_angle_gamma   60.01705655
_symmetry_Int_Tables_number   1
_chemical_formula_structural   Tb3Dy3Tm10(CdPt)4
_chemical_formula_sum   'Tb3 Dy3 Tm10 Cd4 Pt4'
_cell_volume   627.89780295
_cell_formula_units_Z   1
loop_
 _symmetry_equiv_pos_site_id
 _symmetry_equiv_pos_as_xyz
  1  'x, y, z'
loop_
 _atom_site_type_symbol
 _atom_site_label
 _atom_site_symmetry_multiplicity
 _atom_site_fract_x
 _atom_site_fract_y
 _atom_site_fract_z
 _atom_site_occupancy
  Tb  Tb0  1  0.936364  0.563904  0.563776  1
  Tb  Tb1  1  0.563774  0.935955  0.936365  1
  Tb  Tb2  1  0.564332  0.935667  0.564333  1
  Dy  Dy3  1  0.937004  0.562997  0.937003  1
  Dy  Dy4  1  0.563396  0.563438  0.936769  1
  Dy  Dy5  1  0.936769  0.936397  0.563396  1
  Tm  Tm6  1  0.351903  0.350909  0.351735  1
  Tm  Tm7  1  0.352832  0.352063  0.943190  1
  Tm  Tm8  1  0.351736  0.945454  0.351902  1
  Tm  Tm9  1  0.943188  0.351915  0.352833  1
  Tm  Tm10  1  0.811502  0.189259  0.188195  1
  Tm  Tm11  1  0.188195  0.811045  0.811502  1
  Tm  Tm12  1  0.189018  0.810984  0.189017  1
  Tm  Tm13  1  0.811538  0.188461  0.811538  1
  Tm  Tm14  1  0.188229  0.189280  0.811479  1
  Tm  Tm15  1  0.811480  0.811015  0.188227  1
  Cd  Cd16  1  0.581038  0.581308  0.581340  1
  Cd  Cd17  1  0.581376  0.581401  0.255599  1
  Cd  Cd18  1  0.581340  0.256313  0.581038  1
  Cd  Cd19  1  0.255598  0.581624  0.581376  1
  Pt  Pt20  1  0.142815  0.143716  0.143066  1
  Pt  Pt21  1  0.142501  0.143105  0.571007  1
  Pt  Pt22  1  0.143067  0.570403  0.142816  1
  Pt  Pt23  1  0.571007  0.143389  0.142501  1
