# generated using pymatgen
data_Nd4Ho12Cd4IrPd3
_symmetry_space_group_name_H-M   'P 1'
_cell_length_a   9.73214397
_cell_length_b   9.68289947
_cell_length_c   9.68290064
_cell_angle_alpha   60.32863583
_cell_angle_beta   60.13100831
_cell_angle_gamma   60.13100778
_symmetry_Int_Tables_number   1
_chemical_formula_structural   Nd4Ho12Cd4IrPd3
_chemical_formula_sum   'Nd4 Ho12 Cd4 Ir1 Pd3'
_cell_volume   648.08638719
_cell_formula_units_Z   1
loop_
 _symmetry_equiv_pos_site_id
 _symmetry_equiv_pos_as_xyz
  1  'x, y, z'
loop_
 _atom_site_type_symbol
 _atom_site_label
 _atom_site_symmetry_multiplicity
 _atom_site_fract_x
 _atom_site_fract_y
 _atom_site_fract_z
 _atom_site_occupancy
  Nd  Nd0  1  0.567500  0.934160  0.565020  1
  Nd  Nd1  1  0.937724  0.562056  0.933974  1
  Nd  Nd2  1  0.567500  0.565020  0.934160  1
  Nd  Nd3  1  0.937724  0.933974  0.562056  1
  Ho  Ho4  1  0.355292  0.345531  0.345531  1
  Ho  Ho5  1  0.356184  0.352641  0.944632  1
  Ho  Ho6  1  0.356184  0.944632  0.352641  1
  Ho  Ho7  1  0.932511  0.356533  0.356533  1
  Ho  Ho8  1  0.807743  0.187393  0.187393  1
  Ho  Ho9  1  0.188155  0.812354  0.812354  1
  Ho  Ho10  1  0.191573  0.811966  0.187796  1
  Ho  Ho11  1  0.808796  0.186630  0.816239  1
  Ho  Ho12  1  0.191573  0.187796  0.811966  1
  Ho  Ho13  1  0.808796  0.816239  0.186630  1
  Ho  Ho14  1  0.943599  0.557915  0.557915  1
  Ho  Ho15  1  0.560499  0.943699  0.943699  1
  Cd  Cd16  1  0.583488  0.578674  0.578674  1
  Cd  Cd17  1  0.576660  0.584618  0.257735  1
  Cd  Cd18  1  0.576660  0.257735  0.584618  1
  Cd  Cd19  1  0.259624  0.578348  0.578348  1
  Ir  Ir20  1  0.570685  0.139198  0.139198  1
  Pd  Pd21  1  0.143347  0.145966  0.145966  1
  Pd  Pd22  1  0.139091  0.147824  0.569092  1
  Pd  Pd23  1  0.139091  0.569092  0.147824  1
