# generated using pymatgen
data_Er3TaSn2(B2Ru5)2
_symmetry_space_group_name_H-M   'P 1'
_cell_length_a   9.68395245
_cell_length_b   9.68395266
_cell_length_c   3.10503300
_cell_angle_alpha   90.00000000
_cell_angle_beta   90.00000000
_cell_angle_gamma   90.90408010
_symmetry_Int_Tables_number   1
_chemical_formula_structural   Er3TaSn2(B2Ru5)2
_chemical_formula_sum   'Er3 Ta1 Sn2 B4 Ru10'
_cell_volume   291.15044496
_cell_formula_units_Z   1
loop_
 _symmetry_equiv_pos_site_id
 _symmetry_equiv_pos_as_xyz
  1  'x, y, z'
loop_
 _atom_site_type_symbol
 _atom_site_label
 _atom_site_symmetry_multiplicity
 _atom_site_fract_x
 _atom_site_fract_y
 _atom_site_fract_z
 _atom_site_occupancy
  Er  Er0  1  0.824083  0.674967  0.000000  1
  Er  Er1  1  0.174967  0.324083  0.000000  1
  Er  Er2  1  0.325151  0.825151  0.000000  1
  Ta  Ta3  1  0.673866  0.173866  0.000000  1
  Sn  Sn4  1  0.498430  0.506118  0.000000  1
  Sn  Sn5  1  0.006118  0.998430  0.000000  1
  B  B6  1  0.623990  0.882906  0.000000  1
  B  B7  1  0.382906  0.123990  0.000000  1
  B  B8  1  0.117933  0.617933  0.000000  1
  B  B9  1  0.875310  0.375310  0.000000  1
  Ru  Ru10  1  0.572044  0.728031  0.500000  1
  Ru  Ru11  1  0.445678  0.277234  0.500000  1
  Ru  Ru12  1  0.069849  0.774685  0.500000  1
  Ru  Ru13  1  0.911749  0.214249  0.500000  1
  Ru  Ru14  1  0.274685  0.569849  0.500000  1
  Ru  Ru15  1  0.714249  0.411749  0.500000  1
  Ru  Ru16  1  0.228031  0.072044  0.500000  1
  Ru  Ru17  1  0.777234  0.945678  0.500000  1
  Ru  Ru18  1  0.508959  0.008959  0.500000  1
  Ru  Ru19  1  0.994768  0.494768  0.500000  1
