# generated using pymatgen
data_Rb6YTmBr12
_symmetry_space_group_name_H-M   'P 1'
_cell_length_a   9.83524400
_cell_length_b   9.84974635
_cell_length_c   8.13523600
_cell_angle_alpha   90.00000000
_cell_angle_beta   90.00000000
_cell_angle_gamma   89.84649553
_symmetry_Int_Tables_number   1
_chemical_formula_structural   Rb6YTmBr12
_chemical_formula_sum   'Rb6 Y1 Tm1 Br12'
_cell_volume   788.09538244
_cell_formula_units_Z   1
loop_
 _symmetry_equiv_pos_site_id
 _symmetry_equiv_pos_as_xyz
  1  'x, y, z'
loop_
 _atom_site_type_symbol
 _atom_site_label
 _atom_site_symmetry_multiplicity
 _atom_site_fract_x
 _atom_site_fract_y
 _atom_site_fract_z
 _atom_site_occupancy
  Rb  Rb0  1  0.000000  0.000000  0.500000  1
  Rb  Rb1  1  0.000000  0.000000  0.000000  1
  Rb  Rb2  1  0.236285  0.578043  0.500000  1
  Rb  Rb3  1  0.763715  0.421957  0.500000  1
  Rb  Rb4  1  0.420327  0.239732  0.000000  1
  Rb  Rb5  1  0.579673  0.760268  0.000000  1
  Y  Y6  1  0.500000  0.000000  0.500000  1
  Tm  Tm7  1  0.000000  0.500000  0.000000  1
  Br  Br8  1  0.697724  0.050599  0.745042  1
  Br  Br9  1  0.302276  0.949401  0.745042  1
  Br  Br10  1  0.950638  0.694950  0.241905  1
  Br  Br11  1  0.049362  0.305050  0.241905  1
  Br  Br12  1  0.302276  0.949401  0.254958  1
  Br  Br13  1  0.697724  0.050599  0.254958  1
  Br  Br14  1  0.049362  0.305050  0.758095  1
  Br  Br15  1  0.950638  0.694950  0.758095  1
  Br  Br16  1  0.562945  0.720922  0.500000  1
  Br  Br17  1  0.437055  0.279078  0.500000  1
  Br  Br18  1  0.275604  0.562220  0.000000  1
  Br  Br19  1  0.724396  0.437780  0.000000  1
