# generated using pymatgen
data_Er3ScTl5
_symmetry_space_group_name_H-M   'P 1'
_cell_length_a   8.38188937
_cell_length_b   8.38188848
_cell_length_c   8.38188893
_cell_angle_alpha   66.39496934
_cell_angle_beta   66.39497090
_cell_angle_gamma   66.39497489
_symmetry_Int_Tables_number   1
_chemical_formula_structural   Er3ScTl5
_chemical_formula_sum   'Er6 Sc2 Tl10'
_cell_volume   473.81176428
_cell_formula_units_Z   2
loop_
 _symmetry_equiv_pos_site_id
 _symmetry_equiv_pos_as_xyz
  1  'x, y, z'
loop_
 _atom_site_type_symbol
 _atom_site_label
 _atom_site_symmetry_multiplicity
 _atom_site_fract_x
 _atom_site_fract_y
 _atom_site_fract_z
 _atom_site_occupancy
  Er  Er0  1  0.890511  0.189184  0.615119  1
  Er  Er1  1  0.615119  0.890511  0.189184  1
  Er  Er2  1  0.189184  0.615119  0.890511  1
  Er  Er3  1  0.109489  0.810816  0.384881  1
  Er  Er4  1  0.384881  0.109489  0.810816  1
  Er  Er5  1  0.810816  0.384881  0.109489  1
  Sc  Sc6  1  0.656394  0.656394  0.656394  1
  Sc  Sc7  1  0.343606  0.343606  0.343606  1
  Tl  Tl8  1  0.000000  0.000000  0.000000  1
  Tl  Tl9  1  0.500000  0.500000  0.500000  1
  Tl  Tl10  1  0.813026  0.813026  0.813026  1
  Tl  Tl11  1  0.186974  0.186974  0.186974  1
  Tl  Tl12  1  0.946887  0.571327  0.300800  1
  Tl  Tl13  1  0.300800  0.946887  0.571327  1
  Tl  Tl14  1  0.571327  0.300800  0.946887  1
  Tl  Tl15  1  0.053113  0.428673  0.699200  1
  Tl  Tl16  1  0.699200  0.053113  0.428673  1
  Tl  Tl17  1  0.428673  0.699200  0.053113  1
