# generated using pymatgen
data_Cs8Gd(NbCl8)3
_symmetry_space_group_name_H-M   'P 1'
_cell_length_a   12.80108186
_cell_length_b   12.80108162
_cell_length_c   12.80108200
_cell_angle_alpha   132.09777491
_cell_angle_beta   132.09777997
_cell_angle_gamma   70.07464416
_symmetry_Int_Tables_number   1
_chemical_formula_structural   Cs8Gd(NbCl8)3
_chemical_formula_sum   'Cs8 Gd1 Nb3 Cl24'
_cell_volume   1132.20838262
_cell_formula_units_Z   1
loop_
 _symmetry_equiv_pos_site_id
 _symmetry_equiv_pos_as_xyz
  1  'x, y, z'
loop_
 _atom_site_type_symbol
 _atom_site_label
 _atom_site_symmetry_multiplicity
 _atom_site_fract_x
 _atom_site_fract_y
 _atom_site_fract_z
 _atom_site_occupancy
  Cs  Cs0  1  0.637226  0.635293  0.515668  1
  Cs  Cs1  1  0.878441  0.362774  0.998066  1
  Cs  Cs2  1  0.119625  0.121559  0.484332  1
  Cs  Cs3  1  0.364707  0.880375  0.001934  1
  Cs  Cs4  1  0.119625  0.635293  0.998066  1
  Cs  Cs5  1  0.878441  0.880375  0.515668  1
  Cs  Cs6  1  0.364707  0.362774  0.484332  1
  Cs  Cs7  1  0.637226  0.121559  0.001934  1
  Gd  Gd8  1  0.000000  0.000000  0.000000  1
  Nb  Nb9  1  0.250000  0.750000  0.500000  1
  Nb  Nb10  1  0.500000  0.500000  0.000000  1
  Nb  Nb11  1  0.750000  0.250000  0.500000  1
  Cl  Cl12  1  0.127302  0.127302  0.000000  1
  Cl  Cl13  1  0.480970  0.748438  0.732531  1
  Cl  Cl14  1  0.865462  0.365462  0.500000  1
  Cl  Cl15  1  0.984503  0.251690  0.732814  1
  Cl  Cl16  1  0.872698  0.872698  0.000000  1
  Cl  Cl17  1  0.251562  0.984092  0.732531  1
  Cl  Cl18  1  0.268072  0.500210  0.767862  1
  Cl  Cl19  1  0.499790  0.267652  0.767862  1
  Cl  Cl20  1  0.499790  0.731928  0.232138  1
  Cl  Cl21  1  0.518876  0.251690  0.267186  1
  Cl  Cl22  1  0.000649  0.744294  0.743645  1
  Cl  Cl23  1  0.251562  0.519030  0.267469  1
  Cl  Cl24  1  0.134718  0.634718  0.500000  1
  Cl  Cl25  1  0.732348  0.500210  0.232138  1
  Cl  Cl26  1  0.255706  0.999351  0.256355  1
  Cl  Cl27  1  0.748310  0.015497  0.267186  1
  Cl  Cl28  1  0.742997  0.999351  0.743645  1
  Cl  Cl29  1  0.634538  0.134538  0.500000  1
  Cl  Cl30  1  0.384039  0.384039  0.000000  1
  Cl  Cl31  1  0.615961  0.615961  0.000000  1
  Cl  Cl32  1  0.748310  0.481124  0.732814  1
  Cl  Cl33  1  0.015908  0.748438  0.267469  1
  Cl  Cl34  1  0.000649  0.257003  0.256355  1
  Cl  Cl35  1  0.365282  0.865282  0.500000  1
