# generated using pymatgen
data_Sr(Pd2Pb)2
_symmetry_space_group_name_H-M   'P 1'
_cell_length_a   7.38904701
_cell_length_b   7.38904710
_cell_length_c   7.38904712
_cell_angle_alpha   111.18979697
_cell_angle_beta   111.18980031
_cell_angle_gamma   106.08617764
_symmetry_Int_Tables_number   1
_chemical_formula_structural   Sr(Pd2Pb)2
_chemical_formula_sum   'Sr2 Pd8 Pb4'
_cell_volume   309.75165958
_cell_formula_units_Z   2
loop_
 _symmetry_equiv_pos_site_id
 _symmetry_equiv_pos_as_xyz
  1  'x, y, z'
loop_
 _atom_site_type_symbol
 _atom_site_label
 _atom_site_symmetry_multiplicity
 _atom_site_fract_x
 _atom_site_fract_y
 _atom_site_fract_z
 _atom_site_occupancy
  Sr  Sr0  1  0.000000  0.000000  0.000000  1
  Sr  Sr1  1  0.500000  0.500000  0.000000  1
  Pd  Pd2  1  0.938055  0.730495  0.498619  1
  Pd  Pd3  1  0.231876  0.439436  0.501381  1
  Pd  Pd4  1  0.439436  0.938055  0.207560  1
  Pd  Pd5  1  0.730495  0.231876  0.792440  1
  Pd  Pd6  1  0.560564  0.768124  0.498619  1
  Pd  Pd7  1  0.269505  0.061945  0.501381  1
  Pd  Pd8  1  0.061945  0.560564  0.792440  1
  Pd  Pd9  1  0.768124  0.269505  0.207560  1
  Pb  Pb10  1  0.597842  0.402158  0.500000  1
  Pb  Pb11  1  0.902158  0.097842  0.500000  1
  Pb  Pb12  1  0.097842  0.597842  0.195684  1
  Pb  Pb13  1  0.402158  0.902158  0.804316  1
