# generated using pymatgen
data_Ti15NbAs12
_symmetry_space_group_name_H-M   'P 1'
_cell_length_a   7.35859177
_cell_length_b   7.35859107
_cell_length_c   18.94553718
_cell_angle_alpha   90.15392686
_cell_angle_beta   89.84607333
_cell_angle_gamma   152.32892725
_symmetry_Int_Tables_number   1
_chemical_formula_structural   Ti15NbAs12
_chemical_formula_sum   'Ti15 Nb1 As12'
_cell_volume   476.41140597
_cell_formula_units_Z   1
loop_
 _symmetry_equiv_pos_site_id
 _symmetry_equiv_pos_as_xyz
  1  'x, y, z'
loop_
 _atom_site_type_symbol
 _atom_site_label
 _atom_site_symmetry_multiplicity
 _atom_site_fract_x
 _atom_site_fract_y
 _atom_site_fract_z
 _atom_site_occupancy
  Ti  Ti0  1  0.733509  0.266491  0.161786  1
  Ti  Ti1  1  0.266491  0.733509  0.838214  1
  Ti  Ti2  1  0.266975  0.733025  0.662799  1
  Ti  Ti3  1  0.733025  0.266975  0.337201  1
  Ti  Ti4  1  0.536369  0.463631  0.119695  1
  Ti  Ti5  1  0.463631  0.536369  0.880305  1
  Ti  Ti6  1  0.464484  0.535516  0.618350  1
  Ti  Ti7  1  0.535516  0.464484  0.381650  1
  Ti  Ti8  1  0.664292  0.335708  0.973094  1
  Ti  Ti9  1  0.335708  0.664292  0.026906  1
  Ti  Ti10  1  0.336890  0.663110  0.472566  1
  Ti  Ti11  1  0.663110  0.336890  0.527434  1
  Ti  Ti12  1  0.000000  0.000000  0.000000  1
  Ti  Ti13  1  0.059758  0.940242  0.750984  1
  Ti  Ti14  1  0.940242  0.059758  0.249016  1
  Nb  Nb15  1  0.000000  0.000000  0.500000  1
  As  As16  1  0.902941  0.097059  0.116454  1
  As  As17  1  0.097059  0.902941  0.883546  1
  As  As18  1  0.098827  0.901173  0.619229  1
  As  As19  1  0.901173  0.098827  0.380771  1
  As  As20  1  0.840016  0.159984  0.924937  1
  As  As21  1  0.159984  0.840016  0.075063  1
  As  As22  1  0.162442  0.837558  0.424182  1
  As  As23  1  0.837558  0.162442  0.575818  1
  As  As24  1  0.699087  0.300913  0.750747  1
  As  As25  1  0.300913  0.699087  0.249253  1
  As  As26  1  0.418218  0.581782  0.749987  1
  As  As27  1  0.581782  0.418218  0.250013  1
