# generated using pymatgen
data_Tm2Lu4Co4Si5Ge
_symmetry_space_group_name_H-M   'P 1'
_cell_length_a   5.50911163
_cell_length_b   5.50911130
_cell_length_c   13.42268215
_cell_angle_alpha   90.01617238
_cell_angle_beta   89.98382694
_cell_angle_gamma   136.77955936
_symmetry_Int_Tables_number   1
_chemical_formula_structural   Tm2Lu4Co4Si5Ge
_chemical_formula_sum   'Tm2 Lu4 Co4 Si5 Ge1'
_cell_volume   278.97846258
_cell_formula_units_Z   1
loop_
 _symmetry_equiv_pos_site_id
 _symmetry_equiv_pos_as_xyz
  1  'x, y, z'
loop_
 _atom_site_type_symbol
 _atom_site_label
 _atom_site_symmetry_multiplicity
 _atom_site_fract_x
 _atom_site_fract_y
 _atom_site_fract_z
 _atom_site_occupancy
  Tm  Tm0  1  0.639951  0.360049  0.249697  1
  Tm  Tm1  1  0.919304  0.080696  0.390659  1
  Lu  Lu2  1  0.360425  0.639575  0.750126  1
  Lu  Lu3  1  0.918577  0.081423  0.108493  1
  Lu  Lu4  1  0.080768  0.919232  0.886952  1
  Lu  Lu5  1  0.081344  0.918656  0.613348  1
  Co  Co6  1  0.787147  0.212853  0.584230  1
  Co  Co7  1  0.211554  0.788446  0.423149  1
  Co  Co8  1  0.211037  0.788963  0.076566  1
  Co  Co9  1  0.786768  0.213232  0.916841  1
  Si  Si10  1  0.667172  0.332828  0.750308  1
  Si  Si11  1  0.615964  0.384036  0.038249  1
  Si  Si12  1  0.382273  0.617727  0.958747  1
  Si  Si13  1  0.382757  0.617243  0.541749  1
  Si  Si14  1  0.617166  0.382834  0.461846  1
  Ge  Ge15  1  0.337792  0.662208  0.249042  1
