# generated using pymatgen
data_Sc3UGa2Ru3
_symmetry_space_group_name_H-M   'P 1'
_cell_length_a   6.91293700
_cell_length_b   6.91293857
_cell_length_c   3.95397500
_cell_angle_alpha   90.00000000
_cell_angle_beta   90.00000000
_cell_angle_gamma   120.00000686
_symmetry_Int_Tables_number   1
_chemical_formula_structural   Sc3UGa2Ru3
_chemical_formula_sum   'Sc3 U1 Ga2 Ru3'
_cell_volume   163.64013052
_cell_formula_units_Z   1
loop_
 _symmetry_equiv_pos_site_id
 _symmetry_equiv_pos_as_xyz
  1  'x, y, z'
loop_
 _atom_site_type_symbol
 _atom_site_label
 _atom_site_symmetry_multiplicity
 _atom_site_fract_x
 _atom_site_fract_y
 _atom_site_fract_z
 _atom_site_occupancy
  Sc  Sc0  1  0.461775  0.461775  0.000000  1
  Sc  Sc1  1  0.538225  0.000000  0.000000  1
  Sc  Sc2  1  0.000000  0.538225  0.000000  1
  U  U3  1  0.000000  0.000000  0.000000  1
  Ga  Ga4  1  0.666667  0.333333  0.500000  1
  Ga  Ga5  1  0.333333  0.666667  0.500000  1
  Ru  Ru6  1  0.000000  0.240333  0.500000  1
  Ru  Ru7  1  0.759667  0.759667  0.500000  1
  Ru  Ru8  1  0.240333  0.000000  0.500000  1
