# generated using pymatgen
data_GaAg(RhS2)4
_symmetry_space_group_name_H-M   'P 1'
_cell_length_a   7.14645512
_cell_length_b   7.14645555
_cell_length_c   7.14645600
_cell_angle_alpha   60.00000716
_cell_angle_beta   60.00000517
_cell_angle_gamma   60.00000544
_symmetry_Int_Tables_number   1
_chemical_formula_structural   GaAg(RhS2)4
_chemical_formula_sum   'Ga1 Ag1 Rh4 S8'
_cell_volume   258.08166491
_cell_formula_units_Z   1
loop_
 _symmetry_equiv_pos_site_id
 _symmetry_equiv_pos_as_xyz
  1  'x, y, z'
loop_
 _atom_site_type_symbol
 _atom_site_label
 _atom_site_symmetry_multiplicity
 _atom_site_fract_x
 _atom_site_fract_y
 _atom_site_fract_z
 _atom_site_occupancy
  Ga  Ga0  1  0.500000  0.500000  0.500000  1
  Ag  Ag1  1  0.750000  0.750000  0.750000  1
  Rh  Rh2  1  0.633216  0.122261  0.122261  1
  Rh  Rh3  1  0.122261  0.633216  0.122261  1
  Rh  Rh4  1  0.122261  0.122261  0.633216  1
  Rh  Rh5  1  0.122261  0.122261  0.122261  1
  S  S6  1  0.324724  0.891758  0.891758  1
  S  S7  1  0.891758  0.324724  0.891758  1
  S  S8  1  0.891758  0.891758  0.324724  1
  S  S9  1  0.891758  0.891758  0.891758  1
  S  S10  1  0.910667  0.363110  0.363110  1
  S  S11  1  0.363110  0.910667  0.363110  1
  S  S12  1  0.363110  0.363110  0.910667  1
  S  S13  1  0.363110  0.363110  0.363110  1
