# generated using pymatgen
data_CuBi2Te2(SO7)2
_symmetry_space_group_name_H-M   'P 1'
_cell_length_a   5.43148544
_cell_length_b   8.25835493
_cell_length_c   8.55137146
_cell_angle_alpha   115.97465834
_cell_angle_beta   106.87290239
_cell_angle_gamma   94.80239777
_symmetry_Int_Tables_number   1
_chemical_formula_structural   CuBi2Te2(SO7)2
_chemical_formula_sum   'Cu1 Bi2 Te2 S2 O14'
_cell_volume   319.91917432
_cell_formula_units_Z   1
loop_
 _symmetry_equiv_pos_site_id
 _symmetry_equiv_pos_as_xyz
  1  'x, y, z'
loop_
 _atom_site_type_symbol
 _atom_site_label
 _atom_site_symmetry_multiplicity
 _atom_site_fract_x
 _atom_site_fract_y
 _atom_site_fract_z
 _atom_site_occupancy
  Cu  Cu0  1  0.500000  0.500000  0.000000  1
  Bi  Bi1  1  0.165321  0.231198  0.515121  1
  Bi  Bi2  1  0.834679  0.768802  0.484879  1
  Te  Te3  1  0.114353  0.751612  0.133351  1
  Te  Te4  1  0.885647  0.248388  0.866649  1
  S  S5  1  0.581346  0.256435  0.262841  1
  S  S6  1  0.418654  0.743565  0.737159  1
  O  O7  1  0.382616  0.149345  0.298192  1
  O  O8  1  0.617384  0.850655  0.701808  1
  O  O9  1  0.297128  0.556506  0.570390  1
  O  O10  1  0.702872  0.443494  0.429610  1
  O  O11  1  0.796720  0.153864  0.241558  1
  O  O12  1  0.203280  0.846136  0.758442  1
  O  O13  1  0.449737  0.262490  0.090066  1
  O  O14  1  0.550263  0.737510  0.909934  1
  O  O15  1  0.886796  0.559223  0.135574  1
  O  O16  1  0.113204  0.440777  0.864426  1
  O  O17  1  0.443611  0.693564  0.222170  1
  O  O18  1  0.556389  0.306436  0.777830  1
  O  O19  1  0.116521  0.914214  0.380296  1
  O  O20  1  0.883479  0.085786  0.619704  1
