# generated using pymatgen
data_TbPr14Sm(CdCo)4
_symmetry_space_group_name_H-M   'P 1'
_cell_length_a   9.86030306
_cell_length_b   9.88252401
_cell_length_c   9.85249610
_cell_angle_alpha   59.87202375
_cell_angle_beta   60.11770413
_cell_angle_gamma   59.98342350
_symmetry_Int_Tables_number   1
_chemical_formula_structural   TbPr14Sm(CdCo)4
_chemical_formula_sum   'Tb1 Pr14 Sm1 Cd4 Co4'
_cell_volume   678.73035602
_cell_formula_units_Z   1
loop_
 _symmetry_equiv_pos_site_id
 _symmetry_equiv_pos_as_xyz
  1  'x, y, z'
loop_
 _atom_site_type_symbol
 _atom_site_label
 _atom_site_symmetry_multiplicity
 _atom_site_fract_x
 _atom_site_fract_y
 _atom_site_fract_z
 _atom_site_occupancy
  Tb  Tb0  1  0.060900  0.440991  0.058720  1
  Pr  Pr1  1  0.595471  0.595979  0.598707  1
  Pr  Pr2  1  0.189524  0.809464  0.811407  1
  Pr  Pr3  1  0.060495  0.063055  0.436077  1
  Pr  Pr4  1  0.436274  0.064586  0.060002  1
  Pr  Pr5  1  0.810379  0.189397  0.811708  1
  Pr  Pr6  1  0.439058  0.062201  0.437617  1
  Pr  Pr7  1  0.596486  0.210203  0.596984  1
  Pr  Pr8  1  0.810862  0.810064  0.189101  1
  Pr  Pr9  1  0.208605  0.595483  0.600948  1
  Pr  Pr10  1  0.810307  0.190304  0.188604  1
  Pr  Pr11  1  0.061807  0.440637  0.434550  1
  Pr  Pr12  1  0.191845  0.807956  0.190896  1
  Pr  Pr13  1  0.599937  0.594995  0.207959  1
  Pr  Pr14  1  0.188940  0.189821  0.811130  1
  Sm  Sm15  1  0.436285  0.440628  0.059680  1
  Cd  Cd16  1  0.829815  0.829340  0.511463  1
  Cd  Cd17  1  0.830001  0.827936  0.830080  1
  Cd  Cd18  1  0.511286  0.828511  0.830420  1
  Cd  Cd19  1  0.829288  0.511808  0.830471  1
  Co  Co20  1  0.391438  0.389445  0.390941  1
  Co  Co21  1  0.829965  0.389991  0.389755  1
  Co  Co22  1  0.391400  0.827208  0.391684  1
  Co  Co23  1  0.389634  0.389997  0.831097  1
