# generated using pymatgen
data_Li6CrAs5Rh12
_symmetry_space_group_name_H-M   'P 1'
_cell_length_a   4.21058700
_cell_length_b   5.90715900
_cell_length_c   12.68858100
_cell_angle_alpha   89.99992508
_cell_angle_beta   89.99991860
_cell_angle_gamma   90.00000000
_symmetry_Int_Tables_number   1
_chemical_formula_structural   Li6CrAs5Rh12
_chemical_formula_sum   'Li6 Cr1 As5 Rh12'
_cell_volume   315.59808723
_cell_formula_units_Z   1
loop_
 _symmetry_equiv_pos_site_id
 _symmetry_equiv_pos_as_xyz
  1  'x, y, z'
loop_
 _atom_site_type_symbol
 _atom_site_label
 _atom_site_symmetry_multiplicity
 _atom_site_fract_x
 _atom_site_fract_y
 _atom_site_fract_z
 _atom_site_occupancy
  Li  Li0  1  0.000000  0.499999  0.000000  1
  Li  Li1  1  0.499929  0.000000  0.164021  1
  Li  Li2  1  0.999933  0.499999  0.334353  1
  Li  Li3  1  0.500001  0.000000  0.500000  1
  Li  Li4  1  0.000066  0.499999  0.665647  1
  Li  Li5  1  0.500070  0.000000  0.835979  1
  Cr  Cr6  1  0.000000  0.000000  0.000000  1
  As  As7  1  0.499967  0.499999  0.164005  1
  As  As8  1  0.999961  0.000000  0.331258  1
  As  As9  1  0.500001  0.499999  0.500000  1
  As  As10  1  0.000038  0.000000  0.668741  1
  As  As11  1  0.500034  0.499999  0.835994  1
  Rh  Rh12  1  0.500000  0.252796  0.000000  1
  Rh  Rh13  1  0.500000  0.747205  0.000000  1
  Rh  Rh14  1  0.999956  0.250445  0.168829  1
  Rh  Rh15  1  0.999956  0.749555  0.168828  1
  Rh  Rh16  1  0.499954  0.250146  0.334269  1
  Rh  Rh17  1  0.499953  0.749852  0.334269  1
  Rh  Rh18  1  0.000000  0.249404  0.500000  1
  Rh  Rh19  1  0.000000  0.750595  0.500000  1
  Rh  Rh20  1  0.500046  0.250146  0.665731  1
  Rh  Rh21  1  0.500045  0.749852  0.665731  1
  Rh  Rh22  1  0.000044  0.250446  0.831172  1
  Rh  Rh23  1  0.000044  0.749556  0.831171  1
