# generated using pymatgen
data_K2Be3Se4
_symmetry_space_group_name_H-M   'P 1'
_cell_length_a   9.11076562
_cell_length_b   9.11076588
_cell_length_c   9.11076512
_cell_angle_alpha   144.89299239
_cell_angle_beta   107.05463785
_cell_angle_gamma   83.60611630
_symmetry_Int_Tables_number   1
_chemical_formula_structural   K2Be3Se4
_chemical_formula_sum   'K4 Be6 Se8'
_cell_volume   404.26962914
_cell_formula_units_Z   2
loop_
 _symmetry_equiv_pos_site_id
 _symmetry_equiv_pos_as_xyz
  1  'x, y, z'
loop_
 _atom_site_type_symbol
 _atom_site_label
 _atom_site_symmetry_multiplicity
 _atom_site_fract_x
 _atom_site_fract_y
 _atom_site_fract_z
 _atom_site_occupancy
  K  K0  1  0.622603  0.732713  0.355317  1
  K  K1  1  0.377397  0.267287  0.644683  1
  K  K2  1  0.122603  0.767287  0.889891  1
  K  K3  1  0.877397  0.232713  0.110109  1
  Be  Be4  1  0.750000  0.250000  0.500000  1
  Be  Be5  1  0.250000  0.750000  0.500000  1
  Be  Be6  1  0.985807  0.750000  0.235807  1
  Be  Be7  1  0.514193  0.750000  0.764193  1
  Be  Be8  1  0.014193  0.250000  0.764193  1
  Be  Be9  1  0.485807  0.250000  0.235807  1
  Se  Se10  1  0.025620  0.883381  0.595037  1
  Se  Se11  1  0.288344  0.430583  0.404963  1
  Se  Se12  1  0.211656  0.616619  0.142239  1
  Se  Se13  1  0.474380  0.069417  0.857761  1
  Se  Se14  1  0.974380  0.116619  0.404963  1
  Se  Se15  1  0.711656  0.569417  0.595037  1
  Se  Se16  1  0.788344  0.383381  0.857761  1
  Se  Se17  1  0.525620  0.930583  0.142239  1
