# generated using pymatgen
data_Hf18ZnRe8Ir
_symmetry_space_group_name_H-M   'P 1'
_cell_length_a   8.64205000
_cell_length_b   8.64279584
_cell_length_c   8.56978200
_cell_angle_alpha   90.00000000
_cell_angle_beta   90.00000000
_cell_angle_gamma   119.99914162
_symmetry_Int_Tables_number   1
_chemical_formula_structural   Hf18ZnRe8Ir
_chemical_formula_sum   'Hf18 Zn1 Re8 Ir1'
_cell_volume   554.33869027
_cell_formula_units_Z   1
loop_
 _symmetry_equiv_pos_site_id
 _symmetry_equiv_pos_as_xyz
  1  'x, y, z'
loop_
 _atom_site_type_symbol
 _atom_site_label
 _atom_site_symmetry_multiplicity
 _atom_site_fract_x
 _atom_site_fract_y
 _atom_site_fract_z
 _atom_site_occupancy
  Hf  Hf0  1  0.196277  0.803725  0.447540  1
  Hf  Hf1  1  0.196234  0.392516  0.447519  1
  Hf  Hf2  1  0.607484  0.803758  0.447515  1
  Hf  Hf3  1  0.806339  0.193665  0.548513  1
  Hf  Hf4  1  0.806375  0.612711  0.548510  1
  Hf  Hf5  1  0.387295  0.193628  0.548508  1
  Hf  Hf6  1  0.806339  0.193665  0.951487  1
  Hf  Hf7  1  0.806375  0.612711  0.951490  1
  Hf  Hf8  1  0.387295  0.193628  0.951492  1
  Hf  Hf9  1  0.196277  0.803725  0.052460  1
  Hf  Hf10  1  0.196234  0.392516  0.052481  1
  Hf  Hf11  1  0.607484  0.803758  0.052485  1
  Hf  Hf12  1  0.540816  0.459195  0.250000  1
  Hf  Hf13  1  0.540796  0.081588  0.250000  1
  Hf  Hf14  1  0.918391  0.459160  0.250000  1
  Hf  Hf15  1  0.459888  0.540121  0.750000  1
  Hf  Hf16  1  0.459888  0.919789  0.750000  1
  Hf  Hf17  1  0.080196  0.540090  0.750000  1
  Zn  Zn18  1  0.666680  0.333330  0.750000  1
  Re  Re19  1  0.889265  0.110755  0.250000  1
  Re  Re20  1  0.889240  0.778534  0.250000  1
  Re  Re21  1  0.221509  0.110771  0.250000  1
  Re  Re22  1  0.110215  0.889787  0.750000  1
  Re  Re23  1  0.110197  0.220420  0.750000  1
  Re  Re24  1  0.779591  0.889789  0.750000  1
  Re  Re25  1  0.999997  0.999995  0.498963  1
  Re  Re26  1  0.999997  0.999995  0.001037  1
  Ir  Ir27  1  0.333326  0.666675  0.250000  1
