# generated using pymatgen
data_Pr2Ga4IrRh3
_symmetry_space_group_name_H-M   'P 1'
_cell_length_a   4.34775700
_cell_length_b   4.34775700
_cell_length_c   10.08533700
_cell_angle_alpha   90.00000000
_cell_angle_beta   90.00000000
_cell_angle_gamma   90.00000000
_symmetry_Int_Tables_number   1
_chemical_formula_structural   Pr2Ga4IrRh3
_chemical_formula_sum   'Pr2 Ga4 Ir1 Rh3'
_cell_volume   190.64303385
_cell_formula_units_Z   1
loop_
 _symmetry_equiv_pos_site_id
 _symmetry_equiv_pos_as_xyz
  1  'x, y, z'
loop_
 _atom_site_type_symbol
 _atom_site_label
 _atom_site_symmetry_multiplicity
 _atom_site_fract_x
 _atom_site_fract_y
 _atom_site_fract_z
 _atom_site_occupancy
  Pr  Pr0  1  0.000000  0.500000  0.244410  1
  Pr  Pr1  1  0.500000  0.000000  0.757978  1
  Ga  Ga2  1  0.500000  0.000000  0.123150  1
  Ga  Ga3  1  0.000000  0.000000  0.500667  1
  Ga  Ga4  1  0.500000  0.500000  0.500667  1
  Ga  Ga5  1  0.000000  0.500000  0.875802  1
  Ir  Ir6  1  0.500000  0.000000  0.372094  1
  Rh  Rh7  1  0.000000  0.000000  0.999173  1
  Rh  Rh8  1  0.500000  0.500000  0.999173  1
  Rh  Rh9  1  0.000000  0.500000  0.626887  1
