# generated using pymatgen
data_CaPr2Y3Se8
_symmetry_space_group_name_H-M   'P 1'
_cell_length_a   4.07602200
_cell_length_b   13.68118600
_cell_length_c   13.83726700
_cell_angle_alpha   90.00000000
_cell_angle_beta   90.00000000
_cell_angle_gamma   90.00000000
_symmetry_Int_Tables_number   1
_chemical_formula_structural   CaPr2Y3Se8
_chemical_formula_sum   'Ca2 Pr4 Y6 Se16'
_cell_volume   771.63263605
_cell_formula_units_Z   2
loop_
 _symmetry_equiv_pos_site_id
 _symmetry_equiv_pos_as_xyz
  1  'x, y, z'
loop_
 _atom_site_type_symbol
 _atom_site_label
 _atom_site_symmetry_multiplicity
 _atom_site_fract_x
 _atom_site_fract_y
 _atom_site_fract_z
 _atom_site_occupancy
  Ca  Ca0  1  0.250000  0.106437  0.423020  1
  Ca  Ca1  1  0.250000  0.606437  0.076980  1
  Pr  Pr2  1  0.250000  0.369502  0.589099  1
  Pr  Pr3  1  0.250000  0.869502  0.910901  1
  Pr  Pr4  1  0.750000  0.632882  0.409501  1
  Pr  Pr5  1  0.750000  0.132882  0.090499  1
  Y  Y6  1  0.750000  0.893783  0.571109  1
  Y  Y7  1  0.750000  0.393783  0.928891  1
  Y  Y8  1  0.250000  0.146546  0.796750  1
  Y  Y9  1  0.250000  0.646546  0.703250  1
  Y  Y10  1  0.750000  0.852850  0.204618  1
  Y  Y11  1  0.750000  0.352850  0.295382  1
  Se  Se12  1  0.250000  0.216540  0.234535  1
  Se  Se13  1  0.250000  0.716540  0.265465  1
  Se  Se14  1  0.750000  0.786615  0.760174  1
  Se  Se15  1  0.750000  0.286615  0.739826  1
  Se  Se16  1  0.250000  0.252026  0.975543  1
  Se  Se17  1  0.250000  0.752026  0.524457  1
  Se  Se18  1  0.750000  0.752195  0.022848  1
  Se  Se19  1  0.750000  0.252195  0.477152  1
  Se  Se20  1  0.250000  0.470139  0.386051  1
  Se  Se21  1  0.250000  0.970139  0.113949  1
  Se  Se22  1  0.750000  0.532292  0.611504  1
  Se  Se23  1  0.750000  0.032292  0.888496  1
  Se  Se24  1  0.250000  0.026556  0.628454  1
  Se  Se25  1  0.250000  0.526556  0.871546  1
  Se  Se26  1  0.750000  0.961639  0.378908  1
  Se  Se27  1  0.750000  0.461639  0.121092  1
