# generated using pymatgen
data_CaGd6SeI12
_symmetry_space_group_name_H-M   'P 1'
_cell_length_a   9.85007129
_cell_length_b   9.85007230
_cell_length_c   9.85007300
_cell_angle_alpha   107.25943509
_cell_angle_beta   107.25944301
_cell_angle_gamma   107.25943825
_symmetry_Int_Tables_number   1
_chemical_formula_structural   CaGd6SeI12
_chemical_formula_sum   'Ca1 Gd6 Se1 I12'
_cell_volume   790.20949993
_cell_formula_units_Z   1
loop_
 _symmetry_equiv_pos_site_id
 _symmetry_equiv_pos_as_xyz
  1  'x, y, z'
loop_
 _atom_site_type_symbol
 _atom_site_label
 _atom_site_symmetry_multiplicity
 _atom_site_fract_x
 _atom_site_fract_y
 _atom_site_fract_z
 _atom_site_occupancy
  Ca  Ca0  1  0.000000  0.000000  0.000000  1
  Gd  Gd1  1  0.807457  0.527197  0.600181  1
  Gd  Gd2  1  0.527163  0.600096  0.807220  1
  Gd  Gd3  1  0.192543  0.472803  0.399819  1
  Gd  Gd4  1  0.472837  0.399904  0.192780  1
  Gd  Gd5  1  0.600124  0.807313  0.527184  1
  Gd  Gd6  1  0.399876  0.192687  0.472816  1
  Se  Se7  1  0.500000  0.500000  0.500000  1
  I  I8  1  0.725423  0.181807  0.574070  1
  I  I9  1  0.957546  0.878296  0.650841  1
  I  I10  1  0.574078  0.725448  0.181829  1
  I  I11  1  0.121693  0.349162  0.042453  1
  I  I12  1  0.650844  0.957558  0.878290  1
  I  I13  1  0.878307  0.650838  0.957547  1
  I  I14  1  0.042454  0.121704  0.349159  1
  I  I15  1  0.818205  0.425933  0.274580  1
  I  I16  1  0.349156  0.042442  0.121710  1
  I  I17  1  0.274577  0.818193  0.425930  1
  I  I18  1  0.181795  0.574067  0.725420  1
  I  I19  1  0.425922  0.274552  0.818171  1
