# generated using pymatgen
data_Pr4DyTa2BiO14
_symmetry_space_group_name_H-M   'P 1'
_cell_length_a   6.64502954
_cell_length_b   6.78278494
_cell_length_c   7.68126900
_cell_angle_alpha   90.00000000
_cell_angle_beta   90.00000000
_cell_angle_gamma   110.55419848
_symmetry_Int_Tables_number   1
_chemical_formula_structural   Pr4DyTa2BiO14
_chemical_formula_sum   'Pr4 Dy1 Ta2 Bi1 O14'
_cell_volume   324.16919579
_cell_formula_units_Z   1
loop_
 _symmetry_equiv_pos_site_id
 _symmetry_equiv_pos_as_xyz
  1  'x, y, z'
loop_
 _atom_site_type_symbol
 _atom_site_label
 _atom_site_symmetry_multiplicity
 _atom_site_fract_x
 _atom_site_fract_y
 _atom_site_fract_z
 _atom_site_occupancy
  Pr  Pr0  1  0.016014  0.033157  0.997711  1
  Pr  Pr1  1  0.016014  0.033157  0.502289  1
  Pr  Pr2  1  0.523057  0.072215  0.250000  1
  Pr  Pr3  1  0.070947  0.527558  0.250000  1
  Dy  Dy4  1  0.947261  0.492901  0.750000  1
  Ta  Ta5  1  0.509595  0.508916  0.998914  1
  Ta  Ta6  1  0.509595  0.508916  0.501086  1
  Bi  Bi7  1  0.472195  0.969509  0.750000  1
  O  O8  1  0.583791  0.538720  0.750000  1
  O  O9  1  0.427872  0.422776  0.250000  1
  O  O10  1  0.832074  0.137983  0.750000  1
  O  O11  1  0.146323  0.891654  0.250000  1
  O  O12  1  0.083960  0.844221  0.750000  1
  O  O13  1  0.894701  0.162005  0.250000  1
  O  O14  1  0.416015  0.169874  0.965576  1
  O  O15  1  0.573577  0.804426  0.459847  1
  O  O16  1  0.190769  0.439851  0.957665  1
  O  O17  1  0.802938  0.514004  0.466871  1
  O  O18  1  0.416015  0.169874  0.534424  1
  O  O19  1  0.573577  0.804426  0.040153  1
  O  O20  1  0.802938  0.514004  0.033129  1
  O  O21  1  0.190769  0.439851  0.542335  1
