# generated using pymatgen
data_NdEu3(AlPt)4
_symmetry_space_group_name_H-M   'P 1'
_cell_length_a   4.40255400
_cell_length_b   7.30343150
_cell_length_c   7.98271591
_cell_angle_alpha   90.18715749
_cell_angle_beta   90.00000000
_cell_angle_gamma   90.00000000
_symmetry_Int_Tables_number   1
_chemical_formula_structural   NdEu3(AlPt)4
_chemical_formula_sum   'Nd1 Eu3 Al4 Pt4'
_cell_volume   256.67289493
_cell_formula_units_Z   1
loop_
 _symmetry_equiv_pos_site_id
 _symmetry_equiv_pos_as_xyz
  1  'x, y, z'
loop_
 _atom_site_type_symbol
 _atom_site_label
 _atom_site_symmetry_multiplicity
 _atom_site_fract_x
 _atom_site_fract_y
 _atom_site_fract_z
 _atom_site_occupancy
  Nd  Nd0  1  0.250000  0.529249  0.819928  1
  Eu  Eu1  1  0.750000  0.473089  0.181319  1
  Eu  Eu2  1  0.250000  0.025888  0.678717  1
  Eu  Eu3  1  0.750000  0.972927  0.320920  1
  Al  Al4  1  0.750000  0.858696  0.933851  1
  Al  Al5  1  0.250000  0.643970  0.433158  1
  Al  Al6  1  0.750000  0.355831  0.566818  1
  Al  Al7  1  0.250000  0.142403  0.065934  1
  Pt  Pt8  1  0.750000  0.710593  0.615844  1
  Pt  Pt9  1  0.750000  0.216166  0.884511  1
  Pt  Pt10  1  0.250000  0.286970  0.387026  1
  Pt  Pt11  1  0.250000  0.784218  0.111975  1
