# generated using pymatgen
data_SrMg(AlPt)2
_symmetry_space_group_name_H-M   'P 1'
_cell_length_a   4.44541700
_cell_length_b   4.44541670
_cell_length_c   7.26611100
_cell_angle_alpha   90.00000000
_cell_angle_beta   90.00000000
_cell_angle_gamma   119.99999476
_symmetry_Int_Tables_number   1
_chemical_formula_structural   SrMg(AlPt)2
_chemical_formula_sum   'Sr1 Mg1 Al2 Pt2'
_cell_volume   124.35340051
_cell_formula_units_Z   1
loop_
 _symmetry_equiv_pos_site_id
 _symmetry_equiv_pos_as_xyz
  1  'x, y, z'
loop_
 _atom_site_type_symbol
 _atom_site_label
 _atom_site_symmetry_multiplicity
 _atom_site_fract_x
 _atom_site_fract_y
 _atom_site_fract_z
 _atom_site_occupancy
  Sr  Sr0  1  0.000000  0.000000  0.000000  1
  Mg  Mg1  1  0.000000  0.000000  0.500000  1
  Al  Al2  1  0.333333  0.666667  0.322978  1
  Al  Al3  1  0.666667  0.333333  0.677022  1
  Pt  Pt4  1  0.333333  0.666667  0.684767  1
  Pt  Pt5  1  0.666667  0.333333  0.315233  1
