# generated using pymatgen
data_Li2(Lu4Tc)3
_symmetry_space_group_name_H-M   'P 1'
_cell_length_a   8.26378006
_cell_length_b   8.26378132
_cell_length_c   8.26378051
_cell_angle_alpha   109.98872350
_cell_angle_beta   109.98873097
_cell_angle_gamma   108.44109416
_symmetry_Int_Tables_number   1
_chemical_formula_structural   Li2(Lu4Tc)3
_chemical_formula_sum   'Li2 Lu12 Tc3'
_cell_volume   434.31953894
_cell_formula_units_Z   1
loop_
 _symmetry_equiv_pos_site_id
 _symmetry_equiv_pos_as_xyz
  1  'x, y, z'
loop_
 _atom_site_type_symbol
 _atom_site_label
 _atom_site_symmetry_multiplicity
 _atom_site_fract_x
 _atom_site_fract_y
 _atom_site_fract_z
 _atom_site_occupancy
  Li  Li0  1  0.000000  0.500000  0.500000  1
  Li  Li1  1  0.500000  0.000000  0.500000  1
  Lu  Lu2  1  0.321763  0.321763  0.643526  1
  Lu  Lu3  1  0.678237  0.678237  0.356474  1
  Lu  Lu4  1  0.678237  0.321763  0.000000  1
  Lu  Lu5  1  0.321763  0.678237  0.000000  1
  Lu  Lu6  1  0.186865  0.432044  0.245180  1
  Lu  Lu7  1  0.813135  0.567956  0.754820  1
  Lu  Lu8  1  0.186865  0.941684  0.754820  1
  Lu  Lu9  1  0.941684  0.186865  0.754820  1
  Lu  Lu10  1  0.813135  0.058316  0.245180  1
  Lu  Lu11  1  0.058316  0.813135  0.245180  1
  Lu  Lu12  1  0.432044  0.186865  0.245180  1
  Lu  Lu13  1  0.567956  0.813135  0.754820  1
  Tc  Tc14  1  0.336562  0.336562  0.000000  1
  Tc  Tc15  1  0.663438  0.663438  0.000000  1
  Tc  Tc16  1  0.000000  0.000000  0.000000  1
