# generated using pymatgen
data_Y8HoLuIr4
_symmetry_space_group_name_H-M   'P 1'
_cell_length_a   8.52064652
_cell_length_b   8.52064615
_cell_length_c   7.23201005
_cell_angle_alpha   83.32572011
_cell_angle_beta   83.32571913
_cell_angle_gamma   44.96142105
_symmetry_Int_Tables_number   1
_chemical_formula_structural   Y8HoLuIr4
_chemical_formula_sum   'Y8 Ho1 Lu1 Ir4'
_cell_volume   368.07254742
_cell_formula_units_Z   1
loop_
 _symmetry_equiv_pos_site_id
 _symmetry_equiv_pos_as_xyz
  1  'x, y, z'
loop_
 _atom_site_type_symbol
 _atom_site_label
 _atom_site_symmetry_multiplicity
 _atom_site_fract_x
 _atom_site_fract_y
 _atom_site_fract_z
 _atom_site_occupancy
  Y  Y0  1  0.348100  0.212018  0.316939  1
  Y  Y1  1  0.210278  0.971040  0.082261  1
  Y  Y2  1  0.788315  0.030008  0.919206  1
  Y  Y3  1  0.969992  0.211685  0.580794  1
  Y  Y4  1  0.653702  0.787597  0.682290  1
  Y  Y5  1  0.212403  0.346298  0.817710  1
  Y  Y6  1  0.787982  0.651900  0.183061  1
  Y  Y7  1  0.028960  0.789722  0.417739  1
  Ho  Ho8  1  0.428472  0.571528  0.750000  1
  Lu  Lu9  1  0.569545  0.430455  0.250000  1
  Ir  Ir10  1  0.394696  0.821532  0.426520  1
  Ir  Ir11  1  0.178468  0.605304  0.073480  1
  Ir  Ir12  1  0.822590  0.393503  0.928634  1
  Ir  Ir13  1  0.606497  0.177410  0.571366  1
