# generated using pymatgen
data_KMn8F33
_symmetry_space_group_name_H-M   'P 1'
_cell_length_a   8.71065000
_cell_length_b   8.71064984
_cell_length_c   19.09698000
_cell_angle_alpha   90.00000000
_cell_angle_beta   90.00000000
_cell_angle_gamma   120.00000060
_symmetry_Int_Tables_number   1
_chemical_formula_structural   KMn8F33
_chemical_formula_sum   'K2 Mn16 F66'
_cell_volume   1254.86336950
_cell_formula_units_Z   2
loop_
 _symmetry_equiv_pos_site_id
 _symmetry_equiv_pos_as_xyz
  1  'x, y, z'
loop_
 _atom_site_type_symbol
 _atom_site_label
 _atom_site_symmetry_multiplicity
 _atom_site_fract_x
 _atom_site_fract_y
 _atom_site_fract_z
 _atom_site_occupancy
  K  K0  1  0.333333  0.666667  0.434958  1
  K  K1  1  0.666667  0.333333  0.934958  1
  Mn  Mn2  1  0.666667  0.333333  0.366013  1
  Mn  Mn3  1  0.333333  0.666667  0.866013  1
  Mn  Mn4  1  0.662782  0.995069  0.247035  1
  Mn  Mn5  1  0.332287  0.337218  0.247035  1
  Mn  Mn6  1  0.004931  0.667713  0.247035  1
  Mn  Mn7  1  0.667713  0.004931  0.747035  1
  Mn  Mn8  1  0.995069  0.662782  0.747035  1
  Mn  Mn9  1  0.337218  0.332287  0.747035  1
  Mn  Mn10  1  0.331066  0.994908  0.626028  1
  Mn  Mn11  1  0.663841  0.668934  0.626028  1
  Mn  Mn12  1  0.005092  0.336159  0.626028  1
  Mn  Mn13  1  0.336159  0.005092  0.126028  1
  Mn  Mn14  1  0.994908  0.331066  0.126028  1
  Mn  Mn15  1  0.668934  0.663841  0.126028  1
  Mn  Mn16  1  0.000000  0.000000  0.507253  1
  Mn  Mn17  1  0.000000  0.000000  0.007253  1
  F  F18  1  0.737917  0.203368  0.298685  1
  F  F19  1  0.465451  0.262083  0.298685  1
  F  F20  1  0.796632  0.534549  0.298685  1
  F  F21  1  0.534549  0.796632  0.798685  1
  F  F22  1  0.203368  0.737917  0.798685  1
  F  F23  1  0.262083  0.465451  0.798685  1
  F  F24  1  0.535781  0.077906  0.185190  1
  F  F25  1  0.542126  0.464219  0.185190  1
  F  F26  1  0.922094  0.457874  0.185190  1
  F  F27  1  0.457874  0.922094  0.685190  1
  F  F28  1  0.077906  0.535781  0.685190  1
  F  F29  1  0.464219  0.542126  0.685190  1
  F  F30  1  0.870489  0.128744  0.188410  1
  F  F31  1  0.258255  0.129511  0.188410  1
  F  F32  1  0.871256  0.741745  0.188410  1
  F  F33  1  0.741745  0.871256  0.688410  1
  F  F34  1  0.128744  0.870489  0.688410  1
  F  F35  1  0.129511  0.258255  0.688410  1
  F  F36  1  0.200438  0.073323  0.574916  1
  F  F37  1  0.872886  0.799562  0.574916  1
  F  F38  1  0.926677  0.127114  0.574916  1
  F  F39  1  0.127114  0.926677  0.074916  1
  F  F40  1  0.073323  0.200438  0.074916  1
  F  F41  1  0.799562  0.872886  0.074916  1
  F  F42  1  0.591865  0.798857  0.186086  1
  F  F43  1  0.206991  0.408135  0.186086  1
  F  F44  1  0.201143  0.793009  0.186086  1
  F  F45  1  0.793009  0.201143  0.686086  1
  F  F46  1  0.798857  0.591865  0.686086  1
  F  F47  1  0.408135  0.206991  0.686086  1
  F  F48  1  0.469225  0.879111  0.297897  1
  F  F49  1  0.409885  0.530775  0.297897  1
  F  F50  1  0.120889  0.590115  0.297897  1
  F  F51  1  0.590115  0.120889  0.797897  1
  F  F52  1  0.879111  0.469225  0.797897  1
  F  F53  1  0.530775  0.409885  0.797897  1
  F  F54  1  0.517790  0.118653  0.573974  1
  F  F55  1  0.600863  0.482210  0.573974  1
  F  F56  1  0.881347  0.399137  0.573974  1
  F  F57  1  0.399137  0.881347  0.073974  1
  F  F58  1  0.118653  0.517790  0.073974  1
  F  F59  1  0.482210  0.600863  0.073974  1
  F  F60  1  0.862043  0.396330  0.413206  1
  F  F61  1  0.534287  0.137957  0.413206  1
  F  F62  1  0.603670  0.465713  0.413206  1
  F  F63  1  0.465713  0.603670  0.913206  1
  F  F64  1  0.396330  0.862043  0.913206  1
  F  F65  1  0.137957  0.534287  0.913206  1
  F  F66  1  0.253982  0.803189  0.574229  1
  F  F67  1  0.549207  0.746018  0.574229  1
  F  F68  1  0.196811  0.450793  0.574229  1
  F  F69  1  0.450793  0.196811  0.074229  1
  F  F70  1  0.803189  0.253982  0.074229  1
  F  F71  1  0.746018  0.549207  0.074229  1
  F  F72  1  0.784047  0.930598  0.299745  1
  F  F73  1  0.146551  0.215953  0.299745  1
  F  F74  1  0.069402  0.853449  0.299745  1
  F  F75  1  0.853449  0.069402  0.799745  1
  F  F76  1  0.930598  0.784047  0.799745  1
  F  F77  1  0.215953  0.146551  0.799745  1
  F  F78  1  0.131484  0.195548  0.460107  1
  F  F79  1  0.064064  0.868516  0.460107  1
  F  F80  1  0.804452  0.935936  0.460107  1
  F  F81  1  0.935936  0.804452  0.960107  1
  F  F82  1  0.195548  0.131484  0.960107  1
  F  F83  1  0.868516  0.064064  0.960107  1
