# generated using pymatgen
data_Hf3ScNi5Pt7
_symmetry_space_group_name_H-M   'P 1'
_cell_length_a   5.54815054
_cell_length_b   5.52545953
_cell_length_c   9.00732800
_cell_angle_alpha   90.00000000
_cell_angle_beta   90.00000000
_cell_angle_gamma   119.82681729
_symmetry_Int_Tables_number   1
_chemical_formula_structural   Hf3ScNi5Pt7
_chemical_formula_sum   'Hf3 Sc1 Ni5 Pt7'
_cell_volume   239.55127951
_cell_formula_units_Z   1
loop_
 _symmetry_equiv_pos_site_id
 _symmetry_equiv_pos_as_xyz
  1  'x, y, z'
loop_
 _atom_site_type_symbol
 _atom_site_label
 _atom_site_symmetry_multiplicity
 _atom_site_fract_x
 _atom_site_fract_y
 _atom_site_fract_z
 _atom_site_occupancy
  Hf  Hf0  1  0.002037  0.999914  0.497763  1
  Hf  Hf1  1  0.332485  0.670567  0.250000  1
  Hf  Hf2  1  0.002037  0.999914  0.002237  1
  Sc  Sc3  1  0.666523  0.333892  0.750000  1
  Ni  Ni4  1  0.177494  0.352058  0.750000  1
  Ni  Ni5  1  0.823669  0.649774  0.250000  1
  Ni  Ni6  1  0.346616  0.168174  0.250000  1
  Ni  Ni7  1  0.497404  0.999341  0.496182  1
  Ni  Ni8  1  0.497404  0.999341  0.003818  1
  Pt  Pt9  1  0.000150  0.500192  0.000989  1
  Pt  Pt10  1  0.496900  0.493289  0.005623  1
  Pt  Pt11  1  0.814812  0.161942  0.250000  1
  Pt  Pt12  1  0.496900  0.493289  0.494377  1
  Pt  Pt13  1  0.181103  0.839153  0.750000  1
  Pt  Pt14  1  0.664317  0.838970  0.750000  1
  Pt  Pt15  1  0.000150  0.500192  0.499011  1
