# generated using pymatgen
data_Tm2ThCo4Ni7B4
_symmetry_space_group_name_H-M   'P 1'
_cell_length_a   4.99075814
_cell_length_b   4.97247913
_cell_length_c   9.99703300
_cell_angle_alpha   90.00000000
_cell_angle_beta   90.00000000
_cell_angle_gamma   119.87892215
_symmetry_Int_Tables_number   1
_chemical_formula_structural   Tm2ThCo4Ni7B4
_chemical_formula_sum   'Tm2 Th1 Co4 Ni7 B4'
_cell_volume   215.11456901
_cell_formula_units_Z   1
loop_
 _symmetry_equiv_pos_site_id
 _symmetry_equiv_pos_as_xyz
  1  'x, y, z'
loop_
 _atom_site_type_symbol
 _atom_site_label
 _atom_site_symmetry_multiplicity
 _atom_site_fract_x
 _atom_site_fract_y
 _atom_site_fract_z
 _atom_site_occupancy
  Tm  Tm0  1  0.000000  0.000000  0.653106  1
  Tm  Tm1  1  0.000000  0.000000  0.346533  1
  Th  Th2  1  0.000000  0.000000  0.003549  1
  Co  Co3  1  0.500000  0.500000  0.500628  1
  Co  Co4  1  0.500000  0.000000  0.500628  1
  Co  Co5  1  0.000000  0.500000  0.499325  1
  Co  Co6  1  0.000000  0.500000  0.209580  1
  Ni  Ni7  1  0.670096  0.335047  0.999913  1
  Ni  Ni8  1  0.329904  0.664953  0.999913  1
  Ni  Ni9  1  0.500000  0.500000  0.792236  1
  Ni  Ni10  1  0.500000  0.000000  0.792236  1
  Ni  Ni11  1  0.000000  0.500000  0.792865  1
  Ni  Ni12  1  0.500000  0.500000  0.206518  1
  Ni  Ni13  1  0.500000  0.000000  0.206518  1
  B  B14  1  0.668529  0.334264  0.646948  1
  B  B15  1  0.331471  0.665736  0.646948  1
  B  B16  1  0.330013  0.665007  0.351278  1
  B  B17  1  0.669987  0.334993  0.351278  1
