# generated using pymatgen
data_Tm5BeTe4
_symmetry_space_group_name_H-M   'P 1'
_cell_length_a   7.48947877
_cell_length_b   7.48947818
_cell_length_c   10.60762691
_cell_angle_alpha   60.94974433
_cell_angle_beta   60.94974628
_cell_angle_gamma   31.85832809
_symmetry_Int_Tables_number   1
_chemical_formula_structural   Tm5BeTe4
_chemical_formula_sum   'Tm5 Be1 Te4'
_cell_volume   271.07444114
_cell_formula_units_Z   1
loop_
 _symmetry_equiv_pos_site_id
 _symmetry_equiv_pos_as_xyz
  1  'x, y, z'
loop_
 _atom_site_type_symbol
 _atom_site_label
 _atom_site_symmetry_multiplicity
 _atom_site_fract_x
 _atom_site_fract_y
 _atom_site_fract_z
 _atom_site_occupancy
  Tm  Tm0  1  0.000000  0.000000  0.500000  1
  Tm  Tm1  1  0.581994  0.581994  0.087160  1
  Tm  Tm2  1  0.178972  0.178972  0.738162  1
  Tm  Tm3  1  0.821028  0.821028  0.261838  1
  Tm  Tm4  1  0.418006  0.418006  0.912840  1
  Be  Be5  1  0.000000  0.000000  0.000000  1
  Te  Te6  1  0.611644  0.611644  0.584364  1
  Te  Te7  1  0.191820  0.191820  0.194220  1
  Te  Te8  1  0.808180  0.808180  0.805780  1
  Te  Te9  1  0.388356  0.388356  0.415636  1
