# generated using pymatgen
data_Ta3BeFe3B2
_symmetry_space_group_name_H-M   'P 1'
_cell_length_a   6.03641000
_cell_length_b   6.03641015
_cell_length_c   3.20456900
_cell_angle_alpha   90.00000000
_cell_angle_beta   90.00000000
_cell_angle_gamma   120.00001015
_symmetry_Int_Tables_number   1
_chemical_formula_structural   Ta3BeFe3B2
_chemical_formula_sum   'Ta3 Be1 Fe3 B2'
_cell_volume   101.12480211
_cell_formula_units_Z   1
loop_
 _symmetry_equiv_pos_site_id
 _symmetry_equiv_pos_as_xyz
  1  'x, y, z'
loop_
 _atom_site_type_symbol
 _atom_site_label
 _atom_site_symmetry_multiplicity
 _atom_site_fract_x
 _atom_site_fract_y
 _atom_site_fract_z
 _atom_site_occupancy
  Ta  Ta0  1  0.418052  0.000000  0.500000  1
  Ta  Ta1  1  0.000000  0.418052  0.500000  1
  Ta  Ta2  1  0.581948  0.581948  0.500000  1
  Be  Be3  1  0.000000  0.000000  0.500000  1
  Fe  Fe4  1  0.752099  0.000000  0.000000  1
  Fe  Fe5  1  0.000000  0.752099  0.000000  1
  Fe  Fe6  1  0.247901  0.247901  0.000000  1
  B  B7  1  0.333333  0.666667  0.000000  1
  B  B8  1  0.666667  0.333333  0.000000  1
