# generated using pymatgen
data_NdGd2Y2Sb3
_symmetry_space_group_name_H-M   'P 1'
_cell_length_a   9.12177400
_cell_length_b   9.00461143
_cell_length_c   6.37138100
_cell_angle_alpha   90.00000000
_cell_angle_beta   90.00000000
_cell_angle_gamma   119.57601763
_symmetry_Int_Tables_number   1
_chemical_formula_structural   NdGd2Y2Sb3
_chemical_formula_sum   'Nd2 Gd4 Y4 Sb6'
_cell_volume   455.14327656
_cell_formula_units_Z   2
loop_
 _symmetry_equiv_pos_site_id
 _symmetry_equiv_pos_as_xyz
  1  'x, y, z'
loop_
 _atom_site_type_symbol
 _atom_site_label
 _atom_site_symmetry_multiplicity
 _atom_site_fract_x
 _atom_site_fract_y
 _atom_site_fract_z
 _atom_site_occupancy
  Nd  Nd0  1  0.000000  0.758228  0.750000  1
  Nd  Nd1  1  0.000000  0.241772  0.250000  1
  Gd  Gd2  1  0.329355  0.664678  0.500000  1
  Gd  Gd3  1  0.670645  0.335322  0.000000  1
  Gd  Gd4  1  0.670645  0.335322  0.500000  1
  Gd  Gd5  1  0.329355  0.664678  0.000000  1
  Y  Y6  1  0.747504  0.748777  0.250000  1
  Y  Y7  1  0.747504  0.998727  0.750000  1
  Y  Y8  1  0.252496  0.251223  0.750000  1
  Y  Y9  1  0.252496  0.001273  0.250000  1
  Sb  Sb10  1  0.392713  0.003531  0.750000  1
  Sb  Sb11  1  0.392713  0.389182  0.250000  1
  Sb  Sb12  1  0.000000  0.616418  0.250000  1
  Sb  Sb13  1  0.000000  0.383582  0.750000  1
  Sb  Sb14  1  0.607287  0.610818  0.750000  1
  Sb  Sb15  1  0.607287  0.996469  0.250000  1
