# generated using pymatgen
data_DyY9(Ir2Rh)2
_symmetry_space_group_name_H-M   'P 1'
_cell_length_a   10.93462800
_cell_length_b   10.93462800
_cell_length_c   6.41758900
_cell_angle_alpha   90.00000000
_cell_angle_beta   90.00000000
_cell_angle_gamma   90.00000000
_symmetry_Int_Tables_number   1
_chemical_formula_structural   DyY9(Ir2Rh)2
_chemical_formula_sum   'Dy2 Y18 Ir8 Rh4'
_cell_volume   767.32602074
_cell_formula_units_Z   2
loop_
 _symmetry_equiv_pos_site_id
 _symmetry_equiv_pos_as_xyz
  1  'x, y, z'
loop_
 _atom_site_type_symbol
 _atom_site_label
 _atom_site_symmetry_multiplicity
 _atom_site_fract_x
 _atom_site_fract_y
 _atom_site_fract_z
 _atom_site_occupancy
  Dy  Dy0  1  0.500000  0.500000  0.000000  1
  Dy  Dy1  1  0.500000  0.500000  0.500000  1
  Y  Y2  1  0.290748  0.089254  0.380424  1
  Y  Y3  1  0.290748  0.910746  0.880424  1
  Y  Y4  1  0.709252  0.089254  0.880424  1
  Y  Y5  1  0.709252  0.910746  0.380424  1
  Y  Y6  1  0.589130  0.790791  0.880554  1
  Y  Y7  1  0.589130  0.209209  0.380554  1
  Y  Y8  1  0.410870  0.790791  0.380554  1
  Y  Y9  1  0.410870  0.209209  0.880554  1
  Y  Y10  1  0.209209  0.410870  0.619446  1
  Y  Y11  1  0.209209  0.589130  0.119446  1
  Y  Y12  1  0.790791  0.410870  0.119446  1
  Y  Y13  1  0.790791  0.589130  0.619446  1
  Y  Y14  1  0.910746  0.709252  0.119576  1
  Y  Y15  1  0.910746  0.290748  0.619576  1
  Y  Y16  1  0.089254  0.709252  0.619576  1
  Y  Y17  1  0.089254  0.290748  0.119576  1
  Y  Y18  1  0.000000  0.000000  0.500000  1
  Y  Y19  1  0.000000  0.000000  0.000000  1
  Ir  Ir20  1  0.846017  0.153983  0.250000  1
  Ir  Ir21  1  0.846017  0.846017  0.750000  1
  Ir  Ir22  1  0.153983  0.153983  0.750000  1
  Ir  Ir23  1  0.153983  0.846017  0.250000  1
  Ir  Ir24  1  0.652728  0.347272  0.750000  1
  Ir  Ir25  1  0.652728  0.652728  0.250000  1
  Ir  Ir26  1  0.347272  0.347272  0.250000  1
  Ir  Ir27  1  0.347272  0.652728  0.750000  1
  Rh  Rh28  1  0.500000  0.000000  0.125690  1
  Rh  Rh29  1  0.500000  0.000000  0.625690  1
  Rh  Rh30  1  0.000000  0.500000  0.874310  1
  Rh  Rh31  1  0.000000  0.500000  0.374310  1
