# generated using pymatgen
data_NdYTh(Ga2Ni3)3
_symmetry_space_group_name_H-M   'P 1'
_cell_length_a   8.81906600
_cell_length_b   8.81906583
_cell_length_c   4.14003000
_cell_angle_alpha   90.00000000
_cell_angle_beta   90.00000000
_cell_angle_gamma   120.00000063
_symmetry_Int_Tables_number   1
_chemical_formula_structural   NdYTh(Ga2Ni3)3
_chemical_formula_sum   'Nd1 Y1 Th1 Ga6 Ni9'
_cell_volume   278.85555118
_cell_formula_units_Z   1
loop_
 _symmetry_equiv_pos_site_id
 _symmetry_equiv_pos_as_xyz
  1  'x, y, z'
loop_
 _atom_site_type_symbol
 _atom_site_label
 _atom_site_symmetry_multiplicity
 _atom_site_fract_x
 _atom_site_fract_y
 _atom_site_fract_z
 _atom_site_occupancy
  Nd  Nd0  1  0.666667  0.333333  0.500000  1
  Y  Y1  1  0.333333  0.666667  0.500000  1
  Th  Th2  1  0.000000  0.000000  0.000000  1
  Ga  Ga3  1  0.478562  0.998469  0.000000  1
  Ga  Ga4  1  0.001531  0.480094  0.000000  1
  Ga  Ga5  1  0.519906  0.521438  0.000000  1
  Ga  Ga6  1  0.718582  0.998691  0.500000  1
  Ga  Ga7  1  0.001309  0.719891  0.500000  1
  Ga  Ga8  1  0.280109  0.281418  0.500000  1
  Ni  Ni9  1  0.200017  0.373176  0.000000  1
  Ni  Ni10  1  0.626824  0.826841  0.000000  1
  Ni  Ni11  1  0.173159  0.799983  0.000000  1
  Ni  Ni12  1  0.828755  0.631764  0.000000  1
  Ni  Ni13  1  0.803009  0.171245  0.000000  1
  Ni  Ni14  1  0.368236  0.196991  0.000000  1
  Ni  Ni15  1  0.288981  0.998688  0.500000  1
  Ni  Ni16  1  0.001312  0.290294  0.500000  1
  Ni  Ni17  1  0.709706  0.711019  0.500000  1
