# generated using pymatgen
data_Ac2La(MgIr)3
_symmetry_space_group_name_H-M   'P 1'
_cell_length_a   7.60622071
_cell_length_b   7.60622240
_cell_length_c   4.26890300
_cell_angle_alpha   90.00000000
_cell_angle_beta   90.00000000
_cell_angle_gamma   119.81696826
_symmetry_Int_Tables_number   1
_chemical_formula_structural   Ac2La(MgIr)3
_chemical_formula_sum   'Ac2 La1 Mg3 Ir3'
_cell_volume   214.28062322
_cell_formula_units_Z   1
loop_
 _symmetry_equiv_pos_site_id
 _symmetry_equiv_pos_as_xyz
  1  'x, y, z'
loop_
 _atom_site_type_symbol
 _atom_site_label
 _atom_site_symmetry_multiplicity
 _atom_site_fract_x
 _atom_site_fract_y
 _atom_site_fract_z
 _atom_site_occupancy
  Ac  Ac0  1  0.585566  0.000077  0.000000  1
  Ac  Ac1  1  0.000077  0.585566  0.000000  1
  La  La2  1  0.413048  0.413048  0.000000  1
  Mg  Mg3  1  0.235277  0.006948  0.500000  1
  Mg  Mg4  1  0.006948  0.235277  0.500000  1
  Mg  Mg5  1  0.761932  0.761932  0.500000  1
  Ir  Ir6  1  0.335140  0.660556  0.500000  1
  Ir  Ir7  1  0.660556  0.335140  0.500000  1
  Ir  Ir8  1  0.001459  0.001459  0.000000  1
