# generated using pymatgen
data_Ce2As2RuRh3Au2
_symmetry_space_group_name_H-M   'P 1'
_cell_length_a   4.05791000
_cell_length_b   4.05791000
_cell_length_c   11.44316100
_cell_angle_alpha   90.00000000
_cell_angle_beta   90.00000000
_cell_angle_gamma   90.00000000
_symmetry_Int_Tables_number   1
_chemical_formula_structural   Ce2As2RuRh3Au2
_chemical_formula_sum   'Ce2 As2 Ru1 Rh3 Au2'
_cell_volume   188.43033905
_cell_formula_units_Z   1
loop_
 _symmetry_equiv_pos_site_id
 _symmetry_equiv_pos_as_xyz
  1  'x, y, z'
loop_
 _atom_site_type_symbol
 _atom_site_label
 _atom_site_symmetry_multiplicity
 _atom_site_fract_x
 _atom_site_fract_y
 _atom_site_fract_z
 _atom_site_occupancy
  Ce  Ce0  1  0.000000  0.500000  0.255002  1
  Ce  Ce1  1  0.500000  0.000000  0.744998  1
  As  As2  1  0.000000  0.500000  0.880865  1
  As  As3  1  0.500000  0.000000  0.119135  1
  Ru  Ru4  1  0.000000  0.000000  0.000000  1
  Rh  Rh5  1  0.500000  0.500000  0.000000  1
  Rh  Rh6  1  0.000000  0.500000  0.672441  1
  Rh  Rh7  1  0.500000  0.000000  0.327559  1
  Au  Au8  1  0.000000  0.000000  0.500000  1
  Au  Au9  1  0.500000  0.500000  0.500000  1
