# generated using pymatgen
data_TbDyErTaO7
_symmetry_space_group_name_H-M   'P 1'
_cell_length_a   6.49015770
_cell_length_b   6.49015862
_cell_length_c   7.46885300
_cell_angle_alpha   89.95961820
_cell_angle_beta   89.95961750
_cell_angle_gamma   108.57124261
_symmetry_Int_Tables_number   1
_chemical_formula_structural   TbDyErTaO7
_chemical_formula_sum   'Tb2 Dy2 Er2 Ta2 O14'
_cell_volume   298.22200253
_cell_formula_units_Z   2
loop_
 _symmetry_equiv_pos_site_id
 _symmetry_equiv_pos_as_xyz
  1  'x, y, z'
loop_
 _atom_site_type_symbol
 _atom_site_label
 _atom_site_symmetry_multiplicity
 _atom_site_fract_x
 _atom_site_fract_y
 _atom_site_fract_z
 _atom_site_occupancy
  Tb  Tb0  1  0.463636  0.462697  0.000804  1
  Tb  Tb1  1  0.537303  0.536364  0.499196  1
  Dy  Dy2  1  0.999935  0.465109  0.741305  1
  Dy  Dy3  1  0.534891  0.000065  0.758695  1
  Er  Er4  1  0.000727  0.535188  0.241012  1
  Er  Er5  1  0.464812  0.999273  0.258988  1
  Ta  Ta6  1  0.002376  0.002790  0.498852  1
  Ta  Ta7  1  0.997210  0.997624  0.001148  1
  O  O8  1  0.931998  0.068002  0.750000  1
  O  O9  1  0.639993  0.360007  0.750000  1
  O  O10  1  0.308616  0.050791  0.543130  1
  O  O11  1  0.949209  0.691384  0.956870  1
  O  O12  1  0.630916  0.369084  0.250000  1
  O  O13  1  0.917956  0.671241  0.522969  1
  O  O14  1  0.328759  0.082044  0.977031  1
  O  O15  1  0.081489  0.328482  0.026171  1
  O  O16  1  0.671518  0.918511  0.473829  1
  O  O17  1  0.370336  0.629664  0.750000  1
  O  O18  1  0.692892  0.952971  0.047302  1
  O  O19  1  0.047029  0.307108  0.452698  1
  O  O20  1  0.357775  0.642225  0.250000  1
  O  O21  1  0.070627  0.929373  0.250000  1
