# generated using pymatgen
data_Ce2NdIn3PdRh2
_symmetry_space_group_name_H-M   'P 1'
_cell_length_a   7.50987600
_cell_length_b   7.69010864
_cell_length_c   4.02991900
_cell_angle_alpha   90.00000000
_cell_angle_beta   90.00000000
_cell_angle_gamma   119.22768535
_symmetry_Int_Tables_number   1
_chemical_formula_structural   Ce2NdIn3PdRh2
_chemical_formula_sum   'Ce2 Nd1 In3 Pd1 Rh2'
_cell_volume   203.10456612
_cell_formula_units_Z   1
loop_
 _symmetry_equiv_pos_site_id
 _symmetry_equiv_pos_as_xyz
  1  'x, y, z'
loop_
 _atom_site_type_symbol
 _atom_site_label
 _atom_site_symmetry_multiplicity
 _atom_site_fract_x
 _atom_site_fract_y
 _atom_site_fract_z
 _atom_site_occupancy
  Ce  Ce0  1  0.998222  0.416265  0.500000  1
  Ce  Ce1  1  0.581957  0.583735  0.500000  1
  Nd  Nd2  1  0.412082  0.000000  0.500000  1
  In  In3  1  0.740331  0.000000  0.000000  1
  In  In4  1  0.006437  0.754010  0.000000  1
  In  In5  1  0.252427  0.245990  0.000000  1
  Pd  Pd6  1  0.990302  0.000000  0.500000  1
  Rh  Rh7  1  0.331195  0.644150  0.000000  1
  Rh  Rh8  1  0.687046  0.355850  0.000000  1
