# generated using pymatgen
data_La5(ThTe4)3
_symmetry_space_group_name_H-M   'P 1'
_cell_length_a   4.49948800
_cell_length_b   12.02537191
_cell_length_c   12.35069885
_cell_angle_alpha   89.72768588
_cell_angle_beta   90.00000000
_cell_angle_gamma   90.00000000
_symmetry_Int_Tables_number   1
_chemical_formula_structural   La5(ThTe4)3
_chemical_formula_sum   'La5 Th3 Te12'
_cell_volume   668.26427038
_cell_formula_units_Z   1
loop_
 _symmetry_equiv_pos_site_id
 _symmetry_equiv_pos_as_xyz
  1  'x, y, z'
loop_
 _atom_site_type_symbol
 _atom_site_label
 _atom_site_symmetry_multiplicity
 _atom_site_fract_x
 _atom_site_fract_y
 _atom_site_fract_z
 _atom_site_occupancy
  La  La0  1  0.250000  0.003618  0.303160  1
  La  La1  1  0.750000  0.997679  0.695942  1
  La  La2  1  0.750000  0.499150  0.193272  1
  La  La3  1  0.250000  0.499191  0.805045  1
  La  La4  1  0.250000  0.689309  0.485149  1
  Th  Th5  1  0.750000  0.312147  0.515166  1
  Th  Th6  1  0.750000  0.187639  0.015478  1
  Th  Th7  1  0.250000  0.812039  0.985109  1
  Te  Te8  1  0.250000  0.056692  0.882609  1
  Te  Te9  1  0.750000  0.943950  0.118232  1
  Te  Te10  1  0.750000  0.553226  0.619634  1
  Te  Te11  1  0.250000  0.442059  0.380683  1
  Te  Te12  1  0.250000  0.128853  0.547081  1
  Te  Te13  1  0.750000  0.877765  0.453479  1
  Te  Te14  1  0.750000  0.627580  0.953410  1
  Te  Te15  1  0.250000  0.371595  0.046010  1
  Te  Te16  1  0.250000  0.703271  0.222833  1
  Te  Te17  1  0.750000  0.293884  0.773842  1
  Te  Te18  1  0.750000  0.205703  0.273380  1
  Te  Te19  1  0.250000  0.794649  0.730489  1
