# generated using pymatgen
data_Nd2Si14Ir5Ru
_symmetry_space_group_name_H-M   'P 1'
_cell_length_a   8.08423297
_cell_length_b   8.08423341
_cell_length_c   8.10446500
_cell_angle_alpha   56.68768337
_cell_angle_beta   56.68768131
_cell_angle_gamma   56.73582569
_symmetry_Int_Tables_number   1
_chemical_formula_structural   Nd2Si14Ir5Ru
_chemical_formula_sum   'Nd2 Si14 Ir5 Ru1'
_cell_volume   346.02299210
_cell_formula_units_Z   1
loop_
 _symmetry_equiv_pos_site_id
 _symmetry_equiv_pos_as_xyz
  1  'x, y, z'
loop_
 _atom_site_type_symbol
 _atom_site_label
 _atom_site_symmetry_multiplicity
 _atom_site_fract_x
 _atom_site_fract_y
 _atom_site_fract_z
 _atom_site_occupancy
  Nd  Nd0  1  0.000804  0.002335  0.997672  1
  Nd  Nd1  1  0.497665  0.499196  0.502328  1
  Si  Si2  1  0.754121  0.745879  0.750000  1
  Si  Si3  1  0.249441  0.250559  0.250000  1
  Si  Si4  1  0.850423  0.063875  0.672441  1
  Si  Si5  1  0.672098  0.851659  0.063488  1
  Si  Si6  1  0.063646  0.669690  0.850593  1
  Si  Si7  1  0.648341  0.827902  0.436512  1
  Si  Si8  1  0.436125  0.649577  0.827559  1
  Si  Si9  1  0.830310  0.436354  0.649407  1
  Si  Si10  1  0.170885  0.563274  0.354998  1
  Si  Si11  1  0.564076  0.351256  0.172129  1
  Si  Si12  1  0.349324  0.174710  0.564234  1
  Si  Si13  1  0.936726  0.329115  0.145002  1
  Si  Si14  1  0.325290  0.150676  0.935766  1
  Si  Si15  1  0.148744  0.935924  0.327871  1
  Ir  Ir16  1  0.250418  0.930910  0.568519  1
  Ir  Ir17  1  0.569090  0.249582  0.931481  1
  Ir  Ir18  1  0.929622  0.570378  0.250000  1
  Ir  Ir19  1  0.431136  0.750146  0.069129  1
  Ir  Ir20  1  0.749854  0.068864  0.430871  1
  Ru  Ru21  1  0.071862  0.428138  0.750000  1
