# generated using pymatgen
data_Th3Sn3PdRuRh
_symmetry_space_group_name_H-M   'P 1'
_cell_length_a   7.59540900
_cell_length_b   7.59540862
_cell_length_c   4.16003100
_cell_angle_alpha   90.00000000
_cell_angle_beta   90.00000000
_cell_angle_gamma   119.99999728
_symmetry_Int_Tables_number   1
_chemical_formula_structural   Th3Sn3PdRuRh
_chemical_formula_sum   'Th3 Sn3 Pd1 Ru1 Rh1'
_cell_volume   207.84018424
_cell_formula_units_Z   1
loop_
 _symmetry_equiv_pos_site_id
 _symmetry_equiv_pos_as_xyz
  1  'x, y, z'
loop_
 _atom_site_type_symbol
 _atom_site_label
 _atom_site_symmetry_multiplicity
 _atom_site_fract_x
 _atom_site_fract_y
 _atom_site_fract_z
 _atom_site_occupancy
  Th  Th0  1  0.007751  0.409673  0.000000  1
  Th  Th1  1  0.590327  0.598079  0.000000  1
  Th  Th2  1  0.401921  0.992249  0.000000  1
  Sn  Sn3  1  0.250947  0.249545  0.500000  1
  Sn  Sn4  1  0.998597  0.749053  0.500000  1
  Sn  Sn5  1  0.750455  0.001403  0.500000  1
  Pd  Pd6  1  0.666667  0.333333  0.500000  1
  Ru  Ru7  1  0.000000  0.000000  0.000000  1
  Rh  Rh8  1  0.333333  0.666667  0.500000  1
