# generated using pymatgen
data_Hf8Cr2Bi3Pb
_symmetry_space_group_name_H-M   'P 1'
_cell_length_a   8.27292393
_cell_length_b   8.27292312
_cell_length_c   8.26703917
_cell_angle_alpha   96.18200771
_cell_angle_beta   96.18200536
_cell_angle_gamma   141.70023078
_symmetry_Int_Tables_number   1
_chemical_formula_structural   Hf8Cr2Bi3Pb
_chemical_formula_sum   'Hf8 Cr2 Bi3 Pb1'
_cell_volume   331.23987001
_cell_formula_units_Z   1
loop_
 _symmetry_equiv_pos_site_id
 _symmetry_equiv_pos_as_xyz
  1  'x, y, z'
loop_
 _atom_site_type_symbol
 _atom_site_label
 _atom_site_symmetry_multiplicity
 _atom_site_fract_x
 _atom_site_fract_y
 _atom_site_fract_z
 _atom_site_occupancy
  Hf  Hf0  1  0.079938  0.192324  0.272261  1
  Hf  Hf1  1  0.921104  0.807138  0.728243  1
  Hf  Hf2  1  0.806894  0.079863  0.886755  1
  Hf  Hf3  1  0.420266  0.692414  0.112682  1
  Hf  Hf4  1  0.192414  0.920266  0.112682  1
  Hf  Hf5  1  0.579863  0.306894  0.886755  1
  Hf  Hf6  1  0.692324  0.579938  0.272261  1
  Hf  Hf7  1  0.307138  0.421104  0.728243  1
  Cr  Cr8  1  0.250188  0.250188  0.000375  1
  Cr  Cr9  1  0.750188  0.750188  0.000375  1
  Bi  Bi10  1  0.861834  0.361834  0.223669  1
  Bi  Bi11  1  0.361873  0.138163  0.500036  1
  Bi  Bi12  1  0.638163  0.861873  0.500036  1
  Pb  Pb13  1  0.137813  0.637813  0.775625  1
