# generated using pymatgen
data_Ti(AgTe)4
_symmetry_space_group_name_H-M   'P 1'
_cell_length_a   7.87921698
_cell_length_b   7.87921752
_cell_length_c   7.87921680
_cell_angle_alpha   131.25616086
_cell_angle_beta   131.25615198
_cell_angle_gamma   71.40641471
_symmetry_Int_Tables_number   1
_chemical_formula_structural   Ti(AgTe)4
_chemical_formula_sum   'Ti1 Ag4 Te4'
_cell_volume   270.56595994
_cell_formula_units_Z   1
loop_
 _symmetry_equiv_pos_site_id
 _symmetry_equiv_pos_as_xyz
  1  'x, y, z'
loop_
 _atom_site_type_symbol
 _atom_site_label
 _atom_site_symmetry_multiplicity
 _atom_site_fract_x
 _atom_site_fract_y
 _atom_site_fract_z
 _atom_site_occupancy
  Ti  Ti0  1  0.000000  0.000000  0.000000  1
  Ag  Ag1  1  0.500000  0.000000  0.500000  1
  Ag  Ag2  1  0.000000  0.500000  0.500000  1
  Ag  Ag3  1  0.750213  0.750213  0.000000  1
  Ag  Ag4  1  0.249787  0.249787  0.000000  1
  Te  Te5  1  0.363782  0.363782  0.483514  1
  Te  Te6  1  0.636218  0.119734  0.000000  1
  Te  Te7  1  0.880266  0.880266  0.516486  1
  Te  Te8  1  0.119734  0.636218  0.000000  1
