# generated using pymatgen
data_Zr20(ZnSb3)3
_symmetry_space_group_name_H-M   'P 1'
_cell_length_a   5.56081400
_cell_length_b   8.40038512
_cell_length_c   15.79692700
_cell_angle_alpha   90.00000000
_cell_angle_beta   90.00000000
_cell_angle_gamma   109.32861187
_symmetry_Int_Tables_number   1
_chemical_formula_structural   Zr20(ZnSb3)3
_chemical_formula_sum   'Zr20 Zn3 Sb9'
_cell_volume   696.32915413
_cell_formula_units_Z   1
loop_
 _symmetry_equiv_pos_site_id
 _symmetry_equiv_pos_as_xyz
  1  'x, y, z'
loop_
 _atom_site_type_symbol
 _atom_site_label
 _atom_site_symmetry_multiplicity
 _atom_site_fract_x
 _atom_site_fract_y
 _atom_site_fract_z
 _atom_site_occupancy
  Zr  Zr0  1  0.430196  0.859740  0.355557  1
  Zr  Zr1  1  0.924184  0.860302  0.851450  1
  Zr  Zr2  1  0.063882  0.139698  0.148550  1
  Zr  Zr3  1  0.570456  0.140260  0.644443  1
  Zr  Zr4  1  0.653126  0.294855  0.070566  1
  Zr  Zr5  1  0.145315  0.290066  0.567970  1
  Zr  Zr6  1  0.855250  0.709934  0.432030  1
  Zr  Zr7  1  0.358272  0.705145  0.929434  1
  Zr  Zr8  1  0.846874  0.705145  0.070566  1
  Zr  Zr9  1  0.354685  0.709934  0.567970  1
  Zr  Zr10  1  0.644750  0.290066  0.432030  1
  Zr  Zr11  1  0.141728  0.294855  0.929434  1
  Zr  Zr12  1  0.069804  0.140260  0.355557  1
  Zr  Zr13  1  0.575816  0.139698  0.851450  1
  Zr  Zr14  1  0.436118  0.860302  0.148550  1
  Zr  Zr15  1  0.929544  0.859740  0.644443  1
  Zr  Zr16  1  0.500595  0.500160  0.250517  1
  Zr  Zr17  1  0.000435  0.499840  0.749483  1
  Zr  Zr18  1  0.999405  0.499840  0.250517  1
  Zr  Zr19  1  0.499565  0.500160  0.749483  1
  Zn  Zn20  1  0.750000  0.000000  0.500000  1
  Zn  Zn21  1  0.750000  0.000000  0.000000  1
  Zn  Zn22  1  0.250000  0.000000  0.500000  1
  Sb  Sb23  1  0.915166  0.826751  0.252147  1
  Sb  Sb24  1  0.411585  0.826751  0.747853  1
  Sb  Sb25  1  0.584834  0.173249  0.252147  1
  Sb  Sb26  1  0.088415  0.173249  0.747853  1
  Sb  Sb27  1  0.250000  0.500000  0.086676  1
  Sb  Sb28  1  0.750000  0.500000  0.586235  1
  Sb  Sb29  1  0.250000  0.500000  0.413765  1
  Sb  Sb30  1  0.750000  0.500000  0.913324  1
  Sb  Sb31  1  0.250000  0.000000  0.000000  1
