# generated using pymatgen
data_Tm4TcBr4
_symmetry_space_group_name_H-M   'P 1'
_cell_length_a   8.86835664
_cell_length_b   8.86835588
_cell_length_c   6.53677528
_cell_angle_alpha   89.39188588
_cell_angle_beta   89.39188011
_cell_angle_gamma   89.25318078
_symmetry_Int_Tables_number   1
_chemical_formula_structural   Tm4TcBr4
_chemical_formula_sum   'Tm8 Tc2 Br8'
_cell_volume   514.00178409
_cell_formula_units_Z   2
loop_
 _symmetry_equiv_pos_site_id
 _symmetry_equiv_pos_as_xyz
  1  'x, y, z'
loop_
 _atom_site_type_symbol
 _atom_site_label
 _atom_site_symmetry_multiplicity
 _atom_site_fract_x
 _atom_site_fract_y
 _atom_site_fract_z
 _atom_site_occupancy
  Tm  Tm0  1  0.752942  0.098314  0.988888  1
  Tm  Tm1  1  0.098314  0.752942  0.488888  1
  Tm  Tm2  1  0.096539  0.246326  0.991888  1
  Tm  Tm3  1  0.246326  0.096539  0.491888  1
  Tm  Tm4  1  0.903461  0.753674  0.008112  1
  Tm  Tm5  1  0.901686  0.247058  0.511112  1
  Tm  Tm6  1  0.247058  0.901686  0.011112  1
  Tm  Tm7  1  0.753674  0.903461  0.508112  1
  Tc  Tc8  1  0.993734  0.006266  0.250000  1
  Tc  Tc9  1  0.006266  0.993734  0.750000  1
  Br  Br10  1  0.579237  0.183725  0.591379  1
  Br  Br11  1  0.809367  0.583926  0.406119  1
  Br  Br12  1  0.416074  0.190633  0.093881  1
  Br  Br13  1  0.190633  0.416074  0.593881  1
  Br  Br14  1  0.583926  0.809367  0.906119  1
  Br  Br15  1  0.420763  0.816275  0.408621  1
  Br  Br16  1  0.183725  0.579237  0.091379  1
  Br  Br17  1  0.816275  0.420763  0.908621  1
