# generated using pymatgen
data_Tb4Pr3Y(CdIr)2
_symmetry_space_group_name_H-M   'P 1'
_cell_length_a   9.79977011
_cell_length_b   9.79976903
_cell_length_c   9.81047900
_cell_angle_alpha   59.96384462
_cell_angle_beta   59.96384826
_cell_angle_gamma   60.07231198
_symmetry_Int_Tables_number   1
_chemical_formula_structural   Tb4Pr3Y(CdIr)2
_chemical_formula_sum   'Tb8 Pr6 Y2 Cd4 Ir4'
_cell_volume   666.20198150
_cell_formula_units_Z   2
loop_
 _symmetry_equiv_pos_site_id
 _symmetry_equiv_pos_as_xyz
  1  'x, y, z'
loop_
 _atom_site_type_symbol
 _atom_site_label
 _atom_site_symmetry_multiplicity
 _atom_site_fract_x
 _atom_site_fract_y
 _atom_site_fract_z
 _atom_site_occupancy
  Tb  Tb0  1  0.347268  0.347268  0.347697  1
  Tb  Tb1  1  0.347268  0.347268  0.957766  1
  Tb  Tb2  1  0.347697  0.957766  0.347268  1
  Tb  Tb3  1  0.957766  0.347697  0.347268  1
  Tb  Tb4  1  0.812259  0.187741  0.187741  1
  Tb  Tb5  1  0.187741  0.812259  0.812259  1
  Tb  Tb6  1  0.187741  0.812259  0.187741  1
  Tb  Tb7  1  0.812259  0.187741  0.812259  1
  Pr  Pr8  1  0.940851  0.559149  0.559149  1
  Pr  Pr9  1  0.559149  0.940851  0.940851  1
  Pr  Pr10  1  0.559149  0.940851  0.559149  1
  Pr  Pr11  1  0.940851  0.559149  0.940851  1
  Pr  Pr12  1  0.558903  0.558903  0.941097  1
  Pr  Pr13  1  0.941097  0.941097  0.558903  1
  Y  Y14  1  0.188085  0.188085  0.811915  1
  Y  Y15  1  0.811915  0.811915  0.188085  1
  Cd  Cd16  1  0.579374  0.579374  0.579133  1
  Cd  Cd17  1  0.579374  0.579374  0.262119  1
  Cd  Cd18  1  0.579133  0.262119  0.579374  1
  Cd  Cd19  1  0.262119  0.579133  0.579374  1
  Ir  Ir20  1  0.141062  0.141062  0.141902  1
  Ir  Ir21  1  0.141062  0.141062  0.575974  1
  Ir  Ir22  1  0.141902  0.575974  0.141062  1
  Ir  Ir23  1  0.575974  0.141902  0.141062  1
