# generated using pymatgen
data_Eu2Ga5SiPt2
_symmetry_space_group_name_H-M   'P 1'
_cell_length_a   6.15458200
_cell_length_b   6.15458150
_cell_length_c   6.11458900
_cell_angle_alpha   90.00000000
_cell_angle_beta   90.00000000
_cell_angle_gamma   117.42042736
_symmetry_Int_Tables_number   1
_chemical_formula_structural   Eu2Ga5SiPt2
_chemical_formula_sum   'Eu2 Ga5 Si1 Pt2'
_cell_volume   205.59224652
_cell_formula_units_Z   1
loop_
 _symmetry_equiv_pos_site_id
 _symmetry_equiv_pos_as_xyz
  1  'x, y, z'
loop_
 _atom_site_type_symbol
 _atom_site_label
 _atom_site_symmetry_multiplicity
 _atom_site_fract_x
 _atom_site_fract_y
 _atom_site_fract_z
 _atom_site_occupancy
  Eu  Eu0  1  0.238187  0.761813  0.750000  1
  Eu  Eu1  1  0.760754  0.239246  0.250000  1
  Ga  Ga2  1  0.347163  0.652837  0.250000  1
  Ga  Ga3  1  0.735535  0.731250  0.994500  1
  Ga  Ga4  1  0.735535  0.731250  0.505500  1
  Ga  Ga5  1  0.268750  0.264465  0.994500  1
  Ga  Ga6  1  0.268750  0.264465  0.505500  1
  Si  Si7  1  0.654840  0.345160  0.750000  1
  Pt  Pt8  1  0.880729  0.119271  0.750000  1
  Pt  Pt9  1  0.109757  0.890243  0.250000  1
