# generated using pymatgen
data_Hf5VSn2
_symmetry_space_group_name_H-M   'P 1'
_cell_length_a   5.51246354
_cell_length_b   8.35754679
_cell_length_c   8.35754631
_cell_angle_alpha   83.75608999
_cell_angle_beta   70.74399704
_cell_angle_gamma   70.74398812
_symmetry_Int_Tables_number   1
_chemical_formula_structural   Hf5VSn2
_chemical_formula_sum   'Hf10 V2 Sn4'
_cell_volume   343.16060422
_cell_formula_units_Z   2
loop_
 _symmetry_equiv_pos_site_id
 _symmetry_equiv_pos_as_xyz
  1  'x, y, z'
loop_
 _atom_site_type_symbol
 _atom_site_label
 _atom_site_symmetry_multiplicity
 _atom_site_fract_x
 _atom_site_fract_y
 _atom_site_fract_z
 _atom_site_occupancy
  Hf  Hf0  1  0.073229  0.129988  0.723554  1
  Hf  Hf1  1  0.926771  0.870012  0.276446  1
  Hf  Hf2  1  0.796783  0.276446  0.129988  1
  Hf  Hf3  1  0.426771  0.276446  0.870012  1
  Hf  Hf4  1  0.203217  0.723554  0.870012  1
  Hf  Hf5  1  0.573229  0.723554  0.129988  1
  Hf  Hf6  1  0.703217  0.870012  0.723554  1
  Hf  Hf7  1  0.296783  0.129988  0.276446  1
  Hf  Hf8  1  0.250000  0.500000  0.500000  1
  Hf  Hf9  1  0.750000  0.500000  0.500000  1
  V  V10  1  0.250000  0.000000  0.000000  1
  V  V11  1  0.750000  0.000000  0.000000  1
  Sn  Sn12  1  0.163107  0.500000  0.173785  1
  Sn  Sn13  1  0.836893  0.500000  0.826215  1
  Sn  Sn14  1  0.336893  0.826215  0.500000  1
  Sn  Sn15  1  0.663107  0.173785  0.500000  1
