# generated using pymatgen
data_Zr2Ti2BCl6
_symmetry_space_group_name_H-M   'P 1'
_cell_length_a   3.48157900
_cell_length_b   11.88576100
_cell_length_c   12.27958900
_cell_angle_alpha   90.00000000
_cell_angle_beta   90.00000000
_cell_angle_gamma   90.00000000
_symmetry_Int_Tables_number   1
_chemical_formula_structural   Zr2Ti2BCl6
_chemical_formula_sum   'Zr4 Ti4 B2 Cl12'
_cell_volume   508.14432353
_cell_formula_units_Z   2
loop_
 _symmetry_equiv_pos_site_id
 _symmetry_equiv_pos_as_xyz
  1  'x, y, z'
loop_
 _atom_site_type_symbol
 _atom_site_label
 _atom_site_symmetry_multiplicity
 _atom_site_fract_x
 _atom_site_fract_y
 _atom_site_fract_z
 _atom_site_occupancy
  Zr  Zr0  1  0.000000  0.102669  0.081962  1
  Zr  Zr1  1  0.000000  0.897331  0.918038  1
  Zr  Zr2  1  0.000000  0.602669  0.418038  1
  Zr  Zr3  1  0.000000  0.397331  0.581962  1
  Ti  Ti4  1  0.500000  0.115698  0.864561  1
  Ti  Ti5  1  0.500000  0.884302  0.135439  1
  Ti  Ti6  1  0.500000  0.615698  0.635439  1
  Ti  Ti7  1  0.500000  0.384302  0.364561  1
  B  B8  1  0.500000  0.000000  0.000000  1
  B  B9  1  0.500000  0.500000  0.500000  1
  Cl  Cl10  1  0.500000  0.263442  0.685725  1
  Cl  Cl11  1  0.500000  0.736558  0.314275  1
  Cl  Cl12  1  0.500000  0.763442  0.814275  1
  Cl  Cl13  1  0.500000  0.236558  0.185725  1
  Cl  Cl14  1  0.000000  0.252033  0.928155  1
  Cl  Cl15  1  0.000000  0.747967  0.071845  1
  Cl  Cl16  1  0.000000  0.475149  0.247101  1
  Cl  Cl17  1  0.000000  0.524851  0.752899  1
  Cl  Cl18  1  0.000000  0.975149  0.252899  1
  Cl  Cl19  1  0.000000  0.024851  0.747101  1
  Cl  Cl20  1  0.000000  0.247967  0.428155  1
  Cl  Cl21  1  0.000000  0.752033  0.571845  1
