# generated using pymatgen
data_YbEr3(Mo2O7)2
_symmetry_space_group_name_H-M   'P 1'
_cell_length_a   7.26601363
_cell_length_b   7.26601447
_cell_length_c   7.39117969
_cell_angle_alpha   60.55862432
_cell_angle_beta   60.55861872
_cell_angle_gamma   59.99999693
_symmetry_Int_Tables_number   1
_chemical_formula_structural   YbEr3(Mo2O7)2
_chemical_formula_sum   'Yb1 Er3 Mo4 O14'
_cell_volume   278.23199195
_cell_formula_units_Z   1
loop_
 _symmetry_equiv_pos_site_id
 _symmetry_equiv_pos_as_xyz
  1  'x, y, z'
loop_
 _atom_site_type_symbol
 _atom_site_label
 _atom_site_symmetry_multiplicity
 _atom_site_fract_x
 _atom_site_fract_y
 _atom_site_fract_z
 _atom_site_occupancy
  Yb  Yb0  1  0.125000  0.125000  0.625000  1
  Er  Er1  1  0.625000  0.125000  0.125000  1
  Er  Er2  1  0.125000  0.625000  0.125000  1
  Er  Er3  1  0.125000  0.125000  0.125000  1
  Mo  Mo4  1  0.125000  0.625000  0.625000  1
  Mo  Mo5  1  0.625000  0.125000  0.625000  1
  Mo  Mo6  1  0.625000  0.625000  0.125000  1
  Mo  Mo7  1  0.625000  0.625000  0.625000  1
  O  O8  1  0.709886  0.709886  0.284839  1
  O  O9  1  0.286612  0.286612  0.726809  1
  O  O10  1  0.699965  0.286612  0.726809  1
  O  O11  1  0.295388  0.709886  0.284839  1
  O  O12  1  0.286612  0.699965  0.726809  1
  O  O13  1  0.709886  0.295388  0.284839  1
  O  O14  1  0.540114  0.540114  0.965161  1
  O  O15  1  0.963388  0.963388  0.523191  1
  O  O16  1  0.550035  0.963388  0.523191  1
  O  O17  1  0.954612  0.540114  0.965161  1
  O  O18  1  0.963388  0.550035  0.523191  1
  O  O19  1  0.540114  0.954612  0.965161  1
  O  O20  1  0.252996  0.252996  0.241012  1
  O  O21  1  0.997004  0.997004  0.008988  1
