# generated using pymatgen
data_Dy2ErTm(NiP)4
_symmetry_space_group_name_H-M   'P 1'
_cell_length_a   3.88777700
_cell_length_b   3.88777892
_cell_length_c   15.30514200
_cell_angle_alpha   90.00000000
_cell_angle_beta   90.00000000
_cell_angle_gamma   120.00000917
_symmetry_Int_Tables_number   1
_chemical_formula_structural   Dy2ErTm(NiP)4
_chemical_formula_sum   'Dy2 Er1 Tm1 Ni4 P4'
_cell_volume   200.34147271
_cell_formula_units_Z   1
loop_
 _symmetry_equiv_pos_site_id
 _symmetry_equiv_pos_as_xyz
  1  'x, y, z'
loop_
 _atom_site_type_symbol
 _atom_site_label
 _atom_site_symmetry_multiplicity
 _atom_site_fract_x
 _atom_site_fract_y
 _atom_site_fract_z
 _atom_site_occupancy
  Dy  Dy0  1  0.000000  0.000000  0.500371  1
  Dy  Dy1  1  0.000000  0.000000  0.999769  1
  Er  Er2  1  0.000000  0.000000  0.249668  1
  Tm  Tm3  1  0.000000  0.000000  0.750050  1
  Ni  Ni4  1  0.333333  0.666667  0.369563  1
  Ni  Ni5  1  0.666667  0.333333  0.631906  1
  Ni  Ni6  1  0.666667  0.333333  0.867252  1
  Ni  Ni7  1  0.333333  0.666667  0.131489  1
  P  P8  1  0.333333  0.666667  0.876550  1
  P  P9  1  0.666667  0.333333  0.122908  1
  P  P10  1  0.666667  0.333333  0.376825  1
  P  P11  1  0.333333  0.666667  0.623651  1
