# generated using pymatgen
data_Mg2Mn(Fe3P2)3
_symmetry_space_group_name_H-M   'P 1'
_cell_length_a   3.58416800
_cell_length_b   10.20249700
_cell_length_c   11.72418600
_cell_angle_alpha   90.00000000
_cell_angle_beta   90.00000000
_cell_angle_gamma   90.00000000
_symmetry_Int_Tables_number   1
_chemical_formula_structural   Mg2Mn(Fe3P2)3
_chemical_formula_sum   'Mg4 Mn2 Fe18 P12'
_cell_volume   428.72374090
_cell_formula_units_Z   2
loop_
 _symmetry_equiv_pos_site_id
 _symmetry_equiv_pos_as_xyz
  1  'x, y, z'
loop_
 _atom_site_type_symbol
 _atom_site_label
 _atom_site_symmetry_multiplicity
 _atom_site_fract_x
 _atom_site_fract_y
 _atom_site_fract_z
 _atom_site_occupancy
  Mg  Mg0  1  0.250000  0.578349  0.704562  1
  Mg  Mg1  1  0.250000  0.921651  0.204562  1
  Mg  Mg2  1  0.750000  0.423243  0.295690  1
  Mg  Mg3  1  0.750000  0.076757  0.795690  1
  Mn  Mn4  1  0.250000  0.701477  0.989044  1
  Mn  Mn5  1  0.250000  0.798523  0.489044  1
  Fe  Fe6  1  0.750000  0.291632  0.011296  1
  Fe  Fe7  1  0.750000  0.208368  0.511296  1
  Fe  Fe8  1  0.250000  0.409701  0.485848  1
  Fe  Fe9  1  0.250000  0.090300  0.985848  1
  Fe  Fe10  1  0.750000  0.596088  0.515214  1
  Fe  Fe11  1  0.750000  0.903912  0.015214  1
  Fe  Fe12  1  0.250000  0.217075  0.176139  1
  Fe  Fe13  1  0.250000  0.282925  0.676139  1
  Fe  Fe14  1  0.750000  0.778914  0.826817  1
  Fe  Fe15  1  0.750000  0.721086  0.326817  1
  Fe  Fe16  1  0.250000  0.879216  0.702391  1
  Fe  Fe17  1  0.250000  0.620784  0.202391  1
  Fe  Fe18  1  0.750000  0.128550  0.296170  1
  Fe  Fe19  1  0.750000  0.371450  0.796170  1
  Fe  Fe20  1  0.250000  0.460342  0.929224  1
  Fe  Fe21  1  0.250000  0.039658  0.429224  1
  Fe  Fe22  1  0.750000  0.533104  0.069016  1
  Fe  Fe23  1  0.750000  0.966896  0.569016  1
  P  P24  1  0.250000  0.417152  0.112027  1
  P  P25  1  0.250000  0.082848  0.612027  1
  P  P26  1  0.750000  0.575851  0.883960  1
  P  P27  1  0.750000  0.924149  0.383960  1
  P  P28  1  0.250000  0.257561  0.870954  1
  P  P29  1  0.250000  0.242439  0.370954  1
  P  P30  1  0.750000  0.737787  0.135447  1
  P  P31  1  0.750000  0.762213  0.635447  1
  P  P32  1  0.250000  0.599670  0.393430  1
  P  P33  1  0.250000  0.900330  0.893430  1
  P  P34  1  0.750000  0.401946  0.602770  1
  P  P35  1  0.750000  0.098054  0.102770  1
