# generated using pymatgen
data_La6PrNd(MoO6)4
_symmetry_space_group_name_H-M   'P 1'
_cell_length_a   10.34280518
_cell_length_b   10.34104870
_cell_length_c   5.65420188
_cell_angle_alpha   75.45427743
_cell_angle_beta   75.36623365
_cell_angle_gamma   68.79374757
_symmetry_Int_Tables_number   1
_chemical_formula_structural   La6PrNd(MoO6)4
_chemical_formula_sum   'La6 Pr1 Nd1 Mo4 O24'
_cell_volume   536.88300878
_cell_formula_units_Z   1
loop_
 _symmetry_equiv_pos_site_id
 _symmetry_equiv_pos_as_xyz
  1  'x, y, z'
loop_
 _atom_site_type_symbol
 _atom_site_label
 _atom_site_symmetry_multiplicity
 _atom_site_fract_x
 _atom_site_fract_y
 _atom_site_fract_z
 _atom_site_occupancy
  La  La0  1  0.633474  0.367175  0.748943  1
  La  La1  1  0.366401  0.632818  0.250836  1
  La  La2  1  0.111164  0.888907  0.750171  1
  La  La3  1  0.888840  0.111862  0.250167  1
  La  La4  1  0.712303  0.942391  0.884157  1
  La  La5  1  0.287511  0.058597  0.116158  1
  Pr  Pr6  1  0.943599  0.710133  0.383304  1
  Nd  Nd7  1  0.056554  0.288797  0.618761  1
  Mo  Mo8  1  0.507611  0.798000  0.558624  1
  Mo  Mo9  1  0.491923  0.202252  0.441473  1
  Mo  Mo10  1  0.200739  0.492103  0.942315  1
  Mo  Mo11  1  0.799391  0.507046  0.057483  1
  O  O12  1  0.684315  0.164621  0.585380  1
  O  O13  1  0.315374  0.835725  0.414272  1
  O  O14  1  0.837911  0.315262  0.911074  1
  O  O15  1  0.162741  0.684141  0.087198  1
  O  O16  1  0.385960  0.827326  0.856186  1
  O  O17  1  0.613501  0.172931  0.143791  1
  O  O18  1  0.171024  0.614470  0.645349  1
  O  O19  1  0.829026  0.385396  0.354465  1
  O  O20  1  0.674678  0.785324  0.633646  1
  O  O21  1  0.324713  0.214793  0.367400  1
  O  O22  1  0.210423  0.327744  0.859872  1
  O  O23  1  0.789347  0.672092  0.137543  1
  O  O24  1  0.474555  0.071051  0.729625  1
  O  O25  1  0.525276  0.929256  0.270716  1
  O  O26  1  0.929307  0.525568  0.766290  1
  O  O27  1  0.072521  0.471892  0.235357  1
  O  O28  1  0.544550  0.618201  0.517635  1
  O  O29  1  0.455260  0.382051  0.482151  1
  O  O30  1  0.380578  0.454889  0.981089  1
  O  O31  1  0.619482  0.544027  0.018770  1
  O  O32  1  0.892458  0.921118  0.078289  1
  O  O33  1  0.107600  0.080354  0.920879  1
  O  O34  1  0.077310  0.109828  0.422732  1
  O  O35  1  0.922582  0.891860  0.577895  1
