# generated using pymatgen
data_Ca6Y2Zn3Si12Hg
_symmetry_space_group_name_H-M   'P 1'
_cell_length_a   8.21298300
_cell_length_b   8.21298282
_cell_length_c   8.52181200
_cell_angle_alpha   90.00000000
_cell_angle_beta   90.00000000
_cell_angle_gamma   119.99999670
_symmetry_Int_Tables_number   1
_chemical_formula_structural   Ca6Y2Zn3Si12Hg
_chemical_formula_sum   'Ca6 Y2 Zn3 Si12 Hg1'
_cell_volume   497.81093642
_cell_formula_units_Z   1
loop_
 _symmetry_equiv_pos_site_id
 _symmetry_equiv_pos_as_xyz
  1  'x, y, z'
loop_
 _atom_site_type_symbol
 _atom_site_label
 _atom_site_symmetry_multiplicity
 _atom_site_fract_x
 _atom_site_fract_y
 _atom_site_fract_z
 _atom_site_occupancy
  Ca  Ca0  1  0.501335  0.002672  0.248743  1
  Ca  Ca1  1  0.500665  0.001329  0.751286  1
  Ca  Ca2  1  0.997328  0.498665  0.248743  1
  Ca  Ca3  1  0.998671  0.499335  0.751286  1
  Ca  Ca4  1  0.501335  0.498665  0.248743  1
  Ca  Ca5  1  0.500665  0.499335  0.751286  1
  Y  Y6  1  0.000000  0.000000  0.248270  1
  Y  Y7  1  0.000000  0.000000  0.751471  1
  Zn  Zn8  1  0.333333  0.666667  0.003853  1
  Zn  Zn9  1  0.666667  0.333333  0.997335  1
  Zn  Zn10  1  0.666667  0.333333  0.500561  1
  Si  Si11  1  0.164831  0.329664  0.998134  1
  Si  Si12  1  0.835402  0.670805  0.001673  1
  Si  Si13  1  0.670336  0.835169  0.998134  1
  Si  Si14  1  0.834202  0.668404  0.501317  1
  Si  Si15  1  0.329195  0.164598  0.001673  1
  Si  Si16  1  0.158255  0.316510  0.498632  1
  Si  Si17  1  0.164831  0.835169  0.998134  1
  Si  Si18  1  0.331596  0.165798  0.501317  1
  Si  Si19  1  0.835402  0.164598  0.001673  1
  Si  Si20  1  0.683490  0.841745  0.498632  1
  Si  Si21  1  0.834202  0.165798  0.501317  1
  Si  Si22  1  0.158255  0.841745  0.498632  1
  Hg  Hg23  1  0.333333  0.666667  0.499153  1
