# generated using pymatgen
data_LiAc7(SiN3)4
_symmetry_space_group_name_H-M   'P 1'
_cell_length_a   6.28730479
_cell_length_b   6.28730495
_cell_length_c   12.27882031
_cell_angle_alpha   92.45842152
_cell_angle_beta   87.54157777
_cell_angle_gamma   127.26261225
_symmetry_Int_Tables_number   1
_chemical_formula_structural   LiAc7(SiN3)4
_chemical_formula_sum   'Li1 Ac7 Si4 N12'
_cell_volume   385.85918458
_cell_formula_units_Z   1
loop_
 _symmetry_equiv_pos_site_id
 _symmetry_equiv_pos_as_xyz
  1  'x, y, z'
loop_
 _atom_site_type_symbol
 _atom_site_label
 _atom_site_symmetry_multiplicity
 _atom_site_fract_x
 _atom_site_fract_y
 _atom_site_fract_z
 _atom_site_occupancy
  Li  Li0  1  0.036208  0.963792  0.824055  1
  Ac  Ac1  1  0.946441  0.053559  0.134611  1
  Ac  Ac2  1  0.448629  0.551371  0.360068  1
  Ac  Ac3  1  0.547129  0.452871  0.652882  1
  Ac  Ac4  1  0.642699  0.357301  0.072791  1
  Ac  Ac5  1  0.354191  0.645809  0.918268  1
  Ac  Ac6  1  0.858483  0.141517  0.573489  1
  Ac  Ac7  1  0.141251  0.858749  0.433163  1
  Si  Si8  1  0.740817  0.259183  0.830926  1
  Si  Si9  1  0.262030  0.737970  0.171399  1
  Si  Si10  1  0.762606  0.237394  0.333886  1
  Si  Si11  1  0.236479  0.763521  0.674526  1
  N  N12  1  0.585191  0.414809  0.864160  1
  N  N13  1  0.417842  0.582158  0.132834  1
  N  N14  1  0.917959  0.082041  0.355092  1
  N  N15  1  0.083326  0.916674  0.651640  1
  N  N16  1  0.531238  0.971260  0.748787  1
  N  N17  1  0.979186  0.515996  0.252499  1
  N  N18  1  0.484004  0.020814  0.252499  1
  N  N19  1  0.028740  0.468762  0.748787  1
  N  N20  1  0.831685  0.168315  0.945499  1
  N  N21  1  0.167343  0.832657  0.063407  1
  N  N22  1  0.664293  0.335707  0.451023  1
  N  N23  1  0.332229  0.667771  0.553708  1
