# generated using pymatgen
data_SrNd3(Ga8Pt3)3
_symmetry_space_group_name_H-M   'P 1'
_cell_length_a   7.58949199
_cell_length_b   7.65034886
_cell_length_c   13.50907595
_cell_angle_alpha   84.68344680
_cell_angle_beta   79.35911177
_cell_angle_gamma   60.20554071
_symmetry_Int_Tables_number   1
_chemical_formula_structural   SrNd3(Ga8Pt3)3
_chemical_formula_sum   'Sr1 Nd3 Ga24 Pt9'
_cell_volume   668.97916042
_cell_formula_units_Z   1
loop_
 _symmetry_equiv_pos_site_id
 _symmetry_equiv_pos_as_xyz
  1  'x, y, z'
loop_
 _atom_site_type_symbol
 _atom_site_label
 _atom_site_symmetry_multiplicity
 _atom_site_fract_x
 _atom_site_fract_y
 _atom_site_fract_z
 _atom_site_occupancy
  Sr  Sr0  1  0.393940  0.167844  0.809702  1
  Nd  Nd1  1  0.604573  0.832710  0.191051  1
  Nd  Nd2  1  0.731867  0.498195  0.810549  1
  Nd  Nd3  1  0.266757  0.502048  0.190184  1
  Ga  Ga4  1  0.688969  0.833552  0.943493  1
  Ga  Ga5  1  0.312169  0.166625  0.061007  1
  Ga  Ga6  1  0.147019  0.831915  0.558128  1
  Ga  Ga7  1  0.853764  0.168030  0.439578  1
  Ga  Ga8  1  0.480158  0.166760  0.554772  1
  Ga  Ga9  1  0.521291  0.832991  0.442649  1
  Ga  Ga10  1  0.219337  0.165085  0.327299  1
  Ga  Ga11  1  0.783166  0.834979  0.668164  1
  Ga  Ga12  1  0.438485  0.505400  0.667105  1
  Ga  Ga13  1  0.562485  0.495095  0.328603  1
  Ga  Ga14  1  0.109505  0.161276  0.665706  1
  Ga  Ga15  1  0.891677  0.838287  0.329693  1
  Ga  Ga16  1  0.352909  0.501244  0.943968  1
  Ga  Ga17  1  0.644194  0.501313  0.060170  1
  Ga  Ga18  1  0.015799  0.166419  0.952907  1
  Ga  Ga19  1  0.980952  0.831733  0.053851  1
  Ga  Ga20  1  0.186582  0.499080  0.441714  1
  Ga  Ga21  1  0.814180  0.500930  0.556618  1
  Ga  Ga22  1  0.736495  0.163712  0.183319  1
  Ga  Ga23  1  0.267508  0.826108  0.817269  1
  Ga  Ga24  1  0.052877  0.637799  0.816562  1
  Ga  Ga25  1  0.936841  0.367752  0.184449  1
  Ga  Ga26  1  0.863878  0.041728  0.816323  1
  Ga  Ga27  1  0.140740  0.960758  0.184542  1
  Pt  Pt28  1  0.119019  0.496987  0.636039  1
  Pt  Pt29  1  0.882428  0.502732  0.362295  1
  Pt  Pt30  1  0.659548  0.170123  0.001469  1
  Pt  Pt31  1  0.339345  0.830937  0.002475  1
  Pt  Pt32  1  0.541461  0.166962  0.361520  1
  Pt  Pt33  1  0.458655  0.833705  0.636781  1
  Pt  Pt34  1  0.782060  0.170702  0.634140  1
  Pt  Pt35  1  0.219322  0.828965  0.363730  1
  Pt  Pt36  1  0.000046  0.499517  0.002172  1
