# generated using pymatgen
data_Pr10GaSi4Pb
_symmetry_space_group_name_H-M   'P 1'
_cell_length_a   7.95175226
_cell_length_b   7.95175224
_cell_length_c   9.17564987
_cell_angle_alpha   115.67764092
_cell_angle_beta   115.67764357
_cell_angle_gamma   89.99999815
_symmetry_Int_Tables_number   1
_chemical_formula_structural   Pr10GaSi4Pb
_chemical_formula_sum   'Pr10 Ga1 Si4 Pb1'
_cell_volume   458.48489221
_cell_formula_units_Z   1
loop_
 _symmetry_equiv_pos_site_id
 _symmetry_equiv_pos_as_xyz
  1  'x, y, z'
loop_
 _atom_site_type_symbol
 _atom_site_label
 _atom_site_symmetry_multiplicity
 _atom_site_fract_x
 _atom_site_fract_y
 _atom_site_fract_z
 _atom_site_occupancy
  Pr  Pr0  1  0.500303  0.500303  0.000607  1
  Pr  Pr1  1  0.999697  0.999697  0.999393  1
  Pr  Pr2  1  0.968812  0.821861  0.281563  1
  Pr  Pr3  1  0.312751  0.459700  0.281563  1
  Pr  Pr4  1  0.821861  0.312751  0.281563  1
  Pr  Pr5  1  0.459700  0.968812  0.281563  1
  Pr  Pr6  1  0.040300  0.187249  0.718437  1
  Pr  Pr7  1  0.678139  0.531188  0.718437  1
  Pr  Pr8  1  0.187249  0.678139  0.718437  1
  Pr  Pr9  1  0.531188  0.040300  0.718437  1
  Ga  Ga10  1  0.250000  0.250000  0.500000  1
  Si  Si11  1  0.615087  0.884913  0.000000  1
  Si  Si12  1  0.384913  0.115087  0.000000  1
  Si  Si13  1  0.884913  0.384913  0.000000  1
  Si  Si14  1  0.115087  0.615087  0.000000  1
  Pb  Pb15  1  0.750000  0.750000  0.500000  1
