# generated using pymatgen
data_Ta4Si2(OsRu)5
_symmetry_space_group_name_H-M   'P 1'
_cell_length_a   4.14908700
_cell_length_b   5.42695720
_cell_length_c   10.51683331
_cell_angle_alpha   89.92396647
_cell_angle_beta   90.00000000
_cell_angle_gamma   90.00000000
_symmetry_Int_Tables_number   1
_chemical_formula_structural   Ta4Si2(OsRu)5
_chemical_formula_sum   'Ta4 Si2 Os5 Ru5'
_cell_volume   236.80646009
_cell_formula_units_Z   1
loop_
 _symmetry_equiv_pos_site_id
 _symmetry_equiv_pos_as_xyz
  1  'x, y, z'
loop_
 _atom_site_type_symbol
 _atom_site_label
 _atom_site_symmetry_multiplicity
 _atom_site_fract_x
 _atom_site_fract_y
 _atom_site_fract_z
 _atom_site_occupancy
  Ta  Ta0  1  0.500000  0.839547  0.361843  1
  Ta  Ta1  1  0.500000  0.160709  0.639125  1
  Ta  Ta2  1  0.500000  0.337781  0.139003  1
  Ta  Ta3  1  0.500000  0.660857  0.860503  1
  Si  Si4  1  0.000000  0.500167  0.500064  1
  Si  Si5  1  0.000000  0.000523  0.999186  1
  Os  Os6  1  0.000000  0.596819  0.259110  1
  Os  Os7  1  0.000000  0.401974  0.740996  1
  Os  Os8  1  0.000000  0.098279  0.240969  1
  Os  Os9  1  0.000000  0.902436  0.758903  1
  Os  Os10  1  0.500000  0.825025  0.107557  1
  Ru  Ru11  1  0.000000  0.501226  0.999432  1
  Ru  Ru12  1  0.000000  0.000813  0.499775  1
  Ru  Ru13  1  0.500000  0.174158  0.893633  1
  Ru  Ru14  1  0.500000  0.325873  0.393642  1
  Ru  Ru15  1  0.500000  0.673813  0.606259  1
