# generated using pymatgen
data_LaPr2NdSn6
_symmetry_space_group_name_H-M   'P 1'
_cell_length_a   6.51833433
_cell_length_b   8.64126828
_cell_length_c   11.30380245
_cell_angle_alpha   107.40118544
_cell_angle_beta   96.82959040
_cell_angle_gamma   100.32364242
_symmetry_Int_Tables_number   1
_chemical_formula_structural   LaPr2NdSn6
_chemical_formula_sum   'La2 Pr4 Nd2 Sn12'
_cell_volume   587.55184105
_cell_formula_units_Z   2
loop_
 _symmetry_equiv_pos_site_id
 _symmetry_equiv_pos_as_xyz
  1  'x, y, z'
loop_
 _atom_site_type_symbol
 _atom_site_label
 _atom_site_symmetry_multiplicity
 _atom_site_fract_x
 _atom_site_fract_y
 _atom_site_fract_z
 _atom_site_occupancy
  La  La0  1  0.957640  0.251632  0.056049  1
  La  La1  1  0.042360  0.748368  0.943951  1
  Pr  Pr2  1  0.558186  0.430048  0.335466  1
  Pr  Pr3  1  0.441814  0.569952  0.664534  1
  Pr  Pr4  1  0.127420  0.753273  0.383966  1
  Pr  Pr5  1  0.872580  0.246727  0.616034  1
  Nd  Nd6  1  0.331606  0.032321  0.744180  1
  Nd  Nd7  1  0.668394  0.967679  0.255820  1
  Sn  Sn8  1  0.050507  0.353835  0.379440  1
  Sn  Sn9  1  0.949493  0.646165  0.620560  1
  Sn  Sn10  1  0.354484  0.166505  0.498958  1
  Sn  Sn11  1  0.645516  0.833495  0.501042  1
  Sn  Sn12  1  0.437118  0.167616  0.050459  1
  Sn  Sn13  1  0.562882  0.832384  0.949541  1
  Sn  Sn14  1  0.326013  0.603556  0.139277  1
  Sn  Sn15  1  0.673987  0.396444  0.860723  1
  Sn  Sn16  1  0.222838  0.405398  0.863713  1
  Sn  Sn17  1  0.777162  0.594602  0.136287  1
  Sn  Sn18  1  0.178589  0.038308  0.224293  1
  Sn  Sn19  1  0.821411  0.961692  0.775707  1
