# generated using pymatgen
data_Sr3NbAs3O
_symmetry_space_group_name_H-M   'P 1'
_cell_length_a   6.45582700
_cell_length_b   10.77425900
_cell_length_c   13.10332200
_cell_angle_alpha   90.00000000
_cell_angle_beta   90.00000000
_cell_angle_gamma   90.00000000
_symmetry_Int_Tables_number   1
_chemical_formula_structural   Sr3NbAs3O
_chemical_formula_sum   'Sr12 Nb4 As12 O4'
_cell_volume   911.42452079
_cell_formula_units_Z   4
loop_
 _symmetry_equiv_pos_site_id
 _symmetry_equiv_pos_as_xyz
  1  'x, y, z'
loop_
 _atom_site_type_symbol
 _atom_site_label
 _atom_site_symmetry_multiplicity
 _atom_site_fract_x
 _atom_site_fract_y
 _atom_site_fract_z
 _atom_site_occupancy
  Sr  Sr0  1  0.245345  0.043474  0.627854  1
  Sr  Sr1  1  0.745345  0.456526  0.872146  1
  Sr  Sr2  1  0.754655  0.543474  0.372146  1
  Sr  Sr3  1  0.254655  0.956526  0.127854  1
  Sr  Sr4  1  0.245345  0.456526  0.627854  1
  Sr  Sr5  1  0.754655  0.956526  0.372146  1
  Sr  Sr6  1  0.767056  0.250000  0.128125  1
  Sr  Sr7  1  0.267056  0.250000  0.371875  1
  Sr  Sr8  1  0.232944  0.750000  0.871875  1
  Sr  Sr9  1  0.732944  0.750000  0.628125  1
  Sr  Sr10  1  0.254655  0.543474  0.127854  1
  Sr  Sr11  1  0.745345  0.043474  0.872146  1
  Nb  Nb12  1  0.341294  0.250000  0.951722  1
  Nb  Nb13  1  0.841294  0.250000  0.548278  1
  Nb  Nb14  1  0.658706  0.750000  0.048278  1
  Nb  Nb15  1  0.158706  0.750000  0.451722  1
  As  As16  1  0.236481  0.750000  0.636308  1
  As  As17  1  0.736481  0.750000  0.863692  1
  As  As18  1  0.763519  0.250000  0.363692  1
  As  As19  1  0.263519  0.250000  0.136308  1
  As  As20  1  0.236440  0.451808  0.876221  1
  As  As21  1  0.736440  0.048192  0.623779  1
  As  As22  1  0.236440  0.048192  0.876221  1
  As  As23  1  0.736440  0.451808  0.623779  1
  As  As24  1  0.763560  0.548192  0.123779  1
  As  As25  1  0.263560  0.548192  0.376221  1
  As  As26  1  0.263560  0.951808  0.376221  1
  As  As27  1  0.763560  0.951808  0.123779  1
  O  O28  1  0.638040  0.250000  0.945589  1
  O  O29  1  0.138040  0.250000  0.554411  1
  O  O30  1  0.361960  0.750000  0.054411  1
  O  O31  1  0.861960  0.750000  0.445589  1
