# generated using pymatgen
data_LaCd2Ga2Ni
_symmetry_space_group_name_H-M   'P 1'
_cell_length_a   4.19333219
_cell_length_b   6.79457500
_cell_length_c   8.87055523
_cell_angle_alpha   90.00000000
_cell_angle_beta   103.67193932
_cell_angle_gamma   90.00000000
_symmetry_Int_Tables_number   1
_chemical_formula_structural   LaCd2Ga2Ni
_chemical_formula_sum   'La2 Cd4 Ga4 Ni2'
_cell_volume   245.57769936
_cell_formula_units_Z   2
loop_
 _symmetry_equiv_pos_site_id
 _symmetry_equiv_pos_as_xyz
  1  'x, y, z'
loop_
 _atom_site_type_symbol
 _atom_site_label
 _atom_site_symmetry_multiplicity
 _atom_site_fract_x
 _atom_site_fract_y
 _atom_site_fract_z
 _atom_site_occupancy
  La  La0  1  0.871081  0.750000  0.742161  1
  La  La1  1  0.128919  0.250000  0.257839  1
  Cd  Cd2  1  0.500000  0.500000  0.000000  1
  Cd  Cd3  1  0.500000  0.000000  0.000000  1
  Cd  Cd4  1  0.077794  0.750000  0.155589  1
  Cd  Cd5  1  0.922206  0.250000  0.844411  1
  Ga  Ga6  1  0.693559  0.557664  0.387120  1
  Ga  Ga7  1  0.306441  0.442336  0.612880  1
  Ga  Ga8  1  0.693559  0.942336  0.387120  1
  Ga  Ga9  1  0.306441  0.057664  0.612880  1
  Ni  Ni10  1  0.231909  0.750000  0.463819  1
  Ni  Ni11  1  0.768091  0.250000  0.536181  1
