# generated using pymatgen
data_Th(TlCl3)2
_symmetry_space_group_name_H-M   'P 1'
_cell_length_a   8.14604500
_cell_length_b   7.49964978
_cell_length_c   12.62933800
_cell_angle_alpha   55.72589061
_cell_angle_beta   90.00000000
_cell_angle_gamma   90.00000000
_symmetry_Int_Tables_number   1
_chemical_formula_structural   Th(TlCl3)2
_chemical_formula_sum   'Th2 Tl4 Cl12'
_cell_volume   637.57885553
_cell_formula_units_Z   2
loop_
 _symmetry_equiv_pos_site_id
 _symmetry_equiv_pos_as_xyz
  1  'x, y, z'
loop_
 _atom_site_type_symbol
 _atom_site_label
 _atom_site_symmetry_multiplicity
 _atom_site_fract_x
 _atom_site_fract_y
 _atom_site_fract_z
 _atom_site_occupancy
  Th  Th0  1  0.500000  0.000000  0.500000  1
  Th  Th1  1  0.000000  0.000000  0.000000  1
  Tl  Tl2  1  0.091017  0.277269  0.246915  1
  Tl  Tl3  1  0.591017  0.722731  0.253085  1
  Tl  Tl4  1  0.908983  0.722731  0.753085  1
  Tl  Tl5  1  0.408983  0.277269  0.746915  1
  Cl  Cl6  1  0.537515  0.877137  0.744443  1
  Cl  Cl7  1  0.462485  0.122863  0.255557  1
  Cl  Cl8  1  0.834425  0.644371  0.056895  1
  Cl  Cl9  1  0.962485  0.877137  0.244443  1
  Cl  Cl10  1  0.165575  0.355629  0.943105  1
  Cl  Cl11  1  0.665575  0.644371  0.556895  1
  Cl  Cl12  1  0.286204  0.785680  0.060159  1
  Cl  Cl13  1  0.786204  0.214320  0.439841  1
  Cl  Cl14  1  0.713796  0.214320  0.939841  1
  Cl  Cl15  1  0.213796  0.785680  0.560159  1
  Cl  Cl16  1  0.334425  0.355629  0.443105  1
  Cl  Cl17  1  0.037515  0.122863  0.755557  1
