# generated using pymatgen
data_DyLu2Mg(AlPt)4
_symmetry_space_group_name_H-M   'P 1'
_cell_length_a   4.30912000
_cell_length_b   6.76355129
_cell_length_c   7.72815567
_cell_angle_alpha   92.74679878
_cell_angle_beta   90.00000000
_cell_angle_gamma   90.00000000
_symmetry_Int_Tables_number   1
_chemical_formula_structural   DyLu2Mg(AlPt)4
_chemical_formula_sum   'Dy1 Lu2 Mg1 Al4 Pt4'
_cell_volume   224.97796025
_cell_formula_units_Z   1
loop_
 _symmetry_equiv_pos_site_id
 _symmetry_equiv_pos_as_xyz
  1  'x, y, z'
loop_
 _atom_site_type_symbol
 _atom_site_label
 _atom_site_symmetry_multiplicity
 _atom_site_fract_x
 _atom_site_fract_y
 _atom_site_fract_z
 _atom_site_occupancy
  Dy  Dy0  1  0.250000  0.529466  0.819293  1
  Lu  Lu1  1  0.750000  0.972888  0.329166  1
  Lu  Lu2  1  0.750000  0.467743  0.179920  1
  Mg  Mg3  1  0.250000  0.030175  0.673308  1
  Al  Al4  1  0.250000  0.137002  0.054968  1
  Al  Al5  1  0.250000  0.646332  0.441326  1
  Al  Al6  1  0.750000  0.859715  0.940002  1
  Al  Al7  1  0.750000  0.356080  0.561396  1
  Pt  Pt8  1  0.250000  0.270000  0.377300  1
  Pt  Pt9  1  0.250000  0.771405  0.130499  1
  Pt  Pt10  1  0.750000  0.735973  0.620297  1
  Pt  Pt11  1  0.750000  0.223219  0.872525  1
