# generated using pymatgen
data_Lu8Sc9Si16W3
_symmetry_space_group_name_H-M   'P 1'
_cell_length_a   6.90321522
_cell_length_b   7.17565681
_cell_length_c   13.58781400
_cell_angle_alpha   90.00000000
_cell_angle_beta   90.00000000
_cell_angle_gamma   90.12989386
_symmetry_Int_Tables_number   1
_chemical_formula_structural   Lu8Sc9Si16W3
_chemical_formula_sum   'Lu8 Sc9 Si16 W3'
_cell_volume   673.07204058
_cell_formula_units_Z   1
loop_
 _symmetry_equiv_pos_site_id
 _symmetry_equiv_pos_as_xyz
  1  'x, y, z'
loop_
 _atom_site_type_symbol
 _atom_site_label
 _atom_site_symmetry_multiplicity
 _atom_site_fract_x
 _atom_site_fract_y
 _atom_site_fract_z
 _atom_site_occupancy
  Lu  Lu0  1  0.009203  0.175555  0.097702  1
  Lu  Lu1  1  0.991345  0.820839  0.904572  1
  Lu  Lu2  1  0.486193  0.675297  0.905331  1
  Lu  Lu3  1  0.991345  0.820839  0.595428  1
  Lu  Lu4  1  0.510627  0.323931  0.099543  1
  Lu  Lu5  1  0.009203  0.175555  0.402298  1
  Lu  Lu6  1  0.510627  0.323931  0.400457  1
  Lu  Lu7  1  0.486193  0.675297  0.594669  1
  Sc  Sc8  1  0.655364  0.994297  0.750000  1
  Sc  Sc9  1  0.327516  0.175149  0.624896  1
  Sc  Sc10  1  0.673556  0.825506  0.371966  1
  Sc  Sc11  1  0.172954  0.672486  0.373289  1
  Sc  Sc12  1  0.673556  0.825506  0.128034  1
  Sc  Sc13  1  0.826556  0.330620  0.625500  1
  Sc  Sc14  1  0.327516  0.175149  0.875104  1
  Sc  Sc15  1  0.826556  0.330620  0.874500  1
  Sc  Sc16  1  0.172954  0.672486  0.126711  1
  Si  Si17  1  0.029942  0.120677  0.750000  1
  Si  Si18  1  0.977596  0.891602  0.250000  1
  Si  Si19  1  0.475628  0.606972  0.250000  1
  Si  Si20  1  0.518749  0.397185  0.750000  1
  Si  Si21  1  0.280412  0.856236  0.750000  1
  Si  Si22  1  0.712287  0.137303  0.250000  1
  Si  Si23  1  0.210593  0.360609  0.250000  1
  Si  Si24  1  0.791777  0.633606  0.750000  1
  Si  Si25  1  0.155819  0.467913  0.544357  1
  Si  Si26  1  0.843870  0.529724  0.452146  1
  Si  Si27  1  0.344095  0.969297  0.451095  1
  Si  Si28  1  0.843870  0.529724  0.047854  1
  Si  Si29  1  0.659515  0.035698  0.536337  1
  Si  Si30  1  0.155819  0.467913  0.955643  1
  Si  Si31  1  0.659515  0.035698  0.963663  1
  Si  Si32  1  0.344095  0.969297  0.048905  1
  W  W33  1  0.150555  0.499086  0.750000  1
  W  W34  1  0.848249  0.497308  0.250000  1
  W  W35  1  0.346347  0.001087  0.250000  1
