# generated using pymatgen
data_Tm16CdHg5Pt2
_symmetry_space_group_name_H-M   'P 1'
_cell_length_a   10.14299931
_cell_length_b   10.14299860
_cell_length_c   7.04032700
_cell_angle_alpha   89.77057334
_cell_angle_beta   90.22942100
_cell_angle_gamma   119.99461033
_symmetry_Int_Tables_number   1
_chemical_formula_structural   Tm16CdHg5Pt2
_chemical_formula_sum   'Tm16 Cd1 Hg5 Pt2'
_cell_volume   627.29982423
_cell_formula_units_Z   1
loop_
 _symmetry_equiv_pos_site_id
 _symmetry_equiv_pos_as_xyz
  1  'x, y, z'
loop_
 _atom_site_type_symbol
 _atom_site_label
 _atom_site_symmetry_multiplicity
 _atom_site_fract_x
 _atom_site_fract_y
 _atom_site_fract_z
 _atom_site_occupancy
  Tm  Tm0  1  0.529844  0.067497  0.519566  1
  Tm  Tm1  1  0.932503  0.470156  0.519566  1
  Tm  Tm2  1  0.535097  0.464903  0.522002  1
  Tm  Tm3  1  0.470580  0.932844  0.020652  1
  Tm  Tm4  1  0.067156  0.529420  0.020652  1
  Tm  Tm5  1  0.464115  0.535885  0.019285  1
  Tm  Tm6  1  0.169812  0.341784  0.710153  1
  Tm  Tm7  1  0.658216  0.830188  0.710153  1
  Tm  Tm8  1  0.171668  0.828332  0.723206  1
  Tm  Tm9  1  0.824711  0.655297  0.208431  1
  Tm  Tm10  1  0.344703  0.175289  0.208431  1
  Tm  Tm11  1  0.829097  0.170903  0.218754  1
  Tm  Tm12  1  0.667954  0.332046  0.890850  1
  Tm  Tm13  1  0.333823  0.666177  0.391906  1
  Tm  Tm14  1  0.002391  0.997609  0.490723  1
  Tm  Tm15  1  0.999633  0.000367  0.991497  1
  Cd  Cd16  1  0.165170  0.834830  0.268653  1
  Hg  Hg17  1  0.833744  0.668346  0.771349  1
  Hg  Hg18  1  0.331654  0.166256  0.771349  1
  Hg  Hg19  1  0.833453  0.166547  0.772208  1
  Hg  Hg20  1  0.166258  0.331898  0.272518  1
  Hg  Hg21  1  0.668102  0.833742  0.272518  1
  Pt  Pt22  1  0.667313  0.332687  0.282090  1
  Pt  Pt23  1  0.333006  0.666994  0.781497  1
