# generated using pymatgen
data_GdY3Si2(P4O15)2
_symmetry_space_group_name_H-M   'P 1'
_cell_length_a   5.61057302
_cell_length_b   7.09960317
_cell_length_c   16.57148077
_cell_angle_alpha   90.06563819
_cell_angle_beta   89.99105188
_cell_angle_gamma   90.00368290
_symmetry_Int_Tables_number   1
_chemical_formula_structural   GdY3Si2(P4O15)2
_chemical_formula_sum   'Gd1 Y3 Si2 P8 O30'
_cell_volume   660.08873244
_cell_formula_units_Z   1
loop_
 _symmetry_equiv_pos_site_id
 _symmetry_equiv_pos_as_xyz
  1  'x, y, z'
loop_
 _atom_site_type_symbol
 _atom_site_label
 _atom_site_symmetry_multiplicity
 _atom_site_fract_x
 _atom_site_fract_y
 _atom_site_fract_z
 _atom_site_occupancy
  Gd  Gd0  1  0.865043  0.405926  0.781977  1
  Y  Y1  1  0.864891  0.594545  0.217752  1
  Y  Y2  1  0.135211  0.094513  0.282443  1
  Y  Y3  1  0.135561  0.905705  0.717268  1
  Si  Si4  1  0.459002  0.500168  0.499510  1
  Si  Si5  1  0.540964  0.999661  0.000388  1
  P  P6  1  0.692016  0.910661  0.830753  1
  P  P7  1  0.692663  0.089401  0.169638  1
  P  P8  1  0.307521  0.589576  0.330327  1
  P  P9  1  0.307385  0.410547  0.667965  1
  P  P10  1  0.642294  0.137269  0.425789  1
  P  P11  1  0.642259  0.862711  0.574061  1
  P  P12  1  0.356927  0.362057  0.927151  1
  P  P13  1  0.357931  0.637642  0.074777  1
  O  O14  1  0.642685  0.336705  0.468826  1
  O  O15  1  0.642138  0.663230  0.531038  1
  O  O16  1  0.356963  0.162597  0.969869  1
  O  O17  1  0.357596  0.836425  0.031391  1
  O  O18  1  0.716132  0.073339  0.072932  1
  O  O19  1  0.715175  0.926518  0.927389  1
  O  O20  1  0.281977  0.426183  0.571480  1
  O  O21  1  0.284487  0.574142  0.426958  1
  O  O22  1  0.835739  0.075260  0.793398  1
  O  O23  1  0.835932  0.923987  0.206685  1
  O  O24  1  0.164266  0.423816  0.293364  1
  O  O25  1  0.167084  0.577335  0.705286  1
  O  O26  1  0.428244  0.909839  0.810812  1
  O  O27  1  0.428820  0.090123  0.189396  1
  O  O28  1  0.571343  0.590196  0.310596  1
  O  O29  1  0.571442  0.409361  0.687016  1
  O  O30  1  0.834035  0.735854  0.803443  1
  O  O31  1  0.833826  0.264892  0.196896  1
  O  O32  1  0.166155  0.764866  0.303114  1
  O  O33  1  0.167602  0.234851  0.695605  1
  O  O34  1  0.425995  0.115646  0.373477  1
  O  O35  1  0.426231  0.884720  0.626443  1
  O  O36  1  0.572030  0.383370  0.874263  1
  O  O37  1  0.573934  0.616729  0.127169  1
  O  O38  1  0.880657  0.107205  0.387129  1
  O  O39  1  0.880598  0.892564  0.612762  1
  O  O40  1  0.117873  0.392730  0.889277  1
  O  O41  1  0.119278  0.607728  0.113136  1
  O  O42  1  0.607513  0.999971  0.499932  1
  O  O43  1  0.394583  0.499434  0.001115  1
