# generated using pymatgen
data_Dy5Zr3(As3Rh4)4
_symmetry_space_group_name_H-M   'P 1'
_cell_length_a   13.35264500
_cell_length_b   13.35264544
_cell_length_c   4.01735700
_cell_angle_alpha   90.00000000
_cell_angle_beta   90.00000000
_cell_angle_gamma   120.00000138
_symmetry_Int_Tables_number   1
_chemical_formula_structural   Dy5Zr3(As3Rh4)4
_chemical_formula_sum   'Dy5 Zr3 As12 Rh16'
_cell_volume   620.30555783
_cell_formula_units_Z   1
loop_
 _symmetry_equiv_pos_site_id
 _symmetry_equiv_pos_as_xyz
  1  'x, y, z'
loop_
 _atom_site_type_symbol
 _atom_site_label
 _atom_site_symmetry_multiplicity
 _atom_site_fract_x
 _atom_site_fract_y
 _atom_site_fract_z
 _atom_site_occupancy
  Dy  Dy0  1  0.187547  0.187547  0.500000  1
  Dy  Dy1  1  0.812453  0.000000  0.500000  1
  Dy  Dy2  1  0.000000  0.812453  0.500000  1
  Dy  Dy3  1  0.333333  0.666667  0.000000  1
  Dy  Dy4  1  0.666667  0.333333  0.000000  1
  Zr  Zr5  1  0.556401  0.556401  0.000000  1
  Zr  Zr6  1  0.443599  0.000000  0.000000  1
  Zr  Zr7  1  0.000000  0.443599  0.000000  1
  As  As8  1  0.824764  0.824764  0.000000  1
  As  As9  1  0.175236  0.000000  0.000000  1
  As  As10  1  0.000000  0.175236  0.000000  1
  As  As11  1  0.170718  0.485825  0.500000  1
  As  As12  1  0.514175  0.684893  0.500000  1
  As  As13  1  0.315107  0.829282  0.500000  1
  As  As14  1  0.684893  0.514175  0.500000  1
  As  As15  1  0.829282  0.315107  0.500000  1
  As  As16  1  0.485825  0.170718  0.500000  1
  As  As17  1  0.354207  0.354207  0.000000  1
  As  As18  1  0.645793  0.000000  0.000000  1
  As  As19  1  0.000000  0.645793  0.000000  1
  Rh  Rh20  1  0.719386  0.719386  0.500000  1
  Rh  Rh21  1  0.280614  0.000000  0.500000  1
  Rh  Rh22  1  0.000000  0.280614  0.500000  1
  Rh  Rh23  1  0.176534  0.373817  0.000000  1
  Rh  Rh24  1  0.626183  0.802716  0.000000  1
  Rh  Rh25  1  0.197284  0.823466  0.000000  1
  Rh  Rh26  1  0.802716  0.626183  0.000000  1
  Rh  Rh27  1  0.823466  0.197284  0.000000  1
  Rh  Rh28  1  0.373817  0.176534  0.000000  1
  Rh  Rh29  1  0.354821  0.482332  0.500000  1
  Rh  Rh30  1  0.517668  0.872490  0.500000  1
  Rh  Rh31  1  0.127510  0.645179  0.500000  1
  Rh  Rh32  1  0.872490  0.517668  0.500000  1
  Rh  Rh33  1  0.645179  0.127510  0.500000  1
  Rh  Rh34  1  0.482332  0.354821  0.500000  1
  Rh  Rh35  1  0.000000  0.000000  0.000000  1
