# generated using pymatgen
data_Tm8Tc3B24Ru
_symmetry_space_group_name_H-M   'P 1'
_cell_length_a   3.63012400
_cell_length_b   9.08027712
_cell_length_c   11.45214667
_cell_angle_alpha   89.92176960
_cell_angle_beta   90.00000000
_cell_angle_gamma   90.00000000
_symmetry_Int_Tables_number   1
_chemical_formula_structural   Tm8Tc3B24Ru
_chemical_formula_sum   'Tm8 Tc3 B24 Ru1'
_cell_volume   377.49139785
_cell_formula_units_Z   1
loop_
 _symmetry_equiv_pos_site_id
 _symmetry_equiv_pos_as_xyz
  1  'x, y, z'
loop_
 _atom_site_type_symbol
 _atom_site_label
 _atom_site_symmetry_multiplicity
 _atom_site_fract_x
 _atom_site_fract_y
 _atom_site_fract_z
 _atom_site_occupancy
  Tm  Tm0  1  0.000000  0.323428  0.413918  1
  Tm  Tm1  1  0.000000  0.675245  0.584020  1
  Tm  Tm2  1  0.000000  0.822766  0.087415  1
  Tm  Tm3  1  0.000000  0.178231  0.914469  1
  Tm  Tm4  1  0.000000  0.942810  0.370487  1
  Tm  Tm5  1  0.000000  0.057494  0.630369  1
  Tm  Tm6  1  0.000000  0.443214  0.129763  1
  Tm  Tm7  1  0.000000  0.557685  0.869494  1
  Tc  Tc8  1  0.000000  0.638564  0.320354  1
  Tc  Tc9  1  0.000000  0.361556  0.680088  1
  Tc  Tc10  1  0.000000  0.138162  0.178466  1
  B  B11  1  0.500000  0.552925  0.433131  1
  B  B12  1  0.500000  0.446756  0.566500  1
  B  B13  1  0.500000  0.052889  0.066416  1
  B  B14  1  0.500000  0.946185  0.933155  1
  B  B15  1  0.500000  0.749200  0.419344  1
  B  B16  1  0.500000  0.250184  0.580812  1
  B  B17  1  0.500000  0.249887  0.080603  1
  B  B18  1  0.500000  0.750906  0.919020  1
  B  B19  1  0.500000  0.792384  0.265290  1
  B  B20  1  0.500000  0.207717  0.735514  1
  B  B21  1  0.500000  0.292365  0.234925  1
  B  B22  1  0.500000  0.708599  0.764925  1
  B  B23  1  0.500000  0.630985  0.184976  1
  B  B24  1  0.500000  0.369170  0.815597  1
  B  B25  1  0.500000  0.130372  0.314712  1
  B  B26  1  0.500000  0.868953  0.685089  1
  B  B27  1  0.500000  0.981158  0.211888  1
  B  B28  1  0.500000  0.017330  0.788286  1
  B  B29  1  0.500000  0.481464  0.287901  1
  B  B30  1  0.500000  0.518492  0.711738  1
  B  B31  1  0.500000  0.601937  0.027937  1
  B  B32  1  0.500000  0.399845  0.971786  1
  B  B33  1  0.500000  0.101113  0.472155  1
  B  B34  1  0.500000  0.898519  0.528640  1
  Ru  Ru35  1  0.000000  0.861512  0.820821  1
