# generated using pymatgen
data_Ca4Pr15YSn16
_symmetry_space_group_name_H-M   'P 1'
_cell_length_a   8.13252119
_cell_length_b   8.52251335
_cell_length_c   16.18641356
_cell_angle_alpha   90.09235644
_cell_angle_beta   89.52729067
_cell_angle_gamma   90.05956228
_symmetry_Int_Tables_number   1
_chemical_formula_structural   Ca4Pr15YSn16
_chemical_formula_sum   'Ca4 Pr15 Y1 Sn16'
_cell_volume   1121.83233210
_cell_formula_units_Z   1
loop_
 _symmetry_equiv_pos_site_id
 _symmetry_equiv_pos_as_xyz
  1  'x, y, z'
loop_
 _atom_site_type_symbol
 _atom_site_label
 _atom_site_symmetry_multiplicity
 _atom_site_fract_x
 _atom_site_fract_y
 _atom_site_fract_z
 _atom_site_occupancy
  Ca  Ca0  1  0.171187  0.497631  0.749900  1
  Ca  Ca1  1  0.670494  0.005447  0.750032  1
  Ca  Ca2  1  0.829051  0.504486  0.251001  1
  Ca  Ca3  1  0.329037  0.993594  0.250617  1
  Pr  Pr4  1  0.844267  0.670630  0.623920  1
  Pr  Pr5  1  0.654731  0.169575  0.375711  1
  Pr  Pr6  1  0.161971  0.326366  0.123457  1
  Pr  Pr7  1  0.663291  0.172223  0.123989  1
  Pr  Pr8  1  0.155704  0.329109  0.376199  1
  Pr  Pr9  1  0.346602  0.830016  0.625355  1
  Pr  Pr10  1  0.838811  0.674803  0.875323  1
  Pr  Pr11  1  0.493593  0.317926  0.903799  1
  Pr  Pr12  1  0.998199  0.183582  0.596293  1
  Pr  Pr13  1  0.504498  0.682476  0.404241  1
  Pr  Pr14  1  0.005779  0.815206  0.096038  1
  Pr  Pr15  1  0.504326  0.681234  0.095299  1
  Pr  Pr16  1  0.003463  0.817595  0.403848  1
  Pr  Pr17  1  0.496159  0.316557  0.596198  1
  Pr  Pr18  1  0.994180  0.183637  0.903187  1
  Y  Y19  1  0.334760  0.829236  0.875691  1
  Sn  Sn20  1  0.325576  0.032978  0.036443  1
  Sn  Sn21  1  0.815706  0.460194  0.463459  1
  Sn  Sn22  1  0.686856  0.961892  0.536801  1
  Sn  Sn23  1  0.177546  0.538247  0.960767  1
  Sn  Sn24  1  0.669736  0.962671  0.961259  1
  Sn  Sn25  1  0.186471  0.540142  0.536767  1
  Sn  Sn26  1  0.314548  0.038332  0.464133  1
  Sn  Sn27  1  0.823661  0.463541  0.036905  1
  Sn  Sn28  1  0.537378  0.606093  0.751252  1
  Sn  Sn29  1  0.041202  0.896061  0.751060  1
  Sn  Sn30  1  0.460775  0.395611  0.250020  1
  Sn  Sn31  1  0.961171  0.103212  0.250285  1
  Sn  Sn32  1  0.298622  0.140843  0.751330  1
  Sn  Sn33  1  0.798790  0.360767  0.750940  1
  Sn  Sn34  1  0.701224  0.858313  0.249218  1
  Sn  Sn35  1  0.200633  0.639774  0.249261  1
