# generated using pymatgen
data_Er12InFe2HgIr
_symmetry_space_group_name_H-M   'P 1'
_cell_length_a   8.28273014
_cell_length_b   8.28273000
_cell_length_c   8.28273083
_cell_angle_alpha   107.83984165
_cell_angle_beta   109.49768472
_cell_angle_gamma   111.09245726
_symmetry_Int_Tables_number   1
_chemical_formula_structural   Er12InFe2HgIr
_chemical_formula_sum   'Er12 In1 Fe2 Hg1 Ir1'
_cell_volume   437.06768882
_cell_formula_units_Z   1
loop_
 _symmetry_equiv_pos_site_id
 _symmetry_equiv_pos_as_xyz
  1  'x, y, z'
loop_
 _atom_site_type_symbol
 _atom_site_label
 _atom_site_symmetry_multiplicity
 _atom_site_fract_x
 _atom_site_fract_y
 _atom_site_fract_z
 _atom_site_occupancy
  Er  Er0  1  0.308645  0.308724  0.617368  1
  Er  Er1  1  0.691355  0.691276  0.382632  1
  Er  Er2  1  0.308645  0.691276  0.999921  1
  Er  Er3  1  0.691355  0.308724  0.000079  1
  Er  Er4  1  0.440209  0.192862  0.247346  1
  Er  Er5  1  0.559791  0.807138  0.752654  1
  Er  Er6  1  0.945517  0.192862  0.752654  1
  Er  Er7  1  0.191380  0.958272  0.766892  1
  Er  Er8  1  0.054483  0.807138  0.247346  1
  Er  Er9  1  0.808620  0.041728  0.233108  1
  Er  Er10  1  0.191380  0.424489  0.233108  1
  Er  Er11  1  0.808620  0.575511  0.766892  1
  In  In12  1  0.000000  0.500000  0.500000  1
  Fe  Fe13  1  0.385415  0.385415  0.000000  1
  Fe  Fe14  1  0.614585  0.614585  0.000000  1
  Hg  Hg15  1  0.500000  0.000000  0.500000  1
  Ir  Ir16  1  0.000000  0.000000  0.000000  1
