# generated using pymatgen
data_ThUReB6
_symmetry_space_group_name_H-M   'P 1'
_cell_length_a   3.73479100
_cell_length_b   9.41061900
_cell_length_c   11.52976400
_cell_angle_alpha   90.00000000
_cell_angle_beta   90.00000000
_cell_angle_gamma   90.00000000
_symmetry_Int_Tables_number   1
_chemical_formula_structural   ThUReB6
_chemical_formula_sum   'Th4 U4 Re4 B24'
_cell_volume   405.23310041
_cell_formula_units_Z   4
loop_
 _symmetry_equiv_pos_site_id
 _symmetry_equiv_pos_as_xyz
  1  'x, y, z'
loop_
 _atom_site_type_symbol
 _atom_site_label
 _atom_site_symmetry_multiplicity
 _atom_site_fract_x
 _atom_site_fract_y
 _atom_site_fract_z
 _atom_site_occupancy
  Th  Th0  1  0.000000  0.334755  0.407511  1
  Th  Th1  1  0.000000  0.665245  0.592489  1
  Th  Th2  1  0.000000  0.834755  0.092489  1
  Th  Th3  1  0.000000  0.165245  0.907511  1
  U  U4  1  0.000000  0.957414  0.397128  1
  U  U5  1  0.000000  0.042586  0.602872  1
  U  U6  1  0.000000  0.457414  0.102872  1
  U  U7  1  0.000000  0.542586  0.897128  1
  Re  Re8  1  0.000000  0.646761  0.318123  1
  Re  Re9  1  0.000000  0.353239  0.681877  1
  Re  Re10  1  0.000000  0.146761  0.181877  1
  Re  Re11  1  0.000000  0.853239  0.818123  1
  B  B12  1  0.500000  0.554930  0.428272  1
  B  B13  1  0.500000  0.445070  0.571728  1
  B  B14  1  0.500000  0.054930  0.071728  1
  B  B15  1  0.500000  0.945070  0.928272  1
  B  B16  1  0.500000  0.745404  0.421607  1
  B  B17  1  0.500000  0.254596  0.578393  1
  B  B18  1  0.500000  0.245404  0.078393  1
  B  B19  1  0.500000  0.754596  0.921607  1
  B  B20  1  0.500000  0.802022  0.275362  1
  B  B21  1  0.500000  0.197978  0.724638  1
  B  B22  1  0.500000  0.302022  0.224638  1
  B  B23  1  0.500000  0.697978  0.775362  1
  B  B24  1  0.500000  0.643192  0.188314  1
  B  B25  1  0.500000  0.356808  0.811686  1
  B  B26  1  0.500000  0.143192  0.311686  1
  B  B27  1  0.500000  0.856808  0.688314  1
  B  B28  1  0.500000  0.990524  0.220803  1
  B  B29  1  0.500000  0.009476  0.779197  1
  B  B30  1  0.500000  0.490524  0.279197  1
  B  B31  1  0.500000  0.509476  0.720803  1
  B  B32  1  0.500000  0.636426  0.037501  1
  B  B33  1  0.500000  0.363574  0.962499  1
  B  B34  1  0.500000  0.136426  0.462499  1
  B  B35  1  0.500000  0.863574  0.537501  1
