# generated using pymatgen
data_Li12Pr12SiTe7O48
_symmetry_space_group_name_H-M   'P 1'
_cell_length_a   11.03394258
_cell_length_b   11.03394183
_cell_length_c   10.97751800
_cell_angle_alpha   109.36766748
_cell_angle_beta   109.36765511
_cell_angle_gamma   109.57457984
_symmetry_Int_Tables_number   1
_chemical_formula_structural   Li12Pr12SiTe7O48
_chemical_formula_sum   'Li12 Pr12 Si1 Te7 O48'
_cell_volume   1030.14211628
_cell_formula_units_Z   1
loop_
 _symmetry_equiv_pos_site_id
 _symmetry_equiv_pos_as_xyz
  1  'x, y, z'
loop_
 _atom_site_type_symbol
 _atom_site_label
 _atom_site_symmetry_multiplicity
 _atom_site_fract_x
 _atom_site_fract_y
 _atom_site_fract_z
 _atom_site_occupancy
  Li  Li0  1  0.875464  0.749687  0.125021  1
  Li  Li1  1  0.249687  0.874224  0.124666  1
  Li  Li2  1  0.875706  0.128153  0.251580  1
  Li  Li3  1  0.374222  0.624537  0.249557  1
  Li  Li4  1  0.752448  0.624295  0.375874  1
  Li  Li5  1  0.628154  0.252449  0.376574  1
  Li  Li6  1  0.371846  0.747552  0.623426  1
  Li  Li7  1  0.247552  0.375706  0.624125  1
  Li  Li8  1  0.124296  0.871847  0.748420  1
  Li  Li9  1  0.625777  0.375463  0.750443  1
  Li  Li10  1  0.124538  0.250315  0.874980  1
  Li  Li11  1  0.750314  0.125778  0.875336  1
  Pr  Pr12  1  0.751933  0.375027  0.131268  1
  Pr  Pr13  1  0.374099  0.249722  0.124924  1
  Pr  Pr14  1  0.624378  0.874099  0.249175  1
  Pr  Pr15  1  0.124974  0.376908  0.256243  1
  Pr  Pr16  1  0.250277  0.124378  0.375200  1
  Pr  Pr17  1  0.123093  0.748067  0.379336  1
  Pr  Pr18  1  0.749721  0.875622  0.624798  1
  Pr  Pr19  1  0.876908  0.251934  0.620665  1
  Pr  Pr20  1  0.375623  0.125899  0.750822  1
  Pr  Pr21  1  0.875026  0.623092  0.743758  1
  Pr  Pr22  1  0.248067  0.624973  0.868731  1
  Pr  Pr23  1  0.625901  0.750278  0.875077  1
  Si  Si24  1  0.000000  0.500001  0.500000  1
  Te  Te25  1  0.000000  0.000000  0.000000  1
  Te  Te26  1  0.500002  0.000000  0.000000  1
  Te  Te27  1  0.500000  0.500001  0.000000  1
  Te  Te28  1  0.000000  0.500002  0.000000  1
  Te  Te29  1  0.000000  0.000000  0.499999  1
  Te  Te30  1  0.499999  0.499999  0.499999  1
  Te  Te31  1  0.500000  0.000000  0.500000  1
  O  O32  1  0.906255  0.330043  0.024038  1
  O  O33  1  0.115509  0.192111  0.021909  1
  O  O34  1  0.405763  0.883051  0.075961  1
  O  O35  1  0.670354  0.692472  0.076432  1
  O  O36  1  0.671219  0.979411  0.094370  1
  O  O37  1  0.423397  0.615509  0.093598  1
  O  O38  1  0.923790  0.593746  0.117784  1
  O  O39  1  0.192472  0.022119  0.116041  1
  O  O40  1  0.576399  0.192263  0.171009  1
  O  O41  1  0.595020  0.478023  0.171836  1
  O  O42  1  0.169957  0.576211  0.193996  1
  O  O43  1  0.021976  0.116997  0.193813  1
  O  O44  1  0.383050  0.477289  0.307089  1
  O  O45  1  0.929559  0.342449  0.322427  1
  O  O46  1  0.307887  0.923396  0.329797  1
  O  O47  1  0.022712  0.905761  0.329800  1
  O  O48  1  0.912890  0.570442  0.392867  1
  O  O49  1  0.479411  0.308191  0.385040  1
  O  O50  1  0.522120  0.829648  0.406078  1
  O  O51  1  0.884136  0.076399  0.405390  1
  O  O52  1  0.808191  0.828781  0.423151  1
  O  O53  1  0.616998  0.095020  0.423185  1
  O  O54  1  0.307736  0.384136  0.478745  1
  O  O55  1  0.157551  0.587112  0.479979  1
  O  O56  1  0.692263  0.615864  0.521253  1
  O  O57  1  0.842448  0.412889  0.520021  1
  O  O58  1  0.191811  0.171221  0.576850  1
  O  O59  1  0.383003  0.904980  0.576816  1
  O  O60  1  0.115864  0.923600  0.594610  1
  O  O61  1  0.477881  0.170353  0.593922  1
  O  O62  1  0.520590  0.691809  0.614961  1
  O  O63  1  0.087111  0.429558  0.607134  1
  O  O64  1  0.977288  0.094239  0.670199  1
  O  O65  1  0.692111  0.076602  0.670202  1
  O  O66  1  0.616950  0.522711  0.692910  1
  O  O67  1  0.070442  0.657553  0.677573  1
  O  O68  1  0.978022  0.883002  0.806186  1
  O  O69  1  0.830042  0.423789  0.806004  1
  O  O70  1  0.404979  0.521978  0.828165  1
  O  O71  1  0.423601  0.807736  0.828991  1
  O  O72  1  0.807528  0.977880  0.883958  1
  O  O73  1  0.076212  0.406255  0.882216  1
  O  O74  1  0.576604  0.384490  0.906401  1
  O  O75  1  0.328781  0.020590  0.905629  1
  O  O76  1  0.329647  0.307528  0.923570  1
  O  O77  1  0.594239  0.116951  0.924040  1
  O  O78  1  0.093746  0.669958  0.975960  1
  O  O79  1  0.884491  0.807888  0.978091  1
