# generated using pymatgen
data_Tm4AlPt
_symmetry_space_group_name_H-M   'P 1'
_cell_length_a   9.47528207
_cell_length_b   9.47528191
_cell_length_c   9.47528300
_cell_angle_alpha   59.99999968
_cell_angle_beta   60.00000024
_cell_angle_gamma   59.99999557
_symmetry_Int_Tables_number   1
_chemical_formula_structural   Tm4AlPt
_chemical_formula_sum   'Tm16 Al4 Pt4'
_cell_volume   601.53577991
_cell_formula_units_Z   4
loop_
 _symmetry_equiv_pos_site_id
 _symmetry_equiv_pos_as_xyz
  1  'x, y, z'
loop_
 _atom_site_type_symbol
 _atom_site_label
 _atom_site_symmetry_multiplicity
 _atom_site_fract_x
 _atom_site_fract_y
 _atom_site_fract_z
 _atom_site_occupancy
  Tm  Tm0  1  0.354787  0.354787  0.354787  1
  Tm  Tm1  1  0.354787  0.354787  0.935639  1
  Tm  Tm2  1  0.354787  0.935639  0.354787  1
  Tm  Tm3  1  0.935639  0.354787  0.354787  1
  Tm  Tm4  1  0.807394  0.192606  0.192606  1
  Tm  Tm5  1  0.192606  0.807394  0.807394  1
  Tm  Tm6  1  0.192606  0.807394  0.192606  1
  Tm  Tm7  1  0.807394  0.192606  0.807394  1
  Tm  Tm8  1  0.192606  0.192606  0.807394  1
  Tm  Tm9  1  0.807394  0.807394  0.192606  1
  Tm  Tm10  1  0.935657  0.564343  0.564343  1
  Tm  Tm11  1  0.564343  0.935657  0.935657  1
  Tm  Tm12  1  0.564343  0.935657  0.564343  1
  Tm  Tm13  1  0.935657  0.564343  0.935657  1
  Tm  Tm14  1  0.564343  0.564343  0.935657  1
  Tm  Tm15  1  0.935657  0.935657  0.564343  1
  Al  Al16  1  0.578431  0.578431  0.578431  1
  Al  Al17  1  0.578431  0.578431  0.264706  1
  Al  Al18  1  0.578431  0.264706  0.578431  1
  Al  Al19  1  0.264706  0.578431  0.578431  1
  Pt  Pt20  1  0.143614  0.143614  0.143614  1
  Pt  Pt21  1  0.143614  0.143614  0.569160  1
  Pt  Pt22  1  0.143614  0.569160  0.143614  1
  Pt  Pt23  1  0.569160  0.143614  0.143614  1
