# generated using pymatgen
data_SrCa4Si(PO6)2
_symmetry_space_group_name_H-M   'P 1'
_cell_length_a   6.82095000
_cell_length_b   10.17383600
_cell_length_c   15.89274200
_cell_angle_alpha   90.00000000
_cell_angle_beta   90.00000000
_cell_angle_gamma   90.00000000
_symmetry_Int_Tables_number   1
_chemical_formula_structural   SrCa4Si(PO6)2
_chemical_formula_sum   'Sr4 Ca16 Si4 P8 O48'
_cell_volume   1102.88043341
_cell_formula_units_Z   4
loop_
 _symmetry_equiv_pos_site_id
 _symmetry_equiv_pos_as_xyz
  1  'x, y, z'
loop_
 _atom_site_type_symbol
 _atom_site_label
 _atom_site_symmetry_multiplicity
 _atom_site_fract_x
 _atom_site_fract_y
 _atom_site_fract_z
 _atom_site_occupancy
  Sr  Sr0  1  0.208343  0.671130  0.498209  1
  Sr  Sr1  1  0.708343  0.828870  0.501791  1
  Sr  Sr2  1  0.291657  0.328870  0.998209  1
  Sr  Sr3  1  0.791657  0.171130  0.001791  1
  Ca  Ca4  1  0.882915  0.568000  0.661786  1
  Ca  Ca5  1  0.382915  0.932000  0.338214  1
  Ca  Ca6  1  0.617085  0.432000  0.161786  1
  Ca  Ca7  1  0.117085  0.068000  0.838214  1
  Ca  Ca8  1  0.620068  0.441208  0.843199  1
  Ca  Ca9  1  0.120068  0.058792  0.156801  1
  Ca  Ca10  1  0.879932  0.558792  0.343199  1
  Ca  Ca11  1  0.379932  0.941208  0.656801  1
  Ca  Ca12  1  0.074249  0.661256  0.857397  1
  Ca  Ca13  1  0.574249  0.838744  0.142603  1
  Ca  Ca14  1  0.425751  0.338744  0.357397  1
  Ca  Ca15  1  0.925751  0.161256  0.642603  1
  Ca  Ca16  1  0.416171  0.332680  0.644901  1
  Ca  Ca17  1  0.916171  0.167320  0.355099  1
  Ca  Ca18  1  0.083829  0.667320  0.144901  1
  Ca  Ca19  1  0.583829  0.832680  0.855099  1
  Si  Si20  1  0.897976  0.869204  0.682195  1
  Si  Si21  1  0.397976  0.630796  0.317805  1
  Si  Si22  1  0.602024  0.130796  0.182195  1
  Si  Si23  1  0.102024  0.369204  0.817805  1
  P  P24  1  0.223550  0.078941  0.497159  1
  P  P25  1  0.723550  0.421059  0.502841  1
  P  P26  1  0.276450  0.921059  0.997159  1
  P  P27  1  0.776450  0.578941  0.002841  1
  P  P28  1  0.601584  0.130575  0.817960  1
  P  P29  1  0.101584  0.369425  0.182040  1
  P  P30  1  0.898416  0.869425  0.317960  1
  P  P31  1  0.398416  0.630575  0.682040  1
  O  O32  1  0.716578  0.959609  0.643291  1
  O  O33  1  0.216578  0.540391  0.356709  1
  O  O34  1  0.783422  0.040391  0.143291  1
  O  O35  1  0.283422  0.459609  0.856709  1
  O  O36  1  0.773719  0.045380  0.852715  1
  O  O37  1  0.273719  0.454620  0.147285  1
  O  O38  1  0.726281  0.954620  0.352715  1
  O  O39  1  0.226281  0.545380  0.647285  1
  O  O40  1  0.292158  0.149344  0.579319  1
  O  O41  1  0.792158  0.350656  0.420681  1
  O  O42  1  0.207842  0.850656  0.079319  1
  O  O43  1  0.707842  0.649344  0.920681  1
  O  O44  1  0.207488  0.853496  0.914339  1
  O  O45  1  0.707488  0.646504  0.085661  1
  O  O46  1  0.292512  0.146504  0.414339  1
  O  O47  1  0.792512  0.353496  0.585661  1
  O  O48  1  0.995608  0.077793  0.497099  1
  O  O49  1  0.495608  0.422207  0.502901  1
  O  O50  1  0.504392  0.922207  0.997099  1
  O  O51  1  0.004392  0.577793  0.002901  1
  O  O52  1  0.069020  0.977077  0.707451  1
  O  O53  1  0.569020  0.522923  0.292549  1
  O  O54  1  0.430980  0.022923  0.207451  1
  O  O55  1  0.930980  0.477077  0.792549  1
  O  O56  1  0.439633  0.029324  0.793271  1
  O  O57  1  0.939633  0.470676  0.206729  1
  O  O58  1  0.060367  0.970676  0.293271  1
  O  O59  1  0.560367  0.529324  0.706729  1
  O  O60  1  0.841797  0.772722  0.762205  1
  O  O61  1  0.341797  0.727278  0.237795  1
  O  O62  1  0.658203  0.227278  0.262205  1
  O  O63  1  0.158203  0.272722  0.737795  1
  O  O64  1  0.655565  0.220573  0.742497  1
  O  O65  1  0.155565  0.279427  0.257503  1
  O  O66  1  0.844435  0.779427  0.242497  1
  O  O67  1  0.344435  0.720573  0.757503  1
  O  O68  1  0.318512  0.938715  0.499212  1
  O  O69  1  0.818512  0.561285  0.500788  1
  O  O70  1  0.181488  0.061285  0.999212  1
  O  O71  1  0.681488  0.438715  0.000788  1
  O  O72  1  0.972218  0.771772  0.605155  1
  O  O73  1  0.472218  0.728228  0.394845  1
  O  O74  1  0.527782  0.228228  0.105155  1
  O  O75  1  0.027782  0.271772  0.894845  1
  O  O76  1  0.529693  0.221489  0.890663  1
  O  O77  1  0.029693  0.278511  0.109337  1
  O  O78  1  0.970307  0.778511  0.390663  1
  O  O79  1  0.470307  0.721489  0.609337  1
