# generated using pymatgen
data_Nd11Cd9NiPd3
_symmetry_space_group_name_H-M   'P 1'
_cell_length_a   13.53853782
_cell_length_b   13.54067187
_cell_length_c   3.77305700
_cell_angle_alpha   90.00000000
_cell_angle_beta   90.00000000
_cell_angle_gamma   112.52684851
_symmetry_Int_Tables_number   1
_chemical_formula_structural   Nd11Cd9NiPd3
_chemical_formula_sum   'Nd11 Cd9 Ni1 Pd3'
_cell_volume   638.90507326
_cell_formula_units_Z   1
loop_
 _symmetry_equiv_pos_site_id
 _symmetry_equiv_pos_as_xyz
  1  'x, y, z'
loop_
 _atom_site_type_symbol
 _atom_site_label
 _atom_site_symmetry_multiplicity
 _atom_site_fract_x
 _atom_site_fract_y
 _atom_site_fract_z
 _atom_site_occupancy
  Nd  Nd0  1  0.074658  0.417857  0.000000  1
  Nd  Nd1  1  0.925892  0.583216  0.000000  1
  Nd  Nd2  1  0.417828  0.072646  0.000000  1
  Nd  Nd3  1  0.581160  0.919323  0.000000  1
  Nd  Nd4  1  0.627090  0.373587  0.000000  1
  Nd  Nd5  1  0.379515  0.631506  0.000000  1
  Nd  Nd6  1  0.836077  0.162240  0.000000  1
  Nd  Nd7  1  0.163906  0.836966  0.000000  1
  Nd  Nd8  1  0.999150  0.999452  0.000000  1
  Nd  Nd9  1  0.308595  0.309652  0.000000  1
  Nd  Nd10  1  0.686562  0.693233  0.000000  1
  Cd  Cd11  1  0.837698  0.365093  0.500000  1
  Cd  Cd12  1  0.162821  0.634680  0.500000  1
  Cd  Cd13  1  0.365958  0.836113  0.500000  1
  Cd  Cd14  1  0.634789  0.161258  0.500000  1
  Cd  Cd15  1  0.074403  0.216109  0.500000  1
  Cd  Cd16  1  0.925043  0.784031  0.500000  1
  Cd  Cd17  1  0.215843  0.073823  0.500000  1
  Cd  Cd18  1  0.782979  0.924639  0.500000  1
  Cd  Cd19  1  0.500409  0.501468  0.500000  1
  Ni  Ni20  1  0.548618  0.751815  0.500000  1
  Pd  Pd21  1  0.250458  0.451912  0.500000  1
  Pd  Pd22  1  0.749605  0.549867  0.500000  1
  Pd  Pd23  1  0.450945  0.249511  0.500000  1
