# generated using pymatgen
data_Tb8Lu12Si15Au
_symmetry_space_group_name_H-M   'P 1'
_cell_length_a   7.32255875
_cell_length_b   7.60282684
_cell_length_c   14.45660253
_cell_angle_alpha   89.84983468
_cell_angle_beta   89.58413925
_cell_angle_gamma   90.13985279
_symmetry_Int_Tables_number   1
_chemical_formula_structural   Tb8Lu12Si15Au
_chemical_formula_sum   'Tb8 Lu12 Si15 Au1'
_cell_volume   804.80369214
_cell_formula_units_Z   1
loop_
 _symmetry_equiv_pos_site_id
 _symmetry_equiv_pos_as_xyz
  1  'x, y, z'
loop_
 _atom_site_type_symbol
 _atom_site_label
 _atom_site_symmetry_multiplicity
 _atom_site_fract_x
 _atom_site_fract_y
 _atom_site_fract_z
 _atom_site_occupancy
  Tb  Tb0  1  0.016557  0.178346  0.098497  1
  Tb  Tb1  1  0.983452  0.822963  0.903502  1
  Tb  Tb2  1  0.483351  0.678361  0.903394  1
  Tb  Tb3  1  0.985587  0.826960  0.598343  1
  Tb  Tb4  1  0.515190  0.320960  0.097180  1
  Tb  Tb5  1  0.013277  0.175241  0.399318  1
  Tb  Tb6  1  0.513412  0.321020  0.399614  1
  Tb  Tb7  1  0.487845  0.679496  0.599109  1
  Lu  Lu8  1  0.163087  0.508556  0.749733  1
  Lu  Lu9  1  0.838329  0.492436  0.251232  1
  Lu  Lu10  1  0.337819  0.005501  0.249405  1
  Lu  Lu11  1  0.663605  0.990856  0.750344  1
  Lu  Lu12  1  0.335230  0.178206  0.623337  1
  Lu  Lu13  1  0.667218  0.822443  0.375297  1
  Lu  Lu14  1  0.171085  0.672377  0.375417  1
  Lu  Lu15  1  0.672431  0.823104  0.123836  1
  Lu  Lu16  1  0.829405  0.325802  0.623525  1
  Lu  Lu17  1  0.327688  0.177901  0.877444  1
  Lu  Lu18  1  0.827917  0.320981  0.877760  1
  Lu  Lu19  1  0.171017  0.677595  0.123699  1
  Si  Si20  1  0.035437  0.113525  0.751671  1
  Si  Si21  1  0.966822  0.888611  0.249737  1
  Si  Si22  1  0.467143  0.609501  0.248162  1
  Si  Si23  1  0.535645  0.390401  0.752116  1
  Si  Si24  1  0.280894  0.875436  0.751183  1
  Si  Si25  1  0.717098  0.127965  0.248467  1
  Si  Si26  1  0.218821  0.369198  0.247641  1
  Si  Si27  1  0.782322  0.627516  0.753326  1
  Si  Si28  1  0.835466  0.532847  0.458931  1
  Si  Si29  1  0.339425  0.965877  0.460037  1
  Si  Si30  1  0.844156  0.532872  0.038812  1
  Si  Si31  1  0.659341  0.034401  0.537713  1
  Si  Si32  1  0.153961  0.467376  0.961778  1
  Si  Si33  1  0.654869  0.030926  0.960613  1
  Si  Si34  1  0.344464  0.967264  0.039362  1
  Au  Au35  1  0.160631  0.467181  0.540464  1
