# generated using pymatgen
data_Tm10OsRh3
_symmetry_space_group_name_H-M   'P 1'
_cell_length_a   6.37023945
_cell_length_b   7.17095311
_cell_length_c   8.36812505
_cell_angle_alpha   96.57363653
_cell_angle_beta   112.15157257
_cell_angle_gamma   89.97690926
_symmetry_Int_Tables_number   1
_chemical_formula_structural   Tm10OsRh3
_chemical_formula_sum   'Tm10 Os1 Rh3'
_cell_volume   351.33909704
_cell_formula_units_Z   1
loop_
 _symmetry_equiv_pos_site_id
 _symmetry_equiv_pos_as_xyz
  1  'x, y, z'
loop_
 _atom_site_type_symbol
 _atom_site_label
 _atom_site_symmetry_multiplicity
 _atom_site_fract_x
 _atom_site_fract_y
 _atom_site_fract_z
 _atom_site_occupancy
  Tm  Tm0  1  0.789499  0.082997  0.812736  1
  Tm  Tm1  1  0.977650  0.416769  0.186419  1
  Tm  Tm2  1  0.207894  0.917066  0.177937  1
  Tm  Tm3  1  0.023769  0.581714  0.812049  1
  Tm  Tm4  1  0.210945  0.182258  0.562096  1
  Tm  Tm5  1  0.648407  0.315264  0.437873  1
  Tm  Tm6  1  0.794247  0.816117  0.443457  1
  Tm  Tm7  1  0.346598  0.687749  0.563179  1
  Tm  Tm8  1  0.423775  0.248741  0.999097  1
  Tm  Tm9  1  0.574554  0.751475  0.999131  1
  Os  Os10  1  0.176687  0.926003  0.785300  1
  Rh  Rh11  1  0.604591  0.427113  0.778978  1
  Rh  Rh12  1  0.824628  0.074339  0.220103  1
  Rh  Rh13  1  0.396756  0.572398  0.221646  1
