# generated using pymatgen
data_CaYb3(SiPd2)2
_symmetry_space_group_name_H-M   'P 1'
_cell_length_a   9.00982225
_cell_length_b   7.97969338
_cell_length_c   5.70052440
_cell_angle_alpha   80.58261380
_cell_angle_beta   61.15522425
_cell_angle_gamma   39.06165587
_symmetry_Int_Tables_number   1
_chemical_formula_structural   CaYb3(SiPd2)2
_chemical_formula_sum   'Ca1 Yb3 Si2 Pd4'
_cell_volume   209.04568284
_cell_formula_units_Z   1
loop_
 _symmetry_equiv_pos_site_id
 _symmetry_equiv_pos_as_xyz
  1  'x, y, z'
loop_
 _atom_site_type_symbol
 _atom_site_label
 _atom_site_symmetry_multiplicity
 _atom_site_fract_x
 _atom_site_fract_y
 _atom_site_fract_z
 _atom_site_occupancy
  Ca  Ca0  1  0.188314  0.217675  0.981436  1
  Yb  Yb1  1  0.031582  0.062254  0.636432  1
  Yb  Yb2  1  0.270846  0.634938  0.061571  1
  Yb  Yb3  1  0.615104  0.979535  0.217633  1
  Si  Si4  1  0.889776  0.609475  0.611013  1
  Si  Si5  1  0.640715  0.359460  0.358188  1
  Pd  Pd6  1  0.615815  0.629472  0.062259  1
  Pd  Pd7  1  0.693217  0.062318  0.627431  1
  Pd  Pd8  1  0.187138  0.562150  0.630970  1
  Pd  Pd9  1  0.619211  0.631003  0.561348  1
