# generated using pymatgen
data_Tb11Yb(SiPd)12
_symmetry_space_group_name_H-M   'P 1'
_cell_length_a   4.36344300
_cell_length_b   7.44680600
_cell_length_c   21.16302401
_cell_angle_alpha   90.00278690
_cell_angle_beta   90.00000000
_cell_angle_gamma   90.00000000
_symmetry_Int_Tables_number   1
_chemical_formula_structural   Tb11Yb(SiPd)12
_chemical_formula_sum   'Tb11 Yb1 Si12 Pd12'
_cell_volume   687.66523852
_cell_formula_units_Z   1
loop_
 _symmetry_equiv_pos_site_id
 _symmetry_equiv_pos_as_xyz
  1  'x, y, z'
loop_
 _atom_site_type_symbol
 _atom_site_label
 _atom_site_symmetry_multiplicity
 _atom_site_fract_x
 _atom_site_fract_y
 _atom_site_fract_z
 _atom_site_occupancy
  Tb  Tb0  1  0.750000  0.294204  0.667678  1
  Tb  Tb1  1  0.750000  0.203285  0.167383  1
  Tb  Tb2  1  0.250000  0.794218  0.832474  1
  Tb  Tb3  1  0.250000  0.795158  0.166748  1
  Tb  Tb4  1  0.750000  0.205897  0.833623  1
  Tb  Tb5  1  0.750000  0.296319  0.333899  1
  Tb  Tb6  1  0.250000  0.706386  0.666511  1
  Tb  Tb7  1  0.250000  0.710897  0.001089  1
  Tb  Tb8  1  0.750000  0.290061  0.998925  1
  Tb  Tb9  1  0.750000  0.210012  0.498836  1
  Tb  Tb10  1  0.250000  0.790783  0.500546  1
  Yb  Yb11  1  0.250000  0.704530  0.332758  1
  Si  Si12  1  0.250000  0.090250  0.070715  1
  Si  Si13  1  0.750000  0.909788  0.928552  1
  Si  Si14  1  0.750000  0.588173  0.433561  1
  Si  Si15  1  0.250000  0.410663  0.571946  1
  Si  Si16  1  0.250000  0.087251  0.272389  1
  Si  Si17  1  0.750000  0.914626  0.728375  1
  Si  Si18  1  0.750000  0.584202  0.225897  1
  Si  Si19  1  0.250000  0.414932  0.771390  1
  Si  Si20  1  0.250000  0.087784  0.394506  1
  Si  Si21  1  0.750000  0.912338  0.605023  1
  Si  Si22  1  0.750000  0.587490  0.104542  1
  Si  Si23  1  0.250000  0.412728  0.895119  1
  Pd  Pd24  1  0.250000  0.417464  0.236655  1
  Pd  Pd25  1  0.750000  0.583108  0.763330  1
  Pd  Pd26  1  0.750000  0.915822  0.262607  1
  Pd  Pd27  1  0.250000  0.083313  0.736762  1
  Pd  Pd28  1  0.250000  0.417012  0.435776  1
  Pd  Pd29  1  0.750000  0.582949  0.562392  1
  Pd  Pd30  1  0.750000  0.917028  0.062398  1
  Pd  Pd31  1  0.250000  0.082701  0.937747  1
  Pd  Pd32  1  0.250000  0.420208  0.093910  1
  Pd  Pd33  1  0.750000  0.579787  0.906240  1
  Pd  Pd34  1  0.750000  0.918221  0.406218  1
  Pd  Pd35  1  0.250000  0.080410  0.593477  1
