# generated using pymatgen
data_LiLuB6Ir
_symmetry_space_group_name_H-M   'P 1'
_cell_length_a   3.48656600
_cell_length_b   8.78595800
_cell_length_c   11.13971100
_cell_angle_alpha   90.00000000
_cell_angle_beta   90.00000000
_cell_angle_gamma   90.00000000
_symmetry_Int_Tables_number   1
_chemical_formula_structural   LiLuB6Ir
_chemical_formula_sum   'Li4 Lu4 B24 Ir4'
_cell_volume   341.24078910
_cell_formula_units_Z   4
loop_
 _symmetry_equiv_pos_site_id
 _symmetry_equiv_pos_as_xyz
  1  'x, y, z'
loop_
 _atom_site_type_symbol
 _atom_site_label
 _atom_site_symmetry_multiplicity
 _atom_site_fract_x
 _atom_site_fract_y
 _atom_site_fract_z
 _atom_site_occupancy
  Li  Li0  1  0.500000  0.446026  0.122987  1
  Li  Li1  1  0.500000  0.553974  0.877013  1
  Li  Li2  1  0.500000  0.053974  0.622987  1
  Li  Li3  1  0.500000  0.946026  0.377013  1
  Lu  Lu4  1  0.500000  0.317541  0.413735  1
  Lu  Lu5  1  0.500000  0.682459  0.586265  1
  Lu  Lu6  1  0.500000  0.182459  0.913735  1
  Lu  Lu7  1  0.500000  0.817541  0.086265  1
  B  B8  1  0.000000  0.091318  0.474778  1
  B  B9  1  0.000000  0.908682  0.525222  1
  B  B10  1  0.000000  0.408682  0.974778  1
  B  B11  1  0.000000  0.591318  0.025222  1
  B  B12  1  0.000000  0.125262  0.319185  1
  B  B13  1  0.000000  0.874738  0.680815  1
  B  B14  1  0.000000  0.374738  0.819185  1
  B  B15  1  0.000000  0.625262  0.180815  1
  B  B16  1  0.000000  0.055545  0.066766  1
  B  B17  1  0.000000  0.944455  0.933234  1
  B  B18  1  0.000000  0.444455  0.566766  1
  B  B19  1  0.000000  0.555545  0.433234  1
  B  B20  1  0.000000  0.479246  0.285496  1
  B  B21  1  0.000000  0.520754  0.714504  1
  B  B22  1  0.000000  0.020754  0.785496  1
  B  B23  1  0.000000  0.979246  0.214504  1
  B  B24  1  0.000000  0.258604  0.080768  1
  B  B25  1  0.000000  0.741396  0.919232  1
  B  B26  1  0.000000  0.241396  0.580768  1
  B  B27  1  0.000000  0.758604  0.419232  1
  B  B28  1  0.000000  0.294179  0.236090  1
  B  B29  1  0.000000  0.705821  0.763910  1
  B  B30  1  0.000000  0.205821  0.736090  1
  B  B31  1  0.000000  0.794179  0.263910  1
  Ir  Ir32  1  0.500000  0.140943  0.181153  1
  Ir  Ir33  1  0.500000  0.859057  0.818847  1
  Ir  Ir34  1  0.500000  0.359057  0.681153  1
  Ir  Ir35  1  0.500000  0.640943  0.318847  1
