# generated using pymatgen
data_Nd8P14Ir7Rh9
_symmetry_space_group_name_H-M   'P 1'
_cell_length_a   3.98479900
_cell_length_b   12.85124225
_cell_length_c   13.22626744
_cell_angle_alpha   80.83505714
_cell_angle_beta   90.00000000
_cell_angle_gamma   90.00000000
_symmetry_Int_Tables_number   1
_chemical_formula_structural   Nd8P14Ir7Rh9
_chemical_formula_sum   'Nd8 P14 Ir7 Rh9'
_cell_volume   668.66546317
_cell_formula_units_Z   1
loop_
 _symmetry_equiv_pos_site_id
 _symmetry_equiv_pos_as_xyz
  1  'x, y, z'
loop_
 _atom_site_type_symbol
 _atom_site_label
 _atom_site_symmetry_multiplicity
 _atom_site_fract_x
 _atom_site_fract_y
 _atom_site_fract_z
 _atom_site_occupancy
  Nd  Nd0  1  0.750000  0.791693  0.562158  1
  Nd  Nd1  1  0.250000  0.208537  0.437756  1
  Nd  Nd2  1  0.750000  0.481406  0.707100  1
  Nd  Nd3  1  0.250000  0.517817  0.292934  1
  Nd  Nd4  1  0.750000  0.720861  0.897395  1
  Nd  Nd5  1  0.250000  0.103107  0.788702  1
  Nd  Nd6  1  0.750000  0.896979  0.211153  1
  Nd  Nd7  1  0.250000  0.279188  0.102494  1
  P  P8  1  0.250000  0.909229  0.409575  1
  P  P9  1  0.750000  0.473618  0.128141  1
  P  P10  1  0.250000  0.526418  0.871821  1
  P  P11  1  0.750000  0.090760  0.590289  1
  P  P12  1  0.250000  0.742134  0.080904  1
  P  P13  1  0.750000  0.257792  0.919362  1
  P  P14  1  0.750000  0.156322  0.281712  1
  P  P15  1  0.250000  0.843816  0.718411  1
  P  P16  1  0.250000  0.051521  0.099319  1
  P  P17  1  0.750000  0.948372  0.900819  1
  P  P18  1  0.250000  0.313216  0.689330  1
  P  P19  1  0.750000  0.686710  0.310725  1
  P  P20  1  0.250000  0.608144  0.562212  1
  P  P21  1  0.750000  0.392522  0.437557  1
  Ir  Ir22  1  0.750000  0.576243  0.472672  1
  Ir  Ir23  1  0.250000  0.915514  0.997322  1
  Ir  Ir24  1  0.750000  0.084319  0.002677  1
  Ir  Ir25  1  0.250000  0.729007  0.393838  1
  Ir  Ir26  1  0.750000  0.271108  0.605823  1
  Ir  Ir27  1  0.250000  0.342038  0.859560  1
  Ir  Ir28  1  0.750000  0.657799  0.140796  1
  Rh  Rh29  1  0.250000  0.988315  0.576105  1
  Rh  Rh30  1  0.750000  0.011965  0.423972  1
  Rh  Rh31  1  0.250000  0.662621  0.729723  1
  Rh  Rh32  1  0.750000  0.337306  0.269899  1
  Rh  Rh33  1  0.250000  0.551911  0.046275  1
  Rh  Rh34  1  0.750000  0.448138  0.953778  1
  Rh  Rh35  1  0.250000  0.060839  0.273256  1
  Rh  Rh36  1  0.750000  0.939318  0.726785  1
  Rh  Rh37  1  0.250000  0.423393  0.527653  1
