# generated using pymatgen
data_Hf2Zr2Al7Cu
_symmetry_space_group_name_H-M   'P 1'
_cell_length_a   5.29237300
_cell_length_b   5.29237358
_cell_length_c   8.61988200
_cell_angle_alpha   90.00000000
_cell_angle_beta   90.00000000
_cell_angle_gamma   119.99997762
_symmetry_Int_Tables_number   1
_chemical_formula_structural   Hf2Zr2Al7Cu
_chemical_formula_sum   'Hf2 Zr2 Al7 Cu1'
_cell_volume   209.08986787
_cell_formula_units_Z   1
loop_
 _symmetry_equiv_pos_site_id
 _symmetry_equiv_pos_as_xyz
  1  'x, y, z'
loop_
 _atom_site_type_symbol
 _atom_site_label
 _atom_site_symmetry_multiplicity
 _atom_site_fract_x
 _atom_site_fract_y
 _atom_site_fract_z
 _atom_site_occupancy
  Hf  Hf0  1  0.666667  0.333333  0.932312  1
  Hf  Hf1  1  0.333333  0.666667  0.067688  1
  Zr  Zr2  1  0.333333  0.666667  0.432449  1
  Zr  Zr3  1  0.666667  0.333333  0.567551  1
  Al  Al4  1  0.000000  0.000000  0.500000  1
  Al  Al5  1  0.830192  0.169808  0.238472  1
  Al  Al6  1  0.830192  0.660384  0.238472  1
  Al  Al7  1  0.339616  0.169808  0.238472  1
  Al  Al8  1  0.169808  0.830192  0.761528  1
  Al  Al9  1  0.169808  0.339616  0.761528  1
  Al  Al10  1  0.660384  0.830192  0.761528  1
  Cu  Cu11  1  0.000000  0.000000  0.000000  1
