# generated using pymatgen
data_Dy(AgTe)3
_symmetry_space_group_name_H-M   'P 1'
_cell_length_a   7.25528500
_cell_length_b   8.17790200
_cell_length_c   13.83716200
_cell_angle_alpha   90.00000000
_cell_angle_beta   90.00000000
_cell_angle_gamma   90.00000000
_symmetry_Int_Tables_number   1
_chemical_formula_structural   Dy(AgTe)3
_chemical_formula_sum   'Dy4 Ag12 Te12'
_cell_volume   821.00046733
_cell_formula_units_Z   4
loop_
 _symmetry_equiv_pos_site_id
 _symmetry_equiv_pos_as_xyz
  1  'x, y, z'
loop_
 _atom_site_type_symbol
 _atom_site_label
 _atom_site_symmetry_multiplicity
 _atom_site_fract_x
 _atom_site_fract_y
 _atom_site_fract_z
 _atom_site_occupancy
  Dy  Dy0  1  0.243417  0.749294  0.832990  1
  Dy  Dy1  1  0.743417  0.250706  0.332990  1
  Dy  Dy2  1  0.743417  0.250706  0.667010  1
  Dy  Dy3  1  0.243417  0.749294  0.167010  1
  Ag  Ag4  1  0.381747  0.121794  0.833845  1
  Ag  Ag5  1  0.633922  0.601530  0.000000  1
  Ag  Ag6  1  0.881747  0.878206  0.666155  1
  Ag  Ag7  1  0.604926  0.624227  0.667095  1
  Ag  Ag8  1  0.858256  0.892441  0.000000  1
  Ag  Ag9  1  0.133922  0.398470  0.500000  1
  Ag  Ag10  1  0.604926  0.624227  0.332905  1
  Ag  Ag11  1  0.358256  0.107559  0.500000  1
  Ag  Ag12  1  0.881747  0.878206  0.333845  1
  Ag  Ag13  1  0.381747  0.121794  0.166155  1
  Ag  Ag14  1  0.104926  0.375773  0.832905  1
  Ag  Ag15  1  0.104926  0.375773  0.167095  1
  Te  Te16  1  0.011704  0.558563  0.331208  1
  Te  Te17  1  0.511704  0.441437  0.168792  1
  Te  Te18  1  0.975610  0.056925  0.168406  1
  Te  Te19  1  0.011704  0.558563  0.668792  1
  Te  Te20  1  0.027962  0.576192  0.000000  1
  Te  Te21  1  0.511704  0.441437  0.831208  1
  Te  Te22  1  0.475610  0.943075  0.331594  1
  Te  Te23  1  0.475610  0.943075  0.668406  1
  Te  Te24  1  0.963050  0.080475  0.500000  1
  Te  Te25  1  0.463050  0.919525  0.000000  1
  Te  Te26  1  0.975610  0.056925  0.831594  1
  Te  Te27  1  0.527962  0.423808  0.500000  1
