# generated using pymatgen
data_NbRe5As14
_symmetry_space_group_name_H-M   'P 1'
_cell_length_a   7.68924614
_cell_length_b   7.68924615
_cell_length_c   7.68924582
_cell_angle_alpha   109.24380875
_cell_angle_beta   109.92699758
_cell_angle_gamma   109.24381570
_symmetry_Int_Tables_number   1
_chemical_formula_structural   NbRe5As14
_chemical_formula_sum   'Nb1 Re5 As14'
_cell_volume   349.95223342
_cell_formula_units_Z   1
loop_
 _symmetry_equiv_pos_site_id
 _symmetry_equiv_pos_as_xyz
  1  'x, y, z'
loop_
 _atom_site_type_symbol
 _atom_site_label
 _atom_site_symmetry_multiplicity
 _atom_site_fract_x
 _atom_site_fract_y
 _atom_site_fract_z
 _atom_site_occupancy
  Nb  Nb0  1  0.341958  0.000000  0.341958  1
  Re  Re1  1  0.000042  0.340710  0.340753  1
  Re  Re2  1  0.000042  0.659290  0.659332  1
  Re  Re3  1  0.340753  0.340710  0.000042  1
  Re  Re4  1  0.659332  0.659290  0.000042  1
  Re  Re5  1  0.666037  0.000000  0.666037  1
  As  As6  1  0.750898  0.500000  0.250898  1
  As  As7  1  0.499874  0.747493  0.247366  1
  As  As8  1  0.499874  0.252507  0.752381  1
  As  As9  1  0.752381  0.252507  0.499874  1
  As  As10  1  0.247366  0.747493  0.499874  1
  As  As11  1  0.250898  0.500000  0.750898  1
  As  As12  1  0.996918  0.000000  0.330669  1
  As  As13  1  0.668024  0.000000  0.999663  1
  As  As14  1  0.996918  0.666249  0.996918  1
  As  As15  1  0.330669  0.333751  0.330669  1
  As  As16  1  0.999663  0.331639  0.999663  1
  As  As17  1  0.668024  0.668361  0.668024  1
  As  As18  1  0.330669  0.000000  0.996918  1
  As  As19  1  0.999663  0.000000  0.668024  1
