# generated using pymatgen
data_Tm12Tc3Ag2
_symmetry_space_group_name_H-M   'P 1'
_cell_length_a   8.25603833
_cell_length_b   8.25595371
_cell_length_c   8.25603857
_cell_angle_alpha   110.17088726
_cell_angle_beta   110.16467810
_cell_angle_gamma   108.08730317
_symmetry_Int_Tables_number   1
_chemical_formula_structural   Tm12Tc3Ag2
_chemical_formula_sum   'Tm12 Tc3 Ag2'
_cell_volume   433.00913406
_cell_formula_units_Z   1
loop_
 _symmetry_equiv_pos_site_id
 _symmetry_equiv_pos_as_xyz
  1  'x, y, z'
loop_
 _atom_site_type_symbol
 _atom_site_label
 _atom_site_symmetry_multiplicity
 _atom_site_fract_x
 _atom_site_fract_y
 _atom_site_fract_z
 _atom_site_occupancy
  Tm  Tm0  1  0.184841  0.433091  0.248251  1
  Tm  Tm1  1  0.815159  0.566909  0.751749  1
  Tm  Tm2  1  0.184842  0.936590  0.751747  1
  Tm  Tm3  1  0.936588  0.184836  0.751747  1
  Tm  Tm4  1  0.815158  0.063410  0.248253  1
  Tm  Tm5  1  0.063412  0.815164  0.248253  1
  Tm  Tm6  1  0.433089  0.184836  0.248249  1
  Tm  Tm7  1  0.566911  0.815164  0.751751  1
  Tm  Tm8  1  0.320416  0.320411  0.640832  1
  Tm  Tm9  1  0.679584  0.679589  0.359168  1
  Tm  Tm10  1  0.679581  0.320411  0.999995  1
  Tm  Tm11  1  0.320419  0.679589  0.000005  1
  Tc  Tc12  1  0.337534  0.337531  0.999997  1
  Tc  Tc13  1  0.662466  0.662469  0.000003  1
  Tc  Tc14  1  0.000000  0.000000  0.000000  1
  Ag  Ag15  1  0.000000  0.500000  0.500000  1
  Ag  Ag16  1  0.500000  0.000000  0.500000  1
