# generated using pymatgen
data_Ho(ErTe2)2
_symmetry_space_group_name_H-M   'P 1'
_cell_length_a   4.31743100
_cell_length_b   7.45723690
_cell_length_c   7.45042426
_cell_angle_alpha   71.57006175
_cell_angle_beta   90.00000000
_cell_angle_gamma   90.00000000
_symmetry_Int_Tables_number   1
_chemical_formula_structural   Ho(ErTe2)2
_chemical_formula_sum   'Ho1 Er2 Te4'
_cell_volume   227.57170440
_cell_formula_units_Z   1
loop_
 _symmetry_equiv_pos_site_id
 _symmetry_equiv_pos_as_xyz
  1  'x, y, z'
loop_
 _atom_site_type_symbol
 _atom_site_label
 _atom_site_symmetry_multiplicity
 _atom_site_fract_x
 _atom_site_fract_y
 _atom_site_fract_z
 _atom_site_occupancy
  Ho  Ho0  1  0.000000  0.500000  0.500000  1
  Er  Er1  1  0.000000  0.000000  0.000000  1
  Er  Er2  1  0.500000  0.500000  0.000000  1
  Te  Te3  1  0.500000  0.757811  0.256161  1
  Te  Te4  1  0.000000  0.249040  0.250090  1
  Te  Te5  1  0.500000  0.242189  0.743839  1
  Te  Te6  1  0.000000  0.750960  0.749910  1
