# generated using pymatgen
data_Y4Er6Si5Sb
_symmetry_space_group_name_H-M   'P 1'
_cell_length_a   8.40046100
_cell_length_b   8.41717136
_cell_length_c   6.29034500
_cell_angle_alpha   90.00000000
_cell_angle_beta   90.00000000
_cell_angle_gamma   119.93434556
_symmetry_Int_Tables_number   1
_chemical_formula_structural   Y4Er6Si5Sb
_chemical_formula_sum   'Y4 Er6 Si5 Sb1'
_cell_volume   385.44403173
_cell_formula_units_Z   1
loop_
 _symmetry_equiv_pos_site_id
 _symmetry_equiv_pos_as_xyz
  1  'x, y, z'
loop_
 _atom_site_type_symbol
 _atom_site_label
 _atom_site_symmetry_multiplicity
 _atom_site_fract_x
 _atom_site_fract_y
 _atom_site_fract_z
 _atom_site_occupancy
  Y  Y0  1  0.987622  0.746742  0.750000  1
  Y  Y1  1  0.764702  0.000000  0.750000  1
  Y  Y2  1  0.240880  0.253258  0.750000  1
  Y  Y3  1  0.241777  0.000000  0.250000  1
  Er  Er4  1  0.999210  0.243782  0.250000  1
  Er  Er5  1  0.755429  0.756218  0.250000  1
  Er  Er6  1  0.331560  0.657258  0.496179  1
  Er  Er7  1  0.674303  0.342742  0.003821  1
  Er  Er8  1  0.674303  0.342742  0.496179  1
  Er  Er9  1  0.331560  0.657258  0.003821  1
  Si  Si10  1  0.394671  0.393199  0.250000  1
  Si  Si11  1  0.001474  0.606801  0.250000  1
  Si  Si12  1  0.998776  0.395990  0.750000  1
  Si  Si13  1  0.602788  0.604010  0.750000  1
  Si  Si14  1  0.607466  0.000000  0.250000  1
  Sb  Sb15  1  0.393480  0.000000  0.750000  1
