# generated using pymatgen
data_Gd2AsS
_symmetry_space_group_name_H-M   'P 1'
_cell_length_a   7.04771606
_cell_length_b   7.04771609
_cell_length_c   7.04771616
_cell_angle_alpha   131.73418459
_cell_angle_beta   131.73418282
_cell_angle_gamma   70.64918007
_symmetry_Int_Tables_number   1
_chemical_formula_structural   Gd2AsS
_chemical_formula_sum   'Gd4 As2 S2'
_cell_volume   190.97411300
_cell_formula_units_Z   2
loop_
 _symmetry_equiv_pos_site_id
 _symmetry_equiv_pos_as_xyz
  1  'x, y, z'
loop_
 _atom_site_type_symbol
 _atom_site_label
 _atom_site_symmetry_multiplicity
 _atom_site_fract_x
 _atom_site_fract_y
 _atom_site_fract_z
 _atom_site_occupancy
  Gd  Gd0  1  0.750958  0.750958  0.000000  1
  Gd  Gd1  1  0.249042  0.249042  0.000000  1
  Gd  Gd2  1  0.999042  0.499042  0.500000  1
  Gd  Gd3  1  0.500958  0.000958  0.500000  1
  As  As4  1  0.500000  0.500000  0.000000  1
  As  As5  1  0.250000  0.750000  0.500000  1
  S  S6  1  0.000000  0.000000  0.000000  1
  S  S7  1  0.750000  0.250000  0.500000  1
