# generated using pymatgen
data_Ta2V3Si2B4W5
_symmetry_space_group_name_H-M   'P 1'
_cell_length_a   6.97264756
_cell_length_b   7.00825223
_cell_length_c   7.03758962
_cell_angle_alpha   129.45213195
_cell_angle_beta   129.24755068
_cell_angle_gamma   74.41129835
_symmetry_Int_Tables_number   1
_chemical_formula_structural   Ta2V3Si2B4W5
_chemical_formula_sum   'Ta2 V3 Si2 B4 W5'
_cell_volume   200.46846712
_cell_formula_units_Z   1
loop_
 _symmetry_equiv_pos_site_id
 _symmetry_equiv_pos_as_xyz
  1  'x, y, z'
loop_
 _atom_site_type_symbol
 _atom_site_label
 _atom_site_symmetry_multiplicity
 _atom_site_fract_x
 _atom_site_fract_y
 _atom_site_fract_z
 _atom_site_occupancy
  Ta  Ta0  1  0.524871  0.693383  0.498546  1
  Ta  Ta1  1  0.025725  0.525189  0.832314  1
  V  V2  1  0.303866  0.802430  0.834741  1
  V  V3  1  0.004563  0.001855  0.000910  1
  V  V4  1  0.501787  0.503463  0.000199  1
  Si  Si5  1  0.250599  0.236687  0.994473  1
  Si  Si6  1  0.742517  0.752514  0.002952  1
  B  B7  1  0.626665  0.129164  0.754539  1
  B  B8  1  0.123719  0.382349  0.501550  1
  B  B9  1  0.884228  0.624038  0.502887  1
  B  B10  1  0.374487  0.875483  0.244665  1
  W  W11  1  0.693052  0.192500  0.159540  1
  W  W12  1  0.974337  0.473250  0.171183  1
  W  W13  1  0.192627  0.032831  0.498478  1
  W  W14  1  0.471932  0.303951  0.501639  1
  W  W15  1  0.805022  0.970912  0.501382  1
