# generated using pymatgen
data_RbLiGdF5
_symmetry_space_group_name_H-M   'P 1'
_cell_length_a   12.17066300
_cell_length_b   6.53762625
_cell_length_c   6.74242888
_cell_angle_alpha   65.85461442
_cell_angle_beta   90.00000000
_cell_angle_gamma   90.00000000
_symmetry_Int_Tables_number   1
_chemical_formula_structural   RbLiGdF5
_chemical_formula_sum   'Rb4 Li4 Gd4 F20'
_cell_volume   489.54040501
_cell_formula_units_Z   4
loop_
 _symmetry_equiv_pos_site_id
 _symmetry_equiv_pos_as_xyz
  1  'x, y, z'
loop_
 _atom_site_type_symbol
 _atom_site_label
 _atom_site_symmetry_multiplicity
 _atom_site_fract_x
 _atom_site_fract_y
 _atom_site_fract_z
 _atom_site_occupancy
  Rb  Rb0  1  0.846586  0.037447  0.948564  1
  Rb  Rb1  1  0.653414  0.537447  0.948564  1
  Rb  Rb2  1  0.346586  0.462553  0.051436  1
  Rb  Rb3  1  0.153414  0.962553  0.051436  1
  Li  Li4  1  0.747221  0.460528  0.444585  1
  Li  Li5  1  0.752779  0.960528  0.444585  1
  Li  Li6  1  0.252779  0.539472  0.555415  1
  Li  Li7  1  0.247221  0.039472  0.555415  1
  Gd  Gd8  1  0.996745  0.319387  0.320679  1
  Gd  Gd9  1  0.003255  0.680613  0.679321  1
  Gd  Gd10  1  0.503255  0.819387  0.320679  1
  Gd  Gd11  1  0.496745  0.180613  0.679321  1
  F  F12  1  0.672476  0.284004  0.698905  1
  F  F13  1  0.605008  0.967167  0.532579  1
  F  F14  1  0.327524  0.715996  0.301095  1
  F  F15  1  0.008354  0.330902  0.957730  1
  F  F16  1  0.172476  0.215996  0.301095  1
  F  F17  1  0.394992  0.032833  0.467421  1
  F  F18  1  0.894992  0.467167  0.532579  1
  F  F19  1  0.531409  0.454405  0.337935  1
  F  F20  1  0.805109  0.271901  0.290060  1
  F  F21  1  0.305109  0.228099  0.709940  1
  F  F22  1  0.468591  0.545595  0.662065  1
  F  F23  1  0.991646  0.669098  0.042270  1
  F  F24  1  0.194891  0.728099  0.709940  1
  F  F25  1  0.508354  0.169098  0.042270  1
  F  F26  1  0.968591  0.954405  0.337935  1
  F  F27  1  0.694891  0.771901  0.290060  1
  F  F28  1  0.031409  0.045595  0.662065  1
  F  F29  1  0.827524  0.784004  0.698905  1
  F  F30  1  0.105008  0.532833  0.467421  1
  F  F31  1  0.491646  0.830902  0.957730  1
