# generated using pymatgen
data_Li6InBi5Rh12
_symmetry_space_group_name_H-M   'P 1'
_cell_length_a   4.48137900
_cell_length_b   6.28580100
_cell_length_c   13.51736000
_cell_angle_alpha   90.00000000
_cell_angle_beta   90.00059077
_cell_angle_gamma   90.00000000
_symmetry_Int_Tables_number   1
_chemical_formula_structural   Li6InBi5Rh12
_chemical_formula_sum   'Li6 In1 Bi5 Rh12'
_cell_volume   380.77127891
_cell_formula_units_Z   1
loop_
 _symmetry_equiv_pos_site_id
 _symmetry_equiv_pos_as_xyz
  1  'x, y, z'
loop_
 _atom_site_type_symbol
 _atom_site_label
 _atom_site_symmetry_multiplicity
 _atom_site_fract_x
 _atom_site_fract_y
 _atom_site_fract_z
 _atom_site_occupancy
  Li  Li0  1  0.999989  0.500000  0.997010  1
  Li  Li1  1  0.499805  0.000000  0.165629  1
  Li  Li2  1  0.999844  0.500000  0.333324  1
  Li  Li3  1  0.499998  0.000000  0.501028  1
  Li  Li4  1  0.000188  0.500000  0.669714  1
  Li  Li5  1  0.500210  0.000000  0.833328  1
  In  In6  1  0.500260  0.500000  0.833349  1
  Bi  Bi7  1  0.000005  0.000000  0.996796  1
  Bi  Bi8  1  0.499844  0.500000  0.165048  1
  Bi  Bi9  1  0.999829  0.000000  0.333348  1
  Bi  Bi10  1  0.500007  0.500000  0.501602  1
  Bi  Bi11  1  0.000171  0.000000  0.669868  1
  Rh  Rh12  1  0.500023  0.250509  0.000721  1
  Rh  Rh13  1  0.500023  0.749492  0.000721  1
  Rh  Rh14  1  0.999817  0.248078  0.166936  1
  Rh  Rh15  1  0.999817  0.751922  0.166936  1
  Rh  Rh16  1  0.499849  0.251898  0.333319  1
  Rh  Rh17  1  0.499849  0.748101  0.333319  1
  Rh  Rh18  1  0.000032  0.248070  0.499745  1
  Rh  Rh19  1  0.000032  0.751931  0.499745  1
  Rh  Rh20  1  0.500209  0.250482  0.665919  1
  Rh  Rh21  1  0.500209  0.749517  0.665919  1
  Rh  Rh22  1  0.999993  0.252693  0.833338  1
  Rh  Rh23  1  0.999993  0.747307  0.833338  1
