# generated using pymatgen
data_Rb(Nb3S4)4
_symmetry_space_group_name_H-M   'P 1'
_cell_length_a   10.29574367
_cell_length_b   10.29574363
_cell_length_c   9.70826260
_cell_angle_alpha   61.88246652
_cell_angle_beta   61.88246799
_cell_angle_gamma   38.83448506
_symmetry_Int_Tables_number   1
_chemical_formula_structural   Rb(Nb3S4)4
_chemical_formula_sum   'Rb1 Nb12 S16'
_cell_volume   558.97360156
_cell_formula_units_Z   1
loop_
 _symmetry_equiv_pos_site_id
 _symmetry_equiv_pos_as_xyz
  1  'x, y, z'
loop_
 _atom_site_type_symbol
 _atom_site_label
 _atom_site_symmetry_multiplicity
 _atom_site_fract_x
 _atom_site_fract_y
 _atom_site_fract_z
 _atom_site_occupancy
  Rb  Rb0  1  0.374902  0.374902  0.999512  1
  Nb  Nb1  1  0.932124  0.932124  0.514424  1
  Nb  Nb2  1  0.431560  0.431560  0.516879  1
  Nb  Nb3  1  0.131922  0.131922  0.372311  1
  Nb  Nb4  1  0.633320  0.633320  0.368675  1
  Nb  Nb5  1  0.059322  0.059322  0.114746  1
  Nb  Nb6  1  0.561121  0.561121  0.114846  1
  Nb  Nb7  1  0.068415  0.568178  0.488064  1
  Nb  Nb8  1  0.568178  0.068415  0.488064  1
  Nb  Nb9  1  0.875062  0.363225  0.625556  1
  Nb  Nb10  1  0.363225  0.875062  0.625556  1
  Nb  Nb11  1  0.930683  0.445117  0.885513  1
  Nb  Nb12  1  0.445117  0.930683  0.885513  1
  S  S13  1  0.522941  0.522941  0.647075  1
  S  S14  1  0.019343  0.019343  0.652676  1
  S  S15  1  0.701527  0.701527  0.058244  1
  S  S16  1  0.198345  0.198345  0.057175  1
  S  S17  1  0.404623  0.404623  0.293269  1
  S  S18  1  0.903248  0.903248  0.291194  1
  S  S19  1  0.481330  0.981624  0.345246  1
  S  S20  1  0.981624  0.481330  0.345246  1
  S  S21  1  0.297168  0.798088  0.942057  1
  S  S22  1  0.798088  0.297168  0.942057  1
  S  S23  1  0.597600  0.094264  0.713020  1
  S  S24  1  0.094264  0.597600  0.713020  1
  S  S25  1  0.707837  0.707837  0.664953  1
  S  S26  1  0.208648  0.208648  0.668566  1
  S  S27  1  0.291857  0.791607  0.333272  1
  S  S28  1  0.791607  0.291857  0.333272  1
