# generated using pymatgen
data_CaHoSb(AsRh2)6
_symmetry_space_group_name_H-M   'P 1'
_cell_length_a   10.09408200
_cell_length_b   10.09408249
_cell_length_c   3.93333600
_cell_angle_alpha   90.00000000
_cell_angle_beta   90.00000000
_cell_angle_gamma   119.99999841
_symmetry_Int_Tables_number   1
_chemical_formula_structural   CaHoSb(AsRh2)6
_chemical_formula_sum   'Ca1 Ho1 Sb1 As6 Rh12'
_cell_volume   347.07662318
_cell_formula_units_Z   1
loop_
 _symmetry_equiv_pos_site_id
 _symmetry_equiv_pos_as_xyz
  1  'x, y, z'
loop_
 _atom_site_type_symbol
 _atom_site_label
 _atom_site_symmetry_multiplicity
 _atom_site_fract_x
 _atom_site_fract_y
 _atom_site_fract_z
 _atom_site_occupancy
  Ca  Ca0  1  0.333333  0.666667  0.248139  1
  Ho  Ho1  1  0.666667  0.333333  0.752368  1
  Sb  Sb2  1  0.000000  0.000000  0.501114  1
  As  As3  1  0.406104  0.115891  0.252254  1
  As  As4  1  0.709787  0.593896  0.252254  1
  As  As5  1  0.884109  0.290213  0.252254  1
  As  As6  1  0.592107  0.881122  0.746861  1
  As  As7  1  0.289016  0.407893  0.746861  1
  As  As8  1  0.118878  0.710984  0.746861  1
  Rh  Rh9  1  0.449802  0.381058  0.251596  1
  Rh  Rh10  1  0.931256  0.550198  0.251596  1
  Rh  Rh11  1  0.618942  0.068744  0.251596  1
  Rh  Rh12  1  0.554278  0.614779  0.748722  1
  Rh  Rh13  1  0.060501  0.445722  0.748722  1
  Rh  Rh14  1  0.385221  0.939499  0.748722  1
  Rh  Rh15  1  0.153849  0.878832  0.241752  1
  Rh  Rh16  1  0.724983  0.846151  0.241752  1
  Rh  Rh17  1  0.121168  0.275017  0.241752  1
  Rh  Rh18  1  0.843325  0.118979  0.758274  1
  Rh  Rh19  1  0.275654  0.156675  0.758274  1
  Rh  Rh20  1  0.881021  0.724346  0.758274  1
