# generated using pymatgen
data_LuHf2Sn3IrRh2
_symmetry_space_group_name_H-M   'P 1'
_cell_length_a   7.47729954
_cell_length_b   7.46763831
_cell_length_c   7.27886536
_cell_angle_alpha   89.83222321
_cell_angle_beta   90.01909616
_cell_angle_gamma   120.01433975
_symmetry_Int_Tables_number   1
_chemical_formula_structural   LuHf2Sn3IrRh2
_chemical_formula_sum   'Lu2 Hf4 Sn6 Ir2 Rh4'
_cell_volume   351.93087238
_cell_formula_units_Z   2
loop_
 _symmetry_equiv_pos_site_id
 _symmetry_equiv_pos_as_xyz
  1  'x, y, z'
loop_
 _atom_site_type_symbol
 _atom_site_label
 _atom_site_symmetry_multiplicity
 _atom_site_fract_x
 _atom_site_fract_y
 _atom_site_fract_z
 _atom_site_occupancy
  Lu  Lu0  1  0.001129  0.403748  0.250529  1
  Lu  Lu1  1  0.597763  0.595960  0.250576  1
  Hf  Hf2  1  0.996651  0.390863  0.749028  1
  Hf  Hf3  1  0.605356  0.609535  0.748997  1
  Hf  Hf4  1  0.394370  0.999597  0.749412  1
  Hf  Hf5  1  0.401827  0.999691  0.256056  1
  Sn  Sn6  1  0.266632  0.268389  0.505379  1
  Sn  Sn7  1  0.997961  0.731461  0.505620  1
  Sn  Sn8  1  0.000189  0.730798  0.995040  1
  Sn  Sn9  1  0.734761  0.999925  0.496134  1
  Sn  Sn10  1  0.730480  0.000243  0.004841  1
  Sn  Sn11  1  0.270056  0.269110  0.995233  1
  Ir  Ir12  1  0.334230  0.673126  0.523421  1
  Ir  Ir13  1  0.661290  0.327124  0.524666  1
  Rh  Rh14  1  0.334327  0.670730  0.972879  1
  Rh  Rh15  1  0.996866  0.000197  0.750629  1
  Rh  Rh16  1  0.012363  0.999944  0.249917  1
  Rh  Rh17  1  0.663747  0.329557  0.971644  1
