# generated using pymatgen
data_Dy7Ho(Er3Pt4)4
_symmetry_space_group_name_H-M   'P 1'
_cell_length_a   7.44353501
_cell_length_b   7.53484701
_cell_length_c   14.68535701
_cell_angle_alpha   89.99586771
_cell_angle_beta   90.00246065
_cell_angle_gamma   90.00448320
_symmetry_Int_Tables_number   1
_chemical_formula_structural   Dy7Ho(Er3Pt4)4
_chemical_formula_sum   'Dy7 Ho1 Er12 Pt16'
_cell_volume   823.64142275
_cell_formula_units_Z   1
loop_
 _symmetry_equiv_pos_site_id
 _symmetry_equiv_pos_as_xyz
  1  'x, y, z'
loop_
 _atom_site_type_symbol
 _atom_site_label
 _atom_site_symmetry_multiplicity
 _atom_site_fract_x
 _atom_site_fract_y
 _atom_site_fract_z
 _atom_site_occupancy
  Dy  Dy0  1  0.501298  0.679842  0.592683  1
  Dy  Dy1  1  0.001260  0.820225  0.907308  1
  Dy  Dy2  1  0.498700  0.320250  0.092689  1
  Dy  Dy3  1  0.998718  0.179667  0.407359  1
  Dy  Dy4  1  0.498699  0.320233  0.407308  1
  Dy  Dy5  1  0.998710  0.179775  0.092684  1
  Dy  Dy6  1  0.501265  0.679734  0.907302  1
  Ho  Ho7  1  0.001454  0.820151  0.592721  1
  Er  Er8  1  0.656945  0.167793  0.622572  1
  Er  Er9  1  0.156798  0.332160  0.877402  1
  Er  Er10  1  0.343181  0.832121  0.122628  1
  Er  Er11  1  0.843268  0.667938  0.377445  1
  Er  Er12  1  0.343101  0.832175  0.377390  1
  Er  Er13  1  0.843166  0.667876  0.122625  1
  Er  Er14  1  0.656849  0.167820  0.877400  1
  Er  Er15  1  0.156792  0.332157  0.622590  1
  Er  Er16  1  0.819449  0.511542  0.749949  1
  Er  Er17  1  0.319271  0.988436  0.749913  1
  Er  Er18  1  0.180654  0.488519  0.250013  1
  Er  Er19  1  0.680632  0.011459  0.250001  1
  Pt  Pt20  1  0.683334  0.966978  0.458276  1
  Pt  Pt21  1  0.183247  0.532966  0.041794  1
  Pt  Pt22  1  0.316714  0.032951  0.958234  1
  Pt  Pt23  1  0.816825  0.467285  0.541822  1
  Pt  Pt24  1  0.316445  0.032732  0.541820  1
  Pt  Pt25  1  0.816778  0.467064  0.958234  1
  Pt  Pt26  1  0.683262  0.967051  0.041791  1
  Pt  Pt27  1  0.183210  0.533060  0.458258  1
  Pt  Pt28  1  0.454098  0.386530  0.749996  1
  Pt  Pt29  1  0.954125  0.113391  0.749934  1
  Pt  Pt30  1  0.545887  0.613482  0.250005  1
  Pt  Pt31  1  0.045904  0.886512  0.250013  1
  Pt  Pt32  1  0.682858  0.856982  0.749952  1
  Pt  Pt33  1  0.182620  0.643161  0.749868  1
  Pt  Pt34  1  0.317233  0.142994  0.250019  1
  Pt  Pt35  1  0.817251  0.356988  0.250003  1
