# generated using pymatgen
data_Tb2Ho14InHg3Rh4
_symmetry_space_group_name_H-M   'P 1'
_cell_length_a   9.57653501
_cell_length_b   9.57251137
_cell_length_c   9.56671219
_cell_angle_alpha   59.95050405
_cell_angle_beta   59.97867851
_cell_angle_gamma   59.97592914
_symmetry_Int_Tables_number   1
_chemical_formula_structural   Tb2Ho14InHg3Rh4
_chemical_formula_sum   'Tb2 Ho14 In1 Hg3 Rh4'
_cell_volume   619.68405837
_cell_formula_units_Z   1
loop_
 _symmetry_equiv_pos_site_id
 _symmetry_equiv_pos_as_xyz
  1  'x, y, z'
loop_
 _atom_site_type_symbol
 _atom_site_label
 _atom_site_symmetry_multiplicity
 _atom_site_fract_x
 _atom_site_fract_y
 _atom_site_fract_z
 _atom_site_occupancy
  Tb  Tb0  1  0.188206  0.184251  0.813755  1
  Tb  Tb1  1  0.601162  0.601542  0.196270  1
  Ho  Ho2  1  0.439034  0.061247  0.438223  1
  Ho  Ho3  1  0.440189  0.438059  0.060419  1
  Ho  Ho4  1  0.813421  0.184331  0.813644  1
  Ho  Ho5  1  0.186558  0.812184  0.187485  1
  Ho  Ho6  1  0.438617  0.061827  0.061345  1
  Ho  Ho7  1  0.186957  0.812173  0.813512  1
  Ho  Ho8  1  0.061296  0.438169  0.060568  1
  Ho  Ho9  1  0.813742  0.812460  0.187174  1
  Ho  Ho10  1  0.197071  0.601113  0.601262  1
  Ho  Ho11  1  0.060630  0.438548  0.439995  1
  Ho  Ho12  1  0.061351  0.061334  0.438411  1
  Ho  Ho13  1  0.813424  0.183834  0.189063  1
  Ho  Ho14  1  0.601616  0.195248  0.601950  1
  Ho  Ho15  1  0.600686  0.600945  0.601291  1
  In  In16  1  0.831203  0.506586  0.830627  1
  Hg  Hg17  1  0.834931  0.835234  0.834454  1
  Hg  Hg18  1  0.834972  0.835196  0.494893  1
  Hg  Hg19  1  0.495877  0.834738  0.834477  1
  Rh  Rh20  1  0.392426  0.821640  0.393516  1
  Rh  Rh21  1  0.392388  0.392963  0.393185  1
  Rh  Rh22  1  0.821395  0.392886  0.393388  1
  Rh  Rh23  1  0.392850  0.393495  0.821093  1
