# generated using pymatgen
data_Sr4AgHgN2
_symmetry_space_group_name_H-M   'P 1'
_cell_length_a   10.05094770
_cell_length_b   10.05094909
_cell_length_c   5.34785100
_cell_angle_alpha   90.00000000
_cell_angle_beta   90.00000000
_cell_angle_gamma   157.82427196
_symmetry_Int_Tables_number   1
_chemical_formula_structural   Sr4AgHgN2
_chemical_formula_sum   'Sr4 Ag1 Hg1 N2'
_cell_volume   203.91591566
_cell_formula_units_Z   1
loop_
 _symmetry_equiv_pos_site_id
 _symmetry_equiv_pos_as_xyz
  1  'x, y, z'
loop_
 _atom_site_type_symbol
 _atom_site_label
 _atom_site_symmetry_multiplicity
 _atom_site_fract_x
 _atom_site_fract_y
 _atom_site_fract_z
 _atom_site_occupancy
  Sr  Sr0  1  0.392838  0.607164  0.250000  1
  Sr  Sr1  1  0.215787  0.784214  0.250000  1
  Sr  Sr2  1  0.784200  0.215801  0.750001  1
  Sr  Sr3  1  0.606702  0.393300  0.750001  1
  Ag  Ag4  1  0.963406  0.036596  0.750001  1
  Hg  Hg5  1  0.036985  0.963017  0.250000  1
  N  N6  1  0.806958  0.193044  0.250000  1
  N  N7  1  0.193131  0.806871  0.750001  1
