# generated using pymatgen
data_Tb6Sn6Ir5Pt
_symmetry_space_group_name_H-M   'P 1'
_cell_length_a   7.54886000
_cell_length_b   7.54886004
_cell_length_c   7.89781300
_cell_angle_alpha   90.00000000
_cell_angle_beta   90.00000000
_cell_angle_gamma   120.00000858
_symmetry_Int_Tables_number   1
_chemical_formula_structural   Tb6Sn6Ir5Pt
_chemical_formula_sum   'Tb6 Sn6 Ir5 Pt1'
_cell_volume   389.76261933
_cell_formula_units_Z   1
loop_
 _symmetry_equiv_pos_site_id
 _symmetry_equiv_pos_as_xyz
  1  'x, y, z'
loop_
 _atom_site_type_symbol
 _atom_site_label
 _atom_site_symmetry_multiplicity
 _atom_site_fract_x
 _atom_site_fract_y
 _atom_site_fract_z
 _atom_site_occupancy
  Tb  Tb0  1  0.404379  0.997482  0.247939  1
  Tb  Tb1  1  0.593103  0.595621  0.247939  1
  Tb  Tb2  1  0.002518  0.406897  0.247939  1
  Tb  Tb3  1  0.403333  0.995440  0.752041  1
  Tb  Tb4  1  0.592107  0.596667  0.752041  1
  Tb  Tb5  1  0.004560  0.407893  0.752041  1
  Sn  Sn6  1  0.260093  0.258154  0.999915  1
  Sn  Sn7  1  0.998060  0.739907  0.999915  1
  Sn  Sn8  1  0.003424  0.743809  0.499930  1
  Sn  Sn9  1  0.740383  0.996576  0.499930  1
  Sn  Sn10  1  0.256191  0.259617  0.499930  1
  Sn  Sn11  1  0.741846  0.001940  0.999915  1
  Ir  Ir12  1  0.000000  0.000000  0.750185  1
  Ir  Ir13  1  0.000000  0.000000  0.249680  1
  Ir  Ir14  1  0.666667  0.333333  0.998660  1
  Ir  Ir15  1  0.333333  0.666667  0.498405  1
  Ir  Ir16  1  0.333333  0.666667  0.001487  1
  Pt  Pt17  1  0.666667  0.333333  0.502107  1
