# generated using pymatgen
data_Dy8Tm9Lu3Sn16
_symmetry_space_group_name_H-M   'P 1'
_cell_length_a   7.96111015
_cell_length_b   8.09612916
_cell_length_c   15.31186600
_cell_angle_alpha   90.00000000
_cell_angle_beta   90.00000000
_cell_angle_gamma   90.02260109
_symmetry_Int_Tables_number   1
_chemical_formula_structural   Dy8Tm9Lu3Sn16
_chemical_formula_sum   'Dy8 Tm9 Lu3 Sn16'
_cell_volume   986.91363004
_cell_formula_units_Z   1
loop_
 _symmetry_equiv_pos_site_id
 _symmetry_equiv_pos_as_xyz
  1  'x, y, z'
loop_
 _atom_site_type_symbol
 _atom_site_label
 _atom_site_symmetry_multiplicity
 _atom_site_fract_x
 _atom_site_fract_y
 _atom_site_fract_z
 _atom_site_occupancy
  Dy  Dy0  1  0.521652  0.320467  0.902919  1
  Dy  Dy1  1  0.021542  0.179418  0.597088  1
  Dy  Dy2  1  0.478385  0.679458  0.402875  1
  Dy  Dy3  1  0.978405  0.820524  0.097099  1
  Dy  Dy4  1  0.478385  0.679458  0.097125  1
  Dy  Dy5  1  0.978405  0.820524  0.402901  1
  Dy  Dy6  1  0.521652  0.320467  0.597081  1
  Dy  Dy7  1  0.021542  0.179418  0.902912  1
  Tm  Tm8  1  0.367427  0.836502  0.877396  1
  Tm  Tm9  1  0.867223  0.663646  0.622609  1
  Tm  Tm10  1  0.632647  0.163573  0.377388  1
  Tm  Tm11  1  0.132647  0.336450  0.122667  1
  Tm  Tm12  1  0.632647  0.163573  0.122612  1
  Tm  Tm13  1  0.132647  0.336450  0.377333  1
  Tm  Tm14  1  0.367427  0.836502  0.622604  1
  Tm  Tm15  1  0.867223  0.663646  0.877391  1
  Tm  Tm16  1  0.197731  0.504152  0.750000  1
  Lu  Lu17  1  0.697827  0.995775  0.750000  1
  Lu  Lu18  1  0.802205  0.495805  0.250000  1
  Lu  Lu19  1  0.302211  0.004212  0.250000  1
  Sn  Sn20  1  0.294277  0.036958  0.041760  1
  Sn  Sn21  1  0.794284  0.463084  0.458235  1
  Sn  Sn22  1  0.705710  0.963034  0.541753  1
  Sn  Sn23  1  0.205700  0.536950  0.958426  1
  Sn  Sn24  1  0.705710  0.963034  0.958247  1
  Sn  Sn25  1  0.205700  0.536950  0.541574  1
  Sn  Sn26  1  0.294277  0.036958  0.458240  1
  Sn  Sn27  1  0.794284  0.463084  0.041765  1
  Sn  Sn28  1  0.564424  0.620749  0.750000  1
  Sn  Sn29  1  0.063943  0.879591  0.750000  1
  Sn  Sn30  1  0.436038  0.379413  0.250000  1
  Sn  Sn31  1  0.935962  0.120542  0.250000  1
  Sn  Sn32  1  0.330386  0.147593  0.750000  1
  Sn  Sn33  1  0.830273  0.351944  0.750000  1
  Sn  Sn34  1  0.669656  0.851958  0.250000  1
  Sn  Sn35  1  0.169546  0.648138  0.250000  1
