# generated using pymatgen
data_YMn4CrP3
_symmetry_space_group_name_H-M   'P 1'
_cell_length_a   3.61410700
_cell_length_b   10.66474600
_cell_length_c   12.22216400
_cell_angle_alpha   90.00000000
_cell_angle_beta   90.00000000
_cell_angle_gamma   90.00000000
_symmetry_Int_Tables_number   1
_chemical_formula_structural   YMn4CrP3
_chemical_formula_sum   'Y4 Mn16 Cr4 P12'
_cell_volume   471.08538357
_cell_formula_units_Z   4
loop_
 _symmetry_equiv_pos_site_id
 _symmetry_equiv_pos_as_xyz
  1  'x, y, z'
loop_
 _atom_site_type_symbol
 _atom_site_label
 _atom_site_symmetry_multiplicity
 _atom_site_fract_x
 _atom_site_fract_y
 _atom_site_fract_z
 _atom_site_occupancy
  Y  Y0  1  0.250000  0.585352  0.705861  1
  Y  Y1  1  0.250000  0.914648  0.205861  1
  Y  Y2  1  0.750000  0.414648  0.294139  1
  Y  Y3  1  0.750000  0.085352  0.794139  1
  Mn  Mn4  1  0.250000  0.410096  0.493142  1
  Mn  Mn5  1  0.250000  0.089904  0.993142  1
  Mn  Mn6  1  0.750000  0.589904  0.506858  1
  Mn  Mn7  1  0.750000  0.910096  0.006858  1
  Mn  Mn8  1  0.250000  0.213618  0.180295  1
  Mn  Mn9  1  0.250000  0.286382  0.680295  1
  Mn  Mn10  1  0.750000  0.786382  0.819705  1
  Mn  Mn11  1  0.750000  0.713618  0.319705  1
  Mn  Mn12  1  0.250000  0.881811  0.693804  1
  Mn  Mn13  1  0.250000  0.618189  0.193804  1
  Mn  Mn14  1  0.750000  0.118189  0.306196  1
  Mn  Mn15  1  0.750000  0.381811  0.806196  1
  Mn  Mn16  1  0.250000  0.465520  0.935171  1
  Mn  Mn17  1  0.250000  0.034480  0.435171  1
  Mn  Mn18  1  0.750000  0.534480  0.064829  1
  Mn  Mn19  1  0.750000  0.965520  0.564829  1
  Cr  Cr20  1  0.250000  0.708626  0.983740  1
  Cr  Cr21  1  0.250000  0.791374  0.483740  1
  Cr  Cr22  1  0.750000  0.291374  0.016260  1
  Cr  Cr23  1  0.750000  0.208626  0.516260  1
  P  P24  1  0.250000  0.412479  0.114862  1
  P  P25  1  0.250000  0.087521  0.614862  1
  P  P26  1  0.750000  0.587521  0.885138  1
  P  P27  1  0.750000  0.912479  0.385138  1
  P  P28  1  0.250000  0.264748  0.875310  1
  P  P29  1  0.250000  0.235252  0.375310  1
  P  P30  1  0.750000  0.735252  0.124690  1
  P  P31  1  0.750000  0.764748  0.624690  1
  P  P32  1  0.250000  0.595140  0.385583  1
  P  P33  1  0.250000  0.904860  0.885583  1
  P  P34  1  0.750000  0.404860  0.614417  1
  P  P35  1  0.750000  0.095140  0.114417  1
