# generated using pymatgen
data_Zr20Si15S
_symmetry_space_group_name_H-M   'P 1'
_cell_length_a   7.16855384
_cell_length_b   7.13931767
_cell_length_c   13.03760541
_cell_angle_alpha   89.95472765
_cell_angle_beta   89.35767507
_cell_angle_gamma   89.89302534
_symmetry_Int_Tables_number   1
_chemical_formula_structural   Zr20Si15S
_chemical_formula_sum   'Zr20 Si15 S1'
_cell_volume   667.20288186
_cell_formula_units_Z   1
loop_
 _symmetry_equiv_pos_site_id
 _symmetry_equiv_pos_as_xyz
  1  'x, y, z'
loop_
 _atom_site_type_symbol
 _atom_site_label
 _atom_site_symmetry_multiplicity
 _atom_site_fract_x
 _atom_site_fract_y
 _atom_site_fract_z
 _atom_site_occupancy
  Zr  Zr0  1  0.344364  0.505938  0.381516  1
  Zr  Zr1  1  0.853490  0.996636  0.373060  1
  Zr  Zr2  1  0.001744  0.145881  0.127657  1
  Zr  Zr3  1  0.004864  0.852342  0.620112  1
  Zr  Zr4  1  0.648376  0.500097  0.877158  1
  Zr  Zr5  1  0.506031  0.351853  0.623274  1
  Zr  Zr6  1  0.497928  0.645861  0.123371  1
  Zr  Zr7  1  0.146101  0.001244  0.873451  1
  Zr  Zr8  1  0.999212  0.648435  0.036046  1
  Zr  Zr9  1  0.002635  0.350614  0.532992  1
  Zr  Zr10  1  0.650473  0.998043  0.963786  1
  Zr  Zr11  1  0.151732  0.501349  0.783997  1
  Zr  Zr12  1  0.841787  0.497158  0.282691  1
  Zr  Zr13  1  0.499720  0.152082  0.215372  1
  Zr  Zr14  1  0.505956  0.852463  0.717232  1
  Zr  Zr15  1  0.356754  0.007753  0.467560  1
  Zr  Zr16  1  0.673984  0.676193  0.499068  1
  Zr  Zr17  1  0.826571  0.175926  0.749255  1
  Zr  Zr18  1  0.172829  0.822741  0.251896  1
  Zr  Zr19  1  0.323698  0.324218  0.000318  1
  Si  Si20  1  0.948715  0.300255  0.937637  1
  Si  Si21  1  0.703657  0.050748  0.562417  1
  Si  Si22  1  0.199479  0.448150  0.189168  1
  Si  Si23  1  0.802305  0.552438  0.687140  1
  Si  Si24  1  0.448414  0.201671  0.812935  1
  Si  Si25  1  0.548817  0.800587  0.311857  1
  Si  Si26  1  0.299776  0.948339  0.062956  1
  Si  Si27  1  0.857508  0.795875  0.820005  1
  Si  Si28  1  0.146469  0.203672  0.323434  1
  Si  Si29  1  0.792263  0.854454  0.177031  1
  Si  Si30  1  0.308541  0.648097  0.583669  1
  Si  Si31  1  0.705775  0.353366  0.072987  1
  Si  Si32  1  0.641531  0.293804  0.425219  1
  Si  Si33  1  0.352993  0.704768  0.927308  1
  Si  Si34  1  0.205752  0.146020  0.676922  1
  S  S35  1  0.029753  0.690926  0.429502  1
