# generated using pymatgen
data_Dy8Er2Tl5InCl2
_symmetry_space_group_name_H-M   'P 1'
_cell_length_a   9.09330613
_cell_length_b   9.09330625
_cell_length_c   6.72679422
_cell_angle_alpha   90.00148959
_cell_angle_beta   90.00148796
_cell_angle_gamma   119.96668579
_symmetry_Int_Tables_number   1
_chemical_formula_structural   Dy8Er2Tl5InCl2
_chemical_formula_sum   'Dy8 Er2 Tl5 In1 Cl2'
_cell_volume   481.86801119
_cell_formula_units_Z   1
loop_
 _symmetry_equiv_pos_site_id
 _symmetry_equiv_pos_as_xyz
  1  'x, y, z'
loop_
 _atom_site_type_symbol
 _atom_site_label
 _atom_site_symmetry_multiplicity
 _atom_site_fract_x
 _atom_site_fract_y
 _atom_site_fract_z
 _atom_site_occupancy
  Dy  Dy0  1  0.740504  0.740504  0.251187  1
  Dy  Dy1  1  0.999383  0.740554  0.748126  1
  Dy  Dy2  1  0.740554  0.999383  0.748126  1
  Dy  Dy3  1  0.259015  0.259015  0.748371  1
  Dy  Dy4  1  0.999898  0.259245  0.251808  1
  Dy  Dy5  1  0.259245  0.999898  0.251808  1
  Dy  Dy6  1  0.333931  0.666713  0.999669  1
  Dy  Dy7  1  0.666713  0.333931  0.999669  1
  Er  Er8  1  0.334142  0.666760  0.500634  1
  Er  Er9  1  0.666760  0.334142  0.500634  1
  Tl  Tl10  1  0.394194  0.999956  0.747219  1
  Tl  Tl11  1  0.000046  0.605285  0.252829  1
  Tl  Tl12  1  0.605285  0.000046  0.252829  1
  Tl  Tl13  1  0.999956  0.394194  0.747219  1
  Tl  Tl14  1  0.394476  0.394476  0.253163  1
  In  In15  1  0.605370  0.605370  0.746869  1
  Cl  Cl16  1  0.000147  0.000147  0.499556  1
  Cl  Cl17  1  0.000382  0.000382  0.000282  1
