# generated using pymatgen
data_KDyCr2O8
_symmetry_space_group_name_H-M   'P 1'
_cell_length_a   5.79825800
_cell_length_b   5.79825824
_cell_length_c   7.71092800
_cell_angle_alpha   90.00000000
_cell_angle_beta   90.00000000
_cell_angle_gamma   119.99999864
_symmetry_Int_Tables_number   1
_chemical_formula_structural   KDyCr2O8
_chemical_formula_sum   'K1 Dy1 Cr2 O8'
_cell_volume   224.50828643
_cell_formula_units_Z   1
loop_
 _symmetry_equiv_pos_site_id
 _symmetry_equiv_pos_as_xyz
  1  'x, y, z'
loop_
 _atom_site_type_symbol
 _atom_site_label
 _atom_site_symmetry_multiplicity
 _atom_site_fract_x
 _atom_site_fract_y
 _atom_site_fract_z
 _atom_site_occupancy
  K  K0  1  0.000000  0.000000  0.500000  1
  Dy  Dy1  1  0.000000  0.000000  0.000000  1
  Cr  Cr2  1  0.666666  0.333333  0.252707  1
  Cr  Cr3  1  0.333333  0.666666  0.747292  1
  O  O4  1  0.350235  0.175119  0.181940  1
  O  O5  1  0.824881  0.175119  0.181940  1
  O  O6  1  0.824881  0.649765  0.181940  1
  O  O7  1  0.666666  0.333333  0.462753  1
  O  O8  1  0.333333  0.666666  0.537247  1
  O  O9  1  0.175119  0.350236  0.818059  1
  O  O10  1  0.175119  0.824882  0.818059  1
  O  O11  1  0.649765  0.824882  0.818059  1
