# generated using pymatgen
data_YTm5Os2
_symmetry_space_group_name_H-M   'P 1'
_cell_length_a   7.36296995
_cell_length_b   8.92163600
_cell_length_c   6.24962972
_cell_angle_alpha   90.00000000
_cell_angle_beta   90.31570137
_cell_angle_gamma   90.00000000
_symmetry_Int_Tables_number   1
_chemical_formula_structural   YTm5Os2
_chemical_formula_sum   'Y2 Tm10 Os4'
_cell_volume   410.53030492
_cell_formula_units_Z   2
loop_
 _symmetry_equiv_pos_site_id
 _symmetry_equiv_pos_as_xyz
  1  'x, y, z'
loop_
 _atom_site_type_symbol
 _atom_site_label
 _atom_site_symmetry_multiplicity
 _atom_site_fract_x
 _atom_site_fract_y
 _atom_site_fract_z
 _atom_site_occupancy
  Y  Y0  1  0.038880  0.250000  0.628858  1
  Y  Y1  1  0.961120  0.750000  0.371142  1
  Tm  Tm2  1  0.459761  0.750000  0.130336  1
  Tm  Tm3  1  0.540239  0.250000  0.869664  1
  Tm  Tm4  1  0.176235  0.062713  0.165605  1
  Tm  Tm5  1  0.823765  0.937287  0.834395  1
  Tm  Tm6  1  0.326694  0.937503  0.668381  1
  Tm  Tm7  1  0.823765  0.562713  0.834395  1
  Tm  Tm8  1  0.673306  0.062497  0.331619  1
  Tm  Tm9  1  0.176235  0.437287  0.165605  1
  Tm  Tm10  1  0.673306  0.437503  0.331619  1
  Tm  Tm11  1  0.326694  0.562497  0.668381  1
  Os  Os12  1  0.384789  0.250000  0.460287  1
  Os  Os13  1  0.615211  0.750000  0.539713  1
  Os  Os14  1  0.118484  0.750000  0.957888  1
  Os  Os15  1  0.881516  0.250000  0.042112  1
