# generated using pymatgen
data_Y20Fe3CoBi8
_symmetry_space_group_name_H-M   'P 1'
_cell_length_a   8.00955750
_cell_length_b   8.97553400
_cell_length_c   12.42352846
_cell_angle_alpha   90.00000000
_cell_angle_beta   90.06519559
_cell_angle_gamma   90.00000000
_symmetry_Int_Tables_number   1
_chemical_formula_structural   Y20Fe3CoBi8
_chemical_formula_sum   'Y20 Fe3 Co1 Bi8'
_cell_volume   893.12757421
_cell_formula_units_Z   1
loop_
 _symmetry_equiv_pos_site_id
 _symmetry_equiv_pos_as_xyz
  1  'x, y, z'
loop_
 _atom_site_type_symbol
 _atom_site_label
 _atom_site_symmetry_multiplicity
 _atom_site_fract_x
 _atom_site_fract_y
 _atom_site_fract_z
 _atom_site_occupancy
  Y  Y0  1  0.848037  0.750000  0.799750  1
  Y  Y1  1  0.151267  0.250000  0.199424  1
  Y  Y2  1  0.348504  0.250000  0.701140  1
  Y  Y3  1  0.650302  0.750000  0.300676  1
  Y  Y4  1  0.381681  0.750000  0.690158  1
  Y  Y5  1  0.617187  0.250000  0.310212  1
  Y  Y6  1  0.882290  0.250000  0.810991  1
  Y  Y7  1  0.119073  0.750000  0.188723  1
  Y  Y8  1  0.948522  0.750000  0.504240  1
  Y  Y9  1  0.053095  0.250000  0.494912  1
  Y  Y10  1  0.450528  0.250000  0.995924  1
  Y  Y11  1  0.548761  0.750000  0.003990  1
  Y  Y12  1  0.675411  0.034556  0.562891  1
  Y  Y13  1  0.324263  0.964301  0.437477  1
  Y  Y14  1  0.175356  0.967403  0.936630  1
  Y  Y15  1  0.324263  0.535699  0.437477  1
  Y  Y16  1  0.822418  0.037840  0.063836  1
  Y  Y17  1  0.675411  0.465444  0.562891  1
  Y  Y18  1  0.822418  0.462160  0.063836  1
  Y  Y19  1  0.175356  0.532597  0.936630  1
  Fe  Fe20  1  0.571282  0.750000  0.511156  1
  Fe  Fe21  1  0.429995  0.250000  0.490426  1
  Fe  Fe22  1  0.068239  0.250000  0.990361  1
  Co  Co23  1  0.936101  0.750000  0.008002  1
  Bi  Bi24  1  0.572122  0.493031  0.826773  1
  Bi  Bi25  1  0.428550  0.507330  0.173280  1
  Bi  Bi26  1  0.070954  0.506967  0.672902  1
  Bi  Bi27  1  0.428550  0.992670  0.173280  1
  Bi  Bi28  1  0.928493  0.493107  0.326167  1
  Bi  Bi29  1  0.572122  0.006969  0.826773  1
  Bi  Bi30  1  0.928493  0.006893  0.326167  1
  Bi  Bi31  1  0.070954  0.993033  0.672902  1
