# generated using pymatgen
data_Sm2Dy2B4I5
_symmetry_space_group_name_H-M   'P 1'
_cell_length_a   9.70679686
_cell_length_b   9.70679664
_cell_length_c   9.76922300
_cell_angle_alpha   75.81212654
_cell_angle_beta   75.81212784
_cell_angle_gamma   25.56049823
_symmetry_Int_Tables_number   1
_chemical_formula_structural   Sm2Dy2B4I5
_chemical_formula_sum   'Sm2 Dy2 B4 I5'
_cell_volume   384.40377764
_cell_formula_units_Z   1
loop_
 _symmetry_equiv_pos_site_id
 _symmetry_equiv_pos_as_xyz
  1  'x, y, z'
loop_
 _atom_site_type_symbol
 _atom_site_label
 _atom_site_symmetry_multiplicity
 _atom_site_fract_x
 _atom_site_fract_y
 _atom_site_fract_z
 _atom_site_occupancy
  Sm  Sm0  1  0.132000  0.132000  0.931931  1
  Sm  Sm1  1  0.870038  0.870038  0.066587  1
  Dy  Dy2  1  0.502101  0.502101  0.755850  1
  Dy  Dy3  1  0.500002  0.500002  0.242727  1
  B  B4  1  0.315161  0.686876  0.999299  1
  B  B5  1  0.686876  0.315161  0.999299  1
  B  B6  1  0.001541  0.001541  0.097839  1
  B  B7  1  0.000482  0.000482  0.900761  1
  I  I8  1  0.671403  0.671403  0.676924  1
  I  I9  1  0.330721  0.330721  0.321737  1
  I  I10  1  0.328750  0.328750  0.847502  1
  I  I11  1  0.673442  0.673442  0.150791  1
  I  I12  1  0.001782  0.001782  0.498951  1
