# generated using pymatgen
data_Ho9Er11(Bi2Ir)4
_symmetry_space_group_name_H-M   'P 1'
_cell_length_a   7.92922410
_cell_length_b   8.96864700
_cell_length_c   12.48483616
_cell_angle_alpha   90.00000000
_cell_angle_beta   89.98159739
_cell_angle_gamma   90.00000000
_symmetry_Int_Tables_number   1
_chemical_formula_structural   Ho9Er11(Bi2Ir)4
_chemical_formula_sum   'Ho9 Er11 Bi8 Ir4'
_cell_volume   887.85173617
_cell_formula_units_Z   1
loop_
 _symmetry_equiv_pos_site_id
 _symmetry_equiv_pos_as_xyz
  1  'x, y, z'
loop_
 _atom_site_type_symbol
 _atom_site_label
 _atom_site_symmetry_multiplicity
 _atom_site_fract_x
 _atom_site_fract_y
 _atom_site_fract_z
 _atom_site_occupancy
  Ho  Ho0  1  0.661230  0.750000  0.706650  1
  Ho  Ho1  1  0.338773  0.250000  0.293251  1
  Ho  Ho2  1  0.161269  0.250000  0.793229  1
  Ho  Ho3  1  0.838869  0.750000  0.206860  1
  Ho  Ho4  1  0.128150  0.750000  0.810581  1
  Ho  Ho5  1  0.871849  0.250000  0.189386  1
  Ho  Ho6  1  0.628106  0.250000  0.689349  1
  Ho  Ho7  1  0.371873  0.750000  0.310657  1
  Ho  Ho8  1  0.555103  0.750000  0.998024  1
  Er  Er9  1  0.444459  0.250000  0.002022  1
  Er  Er10  1  0.055544  0.250000  0.502026  1
  Er  Er11  1  0.944450  0.750000  0.497957  1
  Er  Er12  1  0.826701  0.458615  0.932009  1
  Er  Er13  1  0.173341  0.541065  0.067968  1
  Er  Er14  1  0.326539  0.541162  0.567997  1
  Er  Er15  1  0.173341  0.958935  0.067968  1
  Er  Er16  1  0.673479  0.458854  0.432000  1
  Er  Er17  1  0.826701  0.041385  0.932009  1
  Er  Er18  1  0.673479  0.041146  0.432000  1
  Er  Er19  1  0.326539  0.958838  0.567997  1
  Bi  Bi20  1  0.936935  0.007224  0.672637  1
  Bi  Bi21  1  0.063077  0.992802  0.327363  1
  Bi  Bi22  1  0.436824  0.992944  0.827195  1
  Bi  Bi23  1  0.063077  0.507198  0.327363  1
  Bi  Bi24  1  0.563089  0.007360  0.172824  1
  Bi  Bi25  1  0.936935  0.492776  0.672637  1
  Bi  Bi26  1  0.563089  0.492640  0.172824  1
  Bi  Bi27  1  0.436824  0.507056  0.827195  1
  Ir  Ir28  1  0.930192  0.750000  0.992329  1
  Ir  Ir29  1  0.070158  0.250000  0.007739  1
  Ir  Ir30  1  0.429847  0.250000  0.507679  1
  Ir  Ir31  1  0.570159  0.750000  0.492272  1
