# generated using pymatgen
data_Dy10Ag3Os
_symmetry_space_group_name_H-M   'P 1'
_cell_length_a   9.48853400
_cell_length_b   9.48853798
_cell_length_c   9.59123600
_cell_angle_alpha   90.00000000
_cell_angle_beta   90.00000000
_cell_angle_gamma   120.00008374
_symmetry_Int_Tables_number   1
_chemical_formula_structural   Dy10Ag3Os
_chemical_formula_sum   'Dy20 Ag6 Os2'
_cell_volume   747.83065004
_cell_formula_units_Z   2
loop_
 _symmetry_equiv_pos_site_id
 _symmetry_equiv_pos_as_xyz
  1  'x, y, z'
loop_
 _atom_site_type_symbol
 _atom_site_label
 _atom_site_symmetry_multiplicity
 _atom_site_fract_x
 _atom_site_fract_y
 _atom_site_fract_z
 _atom_site_occupancy
  Dy  Dy0  1  0.000000  0.000000  0.500000  1
  Dy  Dy1  1  0.000000  0.000000  0.000000  1
  Dy  Dy2  1  0.540742  0.459259  0.250000  1
  Dy  Dy3  1  0.540742  0.081484  0.250000  1
  Dy  Dy4  1  0.918516  0.459259  0.250000  1
  Dy  Dy5  1  0.459258  0.540741  0.750000  1
  Dy  Dy6  1  0.459258  0.918516  0.750000  1
  Dy  Dy7  1  0.081484  0.540741  0.750000  1
  Dy  Dy8  1  0.208343  0.791657  0.441761  1
  Dy  Dy9  1  0.208343  0.416688  0.441761  1
  Dy  Dy10  1  0.583312  0.791657  0.441761  1
  Dy  Dy11  1  0.791657  0.208343  0.558239  1
  Dy  Dy12  1  0.791657  0.583312  0.558239  1
  Dy  Dy13  1  0.416688  0.208343  0.558239  1
  Dy  Dy14  1  0.791657  0.208343  0.941761  1
  Dy  Dy15  1  0.791657  0.583312  0.941761  1
  Dy  Dy16  1  0.416688  0.208343  0.941761  1
  Dy  Dy17  1  0.208343  0.791657  0.058239  1
  Dy  Dy18  1  0.208343  0.416688  0.058239  1
  Dy  Dy19  1  0.583312  0.791657  0.058239  1
  Ag  Ag20  1  0.883688  0.116312  0.250000  1
  Ag  Ag21  1  0.883689  0.767376  0.250000  1
  Ag  Ag22  1  0.232624  0.116311  0.250000  1
  Ag  Ag23  1  0.116312  0.883688  0.750000  1
  Ag  Ag24  1  0.116311  0.232624  0.750000  1
  Ag  Ag25  1  0.767376  0.883689  0.750000  1
  Os  Os26  1  0.333334  0.666666  0.250000  1
  Os  Os27  1  0.666666  0.333334  0.750000  1
