# generated using pymatgen
data_Zr4MnTc7
_symmetry_space_group_name_H-M   'P 1'
_cell_length_a   5.23813900
_cell_length_b   5.23813887
_cell_length_c   8.61887900
_cell_angle_alpha   90.00000000
_cell_angle_beta   90.00000000
_cell_angle_gamma   120.00000716
_symmetry_Int_Tables_number   1
_chemical_formula_structural   Zr4MnTc7
_chemical_formula_sum   'Zr4 Mn1 Tc7'
_cell_volume   204.80257395
_cell_formula_units_Z   1
loop_
 _symmetry_equiv_pos_site_id
 _symmetry_equiv_pos_as_xyz
  1  'x, y, z'
loop_
 _atom_site_type_symbol
 _atom_site_label
 _atom_site_symmetry_multiplicity
 _atom_site_fract_x
 _atom_site_fract_y
 _atom_site_fract_z
 _atom_site_occupancy
  Zr  Zr0  1  0.333333  0.666667  0.063935  1
  Zr  Zr1  1  0.666667  0.333333  0.564160  1
  Zr  Zr2  1  0.666667  0.333333  0.936065  1
  Zr  Zr3  1  0.333333  0.666667  0.435840  1
  Mn  Mn4  1  0.000000  0.000000  0.000000  1
  Tc  Tc5  1  0.000000  0.000000  0.500000  1
  Tc  Tc6  1  0.170127  0.340254  0.754067  1
  Tc  Tc7  1  0.829873  0.170127  0.245933  1
  Tc  Tc8  1  0.829873  0.659746  0.245933  1
  Tc  Tc9  1  0.170127  0.829873  0.754067  1
  Tc  Tc10  1  0.659746  0.829873  0.754067  1
  Tc  Tc11  1  0.340254  0.170127  0.245933  1
