# generated using pymatgen
data_Er5Co16(As4Ru)3
_symmetry_space_group_name_H-M   'P 1'
_cell_length_a   12.46387800
_cell_length_b   12.46387939
_cell_length_c   3.80914500
_cell_angle_alpha   90.00000000
_cell_angle_beta   90.00000000
_cell_angle_gamma   120.00000163
_symmetry_Int_Tables_number   1
_chemical_formula_structural   Er5Co16(As4Ru)3
_chemical_formula_sum   'Er5 Co16 As12 Ru3'
_cell_volume   512.46540935
_cell_formula_units_Z   1
loop_
 _symmetry_equiv_pos_site_id
 _symmetry_equiv_pos_as_xyz
  1  'x, y, z'
loop_
 _atom_site_type_symbol
 _atom_site_label
 _atom_site_symmetry_multiplicity
 _atom_site_fract_x
 _atom_site_fract_y
 _atom_site_fract_z
 _atom_site_occupancy
  Er  Er0  1  0.666667  0.333333  0.000000  1
  Er  Er1  1  0.333333  0.666667  0.000000  1
  Er  Er2  1  0.815812  0.815812  0.500000  1
  Er  Er3  1  0.184188  0.000000  0.500000  1
  Er  Er4  1  0.000000  0.184188  0.500000  1
  Co  Co5  1  0.875228  0.356686  0.500000  1
  Co  Co6  1  0.643314  0.518542  0.500000  1
  Co  Co7  1  0.481458  0.124772  0.500000  1
  Co  Co8  1  0.356686  0.875228  0.500000  1
  Co  Co9  1  0.518542  0.643314  0.500000  1
  Co  Co10  1  0.124772  0.481458  0.500000  1
  Co  Co11  1  0.803431  0.179145  0.000000  1
  Co  Co12  1  0.820855  0.624284  0.000000  1
  Co  Co13  1  0.375716  0.196569  0.000000  1
  Co  Co14  1  0.179145  0.803431  0.000000  1
  Co  Co15  1  0.624284  0.820855  0.000000  1
  Co  Co16  1  0.196569  0.375716  0.000000  1
  Co  Co17  1  0.283297  0.283297  0.500000  1
  Co  Co18  1  0.716703  0.000000  0.500000  1
  Co  Co19  1  0.000000  0.716703  0.500000  1
  Co  Co20  1  0.000000  0.000000  0.000000  1
  As  As21  1  0.684770  0.166534  0.500000  1
  As  As22  1  0.833466  0.518236  0.500000  1
  As  As23  1  0.481764  0.315230  0.500000  1
  As  As24  1  0.166534  0.684770  0.500000  1
  As  As25  1  0.518236  0.833466  0.500000  1
  As  As26  1  0.315230  0.481764  0.500000  1
  As  As27  1  0.179031  0.179031  0.000000  1
  As  As28  1  0.820969  0.000000  0.000000  1
  As  As29  1  0.000000  0.820969  0.000000  1
  As  As30  1  0.638081  0.638081  0.000000  1
  As  As31  1  0.361919  0.000000  0.000000  1
  As  As32  1  0.000000  0.361919  0.000000  1
  Ru  Ru33  1  0.443628  0.443628  0.000000  1
  Ru  Ru34  1  0.556372  0.000000  0.000000  1
  Ru  Ru35  1  0.000000  0.556372  0.000000  1
