# generated using pymatgen
data_NdCrWO6
_symmetry_space_group_name_H-M   'P 1'
_cell_length_a   5.22639420
_cell_length_b   5.22616131
_cell_length_c   10.22688915
_cell_angle_alpha   89.99912281
_cell_angle_beta   89.99870475
_cell_angle_gamma   119.98891495
_symmetry_Int_Tables_number   1
_chemical_formula_structural   NdCrWO6
_chemical_formula_sum   'Nd2 Cr2 W2 O12'
_cell_volume   241.93998762
_cell_formula_units_Z   2
loop_
 _symmetry_equiv_pos_site_id
 _symmetry_equiv_pos_as_xyz
  1  'x, y, z'
loop_
 _atom_site_type_symbol
 _atom_site_label
 _atom_site_symmetry_multiplicity
 _atom_site_fract_x
 _atom_site_fract_y
 _atom_site_fract_z
 _atom_site_occupancy
  Nd  Nd0  1  0.999965  0.999982  0.000005  1
  Nd  Nd1  1  0.000003  0.000003  0.500009  1
  Cr  Cr2  1  0.666462  0.333364  0.750021  1
  Cr  Cr3  1  0.333577  0.666478  0.249943  1
  W  W4  1  0.666648  0.333408  0.249957  1
  W  W5  1  0.333395  0.666704  0.750013  1
  O  O6  1  0.628509  0.990173  0.856773  1
  O  O7  1  0.361479  0.371522  0.856759  1
  O  O8  1  0.009802  0.638512  0.856792  1
  O  O9  1  0.371462  0.009841  0.143227  1
  O  O10  1  0.638531  0.628486  0.143257  1
  O  O11  1  0.990158  0.361481  0.143218  1
  O  O12  1  0.361401  0.990060  0.643322  1
  O  O13  1  0.628443  0.638551  0.643354  1
  O  O14  1  0.009865  0.371458  0.643316  1
  O  O15  1  0.638587  0.009919  0.356690  1
  O  O16  1  0.371557  0.361492  0.356657  1
  O  O17  1  0.990159  0.628564  0.356688  1
