# generated using pymatgen
data_TaSeCl9
_symmetry_space_group_name_H-M   'P 1'
_cell_length_a   11.57888200
_cell_length_b   6.80532203
_cell_length_c   9.66978616
_cell_angle_alpha   75.63889482
_cell_angle_beta   90.00000000
_cell_angle_gamma   90.00000000
_symmetry_Int_Tables_number   1
_chemical_formula_structural   TaSeCl9
_chemical_formula_sum   'Ta2 Se2 Cl18'
_cell_volume   738.15009996
_cell_formula_units_Z   2
loop_
 _symmetry_equiv_pos_site_id
 _symmetry_equiv_pos_as_xyz
  1  'x, y, z'
loop_
 _atom_site_type_symbol
 _atom_site_label
 _atom_site_symmetry_multiplicity
 _atom_site_fract_x
 _atom_site_fract_y
 _atom_site_fract_z
 _atom_site_occupancy
  Ta  Ta0  1  0.250000  0.647755  0.850470  1
  Ta  Ta1  1  0.750000  0.352245  0.149530  1
  Se  Se2  1  0.250000  0.759462  0.463662  1
  Se  Se3  1  0.750000  0.240538  0.536338  1
  Cl  Cl4  1  0.608372  0.444398  0.312889  1
  Cl  Cl5  1  0.108372  0.555602  0.687111  1
  Cl  Cl6  1  0.391628  0.555602  0.687111  1
  Cl  Cl7  1  0.891628  0.444398  0.312889  1
  Cl  Cl8  1  0.750000  0.680895  0.013252  1
  Cl  Cl9  1  0.250000  0.319105  0.986748  1
  Cl  Cl10  1  0.750000  0.493466  0.642054  1
  Cl  Cl11  1  0.250000  0.506534  0.357946  1
  Cl  Cl12  1  0.750000  0.022501  0.327565  1
  Cl  Cl13  1  0.250000  0.977499  0.672435  1
  Cl  Cl14  1  0.897644  0.240793  0.029513  1
  Cl  Cl15  1  0.397644  0.759207  0.970487  1
  Cl  Cl16  1  0.102356  0.759207  0.970487  1
  Cl  Cl17  1  0.602356  0.240793  0.029513  1
  Cl  Cl18  1  0.894185  0.063795  0.655770  1
  Cl  Cl19  1  0.394185  0.936205  0.344230  1
  Cl  Cl20  1  0.105815  0.936205  0.344230  1
  Cl  Cl21  1  0.605815  0.063795  0.655770  1
