# generated using pymatgen
data_BaZnP3N5O2
_symmetry_space_group_name_H-M   'P 1'
_cell_length_a   6.54540100
_cell_length_b   7.34658960
_cell_length_c   15.11122136
_cell_angle_alpha   58.55750708
_cell_angle_beta   90.00000000
_cell_angle_gamma   90.00000000
_symmetry_Int_Tables_number   1
_chemical_formula_structural   BaZnP3N5O2
_chemical_formula_sum   'Ba4 Zn4 P12 N20 O8'
_cell_volume   619.94649549
_cell_formula_units_Z   4
loop_
 _symmetry_equiv_pos_site_id
 _symmetry_equiv_pos_as_xyz
  1  'x, y, z'
loop_
 _atom_site_type_symbol
 _atom_site_label
 _atom_site_symmetry_multiplicity
 _atom_site_fract_x
 _atom_site_fract_y
 _atom_site_fract_z
 _atom_site_occupancy
  Ba  Ba0  1  0.749751  0.498656  0.633530  1
  Ba  Ba1  1  0.249751  0.501344  0.866470  1
  Ba  Ba2  1  0.250249  0.501344  0.366470  1
  Ba  Ba3  1  0.750249  0.498656  0.133530  1
  Zn  Zn4  1  0.503762  0.978855  0.881916  1
  Zn  Zn5  1  0.003762  0.021145  0.618084  1
  Zn  Zn6  1  0.496238  0.021145  0.118084  1
  Zn  Zn7  1  0.996238  0.978855  0.381916  1
  P  P8  1  0.004571  0.958085  0.878913  1
  P  P9  1  0.504571  0.041915  0.621087  1
  P  P10  1  0.995429  0.041915  0.121087  1
  P  P11  1  0.495429  0.958085  0.378913  1
  P  P12  1  0.280055  0.740548  0.583777  1
  P  P13  1  0.780055  0.259452  0.916223  1
  P  P14  1  0.719945  0.259452  0.416223  1
  P  P15  1  0.219945  0.740548  0.083777  1
  P  P16  1  0.758269  0.735515  0.798622  1
  P  P17  1  0.258269  0.264485  0.701378  1
  P  P18  1  0.241731  0.264485  0.201378  1
  P  P19  1  0.741731  0.735515  0.298622  1
  N  N20  1  0.295868  0.898938  0.632630  1
  N  N21  1  0.795868  0.101062  0.867370  1
  N  N22  1  0.704132  0.101062  0.367370  1
  N  N23  1  0.204132  0.898938  0.132630  1
  N  N24  1  0.712685  0.890945  0.670816  1
  N  N25  1  0.212685  0.109055  0.829184  1
  N  N26  1  0.287315  0.109055  0.329184  1
  N  N27  1  0.787315  0.890945  0.170816  1
  N  N28  1  0.963772  0.832339  0.818390  1
  N  N29  1  0.463772  0.167661  0.681610  1
  N  N30  1  0.036228  0.167661  0.181610  1
  N  N31  1  0.536228  0.832339  0.318390  1
  N  N32  1  0.807218  0.501240  0.815666  1
  N  N33  1  0.307218  0.498760  0.684334  1
  N  N34  1  0.192782  0.498760  0.184334  1
  N  N35  1  0.692782  0.501240  0.315666  1
  N  N36  1  0.546777  0.219040  0.500058  1
  N  N37  1  0.046777  0.780960  0.999942  1
  N  N38  1  0.453223  0.780960  0.499942  1
  N  N39  1  0.953223  0.219040  0.000058  1
  O  O40  1  0.059432  0.776429  0.538494  1
  O  O41  1  0.559432  0.223571  0.961506  1
  O  O42  1  0.940568  0.223571  0.461506  1
  O  O43  1  0.440568  0.776429  0.038494  1
  O  O44  1  0.574771  0.725026  0.866618  1
  O  O45  1  0.074771  0.274974  0.633382  1
  O  O46  1  0.425229  0.274974  0.133382  1
  O  O47  1  0.925229  0.725026  0.366618  1
