# generated using pymatgen
data_Ho2Tm10AlZnCo4
_symmetry_space_group_name_H-M   'P 1'
_cell_length_a   8.17125320
_cell_length_b   8.14795063
_cell_length_c   8.14795018
_cell_angle_alpha   112.07912341
_cell_angle_beta   109.95252041
_cell_angle_gamma   106.32541052
_symmetry_Int_Tables_number   1
_chemical_formula_structural   Ho2Tm10AlZnCo4
_chemical_formula_sum   'Ho2 Tm10 Al1 Zn1 Co4'
_cell_volume   417.09090476
_cell_formula_units_Z   1
loop_
 _symmetry_equiv_pos_site_id
 _symmetry_equiv_pos_as_xyz
  1  'x, y, z'
loop_
 _atom_site_type_symbol
 _atom_site_label
 _atom_site_symmetry_multiplicity
 _atom_site_fract_x
 _atom_site_fract_y
 _atom_site_fract_z
 _atom_site_occupancy
  Ho  Ho0  1  0.431041  0.233702  0.197339  1
  Ho  Ho1  1  0.568959  0.766298  0.802661  1
  Tm  Tm2  1  0.036702  0.234494  0.802208  1
  Tm  Tm3  1  0.963298  0.765506  0.197792  1
  Tm  Tm4  1  0.181619  0.282900  0.465128  1
  Tm  Tm5  1  0.818381  0.717100  0.534872  1
  Tm  Tm6  1  0.181619  0.716490  0.898718  1
  Tm  Tm7  1  0.818381  0.283510  0.101282  1
  Tm  Tm8  1  0.324292  0.634992  0.308698  1
  Tm  Tm9  1  0.675708  0.365008  0.691302  1
  Tm  Tm10  1  0.324292  0.015594  0.689301  1
  Tm  Tm11  1  0.675708  0.984406  0.310699  1
  Al  Al12  1  0.500000  0.500000  0.000000  1
  Zn  Zn13  1  0.000000  0.000000  0.000000  1
  Co  Co14  1  0.342824  0.999422  0.343403  1
  Co  Co15  1  0.657176  0.000578  0.656597  1
  Co  Co16  1  0.113002  0.615550  0.497451  1
  Co  Co17  1  0.886998  0.384450  0.502549  1
