# generated using pymatgen
data_U4VRe2WC8
_symmetry_space_group_name_H-M   'P 1'
_cell_length_a   3.18412400
_cell_length_b   5.59391121
_cell_length_c   11.00883708
_cell_angle_alpha   90.09328989
_cell_angle_beta   90.00000000
_cell_angle_gamma   90.00000000
_symmetry_Int_Tables_number   1
_chemical_formula_structural   U4VRe2WC8
_chemical_formula_sum   'U4 V1 Re2 W1 C8'
_cell_volume   196.08591989
_cell_formula_units_Z   1
loop_
 _symmetry_equiv_pos_site_id
 _symmetry_equiv_pos_as_xyz
  1  'x, y, z'
loop_
 _atom_site_type_symbol
 _atom_site_label
 _atom_site_symmetry_multiplicity
 _atom_site_fract_x
 _atom_site_fract_y
 _atom_site_fract_z
 _atom_site_occupancy
  U  U0  1  0.250000  0.077976  0.860853  1
  U  U1  1  0.750000  0.920413  0.140515  1
  U  U2  1  0.250000  0.583467  0.642422  1
  U  U3  1  0.750000  0.421953  0.355205  1
  V  V4  1  0.250000  0.419734  0.100569  1
  Re  Re5  1  0.750000  0.572795  0.899834  1
  Re  Re6  1  0.250000  0.923569  0.395529  1
  W  W7  1  0.750000  0.080585  0.602107  1
  C  C8  1  0.250000  0.737191  0.994840  1
  C  C9  1  0.750000  0.257013  0.011747  1
  C  C10  1  0.250000  0.251113  0.505852  1
  C  C11  1  0.750000  0.753596  0.491386  1
  C  C12  1  0.250000  0.165424  0.242795  1
  C  C13  1  0.750000  0.336533  0.746408  1
  C  C14  1  0.250000  0.663154  0.252748  1
  C  C15  1  0.750000  0.835483  0.757189  1
