# generated using pymatgen
data_Dy3Ho(TcB4)4
_symmetry_space_group_name_H-M   'P 1'
_cell_length_a   3.59377700
_cell_length_b   5.96018103
_cell_length_c   11.55032466
_cell_angle_alpha   89.98667606
_cell_angle_beta   90.00000000
_cell_angle_gamma   90.00000000
_symmetry_Int_Tables_number   1
_chemical_formula_structural   Dy3Ho(TcB4)4
_chemical_formula_sum   'Dy3 Ho1 Tc4 B16'
_cell_volume   247.40288284
_cell_formula_units_Z   1
loop_
 _symmetry_equiv_pos_site_id
 _symmetry_equiv_pos_as_xyz
  1  'x, y, z'
loop_
 _atom_site_type_symbol
 _atom_site_label
 _atom_site_symmetry_multiplicity
 _atom_site_fract_x
 _atom_site_fract_y
 _atom_site_fract_z
 _atom_site_occupancy
  Dy  Dy0  1  0.000000  0.627084  0.350156  1
  Dy  Dy1  1  0.000000  0.372895  0.649921  1
  Dy  Dy2  1  0.000000  0.127087  0.149856  1
  Ho  Ho3  1  0.000000  0.872953  0.850159  1
  Tc  Tc4  1  0.000000  0.633696  0.087407  1
  Tc  Tc5  1  0.000000  0.366413  0.912248  1
  Tc  Tc6  1  0.000000  0.133484  0.412443  1
  Tc  Tc7  1  0.000000  0.866456  0.587901  1
  B  B8  1  0.500000  0.787216  0.184949  1
  B  B9  1  0.500000  0.212383  0.814971  1
  B  B10  1  0.500000  0.287203  0.314937  1
  B  B11  1  0.500000  0.712814  0.685302  1
  B  B12  1  0.500000  0.864214  0.031215  1
  B  B13  1  0.500000  0.135814  0.968364  1
  B  B14  1  0.500000  0.364026  0.468618  1
  B  B15  1  0.500000  0.635948  0.531590  1
  B  B16  1  0.500000  0.886574  0.452930  1
  B  B17  1  0.500000  0.113259  0.547316  1
  B  B18  1  0.500000  0.386730  0.047003  1
  B  B19  1  0.500000  0.613835  0.952561  1
  B  B20  1  0.500000  0.976420  0.307683  1
  B  B21  1  0.500000  0.023272  0.692630  1
  B  B22  1  0.500000  0.476487  0.192228  1
  B  B23  1  0.500000  0.523736  0.807612  1
