# generated using pymatgen
data_DyPaHgRh2
_symmetry_space_group_name_H-M   'P 1'
_cell_length_a   7.74691900
_cell_length_b   7.60419300
_cell_length_c   3.62938600
_cell_angle_alpha   90.00000000
_cell_angle_beta   90.00000000
_cell_angle_gamma   90.00000000
_symmetry_Int_Tables_number   1
_chemical_formula_structural   DyPaHgRh2
_chemical_formula_sum   'Dy2 Pa2 Hg2 Rh4'
_cell_volume   213.80374388
_cell_formula_units_Z   2
loop_
 _symmetry_equiv_pos_site_id
 _symmetry_equiv_pos_as_xyz
  1  'x, y, z'
loop_
 _atom_site_type_symbol
 _atom_site_label
 _atom_site_symmetry_multiplicity
 _atom_site_fract_x
 _atom_site_fract_y
 _atom_site_fract_z
 _atom_site_occupancy
  Dy  Dy0  1  0.171757  0.669124  0.500001  1
  Dy  Dy1  1  0.671757  0.830877  0.500001  1
  Pa  Pa2  1  0.323613  0.164187  0.500001  1
  Pa  Pa3  1  0.823613  0.335814  0.500001  1
  Hg  Hg4  1  0.990961  0.983016  0.000000  1
  Hg  Hg5  1  0.490961  0.516984  0.000000  1
  Rh  Rh6  1  0.646179  0.152498  0.000000  1
  Rh  Rh7  1  0.146181  0.347503  0.000000  1
  Rh  Rh8  1  0.867490  0.596646  0.000000  1
  Rh  Rh9  1  0.367490  0.903353  0.000000  1
