# generated using pymatgen
data_Nd4Ho13(LuBi4)3
_symmetry_space_group_name_H-M   'P 1'
_cell_length_a   8.34106051
_cell_length_b   9.50924700
_cell_length_c   12.15407474
_cell_angle_alpha   90.00000000
_cell_angle_beta   89.96007658
_cell_angle_gamma   90.00000000
_symmetry_Int_Tables_number   1
_chemical_formula_structural   Nd4Ho13(LuBi4)3
_chemical_formula_sum   'Nd4 Ho13 Lu3 Bi12'
_cell_volume   964.02699861
_cell_formula_units_Z   1
loop_
 _symmetry_equiv_pos_site_id
 _symmetry_equiv_pos_as_xyz
  1  'x, y, z'
loop_
 _atom_site_type_symbol
 _atom_site_label
 _atom_site_symmetry_multiplicity
 _atom_site_fract_x
 _atom_site_fract_y
 _atom_site_fract_z
 _atom_site_occupancy
  Nd  Nd0  1  0.171752  0.750000  0.226352  1
  Nd  Nd1  1  0.328119  0.750000  0.726588  1
  Nd  Nd2  1  0.828034  0.250000  0.773652  1
  Nd  Nd3  1  0.671763  0.250000  0.273411  1
  Ho  Ho4  1  0.809637  0.563314  0.064629  1
  Ho  Ho5  1  0.690204  0.936666  0.564710  1
  Ho  Ho6  1  0.190303  0.063259  0.935349  1
  Ho  Ho7  1  0.310058  0.436889  0.435297  1
  Ho  Ho8  1  0.190303  0.436741  0.935349  1
  Ho  Ho9  1  0.310058  0.063111  0.435297  1
  Ho  Ho10  1  0.809637  0.936686  0.064629  1
  Ho  Ho11  1  0.690204  0.563334  0.564710  1
  Ho  Ho12  1  0.976862  0.250000  0.496081  1
  Ho  Ho13  1  0.664120  0.750000  0.289088  1
  Ho  Ho14  1  0.836001  0.750000  0.789254  1
  Ho  Ho15  1  0.336009  0.250000  0.710953  1
  Ho  Ho16  1  0.164115  0.250000  0.210576  1
  Lu  Lu17  1  0.477251  0.750000  0.004035  1
  Lu  Lu18  1  0.022807  0.750000  0.504046  1
  Lu  Lu19  1  0.522869  0.250000  0.995897  1
  Bi  Bi20  1  0.402156  0.750000  0.467717  1
  Bi  Bi21  1  0.097728  0.750000  0.967773  1
  Bi  Bi22  1  0.596773  0.250000  0.532260  1
  Bi  Bi23  1  0.902313  0.250000  0.032340  1
  Bi  Bi24  1  0.935503  0.507712  0.328413  1
  Bi  Bi25  1  0.564510  0.992871  0.828938  1
  Bi  Bi26  1  0.064924  0.006627  0.671602  1
  Bi  Bi27  1  0.435523  0.492884  0.171051  1
  Bi  Bi28  1  0.064924  0.493373  0.671602  1
  Bi  Bi29  1  0.435523  0.007116  0.171051  1
  Bi  Bi30  1  0.935503  0.992288  0.328413  1
  Bi  Bi31  1  0.564510  0.507129  0.828938  1
