# generated using pymatgen
data_TbLu2Ga8SnOs3
_symmetry_space_group_name_H-M   'P 1'
_cell_length_a   6.44403800
_cell_length_b   6.40816500
_cell_length_c   6.44403800
_cell_angle_alpha   90.00000000
_cell_angle_beta   90.00000000
_cell_angle_gamma   90.00000000
_symmetry_Int_Tables_number   1
_chemical_formula_structural   TbLu2Ga8SnOs3
_chemical_formula_sum   'Tb1 Lu2 Ga8 Sn1 Os3'
_cell_volume   266.10306151
_cell_formula_units_Z   1
loop_
 _symmetry_equiv_pos_site_id
 _symmetry_equiv_pos_as_xyz
  1  'x, y, z'
loop_
 _atom_site_type_symbol
 _atom_site_label
 _atom_site_symmetry_multiplicity
 _atom_site_fract_x
 _atom_site_fract_y
 _atom_site_fract_z
 _atom_site_occupancy
  Tb  Tb0  1  0.000000  0.500000  0.000000  1
  Lu  Lu1  1  0.500000  0.000000  0.000000  1
  Lu  Lu2  1  0.000000  0.000000  0.500000  1
  Ga  Ga3  1  0.708979  0.710992  0.708979  1
  Ga  Ga4  1  0.708979  0.289008  0.708979  1
  Ga  Ga5  1  0.291021  0.710992  0.708979  1
  Ga  Ga6  1  0.708979  0.710992  0.291021  1
  Ga  Ga7  1  0.708979  0.289008  0.291021  1
  Ga  Ga8  1  0.291021  0.289008  0.291021  1
  Ga  Ga9  1  0.291021  0.710992  0.291021  1
  Ga  Ga10  1  0.291021  0.289008  0.708979  1
  Sn  Sn11  1  0.000000  0.000000  0.000000  1
  Os  Os12  1  0.000000  0.500000  0.500000  1
  Os  Os13  1  0.500000  0.500000  0.000000  1
  Os  Os14  1  0.500000  0.000000  0.500000  1
