# generated using pymatgen
data_Lu3ZnIn3NiPt
_symmetry_space_group_name_H-M   'P 1'
_cell_length_a   7.71017200
_cell_length_b   7.71017166
_cell_length_c   3.60181400
_cell_angle_alpha   90.00000000
_cell_angle_beta   90.00000000
_cell_angle_gamma   120.00000033
_symmetry_Int_Tables_number   1
_chemical_formula_structural   Lu3ZnIn3NiPt
_chemical_formula_sum   'Lu3 Zn1 In3 Ni1 Pt1'
_cell_volume   185.43001169
_cell_formula_units_Z   1
loop_
 _symmetry_equiv_pos_site_id
 _symmetry_equiv_pos_as_xyz
  1  'x, y, z'
loop_
 _atom_site_type_symbol
 _atom_site_label
 _atom_site_symmetry_multiplicity
 _atom_site_fract_x
 _atom_site_fract_y
 _atom_site_fract_z
 _atom_site_occupancy
  Lu  Lu0  1  0.018554  0.610629  0.500000  1
  Lu  Lu1  1  0.592076  0.981446  0.500000  1
  Lu  Lu2  1  0.389371  0.407924  0.500000  1
  Zn  Zn3  1  0.666667  0.333333  0.000000  1
  In  In4  1  0.989944  0.251590  0.000000  1
  In  In5  1  0.261646  0.010056  0.000000  1
  In  In6  1  0.748410  0.738354  0.000000  1
  Ni  Ni7  1  0.000000  0.000000  0.500000  1
  Pt  Pt8  1  0.333333  0.666667  0.000000  1
