# generated using pymatgen
data_Tb3HoMg2Ir3
_symmetry_space_group_name_H-M   'P 1'
_cell_length_a   7.43692228
_cell_length_b   7.47013101
_cell_length_c   4.10807300
_cell_angle_alpha   90.00000000
_cell_angle_beta   90.00000000
_cell_angle_gamma   120.14781672
_symmetry_Int_Tables_number   1
_chemical_formula_structural   Tb3HoMg2Ir3
_chemical_formula_sum   'Tb3 Ho1 Mg2 Ir3'
_cell_volume   197.35195610
_cell_formula_units_Z   1
loop_
 _symmetry_equiv_pos_site_id
 _symmetry_equiv_pos_as_xyz
  1  'x, y, z'
loop_
 _atom_site_type_symbol
 _atom_site_label
 _atom_site_symmetry_multiplicity
 _atom_site_fract_x
 _atom_site_fract_y
 _atom_site_fract_z
 _atom_site_occupancy
  Tb  Tb0  1  0.431934  0.412502  0.000000  1
  Tb  Tb1  1  0.568066  0.980569  0.000000  1
  Tb  Tb2  1  0.000000  0.609315  0.000000  1
  Ho  Ho3  1  0.000000  0.248355  0.500000  1
  Mg  Mg4  1  0.749795  0.752610  0.500000  1
  Mg  Mg5  1  0.250205  0.002814  0.500000  1
  Ir  Ir6  1  0.000000  0.998422  0.000000  1
  Ir  Ir7  1  0.329032  0.662223  0.500000  1
  Ir  Ir8  1  0.670968  0.333190  0.500000  1
