# generated using pymatgen
data_PrFeSiPd
_symmetry_space_group_name_H-M   'P 1'
_cell_length_a   9.02542772
_cell_length_b   9.02542916
_cell_length_c   4.10218600
_cell_angle_alpha   90.00000000
_cell_angle_beta   90.00000000
_cell_angle_gamma   153.99410004
_symmetry_Int_Tables_number   1
_chemical_formula_structural   PrFeSiPd
_chemical_formula_sum   'Pr2 Fe2 Si2 Pd2'
_cell_volume   146.51586164
_cell_formula_units_Z   2
loop_
 _symmetry_equiv_pos_site_id
 _symmetry_equiv_pos_as_xyz
  1  'x, y, z'
loop_
 _atom_site_type_symbol
 _atom_site_label
 _atom_site_symmetry_multiplicity
 _atom_site_fract_x
 _atom_site_fract_y
 _atom_site_fract_z
 _atom_site_occupancy
  Pr  Pr0  1  0.612311  0.387689  0.250000  1
  Pr  Pr1  1  0.387690  0.612310  0.750000  1
  Fe  Fe2  1  0.250913  0.749087  0.250000  1
  Fe  Fe3  1  0.749084  0.250916  0.750000  1
  Si  Si4  1  0.809345  0.190655  0.250000  1
  Si  Si5  1  0.190654  0.809346  0.750000  1
  Pd  Pd6  1  0.950523  0.049477  0.250000  1
  Pd  Pd7  1  0.049481  0.950519  0.750000  1
