# generated using pymatgen
data_La13CeIr5Au
_symmetry_space_group_name_H-M   'P 1'
_cell_length_a   6.56317559
_cell_length_b   10.25551149
_cell_length_c   10.25551131
_cell_angle_alpha   120.11974408
_cell_angle_beta   90.12189212
_cell_angle_gamma   89.87809568
_symmetry_Int_Tables_number   1
_chemical_formula_structural   La13CeIr5Au
_chemical_formula_sum   'La13 Ce1 Ir5 Au1'
_cell_volume   597.08023566
_cell_formula_units_Z   1
loop_
 _symmetry_equiv_pos_site_id
 _symmetry_equiv_pos_as_xyz
  1  'x, y, z'
loop_
 _atom_site_type_symbol
 _atom_site_label
 _atom_site_symmetry_multiplicity
 _atom_site_fract_x
 _atom_site_fract_y
 _atom_site_fract_z
 _atom_site_occupancy
  La  La0  1  0.967672  0.661390  0.338610  1
  La  La1  1  0.246935  0.125137  0.874863  1
  La  La2  1  0.246987  0.739784  0.857687  1
  La  La3  1  0.246987  0.142313  0.260216  1
  La  La4  1  0.728068  0.875606  0.124394  1
  La  La5  1  0.745805  0.250213  0.125959  1
  La  La6  1  0.745805  0.874041  0.749787  1
  La  La7  1  0.440908  0.539566  0.460434  1
  La  La8  1  0.446191  0.935609  0.477954  1
  La  La9  1  0.446191  0.522046  0.064391  1
  La  La10  1  0.936307  0.460191  0.539809  1
  La  La11  1  0.942903  0.078764  0.541677  1
  La  La12  1  0.942903  0.458323  0.921236  1
  Ce  Ce13  1  0.490169  0.333811  0.666189  1
  Ir  Ir14  1  0.193492  0.377259  0.186048  1
  Ir  Ir15  1  0.193492  0.813952  0.622741  1
  Ir  Ir16  1  0.680271  0.192115  0.807885  1
  Ir  Ir17  1  0.683973  0.617803  0.810735  1
  Ir  Ir18  1  0.683973  0.189265  0.382197  1
  Au  Au19  1  0.192969  0.812815  0.187185  1
