# generated using pymatgen
data_BaLiV3O9
_symmetry_space_group_name_H-M   'P 1'
_cell_length_a   7.86848929
_cell_length_b   7.88677306
_cell_length_c   7.74613634
_cell_angle_alpha   98.81046880
_cell_angle_beta   98.42629053
_cell_angle_gamma   81.42884961
_symmetry_Int_Tables_number   1
_chemical_formula_structural   BaLiV3O9
_chemical_formula_sum   'Ba2 Li2 V6 O18'
_cell_volume   465.94496563
_cell_formula_units_Z   2
loop_
 _symmetry_equiv_pos_site_id
 _symmetry_equiv_pos_as_xyz
  1  'x, y, z'
loop_
 _atom_site_type_symbol
 _atom_site_label
 _atom_site_symmetry_multiplicity
 _atom_site_fract_x
 _atom_site_fract_y
 _atom_site_fract_z
 _atom_site_occupancy
  Ba  Ba0  1  0.228449  0.161039  0.983698  1
  Ba  Ba1  1  0.771565  0.838956  0.016293  1
  Li  Li2  1  0.190719  0.192381  0.469092  1
  Li  Li3  1  0.809301  0.807601  0.530901  1
  V  V4  1  0.602115  0.207001  0.418112  1
  V  V5  1  0.397896  0.792995  0.581918  1
  V  V6  1  0.713219  0.247257  0.868021  1
  V  V7  1  0.286789  0.752754  0.131966  1
  V  V8  1  0.847819  0.445617  0.239209  1
  V  V9  1  0.152145  0.554388  0.760795  1
  O  O10  1  0.888865  0.097891  0.861227  1
  O  O11  1  0.111133  0.902123  0.138727  1
  O  O12  1  0.577377  0.164602  0.972647  1
  O  O13  1  0.422627  0.835380  0.027336  1
  O  O14  1  0.729946  0.018415  0.377642  1
  O  O15  1  0.270111  0.981608  0.622416  1
  O  O16  1  0.394717  0.183601  0.335440  1
  O  O17  1  0.605303  0.816357  0.664575  1
  O  O18  1  0.031430  0.307813  0.269268  1
  O  O19  1  0.968522  0.692136  0.730737  1
  O  O20  1  0.875285  0.652586  0.317446  1
  O  O21  1  0.124720  0.347411  0.682584  1
  O  O22  1  0.611205  0.279414  0.651855  1
  O  O23  1  0.388784  0.720647  0.348111  1
  O  O24  1  0.675556  0.380442  0.331007  1
  O  O25  1  0.324410  0.619583  0.668970  1
  O  O26  1  0.778316  0.446641  0.002043  1
  O  O27  1  0.221680  0.553358  0.997958  1
