# generated using pymatgen
data_Ca3Ga3IrRu
_symmetry_space_group_name_H-M   'P 1'
_cell_length_a   8.27185000
_cell_length_b   14.79388700
_cell_length_c   5.82070200
_cell_angle_alpha   90.00000000
_cell_angle_beta   90.00000000
_cell_angle_gamma   90.00000000
_symmetry_Int_Tables_number   1
_chemical_formula_structural   Ca3Ga3IrRu
_chemical_formula_sum   'Ca12 Ga12 Ir4 Ru4'
_cell_volume   712.29568425
_cell_formula_units_Z   4
loop_
 _symmetry_equiv_pos_site_id
 _symmetry_equiv_pos_as_xyz
  1  'x, y, z'
loop_
 _atom_site_type_symbol
 _atom_site_label
 _atom_site_symmetry_multiplicity
 _atom_site_fract_x
 _atom_site_fract_y
 _atom_site_fract_z
 _atom_site_occupancy
  Ca  Ca0  1  0.550019  0.891758  0.109937  1
  Ca  Ca1  1  0.550019  0.608242  0.109937  1
  Ca  Ca2  1  0.949981  0.391758  0.609936  1
  Ca  Ca3  1  0.051087  0.893264  0.385627  1
  Ca  Ca4  1  0.448913  0.106737  0.885626  1
  Ca  Ca5  1  0.702849  0.750000  0.612961  1
  Ca  Ca6  1  0.797151  0.250000  0.112961  1
  Ca  Ca7  1  0.198073  0.750000  0.883234  1
  Ca  Ca8  1  0.301927  0.250000  0.383234  1
  Ca  Ca9  1  0.448913  0.393264  0.885626  1
  Ca  Ca10  1  0.051087  0.606736  0.385627  1
  Ca  Ca11  1  0.949981  0.108243  0.609936  1
  Ga  Ga12  1  0.859542  0.750000  0.068303  1
  Ga  Ga13  1  0.640458  0.250000  0.568304  1
  Ga  Ga14  1  0.362215  0.750000  0.435126  1
  Ga  Ga15  1  0.137785  0.250000  0.935125  1
  Ga  Ga16  1  0.319082  0.459177  0.364104  1
  Ga  Ga17  1  0.180918  0.540822  0.864103  1
  Ga  Ga18  1  0.811363  0.039001  0.134650  1
  Ga  Ga19  1  0.688637  0.961000  0.634650  1
  Ga  Ga20  1  0.688637  0.539000  0.634650  1
  Ga  Ga21  1  0.811363  0.460999  0.134650  1
  Ga  Ga22  1  0.180918  0.959178  0.864103  1
  Ga  Ga23  1  0.319082  0.040823  0.364104  1
  Ir  Ir24  1  0.399022  0.903962  0.599655  1
  Ir  Ir25  1  0.100978  0.096039  0.099654  1
  Ir  Ir26  1  0.100978  0.403961  0.099654  1
  Ir  Ir27  1  0.399022  0.596039  0.599655  1
  Ru  Ru28  1  0.601179  0.095268  0.406219  1
  Ru  Ru29  1  0.898821  0.904733  0.906219  1
  Ru  Ru30  1  0.898821  0.595268  0.906219  1
  Ru  Ru31  1  0.601179  0.404732  0.406219  1
