# generated using pymatgen
data_Ti9Co4Rh7
_symmetry_space_group_name_H-M   'P 1'
_cell_length_a   7.35280360
_cell_length_b   7.35280355
_cell_length_c   7.35280292
_cell_angle_alpha   101.42672772
_cell_angle_beta   101.42672424
_cell_angle_gamma   127.14045366
_symmetry_Int_Tables_number   1
_chemical_formula_structural   Ti9Co4Rh7
_chemical_formula_sum   'Ti9 Co4 Rh7'
_cell_volume   283.76532009
_cell_formula_units_Z   1
loop_
 _symmetry_equiv_pos_site_id
 _symmetry_equiv_pos_as_xyz
  1  'x, y, z'
loop_
 _atom_site_type_symbol
 _atom_site_label
 _atom_site_symmetry_multiplicity
 _atom_site_fract_x
 _atom_site_fract_y
 _atom_site_fract_z
 _atom_site_occupancy
  Ti  Ti0  1  0.940243  0.940243  0.000000  1
  Ti  Ti1  1  0.251749  0.605382  0.827974  1
  Ti  Ti2  1  0.423776  0.251749  0.646368  1
  Ti  Ti3  1  0.605382  0.777408  0.353632  1
  Ti  Ti4  1  0.777408  0.423776  0.172026  1
  Ti  Ti5  1  0.300364  0.896160  0.208923  1
  Ti  Ti6  1  0.091440  0.300364  0.404205  1
  Ti  Ti7  1  0.896160  0.687235  0.595795  1
  Ti  Ti8  1  0.687235  0.091440  0.791077  1
  Co  Co9  1  0.668782  0.998726  0.107155  1
  Co  Co10  1  0.561627  0.668782  0.670056  1
  Co  Co11  1  0.998726  0.891571  0.329944  1
  Co  Co12  1  0.891571  0.561627  0.892845  1
  Rh  Rh13  1  0.533104  0.533104  0.000000  1
  Rh  Rh14  1  0.747674  0.247674  0.500000  1
  Rh  Rh15  1  0.247674  0.747674  0.500000  1
  Rh  Rh16  1  0.319781  0.020519  0.901758  1
  Rh  Rh17  1  0.418023  0.319781  0.299261  1
  Rh  Rh18  1  0.020519  0.118762  0.700739  1
  Rh  Rh19  1  0.118762  0.418023  0.098242  1
