# generated using pymatgen
data_Tb6Al24Os7Rh
_symmetry_space_group_name_H-M   'P 1'
_cell_length_a   8.83677124
_cell_length_b   8.83307873
_cell_length_c   9.60758625
_cell_angle_alpha   89.99999617
_cell_angle_beta   89.86192894
_cell_angle_gamma   119.98617770
_symmetry_Int_Tables_number   1
_chemical_formula_structural   Tb6Al24Os7Rh
_chemical_formula_sum   'Tb6 Al24 Os7 Rh1'
_cell_volume   649.54527736
_cell_formula_units_Z   1
loop_
 _symmetry_equiv_pos_site_id
 _symmetry_equiv_pos_as_xyz
  1  'x, y, z'
loop_
 _atom_site_type_symbol
 _atom_site_label
 _atom_site_symmetry_multiplicity
 _atom_site_fract_x
 _atom_site_fract_y
 _atom_site_fract_z
 _atom_site_occupancy
  Tb  Tb0  1  0.193946  0.385168  0.250764  1
  Tb  Tb1  1  0.806054  0.614832  0.749236  1
  Tb  Tb2  1  0.612832  0.806416  0.251781  1
  Tb  Tb3  1  0.387168  0.193584  0.748219  1
  Tb  Tb4  1  0.193946  0.808778  0.250764  1
  Tb  Tb5  1  0.806054  0.191222  0.749236  1
  Al  Al6  1  0.333781  0.666891  0.018955  1
  Al  Al7  1  0.666219  0.333109  0.981045  1
  Al  Al8  1  0.667764  0.333882  0.518567  1
  Al  Al9  1  0.332236  0.666118  0.481433  1
  Al  Al10  1  0.163599  0.327683  0.574985  1
  Al  Al11  1  0.836401  0.672317  0.425015  1
  Al  Al12  1  0.672233  0.836116  0.575846  1
  Al  Al13  1  0.834185  0.673194  0.076645  1
  Al  Al14  1  0.327767  0.163884  0.424154  1
  Al  Al15  1  0.165815  0.326806  0.923355  1
  Al  Al16  1  0.163599  0.835915  0.574985  1
  Al  Al17  1  0.327717  0.163859  0.075306  1
  Al  Al18  1  0.836401  0.164085  0.425015  1
  Al  Al19  1  0.672283  0.836141  0.924694  1
  Al  Al20  1  0.834185  0.160993  0.076645  1
  Al  Al21  1  0.165815  0.839007  0.923355  1
  Al  Al22  1  0.561957  0.123899  0.249809  1
  Al  Al23  1  0.438043  0.876101  0.750191  1
  Al  Al24  1  0.877592  0.438796  0.250119  1
  Al  Al25  1  0.122408  0.561204  0.749881  1
  Al  Al26  1  0.561957  0.438057  0.249809  1
  Al  Al27  1  0.438043  0.561943  0.750191  1
  Al  Al28  1  0.999568  0.999784  0.250075  1
  Al  Al29  1  0.000432  0.000216  0.749925  1
  Os  Os30  1  0.500000  0.000000  0.000000  1
  Os  Os31  1  0.500000  0.000000  0.500000  1
  Os  Os32  1  0.500000  0.500000  0.000000  1
  Os  Os33  1  0.000000  0.500000  0.500000  1
  Os  Os34  1  0.500000  0.500000  0.500000  1
  Os  Os35  1  0.000000  0.000000  0.000000  1
  Os  Os36  1  0.000000  0.000000  0.500000  1
  Rh  Rh37  1  0.000000  0.500000  0.000000  1
