# generated using pymatgen
data_ErSc4Pa3(ReB6)4
_symmetry_space_group_name_H-M   'P 1'
_cell_length_a   3.62947900
_cell_length_b   8.99790759
_cell_length_c   11.36690801
_cell_angle_alpha   90.07709058
_cell_angle_beta   90.00000000
_cell_angle_gamma   90.00000000
_symmetry_Int_Tables_number   1
_chemical_formula_structural   ErSc4Pa3(ReB6)4
_chemical_formula_sum   'Er1 Sc4 Pa3 Re4 B24'
_cell_volume   371.21692494
_cell_formula_units_Z   1
loop_
 _symmetry_equiv_pos_site_id
 _symmetry_equiv_pos_as_xyz
  1  'x, y, z'
loop_
 _atom_site_type_symbol
 _atom_site_label
 _atom_site_symmetry_multiplicity
 _atom_site_fract_x
 _atom_site_fract_y
 _atom_site_fract_z
 _atom_site_occupancy
  Er  Er0  1  0.000000  0.181465  0.913277  1
  Sc  Sc1  1  0.000000  0.946447  0.374719  1
  Sc  Sc2  1  0.000000  0.055128  0.626704  1
  Sc  Sc3  1  0.000000  0.443882  0.124213  1
  Sc  Sc4  1  0.000000  0.553284  0.874538  1
  Pa  Pa5  1  0.000000  0.319330  0.413979  1
  Pa  Pa6  1  0.000000  0.679844  0.586705  1
  Pa  Pa7  1  0.000000  0.821561  0.085454  1
  Re  Re8  1  0.000000  0.640469  0.319610  1
  Re  Re9  1  0.000000  0.361461  0.678717  1
  Re  Re10  1  0.000000  0.139808  0.182510  1
  Re  Re11  1  0.000000  0.858215  0.819172  1
  B  B12  1  0.500000  0.554678  0.432453  1
  B  B13  1  0.500000  0.445581  0.567140  1
  B  B14  1  0.500000  0.054547  0.067464  1
  B  B15  1  0.500000  0.945244  0.932668  1
  B  B16  1  0.500000  0.753695  0.419326  1
  B  B17  1  0.500000  0.246684  0.581722  1
  B  B18  1  0.500000  0.252751  0.080007  1
  B  B19  1  0.500000  0.747356  0.919322  1
  B  B20  1  0.500000  0.794353  0.264628  1
  B  B21  1  0.500000  0.205552  0.735653  1
  B  B22  1  0.500000  0.294383  0.234173  1
  B  B23  1  0.500000  0.705559  0.765185  1
  B  B24  1  0.500000  0.629648  0.182184  1
  B  B25  1  0.500000  0.369770  0.817404  1
  B  B26  1  0.500000  0.129892  0.317380  1
  B  B27  1  0.500000  0.870464  0.683503  1
  B  B28  1  0.500000  0.981703  0.214080  1
  B  B29  1  0.500000  0.019264  0.785777  1
  B  B30  1  0.500000  0.481708  0.284509  1
  B  B31  1  0.500000  0.517683  0.715537  1
  B  B32  1  0.500000  0.599519  0.027148  1
  B  B33  1  0.500000  0.398980  0.972285  1
  B  B34  1  0.500000  0.100421  0.473108  1
  B  B35  1  0.500000  0.899668  0.527747  1
