# generated using pymatgen
data_Nd4Al18NiIr3Pt2
_symmetry_space_group_name_H-M   'P 1'
_cell_length_a   7.63210147
_cell_length_b   7.63210251
_cell_length_c   9.55296112
_cell_angle_alpha   90.10705424
_cell_angle_beta   90.10703568
_cell_angle_gamma   119.66041695
_symmetry_Int_Tables_number   1
_chemical_formula_structural   Nd4Al18NiIr3Pt2
_chemical_formula_sum   'Nd4 Al18 Ni1 Ir3 Pt2'
_cell_volume   483.53723316
_cell_formula_units_Z   1
loop_
 _symmetry_equiv_pos_site_id
 _symmetry_equiv_pos_as_xyz
  1  'x, y, z'
loop_
 _atom_site_type_symbol
 _atom_site_label
 _atom_site_symmetry_multiplicity
 _atom_site_fract_x
 _atom_site_fract_y
 _atom_site_fract_z
 _atom_site_occupancy
  Nd  Nd0  1  0.994187  0.668867  0.249472  1
  Nd  Nd1  1  0.005584  0.330883  0.750587  1
  Nd  Nd2  1  0.669117  0.994416  0.249413  1
  Nd  Nd3  1  0.331133  0.005813  0.750528  1
  Al  Al4  1  0.128496  0.127826  0.245287  1
  Al  Al5  1  0.872174  0.871504  0.754713  1
  Al  Al6  1  0.004402  0.332697  0.073755  1
  Al  Al7  1  0.001634  0.670685  0.926419  1
  Al  Al8  1  0.998587  0.662446  0.573063  1
  Al  Al9  1  0.337554  0.001413  0.426937  1
  Al  Al10  1  0.001443  0.337243  0.426672  1
  Al  Al11  1  0.662757  0.998557  0.573328  1
  Al  Al12  1  0.667303  0.995598  0.926245  1
  Al  Al13  1  0.329315  0.998366  0.073581  1
  Al  Al14  1  0.336731  0.336727  0.548964  1
  Al  Al15  1  0.663273  0.663269  0.451036  1
  Al  Al16  1  0.667655  0.670684  0.049161  1
  Al  Al17  1  0.329316  0.332345  0.950839  1
  Al  Al18  1  0.339739  0.546443  0.249723  1
  Al  Al19  1  0.660773  0.455421  0.747684  1
  Al  Al20  1  0.544579  0.339227  0.252316  1
  Al  Al21  1  0.453557  0.660261  0.750277  1
  Ni  Ni22  1  0.999903  0.000097  0.000000  1
  Ir  Ir23  1  0.328821  0.671179  0.000000  1
  Ir  Ir24  1  0.329151  0.670849  0.500000  1
  Ir  Ir25  1  0.671145  0.328855  0.500000  1
  Pt  Pt26  1  0.671575  0.328425  0.000000  1
  Pt  Pt27  1  0.000094  0.999906  0.500000  1
