# generated using pymatgen
data_TbDy3Co16(P3Ru)4
_symmetry_space_group_name_H-M   'P 1'
_cell_length_a   3.69259300
_cell_length_b   10.40287200
_cell_length_c   11.78138200
_cell_angle_alpha   90.00176019
_cell_angle_beta   90.00000000
_cell_angle_gamma   90.00000000
_symmetry_Int_Tables_number   1
_chemical_formula_structural   TbDy3Co16(P3Ru)4
_chemical_formula_sum   'Tb1 Dy3 Co16 P12 Ru4'
_cell_volume   452.56496946
_cell_formula_units_Z   1
loop_
 _symmetry_equiv_pos_site_id
 _symmetry_equiv_pos_as_xyz
  1  'x, y, z'
loop_
 _atom_site_type_symbol
 _atom_site_label
 _atom_site_symmetry_multiplicity
 _atom_site_fract_x
 _atom_site_fract_y
 _atom_site_fract_z
 _atom_site_occupancy
  Tb  Tb0  1  0.750000  0.086222  0.796118  1
  Dy  Dy1  1  0.250000  0.586266  0.703872  1
  Dy  Dy2  1  0.250000  0.913791  0.203789  1
  Dy  Dy3  1  0.750000  0.413740  0.296149  1
  Co  Co4  1  0.250000  0.408667  0.489489  1
  Co  Co5  1  0.250000  0.091242  0.990038  1
  Co  Co6  1  0.750000  0.591350  0.510478  1
  Co  Co7  1  0.750000  0.908495  0.010559  1
  Co  Co8  1  0.250000  0.221090  0.176711  1
  Co  Co9  1  0.250000  0.279287  0.676520  1
  Co  Co10  1  0.750000  0.778880  0.823410  1
  Co  Co11  1  0.750000  0.721022  0.323344  1
  Co  Co12  1  0.250000  0.887040  0.702423  1
  Co  Co13  1  0.250000  0.612560  0.202613  1
  Co  Co14  1  0.750000  0.112596  0.297360  1
  Co  Co15  1  0.750000  0.387624  0.797465  1
  Co  Co16  1  0.250000  0.465528  0.930657  1
  Co  Co17  1  0.250000  0.034655  0.430340  1
  Co  Co18  1  0.750000  0.534762  0.069484  1
  Co  Co19  1  0.750000  0.965134  0.569129  1
  P  P20  1  0.250000  0.419617  0.111897  1
  P  P21  1  0.250000  0.080399  0.611437  1
  P  P22  1  0.750000  0.580448  0.888174  1
  P  P23  1  0.750000  0.919561  0.387998  1
  P  P24  1  0.250000  0.272460  0.867129  1
  P  P25  1  0.250000  0.228057  0.366971  1
  P  P26  1  0.750000  0.728028  0.133038  1
  P  P27  1  0.750000  0.771965  0.633027  1
  P  P28  1  0.250000  0.595780  0.390291  1
  P  P29  1  0.250000  0.903829  0.890458  1
  P  P30  1  0.750000  0.404180  0.609713  1
  P  P31  1  0.750000  0.095790  0.109680  1
  Ru  Ru32  1  0.250000  0.716855  0.992536  1
  Ru  Ru33  1  0.250000  0.782965  0.492352  1
  Ru  Ru34  1  0.750000  0.283148  0.007771  1
  Ru  Ru35  1  0.750000  0.216966  0.507581  1
