# generated using pymatgen
data_Ta2VB2Os5
_symmetry_space_group_name_H-M   'P 1'
_cell_length_a   9.41767500
_cell_length_b   9.41767500
_cell_length_c   2.97673900
_cell_angle_alpha   90.00000000
_cell_angle_beta   90.00000000
_cell_angle_gamma   90.00000000
_symmetry_Int_Tables_number   1
_chemical_formula_structural   Ta2VB2Os5
_chemical_formula_sum   'Ta4 V2 B4 Os10'
_cell_volume   264.01472859
_cell_formula_units_Z   2
loop_
 _symmetry_equiv_pos_site_id
 _symmetry_equiv_pos_as_xyz
  1  'x, y, z'
loop_
 _atom_site_type_symbol
 _atom_site_label
 _atom_site_symmetry_multiplicity
 _atom_site_fract_x
 _atom_site_fract_y
 _atom_site_fract_z
 _atom_site_occupancy
  Ta  Ta0  1  0.822327  0.677673  0.000000  1
  Ta  Ta1  1  0.177673  0.322327  0.000000  1
  Ta  Ta2  1  0.322327  0.822327  0.000000  1
  Ta  Ta3  1  0.677673  0.177673  0.000000  1
  V  V4  1  0.500000  0.500000  0.000000  1
  V  V5  1  0.000000  0.000000  0.000000  1
  B  B6  1  0.623320  0.876680  0.000000  1
  B  B7  1  0.376680  0.123320  0.000000  1
  B  B8  1  0.123320  0.623320  0.000000  1
  B  B9  1  0.876680  0.376680  0.000000  1
  Os  Os10  1  0.570057  0.713562  0.500000  1
  Os  Os11  1  0.429943  0.286438  0.500000  1
  Os  Os12  1  0.070057  0.786438  0.500000  1
  Os  Os13  1  0.929943  0.213562  0.500000  1
  Os  Os14  1  0.286438  0.570057  0.500000  1
  Os  Os15  1  0.713562  0.429943  0.500000  1
  Os  Os16  1  0.213562  0.070057  0.500000  1
  Os  Os17  1  0.786438  0.929943  0.500000  1
  Os  Os18  1  0.500000  0.000000  0.500000  1
  Os  Os19  1  0.000000  0.500000  0.500000  1
