# generated using pymatgen
data_Cs2BiSbPt
_symmetry_space_group_name_H-M   'P 1'
_cell_length_a   8.49276820
_cell_length_b   8.49276805
_cell_length_c   7.22492200
_cell_angle_alpha   90.00000000
_cell_angle_beta   90.00000000
_cell_angle_gamma   124.39272915
_symmetry_Int_Tables_number   1
_chemical_formula_structural   Cs2BiSbPt
_chemical_formula_sum   'Cs4 Bi2 Sb2 Pt2'
_cell_volume   430.01451880
_cell_formula_units_Z   2
loop_
 _symmetry_equiv_pos_site_id
 _symmetry_equiv_pos_as_xyz
  1  'x, y, z'
loop_
 _atom_site_type_symbol
 _atom_site_label
 _atom_site_symmetry_multiplicity
 _atom_site_fract_x
 _atom_site_fract_y
 _atom_site_fract_z
 _atom_site_occupancy
  Cs  Cs0  1  0.574592  0.363053  0.750000  1
  Cs  Cs1  1  0.363053  0.574592  0.250000  1
  Cs  Cs2  1  0.182851  0.792594  0.750000  1
  Cs  Cs3  1  0.792594  0.182851  0.250000  1
  Bi  Bi4  1  0.730143  0.901358  0.750000  1
  Bi  Bi5  1  0.901358  0.730143  0.250000  1
  Sb  Sb6  1  0.288551  0.084986  0.250000  1
  Sb  Sb7  1  0.084986  0.288551  0.750000  1
  Pt  Pt8  1  0.040935  0.040935  0.000000  1
  Pt  Pt9  1  0.040935  0.040935  0.500000  1
