# generated using pymatgen
data_NpTaBRu6
_symmetry_space_group_name_H-M   'P 1'
_cell_length_a   5.68279489
_cell_length_b   5.68279512
_cell_length_c   5.68279400
_cell_angle_alpha   60.00000650
_cell_angle_beta   60.00000520
_cell_angle_gamma   60.00000141
_symmetry_Int_Tables_number   1
_chemical_formula_structural   NpTaBRu6
_chemical_formula_sum   'Np1 Ta1 B1 Ru6'
_cell_volume   129.76899422
_cell_formula_units_Z   1
loop_
 _symmetry_equiv_pos_site_id
 _symmetry_equiv_pos_as_xyz
  1  'x, y, z'
loop_
 _atom_site_type_symbol
 _atom_site_label
 _atom_site_symmetry_multiplicity
 _atom_site_fract_x
 _atom_site_fract_y
 _atom_site_fract_z
 _atom_site_occupancy
  Np  Np0  1  0.250000  0.250000  0.250000  1
  Ta  Ta1  1  0.750000  0.750000  0.750000  1
  B  B2  1  0.000000  0.000000  0.000000  1
  Ru  Ru3  1  0.742346  0.257654  0.257654  1
  Ru  Ru4  1  0.257654  0.742346  0.257654  1
  Ru  Ru5  1  0.742346  0.742346  0.257654  1
  Ru  Ru6  1  0.257654  0.257654  0.742346  1
  Ru  Ru7  1  0.742346  0.257654  0.742346  1
  Ru  Ru8  1  0.257654  0.742346  0.742346  1
