# generated using pymatgen
data_Nd4P7Ir7Rh
_symmetry_space_group_name_H-M   'P 1'
_cell_length_a   3.98945800
_cell_length_b   12.84685422
_cell_length_c   13.22266005
_cell_angle_alpha   80.73763537
_cell_angle_beta   90.00000000
_cell_angle_gamma   90.00000000
_symmetry_Int_Tables_number   1
_chemical_formula_structural   Nd4P7Ir7Rh
_chemical_formula_sum   'Nd8 P14 Ir14 Rh2'
_cell_volume   668.85165461
_cell_formula_units_Z   2
loop_
 _symmetry_equiv_pos_site_id
 _symmetry_equiv_pos_as_xyz
  1  'x, y, z'
loop_
 _atom_site_type_symbol
 _atom_site_label
 _atom_site_symmetry_multiplicity
 _atom_site_fract_x
 _atom_site_fract_y
 _atom_site_fract_z
 _atom_site_occupancy
  Nd  Nd0  1  0.750000  0.791134  0.560996  1
  Nd  Nd1  1  0.250000  0.208866  0.439004  1
  Nd  Nd2  1  0.750000  0.481250  0.706357  1
  Nd  Nd3  1  0.250000  0.518750  0.293643  1
  Nd  Nd4  1  0.750000  0.720384  0.896866  1
  Nd  Nd5  1  0.250000  0.103494  0.789012  1
  Nd  Nd6  1  0.750000  0.896506  0.210988  1
  Nd  Nd7  1  0.250000  0.279616  0.103134  1
  P  P8  1  0.250000  0.909166  0.409079  1
  P  P9  1  0.750000  0.473625  0.127866  1
  P  P10  1  0.250000  0.526375  0.872134  1
  P  P11  1  0.750000  0.090834  0.590921  1
  P  P12  1  0.250000  0.741796  0.080840  1
  P  P13  1  0.750000  0.258204  0.919160  1
  P  P14  1  0.750000  0.156045  0.281491  1
  P  P15  1  0.250000  0.843955  0.718509  1
  P  P16  1  0.250000  0.052300  0.098934  1
  P  P17  1  0.750000  0.947700  0.901066  1
  P  P18  1  0.250000  0.313204  0.689068  1
  P  P19  1  0.750000  0.686796  0.310932  1
  P  P20  1  0.250000  0.607364  0.563229  1
  P  P21  1  0.750000  0.392636  0.436771  1
  Ir  Ir22  1  0.250000  0.662586  0.730989  1
  Ir  Ir23  1  0.750000  0.337414  0.269011  1
  Ir  Ir24  1  0.250000  0.552167  0.046888  1
  Ir  Ir25  1  0.750000  0.447833  0.953112  1
  Ir  Ir26  1  0.250000  0.061143  0.272915  1
  Ir  Ir27  1  0.750000  0.938857  0.727085  1
  Ir  Ir28  1  0.250000  0.422772  0.527007  1
  Ir  Ir29  1  0.750000  0.577228  0.472993  1
  Ir  Ir30  1  0.250000  0.915282  0.997997  1
  Ir  Ir31  1  0.750000  0.084718  0.002003  1
  Ir  Ir32  1  0.250000  0.729397  0.393575  1
  Ir  Ir33  1  0.750000  0.270603  0.606425  1
  Ir  Ir34  1  0.250000  0.341633  0.859201  1
  Ir  Ir35  1  0.750000  0.658367  0.140799  1
  Rh  Rh36  1  0.250000  0.987921  0.575788  1
  Rh  Rh37  1  0.750000  0.012079  0.424212  1
