# generated using pymatgen
data_Eu3Zn2(CuAs2)2
_symmetry_space_group_name_H-M   'P 1'
_cell_length_a   4.24167601
_cell_length_b   4.24181133
_cell_length_c   15.10303601
_cell_angle_alpha   89.99690135
_cell_angle_beta   90.00346192
_cell_angle_gamma   119.99771368
_symmetry_Int_Tables_number   1
_chemical_formula_structural   Eu3Zn2(CuAs2)2
_chemical_formula_sum   'Eu3 Zn2 Cu2 As4'
_cell_volume   235.33890825
_cell_formula_units_Z   1
loop_
 _symmetry_equiv_pos_site_id
 _symmetry_equiv_pos_as_xyz
  1  'x, y, z'
loop_
 _atom_site_type_symbol
 _atom_site_label
 _atom_site_symmetry_multiplicity
 _atom_site_fract_x
 _atom_site_fract_y
 _atom_site_fract_z
 _atom_site_occupancy
  Eu  Eu0  1  0.999962  0.999996  0.999967  1
  Eu  Eu1  1  0.999969  0.000018  0.269681  1
  Eu  Eu2  1  0.999965  0.000002  0.730357  1
  Zn  Zn3  1  0.333288  0.666667  0.562626  1
  Zn  Zn4  1  0.666625  0.333327  0.437365  1
  Cu  Cu5  1  0.333290  0.666684  0.135937  1
  Cu  Cu6  1  0.666631  0.333314  0.864023  1
  As  As7  1  0.333307  0.666667  0.390285  1
  As  As8  1  0.666627  0.333326  0.609814  1
  As  As9  1  0.333301  0.666658  0.865618  1
  As  As10  1  0.666634  0.333339  0.134325  1
