# generated using pymatgen
data_Dy7Y(ReI4)2
_symmetry_space_group_name_H-M   'P 1'
_cell_length_a   11.66765943
_cell_length_b   11.65986777
_cell_length_c   6.18807300
_cell_angle_alpha   90.04641699
_cell_angle_beta   90.03699683
_cell_angle_gamma   89.95928760
_symmetry_Int_Tables_number   1
_chemical_formula_structural   Dy7Y(ReI4)2
_chemical_formula_sum   'Dy7 Y1 Re2 I8'
_cell_volume   841.84561671
_cell_formula_units_Z   1
loop_
 _symmetry_equiv_pos_site_id
 _symmetry_equiv_pos_as_xyz
  1  'x, y, z'
loop_
 _atom_site_type_symbol
 _atom_site_label
 _atom_site_symmetry_multiplicity
 _atom_site_fract_x
 _atom_site_fract_y
 _atom_site_fract_z
 _atom_site_occupancy
  Dy  Dy0  1  0.079766  0.807251  0.501258  1
  Dy  Dy1  1  0.079208  0.192346  0.001106  1
  Dy  Dy2  1  0.192749  0.079271  0.501082  1
  Dy  Dy3  1  0.920834  0.807649  0.998890  1
  Dy  Dy4  1  0.920785  0.192451  0.498740  1
  Dy  Dy5  1  0.192744  0.920319  0.998702  1
  Dy  Dy6  1  0.807833  0.920540  0.498925  1
  Y  Y7  1  0.806030  0.080191  0.001240  1
  Re  Re8  1  0.000437  0.999715  0.250114  1
  Re  Re9  1  0.000035  0.000100  0.749909  1
  I  I10  1  0.653312  0.144010  0.489056  1
  I  I11  1  0.855257  0.654051  0.506483  1
  I  I12  1  0.345883  0.144775  0.993594  1
  I  I13  1  0.144648  0.345967  0.493555  1
  I  I14  1  0.653943  0.855449  0.006425  1
  I  I15  1  0.346914  0.855924  0.510872  1
  I  I16  1  0.143909  0.653107  0.989196  1
  I  I17  1  0.855714  0.346885  0.010855  1
