# generated using pymatgen
data_YTaP7Ru12
_symmetry_space_group_name_H-M   'P 1'
_cell_length_a   9.38592100
_cell_length_b   9.38592073
_cell_length_c   3.89828500
_cell_angle_alpha   90.00000000
_cell_angle_beta   90.00000000
_cell_angle_gamma   119.99999743
_symmetry_Int_Tables_number   1
_chemical_formula_structural   YTaP7Ru12
_chemical_formula_sum   'Y1 Ta1 P7 Ru12'
_cell_volume   297.41167042
_cell_formula_units_Z   1
loop_
 _symmetry_equiv_pos_site_id
 _symmetry_equiv_pos_as_xyz
  1  'x, y, z'
loop_
 _atom_site_type_symbol
 _atom_site_label
 _atom_site_symmetry_multiplicity
 _atom_site_fract_x
 _atom_site_fract_y
 _atom_site_fract_z
 _atom_site_occupancy
  Y  Y0  1  0.333333  0.666667  0.000000  1
  Ta  Ta1  1  0.666667  0.333333  0.500000  1
  P  P2  1  0.598124  0.719151  0.500000  1
  P  P3  1  0.000000  0.000000  0.000000  1
  P  P4  1  0.280849  0.878975  0.500000  1
  P  P5  1  0.121025  0.401876  0.500000  1
  P  P6  1  0.886295  0.574485  0.000000  1
  P  P7  1  0.425515  0.311812  0.000000  1
  P  P8  1  0.688188  0.113705  0.000000  1
  Ru  Ru9  1  0.558517  0.957478  0.500000  1
  Ru  Ru10  1  0.398962  0.441483  0.500000  1
  Ru  Ru11  1  0.912604  0.124275  0.500000  1
  Ru  Ru12  1  0.211671  0.087396  0.500000  1
  Ru  Ru13  1  0.875725  0.788329  0.500000  1
  Ru  Ru14  1  0.725608  0.887661  0.000000  1
  Ru  Ru15  1  0.112339  0.837946  0.000000  1
  Ru  Ru16  1  0.162054  0.274392  0.000000  1
  Ru  Ru17  1  0.432822  0.079779  0.000000  1
  Ru  Ru18  1  0.920221  0.353045  0.000000  1
  Ru  Ru19  1  0.646955  0.567178  0.000000  1
  Ru  Ru20  1  0.042522  0.601038  0.500000  1
