# generated using pymatgen
data_Nd4ZnGa23Pt2
_symmetry_space_group_name_H-M   'P 1'
_cell_length_a   6.15505809
_cell_length_b   6.15505841
_cell_length_c   15.53274100
_cell_angle_alpha   89.99030961
_cell_angle_beta   89.99030961
_cell_angle_gamma   89.78012561
_symmetry_Int_Tables_number   1
_chemical_formula_structural   Nd4ZnGa23Pt2
_chemical_formula_sum   'Nd4 Zn1 Ga23 Pt2'
_cell_volume   588.44953626
_cell_formula_units_Z   1
loop_
 _symmetry_equiv_pos_site_id
 _symmetry_equiv_pos_as_xyz
  1  'x, y, z'
loop_
 _atom_site_type_symbol
 _atom_site_label
 _atom_site_symmetry_multiplicity
 _atom_site_fract_x
 _atom_site_fract_y
 _atom_site_fract_z
 _atom_site_occupancy
  Nd  Nd0  1  0.750304  0.250304  0.246103  1
  Nd  Nd1  1  0.249948  0.749948  0.245696  1
  Nd  Nd2  1  0.248650  0.748650  0.754146  1
  Nd  Nd3  1  0.751443  0.251443  0.754340  1
  Zn  Zn4  1  0.499924  0.999924  0.909894  1
  Ga  Ga5  1  0.252184  0.247848  0.187853  1
  Ga  Ga6  1  0.747848  0.752184  0.187853  1
  Ga  Ga7  1  0.745706  0.754674  0.813103  1
  Ga  Ga8  1  0.254674  0.245706  0.813103  1
  Ga  Ga9  1  0.250302  0.249535  0.346628  1
  Ga  Ga10  1  0.749535  0.750302  0.346628  1
  Ga  Ga11  1  0.750213  0.749487  0.654161  1
  Ga  Ga12  1  0.249487  0.250213  0.654161  1
  Ga  Ga13  1  0.000018  0.000053  0.910959  1
  Ga  Ga14  1  0.500053  0.500018  0.910959  1
  Ga  Ga15  1  0.999963  0.499963  0.909407  1
  Ga  Ga16  1  0.499826  0.999826  0.085602  1
  Ga  Ga17  1  0.999989  0.999975  0.089187  1
  Ga  Ga18  1  0.499975  0.499989  0.089187  1
  Ga  Ga19  1  0.999721  0.499721  0.090798  1
  Ga  Ga20  1  0.583662  0.083662  0.431537  1
  Ga  Ga21  1  0.083847  0.916073  0.431253  1
  Ga  Ga22  1  0.416073  0.583847  0.431253  1
  Ga  Ga23  1  0.916625  0.416625  0.431284  1
  Ga  Ga24  1  0.419207  0.919207  0.568327  1
  Ga  Ga25  1  0.919432  0.080208  0.568244  1
  Ga  Ga26  1  0.580208  0.419432  0.568244  1
  Ga  Ga27  1  0.081489  0.581489  0.567928  1
  Pt  Pt28  1  0.754431  0.254431  0.001091  1
  Pt  Pt29  1  0.245264  0.745264  0.001070  1
