# generated using pymatgen
data_Tb6DyPI12
_symmetry_space_group_name_H-M   'P 1'
_cell_length_a   9.70001212
_cell_length_b   9.70001323
_cell_length_c   9.70001278
_cell_angle_alpha   107.97874443
_cell_angle_beta   107.97874292
_cell_angle_gamma   107.97874756
_symmetry_Int_Tables_number   1
_chemical_formula_structural   Tb6DyPI12
_chemical_formula_sum   'Tb6 Dy1 P1 I12'
_cell_volume   738.85340668
_cell_formula_units_Z   1
loop_
 _symmetry_equiv_pos_site_id
 _symmetry_equiv_pos_as_xyz
  1  'x, y, z'
loop_
 _atom_site_type_symbol
 _atom_site_label
 _atom_site_symmetry_multiplicity
 _atom_site_fract_x
 _atom_site_fract_y
 _atom_site_fract_z
 _atom_site_occupancy
  Tb  Tb0  1  0.030295  0.100045  0.302422  1
  Tb  Tb1  1  0.100045  0.302422  0.030295  1
  Tb  Tb2  1  0.302422  0.030295  0.100045  1
  Tb  Tb3  1  0.969705  0.899955  0.697578  1
  Tb  Tb4  1  0.899955  0.697578  0.969705  1
  Tb  Tb5  1  0.697578  0.969705  0.899955  1
  Dy  Dy6  1  0.500000  0.500000  0.500000  1
  P  P7  1  0.000000  0.000000  0.000000  1
  I  I8  1  0.154061  0.466873  0.386093  1
  I  I9  1  0.466873  0.386093  0.154061  1
  I  I10  1  0.386093  0.154061  0.466873  1
  I  I11  1  0.845939  0.533127  0.613907  1
  I  I12  1  0.533127  0.613907  0.845939  1
  I  I13  1  0.613907  0.845939  0.533127  1
  I  I14  1  0.686660  0.075636  0.228512  1
  I  I15  1  0.075636  0.228512  0.686660  1
  I  I16  1  0.228512  0.686660  0.075636  1
  I  I17  1  0.313340  0.924364  0.771488  1
  I  I18  1  0.924364  0.771488  0.313340  1
  I  I19  1  0.771488  0.313340  0.924364  1
