# generated using pymatgen
data_Hf5AlGaSb2
_symmetry_space_group_name_H-M   'P 1'
_cell_length_a   8.53545084
_cell_length_b   8.53545174
_cell_length_c   5.77580800
_cell_angle_alpha   90.00000000
_cell_angle_beta   90.00000000
_cell_angle_gamma   119.68882222
_symmetry_Int_Tables_number   1
_chemical_formula_structural   Hf5AlGaSb2
_chemical_formula_sum   'Hf10 Al2 Ga2 Sb4'
_cell_volume   365.55238555
_cell_formula_units_Z   2
loop_
 _symmetry_equiv_pos_site_id
 _symmetry_equiv_pos_as_xyz
  1  'x, y, z'
loop_
 _atom_site_type_symbol
 _atom_site_label
 _atom_site_symmetry_multiplicity
 _atom_site_fract_x
 _atom_site_fract_y
 _atom_site_fract_z
 _atom_site_occupancy
  Hf  Hf0  1  0.735070  0.735070  0.750000  1
  Hf  Hf1  1  0.263516  0.998749  0.750000  1
  Hf  Hf2  1  0.998749  0.263516  0.750000  1
  Hf  Hf3  1  0.271937  0.271937  0.250000  1
  Hf  Hf4  1  0.727878  0.011226  0.250000  1
  Hf  Hf5  1  0.011226  0.727878  0.250000  1
  Hf  Hf6  1  0.667595  0.329038  0.005394  1
  Hf  Hf7  1  0.329038  0.667595  0.005394  1
  Hf  Hf8  1  0.329038  0.667595  0.494606  1
  Hf  Hf9  1  0.667595  0.329038  0.494606  1
  Al  Al10  1  0.387141  0.001652  0.250000  1
  Al  Al11  1  0.001652  0.387141  0.250000  1
  Ga  Ga12  1  0.999807  0.999807  0.013296  1
  Ga  Ga13  1  0.999807  0.999807  0.486704  1
  Sb  Sb14  1  0.390674  0.390674  0.750000  1
  Sb  Sb15  1  0.604581  0.997967  0.750000  1
  Sb  Sb16  1  0.997967  0.604581  0.750000  1
  Sb  Sb17  1  0.616727  0.616727  0.250000  1
