# generated using pymatgen
data_Er6Zn21PAu2
_symmetry_space_group_name_H-M   'P 1'
_cell_length_a   8.99235984
_cell_length_b   9.02968337
_cell_length_c   9.02943084
_cell_angle_alpha   59.81051826
_cell_angle_beta   60.14032324
_cell_angle_gamma   60.14071175
_symmetry_Int_Tables_number   1
_chemical_formula_structural   Er6Zn21PAu2
_chemical_formula_sum   'Er6 Zn21 P1 Au2'
_cell_volume   518.77893705
_cell_formula_units_Z   1
loop_
 _symmetry_equiv_pos_site_id
 _symmetry_equiv_pos_as_xyz
  1  'x, y, z'
loop_
 _atom_site_type_symbol
 _atom_site_label
 _atom_site_symmetry_multiplicity
 _atom_site_fract_x
 _atom_site_fract_y
 _atom_site_fract_z
 _atom_site_occupancy
  Er  Er0  1  0.712008  0.287991  0.288010  1
  Er  Er1  1  0.712266  0.288977  0.710980  1
  Er  Er2  1  0.712266  0.711002  0.288978  1
  Er  Er3  1  0.287992  0.712009  0.711990  1
  Er  Er4  1  0.287734  0.711023  0.289020  1
  Er  Er5  1  0.287734  0.288998  0.711022  1
  Zn  Zn6  1  0.625465  0.125826  0.125835  1
  Zn  Zn7  1  0.125321  0.624840  0.124504  1
  Zn  Zn8  1  0.125327  0.124500  0.624846  1
  Zn  Zn9  1  0.122882  0.125831  0.125836  1
  Zn  Zn10  1  0.374535  0.874174  0.874165  1
  Zn  Zn11  1  0.874679  0.375160  0.875496  1
  Zn  Zn12  1  0.874673  0.875500  0.375154  1
  Zn  Zn13  1  0.877118  0.874169  0.874164  1
  Zn  Zn14  1  0.500000  0.000000  0.500000  1
  Zn  Zn15  1  0.500000  0.500000  0.000000  1
  Zn  Zn16  1  0.000000  0.500000  0.500000  1
  Zn  Zn17  1  0.000000  0.500000  0.000000  1
  Zn  Zn18  1  0.000000  0.000000  0.500000  1
  Zn  Zn19  1  0.007297  0.331241  0.331232  1
  Zn  Zn20  1  0.328677  0.007482  0.335141  1
  Zn  Zn21  1  0.328683  0.335135  0.007485  1
  Zn  Zn22  1  0.330227  0.331240  0.331242  1
  Zn  Zn23  1  0.992703  0.668759  0.668768  1
  Zn  Zn24  1  0.671323  0.992518  0.664859  1
  Zn  Zn25  1  0.671317  0.664865  0.992515  1
  Zn  Zn26  1  0.669773  0.668760  0.668758  1
  P  P27  1  0.500000  0.500000  0.500000  1
  Au  Au28  1  0.500000  0.000000  0.000000  1
  Au  Au29  1  0.000000  0.000000  0.000000  1
