# generated using pymatgen
data_Ti4MnBe2B4Ir9
_symmetry_space_group_name_H-M   'P 1'
_cell_length_a   9.10627975
_cell_length_b   9.10627975
_cell_length_c   2.91734800
_cell_angle_alpha   90.00000000
_cell_angle_beta   90.00000000
_cell_angle_gamma   89.66140733
_symmetry_Int_Tables_number   1
_chemical_formula_structural   Ti4MnBe2B4Ir9
_chemical_formula_sum   'Ti4 Mn1 Be2 B4 Ir9'
_cell_volume   241.91490673
_cell_formula_units_Z   1
loop_
 _symmetry_equiv_pos_site_id
 _symmetry_equiv_pos_as_xyz
  1  'x, y, z'
loop_
 _atom_site_type_symbol
 _atom_site_label
 _atom_site_symmetry_multiplicity
 _atom_site_fract_x
 _atom_site_fract_y
 _atom_site_fract_z
 _atom_site_occupancy
  Ti  Ti0  1  0.334295  0.165705  0.000000  1
  Ti  Ti1  1  0.820649  0.320649  0.000000  1
  Ti  Ti2  1  0.179351  0.679351  0.000000  1
  Ti  Ti3  1  0.665705  0.834295  0.000000  1
  Mn  Mn4  1  0.500000  0.000000  0.499999  1
  Be  Be5  1  0.000000  0.000000  0.000000  1
  Be  Be6  1  0.500000  0.500000  0.000000  1
  B  B7  1  0.616925  0.116925  0.000000  1
  B  B8  1  0.132100  0.367900  0.000000  1
  B  B9  1  0.867899  0.632100  0.000000  1
  B  B10  1  0.383075  0.883074  0.000000  1
  Ir  Ir11  1  0.788812  0.067568  0.499999  1
  Ir  Ir12  1  0.069486  0.205931  0.499999  1
  Ir  Ir13  1  0.567567  0.288812  0.499999  1
  Ir  Ir14  1  0.294069  0.430515  0.499999  1
  Ir  Ir15  1  0.000000  0.500000  0.499999  1
  Ir  Ir16  1  0.705930  0.569485  0.499999  1
  Ir  Ir17  1  0.432433  0.711187  0.499999  1
  Ir  Ir18  1  0.930514  0.794069  0.499999  1
  Ir  Ir19  1  0.211188  0.932432  0.499999  1
