# generated using pymatgen
data_DyY6Er13(Cd3Ru)2
_symmetry_space_group_name_H-M   'P 1'
_cell_length_a   9.55595405
_cell_length_b   9.55595333
_cell_length_c   9.77503402
_cell_angle_alpha   89.99354504
_cell_angle_beta   90.00645557
_cell_angle_gamma   120.01022050
_symmetry_Int_Tables_number   1
_chemical_formula_structural   DyY6Er13(Cd3Ru)2
_chemical_formula_sum   'Dy1 Y6 Er13 Cd6 Ru2'
_cell_volume   772.95149569
_cell_formula_units_Z   1
loop_
 _symmetry_equiv_pos_site_id
 _symmetry_equiv_pos_as_xyz
  1  'x, y, z'
loop_
 _atom_site_type_symbol
 _atom_site_label
 _atom_site_symmetry_multiplicity
 _atom_site_fract_x
 _atom_site_fract_y
 _atom_site_fract_z
 _atom_site_occupancy
  Dy  Dy0  1  0.209747  0.790253  0.439945  1
  Y  Y1  1  0.540790  0.459210  0.250017  1
  Y  Y2  1  0.541021  0.081845  0.249871  1
  Y  Y3  1  0.918155  0.458979  0.249871  1
  Y  Y4  1  0.459151  0.540849  0.750021  1
  Y  Y5  1  0.459307  0.918383  0.750140  1
  Y  Y6  1  0.081617  0.540693  0.750140  1
  Er  Er7  1  0.999906  0.000094  0.500062  1
  Er  Er8  1  0.999994  0.000006  0.000048  1
  Er  Er9  1  0.209814  0.419403  0.439988  1
  Er  Er10  1  0.580597  0.790186  0.439988  1
  Er  Er11  1  0.790139  0.209861  0.560068  1
  Er  Er12  1  0.789986  0.580212  0.560101  1
  Er  Er13  1  0.419788  0.210014  0.560101  1
  Er  Er14  1  0.790163  0.209837  0.939926  1
  Er  Er15  1  0.790147  0.580289  0.939969  1
  Er  Er16  1  0.419711  0.209853  0.939969  1
  Er  Er17  1  0.209790  0.790210  0.059863  1
  Er  Er18  1  0.209905  0.419707  0.060034  1
  Er  Er19  1  0.580293  0.790095  0.060034  1
  Cd  Cd20  1  0.885648  0.114352  0.249996  1
  Cd  Cd21  1  0.885592  0.771297  0.249949  1
  Cd  Cd22  1  0.228703  0.114408  0.249949  1
  Cd  Cd23  1  0.114310  0.885690  0.750106  1
  Cd  Cd24  1  0.114340  0.228722  0.750030  1
  Cd  Cd25  1  0.771278  0.885660  0.750030  1
  Ru  Ru26  1  0.333430  0.666570  0.249819  1
  Ru  Ru27  1  0.666678  0.333322  0.749970  1
