# generated using pymatgen
data_Dy5Y4ErRu4
_symmetry_space_group_name_H-M   'P 1'
_cell_length_a   6.34368892
_cell_length_b   7.29816652
_cell_length_c   8.47891517
_cell_angle_alpha   96.73057753
_cell_angle_beta   111.96783795
_cell_angle_gamma   90.00000130
_symmetry_Int_Tables_number   1
_chemical_formula_structural   Dy5Y4ErRu4
_chemical_formula_sum   'Dy5 Y4 Er1 Ru4'
_cell_volume   361.13049227
_cell_formula_units_Z   1
loop_
 _symmetry_equiv_pos_site_id
 _symmetry_equiv_pos_as_xyz
  1  'x, y, z'
loop_
 _atom_site_type_symbol
 _atom_site_label
 _atom_site_symmetry_multiplicity
 _atom_site_fract_x
 _atom_site_fract_y
 _atom_site_fract_z
 _atom_site_occupancy
  Dy  Dy0  1  0.204924  0.684924  0.565284  1
  Dy  Dy1  1  0.639640  0.815076  0.434716  1
  Dy  Dy2  1  0.795036  0.315002  0.434513  1
  Dy  Dy3  1  0.360523  0.184998  0.565487  1
  Dy  Dy4  1  0.419694  0.750000  0.000000  1
  Y  Y5  1  0.790078  0.583673  0.812857  1
  Y  Y6  1  0.977221  0.916327  0.187143  1
  Y  Y7  1  0.209744  0.416042  0.187091  1
  Y  Y8  1  0.022653  0.083958  0.812909  1
  Er  Er9  1  0.579898  0.250000  0.000000  1
  Ru  Ru10  1  0.599165  0.924917  0.778896  1
  Ru  Ru11  1  0.820268  0.575083  0.221104  1
  Ru  Ru12  1  0.401152  0.075620  0.221149  1
  Ru  Ru13  1  0.180004  0.424380  0.778851  1
