# generated using pymatgen
data_Er10In8CuPt3
_symmetry_space_group_name_H-M   'P 1'
_cell_length_a   3.59786700
_cell_length_b   8.09108030
_cell_length_c   18.09650828
_cell_angle_alpha   89.96786492
_cell_angle_beta   90.00000000
_cell_angle_gamma   90.00000000
_symmetry_Int_Tables_number   1
_chemical_formula_structural   Er10In8CuPt3
_chemical_formula_sum   'Er10 In8 Cu1 Pt3'
_cell_volume   526.80068868
_cell_formula_units_Z   1
loop_
 _symmetry_equiv_pos_site_id
 _symmetry_equiv_pos_as_xyz
  1  'x, y, z'
loop_
 _atom_site_type_symbol
 _atom_site_label
 _atom_site_symmetry_multiplicity
 _atom_site_fract_x
 _atom_site_fract_y
 _atom_site_fract_z
 _atom_site_occupancy
  Er  Er0  1  0.000000  0.117511  0.414843  1
  Er  Er1  1  0.000000  0.884420  0.584151  1
  Er  Er2  1  0.000000  0.384145  0.915629  1
  Er  Er3  1  0.000000  0.617337  0.084748  1
  Er  Er4  1  0.000000  0.246385  0.220015  1
  Er  Er5  1  0.000000  0.757000  0.779590  1
  Er  Er6  1  0.000000  0.257169  0.720418  1
  Er  Er7  1  0.000000  0.735703  0.280222  1
  Er  Er8  1  0.000000  0.999115  0.000415  1
  Er  Er9  1  0.000000  0.499287  0.499465  1
  In  In10  1  0.500000  0.419454  0.352127  1
  In  In11  1  0.500000  0.577608  0.647769  1
  In  In12  1  0.500000  0.076937  0.851794  1
  In  In13  1  0.500000  0.924992  0.151383  1
  In  In14  1  0.500000  0.291771  0.066913  1
  In  In15  1  0.500000  0.708874  0.933682  1
  In  In16  1  0.500000  0.208958  0.566096  1
  In  In17  1  0.500000  0.793707  0.431632  1
  Cu  Cu18  1  0.500000  0.023935  0.302113  1
  Pt  Pt19  1  0.500000  0.974898  0.695922  1
  Pt  Pt20  1  0.500000  0.474901  0.803604  1
  Pt  Pt21  1  0.500000  0.525895  0.197467  1
