# generated using pymatgen
data_Lu11ScRe2(Si6Ru)2
_symmetry_space_group_name_H-M   'P 1'
_cell_length_a   4.08529000
_cell_length_b   10.66745173
_cell_length_c   12.11710301
_cell_angle_alpha   89.92038443
_cell_angle_beta   90.00000000
_cell_angle_gamma   90.00000000
_symmetry_Int_Tables_number   1
_chemical_formula_structural   Lu11ScRe2(Si6Ru)2
_chemical_formula_sum   'Lu11 Sc1 Re2 Si12 Ru2'
_cell_volume   528.05840295
_cell_formula_units_Z   1
loop_
 _symmetry_equiv_pos_site_id
 _symmetry_equiv_pos_as_xyz
  1  'x, y, z'
loop_
 _atom_site_type_symbol
 _atom_site_label
 _atom_site_symmetry_multiplicity
 _atom_site_fract_x
 _atom_site_fract_y
 _atom_site_fract_z
 _atom_site_occupancy
  Lu  Lu0  1  0.250000  0.878988  0.018845  1
  Lu  Lu1  1  0.250000  0.621461  0.519559  1
  Lu  Lu2  1  0.750000  0.120895  0.979865  1
  Lu  Lu3  1  0.750000  0.377426  0.483621  1
  Lu  Lu4  1  0.250000  0.923699  0.604845  1
  Lu  Lu5  1  0.250000  0.577644  0.104241  1
  Lu  Lu6  1  0.750000  0.076960  0.394853  1
  Lu  Lu7  1  0.750000  0.421481  0.892389  1
  Lu  Lu8  1  0.250000  0.664049  0.798949  1
  Lu  Lu9  1  0.250000  0.836724  0.299237  1
  Lu  Lu10  1  0.750000  0.337359  0.200822  1
  Sc  Sc11  1  0.750000  0.160593  0.702285  1
  Re  Re12  1  0.250000  0.390316  0.679323  1
  Re  Re13  1  0.250000  0.110760  0.179942  1
  Si  Si14  1  0.250000  0.016052  0.820293  1
  Si  Si15  1  0.250000  0.485081  0.321838  1
  Si  Si16  1  0.750000  0.984621  0.178595  1
  Si  Si17  1  0.750000  0.517133  0.678836  1
  Si  Si18  1  0.250000  0.247587  0.840598  1
  Si  Si19  1  0.250000  0.250113  0.346329  1
  Si  Si20  1  0.750000  0.748952  0.156850  1
  Si  Si21  1  0.750000  0.751811  0.656632  1
  Si  Si22  1  0.250000  0.196742  0.548864  1
  Si  Si23  1  0.250000  0.301689  0.041624  1
  Si  Si24  1  0.750000  0.801913  0.456500  1
  Si  Si25  1  0.750000  0.698431  0.956116  1
  Ru  Ru26  1  0.750000  0.610506  0.319821  1
  Ru  Ru27  1  0.750000  0.891010  0.818326  1
