# generated using pymatgen
data_Ca9Er(Sn3H)2
_symmetry_space_group_name_H-M   'P 1'
_cell_length_a   9.43380822
_cell_length_b   9.43380858
_cell_length_c   9.43380860
_cell_angle_alpha   128.88775990
_cell_angle_beta   128.88776757
_cell_angle_gamma   75.19123631
_symmetry_Int_Tables_number   1
_chemical_formula_structural   Ca9Er(Sn3H)2
_chemical_formula_sum   'Ca9 Er1 Sn6 H2'
_cell_volume   495.20015411
_cell_formula_units_Z   1
loop_
 _symmetry_equiv_pos_site_id
 _symmetry_equiv_pos_as_xyz
  1  'x, y, z'
loop_
 _atom_site_type_symbol
 _atom_site_label
 _atom_site_symmetry_multiplicity
 _atom_site_fract_x
 _atom_site_fract_y
 _atom_site_fract_z
 _atom_site_occupancy
  Ca  Ca0  1  0.000000  0.000000  0.000000  1
  Ca  Ca1  1  0.509579  0.009814  0.823245  1
  Ca  Ca2  1  0.186569  0.686335  0.176755  1
  Ca  Ca3  1  0.009814  0.186569  0.500235  1
  Ca  Ca4  1  0.686335  0.509579  0.499765  1
  Ca  Ca5  1  0.490421  0.990186  0.176755  1
  Ca  Ca6  1  0.813431  0.313665  0.823245  1
  Ca  Ca7  1  0.990186  0.813431  0.499765  1
  Ca  Ca8  1  0.313665  0.490421  0.500235  1
  Er  Er9  1  0.500000  0.500000  0.000000  1
  Sn  Sn10  1  0.251497  0.251497  0.000000  1
  Sn  Sn11  1  0.748503  0.748503  0.000000  1
  Sn  Sn12  1  0.866761  0.374583  0.241345  1
  Sn  Sn13  1  0.133239  0.625417  0.758655  1
  Sn  Sn14  1  0.374583  0.133239  0.507822  1
  Sn  Sn15  1  0.625417  0.866761  0.492178  1
  H  H16  1  0.250000  0.750000  0.500000  1
  H  H17  1  0.750000  0.250000  0.500000  1
