# generated using pymatgen
data_Dy2TmIn3Rh2Pb
_symmetry_space_group_name_H-M   'P 1'
_cell_length_a   7.85912112
_cell_length_b   7.84713406
_cell_length_c   3.89534400
_cell_angle_alpha   90.00000000
_cell_angle_beta   90.00000000
_cell_angle_gamma   120.11167537
_symmetry_Int_Tables_number   1
_chemical_formula_structural   Dy2TmIn3Rh2Pb
_chemical_formula_sum   'Dy2 Tm1 In3 Rh2 Pb1'
_cell_volume   207.81250772
_cell_formula_units_Z   1
loop_
 _symmetry_equiv_pos_site_id
 _symmetry_equiv_pos_as_xyz
  1  'x, y, z'
loop_
 _atom_site_type_symbol
 _atom_site_label
 _atom_site_symmetry_multiplicity
 _atom_site_fract_x
 _atom_site_fract_y
 _atom_site_fract_z
 _atom_site_occupancy
  Dy  Dy0  1  0.966683  0.386122  0.500000  1
  Dy  Dy1  1  0.613123  0.580111  0.500000  1
  Tm  Tm2  1  0.420312  0.035898  0.500000  1
  In  In3  1  0.257443  0.243828  0.000000  1
  In  In4  1  0.988094  0.743640  0.000000  1
  In  In5  1  0.755221  0.011804  0.000000  1
  Rh  Rh6  1  0.001249  0.000178  0.500000  1
  Rh  Rh7  1  0.664249  0.330323  0.000000  1
  Pb  Pb8  1  0.333624  0.668096  0.000000  1
