# generated using pymatgen
data_Nb8CdOsS16
_symmetry_space_group_name_H-M   'P 1'
_cell_length_a   6.65594800
_cell_length_b   6.65594882
_cell_length_c   12.60860600
_cell_angle_alpha   90.00000000
_cell_angle_beta   90.00000000
_cell_angle_gamma   119.99999593
_symmetry_Int_Tables_number   1
_chemical_formula_structural   Nb8CdOsS16
_chemical_formula_sum   'Nb8 Cd1 Os1 S16'
_cell_volume   483.74625683
_cell_formula_units_Z   1
loop_
 _symmetry_equiv_pos_site_id
 _symmetry_equiv_pos_as_xyz
  1  'x, y, z'
loop_
 _atom_site_type_symbol
 _atom_site_label
 _atom_site_symmetry_multiplicity
 _atom_site_fract_x
 _atom_site_fract_y
 _atom_site_fract_z
 _atom_site_occupancy
  Nb  Nb0  1  0.000000  0.000000  0.236146  1
  Nb  Nb1  1  0.000000  0.000000  0.763854  1
  Nb  Nb2  1  0.505707  0.011415  0.232497  1
  Nb  Nb3  1  0.988585  0.494293  0.232497  1
  Nb  Nb4  1  0.505707  0.494293  0.232497  1
  Nb  Nb5  1  0.494293  0.988585  0.767503  1
  Nb  Nb6  1  0.011415  0.505707  0.767503  1
  Nb  Nb7  1  0.494293  0.505707  0.767503  1
  Cd  Cd8  1  0.000000  0.000000  0.500000  1
  Os  Os9  1  0.000000  0.000000  0.000000  1
  S  S10  1  0.333333  0.666667  0.895331  1
  S  S11  1  0.666667  0.333333  0.104669  1
  S  S12  1  0.666667  0.333333  0.361065  1
  S  S13  1  0.333333  0.666667  0.638935  1
  S  S14  1  0.170874  0.829126  0.358322  1
  S  S15  1  0.170874  0.341748  0.358322  1
  S  S16  1  0.658252  0.829126  0.358322  1
  S  S17  1  0.829126  0.170874  0.641678  1
  S  S18  1  0.829126  0.658252  0.641678  1
  S  S19  1  0.341748  0.170874  0.641678  1
  S  S20  1  0.834165  0.165835  0.888875  1
  S  S21  1  0.834165  0.668330  0.888875  1
  S  S22  1  0.331670  0.165835  0.888875  1
  S  S23  1  0.165835  0.834165  0.111125  1
  S  S24  1  0.165835  0.331670  0.111125  1
  S  S25  1  0.668330  0.834165  0.111125  1
