# generated using pymatgen
data_Ca2AlAg6
_symmetry_space_group_name_H-M   'P 1'
_cell_length_a   5.50441927
_cell_length_b   5.50441970
_cell_length_c   13.77269700
_cell_angle_alpha   90.00000000
_cell_angle_beta   90.00000000
_cell_angle_gamma   116.43651402
_symmetry_Int_Tables_number   1
_chemical_formula_structural   Ca2AlAg6
_chemical_formula_sum   'Ca4 Al2 Ag12'
_cell_volume   373.65673622
_cell_formula_units_Z   2
loop_
 _symmetry_equiv_pos_site_id
 _symmetry_equiv_pos_as_xyz
  1  'x, y, z'
loop_
 _atom_site_type_symbol
 _atom_site_label
 _atom_site_symmetry_multiplicity
 _atom_site_fract_x
 _atom_site_fract_y
 _atom_site_fract_z
 _atom_site_occupancy
  Ca  Ca0  1  0.321910  0.321910  0.116304  1
  Ca  Ca1  1  0.678090  0.678090  0.616304  1
  Ca  Ca2  1  0.321910  0.321910  0.383696  1
  Ca  Ca3  1  0.678090  0.678090  0.883696  1
  Al  Al4  1  0.828362  0.828362  0.250000  1
  Al  Al5  1  0.171638  0.171638  0.750000  1
  Ag  Ag6  1  0.828860  0.332180  0.250000  1
  Ag  Ag7  1  0.171140  0.667820  0.750000  1
  Ag  Ag8  1  0.332180  0.828860  0.250000  1
  Ag  Ag9  1  0.667820  0.171140  0.750000  1
  Ag  Ag10  1  0.991773  0.669857  0.077615  1
  Ag  Ag11  1  0.008227  0.330143  0.577615  1
  Ag  Ag12  1  0.669857  0.991773  0.422385  1
  Ag  Ag13  1  0.330143  0.008227  0.922385  1
  Ag  Ag14  1  0.008227  0.330143  0.922385  1
  Ag  Ag15  1  0.991773  0.669857  0.422385  1
  Ag  Ag16  1  0.330143  0.008227  0.577615  1
  Ag  Ag17  1  0.669857  0.991773  0.077615  1
