# generated using pymatgen
data_Ho4CrOsC4
_symmetry_space_group_name_H-M   'P 1'
_cell_length_a   5.03410700
_cell_length_b   6.45955788
_cell_length_c   9.74855338
_cell_angle_alpha   90.20197015
_cell_angle_beta   90.00000000
_cell_angle_gamma   90.00000000
_symmetry_Int_Tables_number   1
_chemical_formula_structural   Ho4CrOsC4
_chemical_formula_sum   'Ho8 Cr2 Os2 C8'
_cell_volume   317.00251798
_cell_formula_units_Z   2
loop_
 _symmetry_equiv_pos_site_id
 _symmetry_equiv_pos_as_xyz
  1  'x, y, z'
loop_
 _atom_site_type_symbol
 _atom_site_label
 _atom_site_symmetry_multiplicity
 _atom_site_fract_x
 _atom_site_fract_y
 _atom_site_fract_z
 _atom_site_occupancy
  Ho  Ho0  1  0.250000  0.681873  0.558517  1
  Ho  Ho1  1  0.750000  0.318127  0.441483  1
  Ho  Ho2  1  0.750000  0.822193  0.054312  1
  Ho  Ho3  1  0.250000  0.177807  0.945688  1
  Ho  Ho4  1  0.250000  0.531534  0.215659  1
  Ho  Ho5  1  0.750000  0.468466  0.784341  1
  Ho  Ho6  1  0.750000  0.971709  0.715988  1
  Ho  Ho7  1  0.250000  0.028291  0.284012  1
  Cr  Cr8  1  0.250000  0.724213  0.862124  1
  Cr  Cr9  1  0.750000  0.275787  0.137876  1
  Os  Os10  1  0.750000  0.776812  0.362698  1
  Os  Os11  1  0.250000  0.223188  0.637302  1
  C  C12  1  0.250000  0.462800  0.763824  1
  C  C13  1  0.750000  0.537200  0.236176  1
  C  C14  1  0.750000  0.047429  0.255673  1
  C  C15  1  0.250000  0.952571  0.744327  1
  C  C16  1  0.250000  0.813748  0.040044  1
  C  C17  1  0.750000  0.186252  0.959956  1
  C  C18  1  0.750000  0.678218  0.548603  1
  C  C19  1  0.250000  0.321782  0.451397  1
