# generated using pymatgen
data_Dy15Y5(Bi2Sb)4
_symmetry_space_group_name_H-M   'P 1'
_cell_length_a   8.19636204
_cell_length_b   9.47596700
_cell_length_c   12.02968706
_cell_angle_alpha   90.00000000
_cell_angle_beta   89.98851687
_cell_angle_gamma   90.00000000
_symmetry_Int_Tables_number   1
_chemical_formula_structural   Dy15Y5(Bi2Sb)4
_chemical_formula_sum   'Dy15 Y5 Bi8 Sb4'
_cell_volume   934.32720405
_cell_formula_units_Z   1
loop_
 _symmetry_equiv_pos_site_id
 _symmetry_equiv_pos_as_xyz
  1  'x, y, z'
loop_
 _atom_site_type_symbol
 _atom_site_label
 _atom_site_symmetry_multiplicity
 _atom_site_fract_x
 _atom_site_fract_y
 _atom_site_fract_z
 _atom_site_occupancy
  Dy  Dy0  1  0.029233  0.750000  0.988192  1
  Dy  Dy1  1  0.529191  0.750000  0.511789  1
  Dy  Dy2  1  0.970721  0.250000  0.011700  1
  Dy  Dy3  1  0.470934  0.250000  0.488412  1
  Dy  Dy4  1  0.183475  0.750000  0.718287  1
  Dy  Dy5  1  0.683482  0.750000  0.781723  1
  Dy  Dy6  1  0.816520  0.250000  0.281750  1
  Dy  Dy7  1  0.309725  0.438564  0.941287  1
  Dy  Dy8  1  0.809713  0.061463  0.558619  1
  Dy  Dy9  1  0.690277  0.938596  0.058607  1
  Dy  Dy10  1  0.190261  0.561420  0.441399  1
  Dy  Dy11  1  0.690277  0.561404  0.058607  1
  Dy  Dy12  1  0.190261  0.938580  0.441399  1
  Dy  Dy13  1  0.309725  0.061436  0.941287  1
  Dy  Dy14  1  0.809713  0.438537  0.558619  1
  Y  Y15  1  0.316552  0.250000  0.218363  1
  Y  Y16  1  0.354010  0.750000  0.212815  1
  Y  Y17  1  0.854001  0.750000  0.287180  1
  Y  Y18  1  0.646000  0.250000  0.787155  1
  Y  Y19  1  0.145974  0.250000  0.712827  1
  Bi  Bi20  1  0.433521  0.003674  0.673893  1
  Bi  Bi21  1  0.933508  0.496320  0.826111  1
  Bi  Bi22  1  0.566542  0.503705  0.326171  1
  Bi  Bi23  1  0.066403  0.996264  0.173845  1
  Bi  Bi24  1  0.566542  0.996295  0.326171  1
  Bi  Bi25  1  0.066403  0.503736  0.173845  1
  Bi  Bi26  1  0.433521  0.496326  0.673893  1
  Bi  Bi27  1  0.933508  0.003680  0.826111  1
  Sb  Sb28  1  0.410207  0.750000  0.959021  1
  Sb  Sb29  1  0.910206  0.750000  0.540982  1
  Sb  Sb30  1  0.589814  0.250000  0.040874  1
  Sb  Sb31  1  0.089782  0.250000  0.459065  1
