# generated using pymatgen
data_Ho3Al3GePd2
_symmetry_space_group_name_H-M   'P 1'
_cell_length_a   7.05176000
_cell_length_b   7.05176011
_cell_length_c   4.16475500
_cell_angle_alpha   90.00000000
_cell_angle_beta   90.00000000
_cell_angle_gamma   119.99999013
_symmetry_Int_Tables_number   1
_chemical_formula_structural   Ho3Al3GePd2
_chemical_formula_sum   'Ho3 Al3 Ge1 Pd2'
_cell_volume   179.35570103
_cell_formula_units_Z   1
loop_
 _symmetry_equiv_pos_site_id
 _symmetry_equiv_pos_as_xyz
  1  'x, y, z'
loop_
 _atom_site_type_symbol
 _atom_site_label
 _atom_site_symmetry_multiplicity
 _atom_site_fract_x
 _atom_site_fract_y
 _atom_site_fract_z
 _atom_site_occupancy
  Ho  Ho0  1  0.420138  0.003652  0.500000  1
  Ho  Ho1  1  0.996348  0.416485  0.500000  1
  Ho  Ho2  1  0.583515  0.579862  0.500000  1
  Al  Al3  1  0.769497  0.014674  0.000000  1
  Al  Al4  1  0.985326  0.754823  0.000000  1
  Al  Al5  1  0.245177  0.230503  0.000000  1
  Ge  Ge6  1  0.333333  0.666667  0.000000  1
  Pd  Pd7  1  0.666667  0.333333  0.000000  1
  Pd  Pd8  1  0.000000  0.000000  0.500000  1
