# generated using pymatgen
data_PuHS
_symmetry_space_group_name_H-M   'P 1'
_cell_length_a   3.84929800
_cell_length_b   3.84929726
_cell_length_c   7.10846100
_cell_angle_alpha   90.00000000
_cell_angle_beta   90.00000000
_cell_angle_gamma   120.00000636
_symmetry_Int_Tables_number   1
_chemical_formula_structural   PuHS
_chemical_formula_sum   'Pu2 H2 S2'
_cell_volume   91.21561140
_cell_formula_units_Z   2
loop_
 _symmetry_equiv_pos_site_id
 _symmetry_equiv_pos_as_xyz
  1  'x, y, z'
loop_
 _atom_site_type_symbol
 _atom_site_label
 _atom_site_symmetry_multiplicity
 _atom_site_fract_x
 _atom_site_fract_y
 _atom_site_fract_z
 _atom_site_occupancy
  Pu  Pu0  1  0.333333  0.666667  0.250000  1
  Pu  Pu1  1  0.666667  0.333333  0.750000  1
  H  H2  1  0.333333  0.666667  0.750000  1
  H  H3  1  0.666667  0.333333  0.250000  1
  S  S4  1  0.000000  0.000000  0.000000  1
  S  S5  1  0.000000  0.000000  0.500000  1
