# generated using pymatgen
data_Zn2Cu(Ni10B3)2
_symmetry_space_group_name_H-M   'P 1'
_cell_length_a   7.40028182
_cell_length_b   7.40028192
_cell_length_c   7.40028200
_cell_angle_alpha   59.99999966
_cell_angle_beta   59.99999920
_cell_angle_gamma   60.00000251
_symmetry_Int_Tables_number   1
_chemical_formula_structural   Zn2Cu(Ni10B3)2
_chemical_formula_sum   'Zn2 Cu1 Ni20 B6'
_cell_volume   286.56939072
_cell_formula_units_Z   1
loop_
 _symmetry_equiv_pos_site_id
 _symmetry_equiv_pos_as_xyz
  1  'x, y, z'
loop_
 _atom_site_type_symbol
 _atom_site_label
 _atom_site_symmetry_multiplicity
 _atom_site_fract_x
 _atom_site_fract_y
 _atom_site_fract_z
 _atom_site_occupancy
  Zn  Zn0  1  0.250000  0.250000  0.250000  1
  Zn  Zn1  1  0.750000  0.750000  0.750000  1
  Cu  Cu2  1  0.000000  0.000000  0.000000  1
  Ni  Ni3  1  0.383017  0.383017  0.383017  1
  Ni  Ni4  1  0.616983  0.616983  0.616983  1
  Ni  Ni5  1  0.383017  0.383017  0.850950  1
  Ni  Ni6  1  0.383017  0.850950  0.383017  1
  Ni  Ni7  1  0.616983  0.616983  0.149050  1
  Ni  Ni8  1  0.616983  0.149050  0.616983  1
  Ni  Ni9  1  0.850950  0.383017  0.383017  1
  Ni  Ni10  1  0.149050  0.616983  0.616983  1
  Ni  Ni11  1  0.337886  0.000000  0.000000  1
  Ni  Ni12  1  0.662114  0.000000  0.000000  1
  Ni  Ni13  1  0.000000  0.337886  0.662114  1
  Ni  Ni14  1  0.000000  0.662114  0.337886  1
  Ni  Ni15  1  0.000000  0.337886  0.000000  1
  Ni  Ni16  1  0.662114  0.000000  0.337886  1
  Ni  Ni17  1  0.000000  0.662114  0.000000  1
  Ni  Ni18  1  0.337886  0.000000  0.662114  1
  Ni  Ni19  1  0.000000  0.000000  0.337886  1
  Ni  Ni20  1  0.000000  0.000000  0.662114  1
  Ni  Ni21  1  0.662114  0.337886  0.000000  1
  Ni  Ni22  1  0.337886  0.662114  0.000000  1
  B  B23  1  0.726080  0.273920  0.273920  1
  B  B24  1  0.273920  0.726080  0.726080  1
  B  B25  1  0.273920  0.726080  0.273920  1
  B  B26  1  0.726080  0.273920  0.726080  1
  B  B27  1  0.273920  0.273920  0.726080  1
  B  B28  1  0.726080  0.726080  0.273920  1
