# generated using pymatgen
data_Tb5SmPa2(ReB6)4
_symmetry_space_group_name_H-M   'P 1'
_cell_length_a   3.72238100
_cell_length_b   9.22399551
_cell_length_c   11.59008400
_cell_angle_alpha   90.40035210
_cell_angle_beta   90.00000000
_cell_angle_gamma   90.00000000
_symmetry_Int_Tables_number   1
_chemical_formula_structural   Tb5SmPa2(ReB6)4
_chemical_formula_sum   'Tb5 Sm1 Pa2 Re4 B24'
_cell_volume   397.93843447
_cell_formula_units_Z   1
loop_
 _symmetry_equiv_pos_site_id
 _symmetry_equiv_pos_as_xyz
  1  'x, y, z'
loop_
 _atom_site_type_symbol
 _atom_site_label
 _atom_site_symmetry_multiplicity
 _atom_site_fract_x
 _atom_site_fract_y
 _atom_site_fract_z
 _atom_site_occupancy
  Tb  Tb0  1  0.000000  0.175408  0.913840  1
  Tb  Tb1  1  0.000000  0.945165  0.373510  1
  Tb  Tb2  1  0.000000  0.055038  0.626544  1
  Tb  Tb3  1  0.000000  0.443805  0.126687  1
  Tb  Tb4  1  0.000000  0.555775  0.873052  1
  Sm  Sm5  1  0.000000  0.824564  0.086333  1
  Pa  Pa6  1  0.000000  0.322678  0.412987  1
  Pa  Pa7  1  0.000000  0.677361  0.587190  1
  Re  Re8  1  0.000000  0.634244  0.326338  1
  Re  Re9  1  0.000000  0.365321  0.674072  1
  Re  Re10  1  0.000000  0.141561  0.182482  1
  Re  Re11  1  0.000000  0.859204  0.817236  1
  B  B12  1  0.500000  0.552863  0.433297  1
  B  B13  1  0.500000  0.446973  0.566901  1
  B  B14  1  0.500000  0.054426  0.068022  1
  B  B15  1  0.500000  0.946889  0.931278  1
  B  B16  1  0.500000  0.746501  0.420451  1
  B  B17  1  0.500000  0.253476  0.579832  1
  B  B18  1  0.500000  0.247417  0.080573  1
  B  B19  1  0.500000  0.752755  0.918246  1
  B  B20  1  0.500000  0.790414  0.267642  1
  B  B21  1  0.500000  0.209059  0.733140  1
  B  B22  1  0.500000  0.292352  0.233782  1
  B  B23  1  0.500000  0.707717  0.765941  1
  B  B24  1  0.500000  0.631175  0.187120  1
  B  B25  1  0.500000  0.367964  0.813420  1
  B  B26  1  0.500000  0.133859  0.313969  1
  B  B27  1  0.500000  0.866511  0.686086  1
  B  B28  1  0.500000  0.984370  0.213281  1
  B  B29  1  0.500000  0.016983  0.786959  1
  B  B30  1  0.500000  0.483084  0.287319  1
  B  B31  1  0.500000  0.516516  0.712823  1
  B  B32  1  0.500000  0.605184  0.029645  1
  B  B33  1  0.500000  0.393298  0.969922  1
  B  B34  1  0.500000  0.116598  0.467887  1
  B  B35  1  0.500000  0.883490  0.532193  1
