# generated using pymatgen
data_AcCd3P7N12
_symmetry_space_group_name_H-M   'P 1'
_cell_length_a   7.53070300
_cell_length_b   7.52924309
_cell_length_c   7.52924302
_cell_angle_alpha   109.46729011
_cell_angle_beta   109.47514457
_cell_angle_gamma   109.47515575
_symmetry_Int_Tables_number   1
_chemical_formula_structural   AcCd3P7N12
_chemical_formula_sum   'Ac1 Cd3 P7 N12'
_cell_volume   328.62091717
_cell_formula_units_Z   1
loop_
 _symmetry_equiv_pos_site_id
 _symmetry_equiv_pos_as_xyz
  1  'x, y, z'
loop_
 _atom_site_type_symbol
 _atom_site_label
 _atom_site_symmetry_multiplicity
 _atom_site_fract_x
 _atom_site_fract_y
 _atom_site_fract_z
 _atom_site_occupancy
  Ac  Ac0  1  0.666984  0.000000  0.000000  1
  Cd  Cd1  1  0.997027  0.000000  0.659670  1
  Cd  Cd2  1  0.997027  0.659670  0.000000  1
  Cd  Cd3  1  0.337356  0.340330  0.340330  1
  P  P4  1  0.242227  0.749091  0.493563  1
  P  P5  1  0.748664  0.255528  0.506437  1
  P  P6  1  0.748664  0.506437  0.255528  1
  P  P7  1  0.242227  0.493563  0.749091  1
  P  P8  1  0.493137  0.744472  0.250909  1
  P  P9  1  0.493137  0.250909  0.744472  1
  P  P10  1  0.054701  0.000000  0.000000  1
  N  N11  1  0.720767  0.309190  0.309190  1
  N  N12  1  0.282790  0.697040  0.285836  1
  N  N13  1  0.299568  0.597381  0.597381  1
  N  N14  1  0.585750  0.588796  0.302960  1
  N  N15  1  0.411576  0.690810  0.000000  1
  N  N16  1  0.996954  0.714164  0.411204  1
  N  N17  1  0.585750  0.302960  0.588796  1
  N  N18  1  0.702186  0.000000  0.402619  1
  N  N19  1  0.411576  0.000000  0.690810  1
  N  N20  1  0.702186  0.402619  0.000000  1
  N  N21  1  0.282790  0.285836  0.697040  1
  N  N22  1  0.996954  0.411204  0.714164  1
