# generated using pymatgen
data_Dy8HoLuIn6
_symmetry_space_group_name_H-M   'P 1'
_cell_length_a   6.02607511
_cell_length_b   9.15773482
_cell_length_c   9.15773422
_cell_angle_alpha   83.76711444
_cell_angle_beta   70.76648023
_cell_angle_gamma   70.76648864
_symmetry_Int_Tables_number   1
_chemical_formula_structural   Dy8HoLuIn6
_chemical_formula_sum   'Dy8 Ho1 Lu1 In6'
_cell_volume   450.53004735
_cell_formula_units_Z   1
loop_
 _symmetry_equiv_pos_site_id
 _symmetry_equiv_pos_as_xyz
  1  'x, y, z'
loop_
 _atom_site_type_symbol
 _atom_site_label
 _atom_site_symmetry_multiplicity
 _atom_site_fract_x
 _atom_site_fract_y
 _atom_site_fract_z
 _atom_site_occupancy
  Dy  Dy0  1  0.719223  0.862120  0.698631  1
  Dy  Dy1  1  0.280419  0.137888  0.301385  1
  Dy  Dy2  1  0.780777  0.301369  0.137880  1
  Dy  Dy3  1  0.219581  0.698615  0.862112  1
  Dy  Dy4  1  0.581058  0.698768  0.137903  1
  Dy  Dy5  1  0.419289  0.301210  0.862092  1
  Dy  Dy6  1  0.080711  0.137908  0.698790  1
  Dy  Dy7  1  0.918942  0.862097  0.301232  1
  Ho  Ho8  1  0.250000  0.500131  0.499869  1
  Lu  Lu9  1  0.750000  0.499937  0.500063  1
  In  In10  1  0.160893  0.499992  0.176845  1
  In  In11  1  0.838471  0.499973  0.823173  1
  In  In12  1  0.339107  0.823155  0.500008  1
  In  In13  1  0.661529  0.176827  0.500027  1
  In  In14  1  0.250000  0.999702  0.000298  1
  In  In15  1  0.750000  0.000308  0.999692  1
