# generated using pymatgen
data_Li30Si7S
_symmetry_space_group_name_H-M   'P 1'
_cell_length_a   9.14133886
_cell_length_b   9.14133841
_cell_length_c   9.16763600
_cell_angle_alpha   109.52950190
_cell_angle_beta   109.52950090
_cell_angle_gamma   109.41288168
_symmetry_Int_Tables_number   1
_chemical_formula_structural   Li30Si7S
_chemical_formula_sum   'Li30 Si7 S1'
_cell_volume   589.30776387
_cell_formula_units_Z   1
loop_
 _symmetry_equiv_pos_site_id
 _symmetry_equiv_pos_as_xyz
  1  'x, y, z'
loop_
 _atom_site_type_symbol
 _atom_site_label
 _atom_site_symmetry_multiplicity
 _atom_site_fract_x
 _atom_site_fract_y
 _atom_site_fract_z
 _atom_site_occupancy
  Li  Li0  1  0.339193  0.800587  0.734519  1
  Li  Li1  1  0.122022  0.753395  0.875485  1
  Li  Li2  1  0.715540  0.330291  0.804110  1
  Li  Li3  1  0.614751  0.784460  0.588571  1
  Li  Li4  1  0.025087  0.910260  0.685087  1
  Li  Li5  1  0.083775  0.272926  0.111403  1
  Li  Li6  1  0.910224  0.687160  0.022655  1
  Li  Li7  1  0.271435  0.113419  0.086906  1
  Li  Li8  1  0.189152  0.416225  0.527629  1
  Li  Li9  1  0.776935  0.589776  0.612431  1
  Li  Li10  1  0.699413  0.038606  0.933932  1
  Li  Li11  1  0.529148  0.192241  0.410458  1
  Li  Li12  1  0.631374  0.377978  0.253463  1
  Li  Li13  1  0.461394  0.160807  0.895326  1
  Li  Li14  1  0.894416  0.131699  0.759868  1
  Li  Li15  1  0.986476  0.397877  0.669075  1
  Li  Li16  1  0.411401  0.513524  0.182600  1
  Li  Li17  1  0.102123  0.088599  0.271198  1
  Li  Li18  1  0.307759  0.836908  0.218217  1
  Li  Li19  1  0.746605  0.868626  0.122089  1
  Li  Li20  1  0.885174  0.474913  0.160000  1
  Li  Li21  1  0.589740  0.614826  0.774826  1
  Li  Li22  1  0.386581  0.658016  0.973487  1
  Li  Li23  1  0.812840  0.723065  0.335495  1
  Li  Li24  1  0.663092  0.970852  0.381310  1
  Li  Li25  1  0.169709  0.885249  0.473820  1
  Li  Li26  1  0.227074  0.310848  0.838477  1
  Li  Li27  1  0.368301  0.262717  0.628168  1
  Li  Li28  1  0.841984  0.228565  0.315472  1
  Li  Li29  1  0.237283  0.605584  0.365451  1
  Si  Si30  1  0.584591  0.494467  0.994655  1
  Si  Si31  1  0.500000  0.000000  0.090214  1
  Si  Si32  1  0.001505  0.085041  0.501999  1
  Si  Si33  1  0.005533  0.590125  0.500187  1
  Si  Si34  1  0.083536  0.498495  0.000495  1
  Si  Si35  1  0.414959  0.416464  0.416959  1
  Si  Si36  1  0.909875  0.915409  0.910062  1
  S  S37  1  0.500000  0.000000  0.573900  1
