# generated using pymatgen
data_Dy3Zr2Sn3Cl
_symmetry_space_group_name_H-M   'P 1'
_cell_length_a   8.96648900
_cell_length_b   8.96648989
_cell_length_c   6.18572400
_cell_angle_alpha   90.00000000
_cell_angle_beta   90.00000000
_cell_angle_gamma   120.00000039
_symmetry_Int_Tables_number   1
_chemical_formula_structural   Dy3Zr2Sn3Cl
_chemical_formula_sum   'Dy6 Zr4 Sn6 Cl2'
_cell_volume   430.69125303
_cell_formula_units_Z   2
loop_
 _symmetry_equiv_pos_site_id
 _symmetry_equiv_pos_as_xyz
  1  'x, y, z'
loop_
 _atom_site_type_symbol
 _atom_site_label
 _atom_site_symmetry_multiplicity
 _atom_site_fract_x
 _atom_site_fract_y
 _atom_site_fract_z
 _atom_site_occupancy
  Dy  Dy0  1  0.737213  0.737213  0.750000  1
  Dy  Dy1  1  0.262787  0.000000  0.750000  1
  Dy  Dy2  1  0.000000  0.262787  0.750000  1
  Dy  Dy3  1  0.262787  0.262787  0.250000  1
  Dy  Dy4  1  0.737213  0.000000  0.250000  1
  Dy  Dy5  1  0.000000  0.737213  0.250000  1
  Zr  Zr6  1  0.666667  0.333333  0.000000  1
  Zr  Zr7  1  0.333333  0.666667  0.000000  1
  Zr  Zr8  1  0.333333  0.666667  0.500000  1
  Zr  Zr9  1  0.666667  0.333333  0.500000  1
  Sn  Sn10  1  0.395885  0.395885  0.750000  1
  Sn  Sn11  1  0.604115  0.000000  0.750000  1
  Sn  Sn12  1  0.000000  0.604115  0.750000  1
  Sn  Sn13  1  0.604115  0.604115  0.250000  1
  Sn  Sn14  1  0.395885  0.000000  0.250000  1
  Sn  Sn15  1  0.000000  0.395885  0.250000  1
  Cl  Cl16  1  0.000000  0.000000  0.000000  1
  Cl  Cl17  1  0.000000  0.000000  0.500000  1
