# generated using pymatgen
data_Dy3Y7(InSb2)2
_symmetry_space_group_name_H-M   'P 1'
_cell_length_a   6.50242800
_cell_length_b   8.97064511
_cell_length_c   8.97999322
_cell_angle_alpha   119.93661835
_cell_angle_beta   89.99946752
_cell_angle_gamma   89.99991436
_symmetry_Int_Tables_number   1
_chemical_formula_structural   Dy3Y7(InSb2)2
_chemical_formula_sum   'Dy3 Y7 In2 Sb4'
_cell_volume   453.92373041
_cell_formula_units_Z   1
loop_
 _symmetry_equiv_pos_site_id
 _symmetry_equiv_pos_as_xyz
  1  'x, y, z'
loop_
 _atom_site_type_symbol
 _atom_site_label
 _atom_site_symmetry_multiplicity
 _atom_site_fract_x
 _atom_site_fract_y
 _atom_site_fract_z
 _atom_site_occupancy
  Dy  Dy0  1  0.498262  0.663807  0.330673  1
  Dy  Dy1  1  0.001735  0.663897  0.330720  1
  Dy  Dy2  1  0.001298  0.335959  0.667255  1
  Y  Y3  1  0.498514  0.335744  0.667315  1
  Y  Y4  1  0.750022  0.241436  0.004974  1
  Y  Y5  1  0.750063  0.757778  0.762325  1
  Y  Y6  1  0.750029  0.000351  0.240272  1
  Y  Y7  1  0.250005  0.758801  0.998336  1
  Y  Y8  1  0.250046  0.241565  0.239666  1
  Y  Y9  1  0.250009  0.999782  0.757163  1
  In  In10  1  0.750141  0.605417  0.000875  1
  In  In11  1  0.750094  0.394349  0.394808  1
  Sb  Sb12  1  0.750159  0.000084  0.609354  1
  Sb  Sb13  1  0.249852  0.392057  0.998101  1
  Sb  Sb14  1  0.249886  0.609222  0.607764  1
  Sb  Sb15  1  0.249891  0.999750  0.390402  1
