# generated using pymatgen
data_Ba4Zn(RuO4)3
_symmetry_space_group_name_H-M   'P 1'
_cell_length_a   10.25291085
_cell_length_b   10.25291075
_cell_length_c   10.25291124
_cell_angle_alpha   33.15346331
_cell_angle_beta   33.15346500
_cell_angle_gamma   33.15346168
_symmetry_Int_Tables_number   1
_chemical_formula_structural   Ba4Zn(RuO4)3
_chemical_formula_sum   'Ba4 Zn1 Ru3 O12'
_cell_volume   286.93739124
_cell_formula_units_Z   1
loop_
 _symmetry_equiv_pos_site_id
 _symmetry_equiv_pos_as_xyz
  1  'x, y, z'
loop_
 _atom_site_type_symbol
 _atom_site_label
 _atom_site_symmetry_multiplicity
 _atom_site_fract_x
 _atom_site_fract_y
 _atom_site_fract_z
 _atom_site_occupancy
  Ba  Ba0  1  0.709471  0.709471  0.709471  1
  Ba  Ba1  1  0.290529  0.290529  0.290529  1
  Ba  Ba2  1  0.875767  0.875767  0.875767  1
  Ba  Ba3  1  0.124233  0.124233  0.124233  1
  Zn  Zn4  1  0.000000  0.000000  0.000000  1
  Ru  Ru5  1  0.411096  0.411096  0.411096  1
  Ru  Ru6  1  0.500000  0.500000  0.500000  1
  Ru  Ru7  1  0.588904  0.588904  0.588904  1
  O  O8  1  0.213444  0.213444  0.699049  1
  O  O9  1  0.699049  0.213444  0.213444  1
  O  O10  1  0.213444  0.699049  0.213444  1
  O  O11  1  0.786556  0.300951  0.786556  1
  O  O12  1  0.786556  0.786556  0.300951  1
  O  O13  1  0.300951  0.786556  0.786556  1
  O  O14  1  0.387973  0.387973  0.853343  1
  O  O15  1  0.853343  0.387973  0.387973  1
  O  O16  1  0.146657  0.612027  0.612027  1
  O  O17  1  0.612027  0.612027  0.146657  1
  O  O18  1  0.612027  0.146657  0.612027  1
  O  O19  1  0.387973  0.853343  0.387973  1
