# generated using pymatgen
data_Ho3Tm3Th2CdHgIr2
_symmetry_space_group_name_H-M   'P 1'
_cell_length_a   9.68072631
_cell_length_b   9.68072630
_cell_length_c   9.68072600
_cell_angle_alpha   60.00000101
_cell_angle_beta   60.00000106
_cell_angle_gamma   60.00000066
_symmetry_Int_Tables_number   1
_chemical_formula_structural   Ho3Tm3Th2CdHgIr2
_chemical_formula_sum   'Ho6 Tm6 Th4 Cd2 Hg2 Ir4'
_cell_volume   641.51796492
_cell_formula_units_Z   2
loop_
 _symmetry_equiv_pos_site_id
 _symmetry_equiv_pos_as_xyz
  1  'x, y, z'
loop_
 _atom_site_type_symbol
 _atom_site_label
 _atom_site_symmetry_multiplicity
 _atom_site_fract_x
 _atom_site_fract_y
 _atom_site_fract_z
 _atom_site_occupancy
  Ho  Ho0  1  0.184653  0.814257  0.814359  1
  Ho  Ho1  1  0.814257  0.184653  0.186732  1
  Ho  Ho2  1  0.814257  0.184653  0.814359  1
  Ho  Ho3  1  0.184653  0.814257  0.186732  1
  Ho  Ho4  1  0.814036  0.814036  0.185964  1
  Ho  Ho5  1  0.185427  0.185427  0.814573  1
  Tm  Tm6  1  0.063500  0.436160  0.436782  1
  Tm  Tm7  1  0.436160  0.063500  0.063559  1
  Tm  Tm8  1  0.436160  0.063500  0.436782  1
  Tm  Tm9  1  0.063500  0.436160  0.063559  1
  Tm  Tm10  1  0.436352  0.436352  0.063648  1
  Tm  Tm11  1  0.063328  0.063328  0.436672  1
  Th  Th12  1  0.601001  0.601001  0.600787  1
  Th  Th13  1  0.601001  0.601001  0.197213  1
  Th  Th14  1  0.601516  0.196134  0.601176  1
  Th  Th15  1  0.196134  0.601516  0.601176  1
  Cd  Cd16  1  0.832786  0.500145  0.833534  1
  Cd  Cd17  1  0.500145  0.832786  0.833534  1
  Hg  Hg18  1  0.835688  0.835688  0.837375  1
  Hg  Hg19  1  0.835688  0.835688  0.491248  1
  Ir  Ir20  1  0.392627  0.392627  0.392687  1
  Ir  Ir21  1  0.392627  0.392627  0.822058  1
  Ir  Ir22  1  0.392598  0.821909  0.392746  1
  Ir  Ir23  1  0.821909  0.392598  0.392746  1
