# generated using pymatgen
data_CsVPtS4
_symmetry_space_group_name_H-M   'P 1'
_cell_length_a   8.24448400
_cell_length_b   8.24448400
_cell_length_c   13.18320700
_cell_angle_alpha   90.00000000
_cell_angle_beta   90.00000000
_cell_angle_gamma   90.00000000
_symmetry_Int_Tables_number   1
_chemical_formula_structural   CsVPtS4
_chemical_formula_sum   'Cs4 V4 Pt4 S16'
_cell_volume   896.08257115
_cell_formula_units_Z   4
loop_
 _symmetry_equiv_pos_site_id
 _symmetry_equiv_pos_as_xyz
  1  'x, y, z'
loop_
 _atom_site_type_symbol
 _atom_site_label
 _atom_site_symmetry_multiplicity
 _atom_site_fract_x
 _atom_site_fract_y
 _atom_site_fract_z
 _atom_site_occupancy
  Cs  Cs0  1  0.000000  0.500000  0.750000  1
  Cs  Cs1  1  0.500000  0.000000  0.750000  1
  Cs  Cs2  1  0.500000  0.000000  0.250000  1
  Cs  Cs3  1  0.000000  0.500000  0.250000  1
  V  V4  1  0.750072  0.750072  0.000000  1
  V  V5  1  0.249928  0.249928  0.000000  1
  V  V6  1  0.250072  0.749928  0.500000  1
  V  V7  1  0.749928  0.250072  0.500000  1
  Pt  Pt8  1  0.500000  0.500000  0.500000  1
  Pt  Pt9  1  0.000000  0.000000  0.000000  1
  Pt  Pt10  1  0.500000  0.500000  0.000000  1
  Pt  Pt11  1  0.000000  0.000000  0.500000  1
  S  S12  1  0.363135  0.363135  0.131047  1
  S  S13  1  0.636865  0.636865  0.131047  1
  S  S14  1  0.136865  0.863135  0.368953  1
  S  S15  1  0.863135  0.136865  0.368953  1
  S  S16  1  0.636865  0.636865  0.868953  1
  S  S17  1  0.363135  0.363135  0.868953  1
  S  S18  1  0.136865  0.863135  0.631047  1
  S  S19  1  0.863135  0.136865  0.631047  1
  S  S20  1  0.489637  0.215330  0.500000  1
  S  S21  1  0.510363  0.784670  0.500000  1
  S  S22  1  0.010363  0.715330  0.000000  1
  S  S23  1  0.989637  0.284670  0.000000  1
  S  S24  1  0.784670  0.510363  0.500000  1
  S  S25  1  0.215330  0.489637  0.500000  1
  S  S26  1  0.284670  0.989637  0.000000  1
  S  S27  1  0.715330  0.010363  0.000000  1
