# generated using pymatgen
data_Dy3Er3Al19Si5Os8
_symmetry_space_group_name_H-M   'P 1'
_cell_length_a   8.69394000
_cell_length_b   8.68019037
_cell_length_c   9.59408700
_cell_angle_alpha   90.00000000
_cell_angle_beta   90.00000000
_cell_angle_gamma   120.05241294
_symmetry_Int_Tables_number   1
_chemical_formula_structural   Dy3Er3Al19Si5Os8
_chemical_formula_sum   'Dy3 Er3 Al19 Si5 Os8'
_cell_volume   626.68681676
_cell_formula_units_Z   1
loop_
 _symmetry_equiv_pos_site_id
 _symmetry_equiv_pos_as_xyz
  1  'x, y, z'
loop_
 _atom_site_type_symbol
 _atom_site_label
 _atom_site_symmetry_multiplicity
 _atom_site_fract_x
 _atom_site_fract_y
 _atom_site_fract_z
 _atom_site_occupancy
  Dy  Dy0  1  0.805924  0.611846  0.750000  1
  Dy  Dy1  1  0.389291  0.194897  0.750000  1
  Dy  Dy2  1  0.805607  0.194897  0.750000  1
  Er  Er3  1  0.195563  0.391129  0.250000  1
  Er  Er4  1  0.606604  0.805679  0.250000  1
  Er  Er5  1  0.199075  0.805679  0.250000  1
  Al  Al6  1  0.164726  0.329452  0.577870  1
  Al  Al7  1  0.834852  0.669702  0.421391  1
  Al  Al8  1  0.669803  0.835290  0.576617  1
  Al  Al9  1  0.834852  0.669702  0.078609  1
  Al  Al10  1  0.328847  0.165382  0.421534  1
  Al  Al11  1  0.164726  0.329452  0.922130  1
  Al  Al12  1  0.165486  0.835290  0.576617  1
  Al  Al13  1  0.328847  0.165382  0.078466  1
  Al  Al14  1  0.836535  0.165382  0.421534  1
  Al  Al15  1  0.669803  0.835290  0.923383  1
  Al  Al16  1  0.836535  0.165382  0.078466  1
  Al  Al17  1  0.165486  0.835290  0.923383  1
  Al  Al18  1  0.436976  0.873951  0.750000  1
  Al  Al19  1  0.873148  0.433714  0.250000  1
  Al  Al20  1  0.127876  0.564532  0.750000  1
  Al  Al21  1  0.560566  0.433714  0.250000  1
  Al  Al22  1  0.436655  0.564532  0.750000  1
  Al  Al23  1  0.999874  0.999747  0.250000  1
  Al  Al24  1  0.000377  0.000755  0.750000  1
  Si  Si25  1  0.332579  0.665158  0.038446  1
  Si  Si26  1  0.667294  0.334585  0.961576  1
  Si  Si27  1  0.667294  0.334585  0.538424  1
  Si  Si28  1  0.332579  0.665158  0.461554  1
  Si  Si29  1  0.563634  0.127269  0.250000  1
  Os  Os30  1  0.500522  0.001042  0.007020  1
  Os  Os31  1  0.999504  0.499234  0.001030  1
  Os  Os32  1  0.500522  0.001042  0.492980  1
  Os  Os33  1  0.499730  0.499234  0.001030  1
  Os  Os34  1  0.999504  0.499234  0.498970  1
  Os  Os35  1  0.499730  0.499234  0.498970  1
  Os  Os36  1  0.999539  0.999077  0.000203  1
  Os  Os37  1  0.999539  0.999077  0.499797  1
