# generated using pymatgen
data_YTm2Cd(Ir2O7)2
_symmetry_space_group_name_H-M   'P 1'
_cell_length_a   7.17280288
_cell_length_b   7.17494023
_cell_length_c   7.17494014
_cell_angle_alpha   60.91272103
_cell_angle_beta   60.96489933
_cell_angle_gamma   60.96489869
_symmetry_Int_Tables_number   1
_chemical_formula_structural   YTm2Cd(Ir2O7)2
_chemical_formula_sum   'Y1 Tm2 Cd1 Ir4 O14'
_cell_volume   266.67655806
_cell_formula_units_Z   1
loop_
 _symmetry_equiv_pos_site_id
 _symmetry_equiv_pos_as_xyz
  1  'x, y, z'
loop_
 _atom_site_type_symbol
 _atom_site_label
 _atom_site_symmetry_multiplicity
 _atom_site_fract_x
 _atom_site_fract_y
 _atom_site_fract_z
 _atom_site_occupancy
  Y  Y0  1  0.625000  0.125000  0.125000  1
  Tm  Tm1  1  0.125000  0.625000  0.125000  1
  Tm  Tm2  1  0.125000  0.125000  0.625000  1
  Cd  Cd3  1  0.125000  0.125000  0.125000  1
  Ir  Ir4  1  0.125000  0.625000  0.625000  1
  Ir  Ir5  1  0.625000  0.125000  0.625000  1
  Ir  Ir6  1  0.625000  0.625000  0.125000  1
  Ir  Ir7  1  0.625000  0.625000  0.625000  1
  O  O8  1  0.716279  0.708840  0.289659  1
  O  O9  1  0.293669  0.294351  0.696351  1
  O  O10  1  0.716279  0.289659  0.708840  1
  O  O11  1  0.293669  0.696351  0.294351  1
  O  O12  1  0.288535  0.713242  0.713242  1
  O  O13  1  0.699528  0.295125  0.295125  1
  O  O14  1  0.533721  0.541160  0.960341  1
  O  O15  1  0.956331  0.955649  0.553649  1
  O  O16  1  0.533721  0.960341  0.541160  1
  O  O17  1  0.956331  0.553649  0.955649  1
  O  O18  1  0.961465  0.536758  0.536758  1
  O  O19  1  0.550472  0.954875  0.954875  1
  O  O20  1  0.248495  0.254342  0.254342  1
  O  O21  1  0.001505  0.995658  0.995658  1
