# generated using pymatgen
data_Er8Re2OsRuC8
_symmetry_space_group_name_H-M   'P 1'
_cell_length_a   5.05408000
_cell_length_b   6.49267279
_cell_length_c   9.75192720
_cell_angle_alpha   89.94541436
_cell_angle_beta   90.00000000
_cell_angle_gamma   90.00000000
_symmetry_Int_Tables_number   1
_chemical_formula_structural   Er8Re2OsRuC8
_chemical_formula_sum   'Er8 Re2 Os1 Ru1 C8'
_cell_volume   320.00434982
_cell_formula_units_Z   1
loop_
 _symmetry_equiv_pos_site_id
 _symmetry_equiv_pos_as_xyz
  1  'x, y, z'
loop_
 _atom_site_type_symbol
 _atom_site_label
 _atom_site_symmetry_multiplicity
 _atom_site_fract_x
 _atom_site_fract_y
 _atom_site_fract_z
 _atom_site_occupancy
  Er  Er0  1  0.750000  0.531729  0.784523  1
  Er  Er1  1  0.250000  0.968060  0.283938  1
  Er  Er2  1  0.750000  0.673659  0.444585  1
  Er  Er3  1  0.250000  0.823968  0.943890  1
  Er  Er4  1  0.750000  0.179595  0.057248  1
  Er  Er5  1  0.250000  0.321622  0.557021  1
  Er  Er6  1  0.250000  0.466484  0.216059  1
  Er  Er7  1  0.750000  0.034549  0.716450  1
  Re  Re8  1  0.250000  0.780887  0.633037  1
  Re  Re9  1  0.750000  0.719036  0.133210  1
  Os  Os10  1  0.250000  0.280211  0.867211  1
  Ru  Ru11  1  0.750000  0.218977  0.367507  1
  C  C12  1  0.250000  0.675683  0.446194  1
  C  C13  1  0.250000  0.546943  0.758683  1
  C  C14  1  0.750000  0.453284  0.239812  1
  C  C15  1  0.750000  0.825157  0.946242  1
  C  C16  1  0.250000  0.047104  0.740504  1
  C  C17  1  0.250000  0.174787  0.053015  1
  C  C18  1  0.750000  0.326492  0.553386  1
  C  C19  1  0.750000  0.951771  0.257484  1
