# generated using pymatgen
data_DyYB8IrRu
_symmetry_space_group_name_H-M   'P 1'
_cell_length_a   3.56363800
_cell_length_b   5.96862107
_cell_length_c   11.56824670
_cell_angle_alpha   90.09933833
_cell_angle_beta   90.00000000
_cell_angle_gamma   90.00000000
_symmetry_Int_Tables_number   1
_chemical_formula_structural   DyYB8IrRu
_chemical_formula_sum   'Dy2 Y2 B16 Ir2 Ru2'
_cell_volume   246.05629352
_cell_formula_units_Z   2
loop_
 _symmetry_equiv_pos_site_id
 _symmetry_equiv_pos_as_xyz
  1  'x, y, z'
loop_
 _atom_site_type_symbol
 _atom_site_label
 _atom_site_symmetry_multiplicity
 _atom_site_fract_x
 _atom_site_fract_y
 _atom_site_fract_z
 _atom_site_occupancy
  Dy  Dy0  1  0.000000  0.631118  0.849038  1
  Dy  Dy1  1  0.000000  0.368882  0.150962  1
  Y  Y2  1  0.000000  0.129486  0.647517  1
  Y  Y3  1  0.000000  0.870514  0.352483  1
  B  B4  1  0.500000  0.475294  0.691310  1
  B  B5  1  0.500000  0.524706  0.308690  1
  B  B6  1  0.500000  0.975617  0.807138  1
  B  B7  1  0.500000  0.024383  0.192862  1
  B  B8  1  0.500000  0.289843  0.811995  1
  B  B9  1  0.500000  0.710157  0.188005  1
  B  B10  1  0.500000  0.788773  0.685907  1
  B  B11  1  0.500000  0.211227  0.314093  1
  B  B12  1  0.500000  0.363243  0.970568  1
  B  B13  1  0.500000  0.636757  0.029432  1
  B  B14  1  0.500000  0.863612  0.530885  1
  B  B15  1  0.500000  0.136388  0.469115  1
  B  B16  1  0.500000  0.388173  0.546110  1
  B  B17  1  0.500000  0.611827  0.453890  1
  B  B18  1  0.500000  0.887765  0.952759  1
  B  B19  1  0.500000  0.112235  0.047241  1
  Ir  Ir20  1  0.000000  0.145018  0.904055  1
  Ir  Ir21  1  0.000000  0.854982  0.095945  1
  Ru  Ru22  1  0.000000  0.639733  0.592995  1
  Ru  Ru23  1  0.000000  0.360267  0.407005  1
