# generated using pymatgen
data_Pr3ThPt4
_symmetry_space_group_name_H-M   'P 1'
_cell_length_a   4.66054100
_cell_length_b   5.80555242
_cell_length_c   7.35724191
_cell_angle_alpha   91.68646522
_cell_angle_beta   90.00000000
_cell_angle_gamma   90.00000000
_symmetry_Int_Tables_number   1
_chemical_formula_structural   Pr3ThPt4
_chemical_formula_sum   'Pr3 Th1 Pt4'
_cell_volume   198.97877850
_cell_formula_units_Z   1
loop_
 _symmetry_equiv_pos_site_id
 _symmetry_equiv_pos_as_xyz
  1  'x, y, z'
loop_
 _atom_site_type_symbol
 _atom_site_label
 _atom_site_symmetry_multiplicity
 _atom_site_fract_x
 _atom_site_fract_y
 _atom_site_fract_z
 _atom_site_occupancy
  Pr  Pr0  1  0.250000  0.138881  0.184993  1
  Pr  Pr1  1  0.750000  0.640543  0.317691  1
  Pr  Pr2  1  0.750000  0.859876  0.818582  1
  Th  Th3  1  0.250000  0.360441  0.681061  1
  Pt  Pt4  1  0.250000  0.841746  0.550053  1
  Pt  Pt5  1  0.250000  0.645559  0.037768  1
  Pt  Pt6  1  0.750000  0.164453  0.465908  1
  Pt  Pt7  1  0.750000  0.348501  0.943944  1
