# generated using pymatgen
data_Hf3Sc3(Nb2Si3)2
_symmetry_space_group_name_H-M   'P 1'
_cell_length_a   7.81920900
_cell_length_b   7.80969525
_cell_length_c   5.39634200
_cell_angle_alpha   90.00000000
_cell_angle_beta   90.00000000
_cell_angle_gamma   120.04031855
_symmetry_Int_Tables_number   1
_chemical_formula_structural   Hf3Sc3(Nb2Si3)2
_chemical_formula_sum   'Hf3 Sc3 Nb4 Si6'
_cell_volume   285.26626717
_cell_formula_units_Z   1
loop_
 _symmetry_equiv_pos_site_id
 _symmetry_equiv_pos_as_xyz
  1  'x, y, z'
loop_
 _atom_site_type_symbol
 _atom_site_label
 _atom_site_symmetry_multiplicity
 _atom_site_fract_x
 _atom_site_fract_y
 _atom_site_fract_z
 _atom_site_occupancy
  Hf  Hf0  1  0.747645  0.749200  0.250000  1
  Hf  Hf1  1  0.998446  0.250800  0.250000  1
  Hf  Hf2  1  0.748520  0.000000  0.750000  1
  Sc  Sc3  1  0.250986  0.000000  0.250000  1
  Sc  Sc4  1  0.999417  0.749063  0.750000  1
  Sc  Sc5  1  0.250354  0.250937  0.750000  1
  Nb  Nb6  1  0.334251  0.666579  0.999999  1
  Nb  Nb7  1  0.667673  0.333421  0.999999  1
  Nb  Nb8  1  0.334251  0.666579  0.500001  1
  Nb  Nb9  1  0.667673  0.333421  0.500001  1
  Si  Si10  1  0.604967  0.604601  0.750000  1
  Si  Si11  1  0.396350  0.000000  0.750000  1
  Si  Si12  1  0.604389  0.000000  0.250000  1
  Si  Si13  1  0.000366  0.395399  0.750000  1
  Si  Si14  1  0.394781  0.394850  0.250000  1
  Si  Si15  1  0.999931  0.605150  0.250000  1
