# generated using pymatgen
data_Ho5GaTe4
_symmetry_space_group_name_H-M   'P 1'
_cell_length_a   7.50915108
_cell_length_b   7.50915001
_cell_length_c   10.64561700
_cell_angle_alpha   62.06974492
_cell_angle_beta   62.06974058
_cell_angle_gamma   33.47665181
_symmetry_Int_Tables_number   1
_chemical_formula_structural   Ho5GaTe4
_chemical_formula_sum   'Ho5 Ga1 Te4'
_cell_volume   288.80095655
_cell_formula_units_Z   1
loop_
 _symmetry_equiv_pos_site_id
 _symmetry_equiv_pos_as_xyz
  1  'x, y, z'
loop_
 _atom_site_type_symbol
 _atom_site_label
 _atom_site_symmetry_multiplicity
 _atom_site_fract_x
 _atom_site_fract_y
 _atom_site_fract_z
 _atom_site_occupancy
  Ho  Ho0  1  0.000000  0.000000  0.500000  1
  Ho  Ho1  1  0.585546  0.585546  0.090049  1
  Ho  Ho2  1  0.185487  0.185487  0.728098  1
  Ho  Ho3  1  0.814513  0.814513  0.271902  1
  Ho  Ho4  1  0.414454  0.414454  0.909951  1
  Ga  Ga5  1  0.000000  0.000000  0.000000  1
  Te  Te6  1  0.608756  0.608756  0.588832  1
  Te  Te7  1  0.194406  0.194406  0.196086  1
  Te  Te8  1  0.805594  0.805594  0.803914  1
  Te  Te9  1  0.391244  0.391244  0.411168  1
