# generated using pymatgen
data_Lu6ReB14Os
_symmetry_space_group_name_H-M   'P 1'
_cell_length_a   7.90055086
_cell_length_b   7.90055177
_cell_length_c   9.19424600
_cell_angle_alpha   90.00000000
_cell_angle_beta   90.00000000
_cell_angle_gamma   154.57770637
_symmetry_Int_Tables_number   1
_chemical_formula_structural   Lu6ReB14Os
_chemical_formula_sum   'Lu6 Re1 B14 Os1'
_cell_volume   246.36456016
_cell_formula_units_Z   1
loop_
 _symmetry_equiv_pos_site_id
 _symmetry_equiv_pos_as_xyz
  1  'x, y, z'
loop_
 _atom_site_type_symbol
 _atom_site_label
 _atom_site_symmetry_multiplicity
 _atom_site_fract_x
 _atom_site_fract_y
 _atom_site_fract_z
 _atom_site_occupancy
  Lu  Lu0  1  0.894004  0.105996  0.440595  1
  Lu  Lu1  1  0.106089  0.893911  0.560643  1
  Lu  Lu2  1  0.894004  0.105996  0.059405  1
  Lu  Lu3  1  0.106089  0.893911  0.939357  1
  Lu  Lu4  1  0.244496  0.755504  0.250000  1
  Lu  Lu5  1  0.755996  0.244004  0.750000  1
  Re  Re6  1  0.947828  0.052172  0.750000  1
  B  B7  1  0.727502  0.272498  0.464948  1
  B  B8  1  0.271783  0.728217  0.533682  1
  B  B9  1  0.727502  0.272498  0.035052  1
  B  B10  1  0.271783  0.728217  0.966318  1
  B  B11  1  0.632460  0.367540  0.150164  1
  B  B12  1  0.366937  0.633063  0.850022  1
  B  B13  1  0.632460  0.367540  0.349836  1
  B  B14  1  0.366937  0.633063  0.649978  1
  B  B15  1  0.519599  0.480401  0.094918  1
  B  B16  1  0.480531  0.519469  0.906088  1
  B  B17  1  0.519599  0.480401  0.405082  1
  B  B18  1  0.480531  0.519469  0.593912  1
  B  B19  1  0.452970  0.547030  0.250000  1
  B  B20  1  0.547602  0.452398  0.750000  1
  Os  Os21  1  0.053301  0.946699  0.250000  1
