# generated using pymatgen
data_Yb3Pr8Ho9Si16
_symmetry_space_group_name_H-M   'P 1'
_cell_length_a   7.49537316
_cell_length_b   7.83564215
_cell_length_c   14.88073900
_cell_angle_alpha   90.00000000
_cell_angle_beta   90.00000000
_cell_angle_gamma   90.02311089
_symmetry_Int_Tables_number   1
_chemical_formula_structural   Yb3Pr8Ho9Si16
_chemical_formula_sum   'Yb3 Pr8 Ho9 Si16'
_cell_volume   873.96153184
_cell_formula_units_Z   1
loop_
 _symmetry_equiv_pos_site_id
 _symmetry_equiv_pos_as_xyz
  1  'x, y, z'
loop_
 _atom_site_type_symbol
 _atom_site_label
 _atom_site_symmetry_multiplicity
 _atom_site_fract_x
 _atom_site_fract_y
 _atom_site_fract_z
 _atom_site_occupancy
  Yb  Yb0  1  0.650549  0.989130  0.250000  1
  Yb  Yb1  1  0.151447  0.511200  0.250000  1
  Yb  Yb2  1  0.848253  0.488189  0.750000  1
  Pr  Pr3  1  0.972885  0.819101  0.099455  1
  Pr  Pr4  1  0.473109  0.681104  0.400874  1
  Pr  Pr5  1  0.526586  0.321754  0.901284  1
  Pr  Pr6  1  0.023962  0.180988  0.599797  1
  Pr  Pr7  1  0.023962  0.180988  0.900203  1
  Pr  Pr8  1  0.526586  0.321754  0.598716  1
  Pr  Pr9  1  0.473109  0.681104  0.099126  1
  Pr  Pr10  1  0.972885  0.819101  0.400545  1
  Ho  Ho11  1  0.349317  0.010152  0.750000  1
  Ho  Ho12  1  0.680865  0.818486  0.876636  1
  Ho  Ho13  1  0.178364  0.679860  0.623774  1
  Ho  Ho14  1  0.820685  0.318186  0.122862  1
  Ho  Ho15  1  0.321518  0.181099  0.377460  1
  Ho  Ho16  1  0.321518  0.181099  0.122540  1
  Ho  Ho17  1  0.820685  0.318186  0.377138  1
  Ho  Ho18  1  0.178364  0.679860  0.876226  1
  Ho  Ho19  1  0.680865  0.818486  0.623364  1
  Si  Si20  1  0.763009  0.610540  0.250000  1
  Si  Si21  1  0.263406  0.889384  0.250000  1
  Si  Si22  1  0.728153  0.109437  0.750000  1
  Si  Si23  1  0.238629  0.381261  0.750000  1
  Si  Si24  1  0.029745  0.110011  0.250000  1
  Si  Si25  1  0.529765  0.388999  0.250000  1
  Si  Si26  1  0.469585  0.615727  0.750000  1
  Si  Si27  1  0.976572  0.893611  0.750000  1
  Si  Si28  1  0.854085  0.533519  0.964683  1
  Si  Si29  1  0.354978  0.969081  0.540018  1
  Si  Si30  1  0.646354  0.032204  0.035567  1
  Si  Si31  1  0.147393  0.465797  0.464635  1
  Si  Si32  1  0.147393  0.465797  0.035365  1
  Si  Si33  1  0.646354  0.032204  0.464433  1
  Si  Si34  1  0.354978  0.969081  0.959982  1
  Si  Si35  1  0.854085  0.533519  0.535317  1
