# generated using pymatgen
data_DyEr3Sc4In3Co
_symmetry_space_group_name_H-M   'P 1'
_cell_length_a   9.89258200
_cell_length_b   9.89258172
_cell_length_c   6.94942000
_cell_angle_alpha   90.00000000
_cell_angle_beta   90.00000000
_cell_angle_gamma   120.00000093
_symmetry_Int_Tables_number   1
_chemical_formula_structural   DyEr3Sc4In3Co
_chemical_formula_sum   'Dy2 Er6 Sc8 In6 Co2'
_cell_volume   588.97721333
_cell_formula_units_Z   2
loop_
 _symmetry_equiv_pos_site_id
 _symmetry_equiv_pos_as_xyz
  1  'x, y, z'
loop_
 _atom_site_type_symbol
 _atom_site_label
 _atom_site_symmetry_multiplicity
 _atom_site_fract_x
 _atom_site_fract_y
 _atom_site_fract_z
 _atom_site_occupancy
  Dy  Dy0  1  0.000000  0.000000  0.503916  1
  Dy  Dy1  1  0.000000  0.000000  0.003916  1
  Er  Er2  1  0.533686  0.067373  0.509379  1
  Er  Er3  1  0.932627  0.466314  0.509379  1
  Er  Er4  1  0.533686  0.466314  0.509379  1
  Er  Er5  1  0.466314  0.932627  0.009379  1
  Er  Er6  1  0.067373  0.533686  0.009379  1
  Er  Er7  1  0.466314  0.533686  0.009379  1
  Sc  Sc8  1  0.180341  0.360683  0.717449  1
  Sc  Sc9  1  0.639317  0.819659  0.717449  1
  Sc  Sc10  1  0.180341  0.819659  0.717449  1
  Sc  Sc11  1  0.819659  0.639317  0.217449  1
  Sc  Sc12  1  0.360683  0.180341  0.217449  1
  Sc  Sc13  1  0.819659  0.180341  0.217449  1
  Sc  Sc14  1  0.666667  0.333333  0.911767  1
  Sc  Sc15  1  0.333333  0.666667  0.411767  1
  In  In16  1  0.836490  0.672979  0.769575  1
  In  In17  1  0.327021  0.163510  0.769575  1
  In  In18  1  0.836490  0.163510  0.769575  1
  In  In19  1  0.163510  0.327021  0.269575  1
  In  In20  1  0.672979  0.836490  0.269575  1
  In  In21  1  0.163510  0.836490  0.269575  1
  Co  Co22  1  0.666667  0.333333  0.274107  1
  Co  Co23  1  0.333333  0.666667  0.774107  1
