# generated using pymatgen
data_LaTb4Tc3(P3Ir4)4
_symmetry_space_group_name_H-M   'P 1'
_cell_length_a   12.69663800
_cell_length_b   12.69663796
_cell_length_c   3.99806900
_cell_angle_alpha   90.00000000
_cell_angle_beta   90.00000000
_cell_angle_gamma   120.00000011
_symmetry_Int_Tables_number   1
_chemical_formula_structural   LaTb4Tc3(P3Ir4)4
_chemical_formula_sum   'La1 Tb4 Tc3 P12 Ir16'
_cell_volume   558.15958814
_cell_formula_units_Z   1
loop_
 _symmetry_equiv_pos_site_id
 _symmetry_equiv_pos_as_xyz
  1  'x, y, z'
loop_
 _atom_site_type_symbol
 _atom_site_label
 _atom_site_symmetry_multiplicity
 _atom_site_fract_x
 _atom_site_fract_y
 _atom_site_fract_z
 _atom_site_occupancy
  La  La0  1  0.666667  0.333333  0.500000  1
  Tb  Tb1  1  0.333333  0.666667  0.500000  1
  Tb  Tb2  1  0.000057  0.815957  0.000000  1
  Tb  Tb3  1  0.184043  0.184100  0.000000  1
  Tb  Tb4  1  0.815900  0.999943  0.000000  1
  Tc  Tc5  1  0.001188  0.455670  0.500000  1
  Tc  Tc6  1  0.544330  0.545518  0.500000  1
  Tc  Tc7  1  0.454482  0.998812  0.500000  1
  P  P8  1  0.999382  0.638133  0.500000  1
  P  P9  1  0.361867  0.361249  0.500000  1
  P  P10  1  0.638751  0.000618  0.500000  1
  P  P11  1  0.515403  0.685600  0.000000  1
  P  P12  1  0.314400  0.829804  0.000000  1
  P  P13  1  0.170196  0.484597  0.000000  1
  P  P14  1  0.481553  0.166041  0.000000  1
  P  P15  1  0.684487  0.518447  0.000000  1
  P  P16  1  0.833959  0.315513  0.000000  1
  P  P17  1  0.000870  0.176824  0.500000  1
  P  P18  1  0.823176  0.824047  0.500000  1
  P  P19  1  0.175953  0.999130  0.500000  1
  Ir  Ir20  1  0.509135  0.867652  0.000000  1
  Ir  Ir21  1  0.132348  0.641485  0.000000  1
  Ir  Ir22  1  0.358515  0.490865  0.000000  1
  Ir  Ir23  1  0.485660  0.358560  0.000000  1
  Ir  Ir24  1  0.872901  0.514340  0.000000  1
  Ir  Ir25  1  0.641440  0.127099  0.000000  1
  Ir  Ir26  1  0.001788  0.290774  0.000000  1
  Ir  Ir27  1  0.709226  0.711015  0.000000  1
  Ir  Ir28  1  0.288985  0.998212  0.000000  1
  Ir  Ir29  1  0.625974  0.805763  0.500000  1
  Ir  Ir30  1  0.194237  0.820212  0.500000  1
  Ir  Ir31  1  0.179788  0.374026  0.500000  1
  Ir  Ir32  1  0.372079  0.177413  0.500000  1
  Ir  Ir33  1  0.805334  0.627921  0.500000  1
  Ir  Ir34  1  0.822587  0.194666  0.500000  1
  Ir  Ir35  1  0.000000  0.000000  0.500000  1
