# generated using pymatgen
data_Tb5HfUO12
_symmetry_space_group_name_H-M   'P 1'
_cell_length_a   6.67950906
_cell_length_b   6.53968016
_cell_length_c   6.46511820
_cell_angle_alpha   99.41741722
_cell_angle_beta   98.78476798
_cell_angle_gamma   99.73619638
_symmetry_Int_Tables_number   1
_chemical_formula_structural   Tb5HfUO12
_chemical_formula_sum   'Tb5 Hf1 U1 O12'
_cell_volume   269.82211443
_cell_formula_units_Z   1
loop_
 _symmetry_equiv_pos_site_id
 _symmetry_equiv_pos_as_xyz
  1  'x, y, z'
loop_
 _atom_site_type_symbol
 _atom_site_label
 _atom_site_symmetry_multiplicity
 _atom_site_fract_x
 _atom_site_fract_y
 _atom_site_fract_z
 _atom_site_occupancy
  Tb  Tb0  1  0.858374  0.685694  0.387320  1
  Tb  Tb1  1  0.391965  0.861535  0.693192  1
  Tb  Tb2  1  0.326193  0.605691  0.151775  1
  Tb  Tb3  1  0.137971  0.310181  0.610398  1
  Tb  Tb4  1  0.608132  0.138393  0.313306  1
  Hf  Hf5  1  0.664185  0.393821  0.849777  1
  U  U6  1  0.996726  0.998405  0.994177  1
  O  O7  1  0.434670  0.188370  0.595956  1
  O  O8  1  0.593397  0.425710  0.166498  1
  O  O9  1  0.172950  0.584962  0.433604  1
  O  O10  1  0.573521  0.820054  0.422035  1
  O  O11  1  0.436759  0.567565  0.821092  1
  O  O12  1  0.814266  0.414015  0.592681  1
  O  O13  1  0.101510  0.310078  0.957201  1
  O  O14  1  0.689650  0.086993  0.917170  1
  O  O15  1  0.056457  0.930755  0.681700  1
  O  O16  1  0.891672  0.672439  0.026017  1
  O  O17  1  0.310447  0.935276  0.074166  1
  O  O18  1  0.941152  0.070061  0.311934  1
