# generated using pymatgen
data_Sc3ZnGa2Ge2Ir
_symmetry_space_group_name_H-M   'P 1'
_cell_length_a   6.70993100
_cell_length_b   6.68172415
_cell_length_c   4.09670700
_cell_angle_alpha   90.00000000
_cell_angle_beta   90.00000000
_cell_angle_gamma   120.13974934
_symmetry_Int_Tables_number   1
_chemical_formula_structural   Sc3ZnGa2Ge2Ir
_chemical_formula_sum   'Sc3 Zn1 Ga2 Ge2 Ir1'
_cell_volume   158.83961707
_cell_formula_units_Z   1
loop_
 _symmetry_equiv_pos_site_id
 _symmetry_equiv_pos_as_xyz
  1  'x, y, z'
loop_
 _atom_site_type_symbol
 _atom_site_label
 _atom_site_symmetry_multiplicity
 _atom_site_fract_x
 _atom_site_fract_y
 _atom_site_fract_z
 _atom_site_occupancy
  Sc  Sc0  1  0.418057  0.000000  0.000000  1
  Sc  Sc1  1  0.998367  0.411543  0.000000  1
  Sc  Sc2  1  0.586824  0.588456  0.000000  1
  Zn  Zn3  1  0.755502  0.000000  0.500000  1
  Ga  Ga4  1  0.236517  0.240258  0.500000  1
  Ga  Ga5  1  0.996260  0.759742  0.500000  1
  Ge  Ge6  1  0.665788  0.332217  0.500000  1
  Ge  Ge7  1  0.333571  0.667784  0.500000  1
  Ir  Ir8  1  0.009116  0.000000  0.000000  1
