# generated using pymatgen
data_Sm3Cu(Ir2O7)2
_symmetry_space_group_name_H-M   'P 1'
_cell_length_a   7.19273034
_cell_length_b   7.19273126
_cell_length_c   7.19273000
_cell_angle_alpha   61.60238265
_cell_angle_beta   61.60237870
_cell_angle_gamma   61.60238114
_symmetry_Int_Tables_number   1
_chemical_formula_structural   Sm3Cu(Ir2O7)2
_chemical_formula_sum   'Sm3 Cu1 Ir4 O14'
_cell_volume   272.58529431
_cell_formula_units_Z   1
loop_
 _symmetry_equiv_pos_site_id
 _symmetry_equiv_pos_as_xyz
  1  'x, y, z'
loop_
 _atom_site_type_symbol
 _atom_site_label
 _atom_site_symmetry_multiplicity
 _atom_site_fract_x
 _atom_site_fract_y
 _atom_site_fract_z
 _atom_site_occupancy
  Sm  Sm0  1  0.625000  0.125000  0.125000  1
  Sm  Sm1  1  0.125000  0.625000  0.125000  1
  Sm  Sm2  1  0.125000  0.125000  0.625000  1
  Cu  Cu3  1  0.125000  0.125000  0.125000  1
  Ir  Ir4  1  0.125000  0.625000  0.625000  1
  Ir  Ir5  1  0.625000  0.125000  0.625000  1
  Ir  Ir6  1  0.625000  0.625000  0.125000  1
  Ir  Ir7  1  0.625000  0.625000  0.625000  1
  O  O8  1  0.711879  0.711879  0.290306  1
  O  O9  1  0.300173  0.300173  0.696381  1
  O  O10  1  0.711879  0.290306  0.711879  1
  O  O11  1  0.300173  0.696381  0.300173  1
  O  O12  1  0.290306  0.711879  0.711879  1
  O  O13  1  0.696381  0.300173  0.300173  1
  O  O14  1  0.538121  0.538121  0.959694  1
  O  O15  1  0.949827  0.949827  0.553619  1
  O  O16  1  0.538121  0.959694  0.538121  1
  O  O17  1  0.949827  0.553619  0.949827  1
  O  O18  1  0.959694  0.538121  0.538121  1
  O  O19  1  0.553619  0.949827  0.949827  1
  O  O20  1  0.237327  0.237327  0.237327  1
  O  O21  1  0.012673  0.012673  0.012673  1
