# generated using pymatgen
data_Cs8PuSb4
_symmetry_space_group_name_H-M   'P 1'
_cell_length_a   12.65050400
_cell_length_b   12.65349872
_cell_length_c   12.64931179
_cell_angle_alpha   60.02871273
_cell_angle_beta   60.04309254
_cell_angle_gamma   60.02417627
_symmetry_Int_Tables_number   1
_chemical_formula_structural   Cs8PuSb4
_chemical_formula_sum   'Cs16 Pu2 Sb8'
_cell_volume   1432.79869923
_cell_formula_units_Z   2
loop_
 _symmetry_equiv_pos_site_id
 _symmetry_equiv_pos_as_xyz
  1  'x, y, z'
loop_
 _atom_site_type_symbol
 _atom_site_label
 _atom_site_symmetry_multiplicity
 _atom_site_fract_x
 _atom_site_fract_y
 _atom_site_fract_z
 _atom_site_occupancy
  Cs  Cs0  1  0.625000  0.125000  0.625000  1
  Cs  Cs1  1  0.625000  0.625000  0.125000  1
  Cs  Cs2  1  0.125000  0.625000  0.625000  1
  Cs  Cs3  1  0.625000  0.625000  0.625000  1
  Cs  Cs4  1  0.029917  0.029924  0.470166  1
  Cs  Cs5  1  0.779849  0.220054  0.220121  1
  Cs  Cs6  1  0.220115  0.779962  0.779890  1
  Cs  Cs7  1  0.779927  0.779945  0.220120  1
  Cs  Cs8  1  0.779906  0.220151  0.779878  1
  Cs  Cs9  1  0.220105  0.779811  0.220144  1
  Cs  Cs10  1  0.470094  0.029849  0.470122  1
  Cs  Cs11  1  0.470151  0.029946  0.029879  1
  Cs  Cs12  1  0.029885  0.470038  0.470110  1
  Cs  Cs13  1  0.029895  0.470189  0.029856  1
  Cs  Cs14  1  0.220083  0.220076  0.779834  1
  Cs  Cs15  1  0.470073  0.470055  0.029880  1
  Pu  Pu16  1  0.749933  0.749980  0.750007  1
  Pu  Pu17  1  0.500067  0.500020  0.499993  1
  Sb  Sb18  1  0.399996  0.800095  0.399906  1
  Sb  Sb19  1  0.849928  0.849976  0.450013  1
  Sb  Sb20  1  0.449891  0.850056  0.850077  1
  Sb  Sb21  1  0.850006  0.850028  0.850050  1
  Sb  Sb22  1  0.800109  0.399944  0.399923  1
  Sb  Sb23  1  0.399994  0.399972  0.399950  1
  Sb  Sb24  1  0.400072  0.400024  0.799987  1
  Sb  Sb25  1  0.850004  0.449905  0.850094  1
