# generated using pymatgen
data_Dy2B4Ir4Os
_symmetry_space_group_name_H-M   'P 1'
_cell_length_a   7.51521673
_cell_length_b   6.37825626
_cell_length_c   5.57296192
_cell_angle_alpha   77.60352933
_cell_angle_beta   55.98847407
_cell_angle_gamma   46.40799349
_symmetry_Int_Tables_number   1
_chemical_formula_structural   Dy2B4Ir4Os
_chemical_formula_sum   'Dy2 B4 Ir4 Os1'
_cell_volume   153.73365167
_cell_formula_units_Z   1
loop_
 _symmetry_equiv_pos_site_id
 _symmetry_equiv_pos_as_xyz
  1  'x, y, z'
loop_
 _atom_site_type_symbol
 _atom_site_label
 _atom_site_symmetry_multiplicity
 _atom_site_fract_x
 _atom_site_fract_y
 _atom_site_fract_z
 _atom_site_occupancy
  Dy  Dy0  1  0.860379  0.860380  0.139621  1
  Dy  Dy1  1  0.139619  0.139620  0.860381  1
  B  B2  1  0.471109  0.796297  0.216133  1
  B  B3  1  0.216131  0.516463  0.471110  1
  B  B4  1  0.796296  0.471110  0.516463  1
  B  B5  1  0.516462  0.216132  0.796298  1
  Ir  Ir6  1  0.500164  0.500165  0.999835  1
  Ir  Ir7  1  0.999835  0.999835  0.500165  1
  Ir  Ir8  1  0.499999  0.500000  0.500001  1
  Ir  Ir9  1  0.749999  0.750001  0.750001  1
  Os  Os10  1  0.250000  0.250001  0.250000  1
