# generated using pymatgen
data_NdSm7(SiBr6)2
_symmetry_space_group_name_H-M   'P 1'
_cell_length_a   4.16271300
_cell_length_b   13.56553782
_cell_length_c   14.37361210
_cell_angle_alpha   90.04768410
_cell_angle_beta   90.00000000
_cell_angle_gamma   90.00000000
_symmetry_Int_Tables_number   1
_chemical_formula_structural   NdSm7(SiBr6)2
_chemical_formula_sum   'Nd1 Sm7 Si2 Br12'
_cell_volume   811.66955437
_cell_formula_units_Z   1
loop_
 _symmetry_equiv_pos_site_id
 _symmetry_equiv_pos_as_xyz
  1  'x, y, z'
loop_
 _atom_site_type_symbol
 _atom_site_label
 _atom_site_symmetry_multiplicity
 _atom_site_fract_x
 _atom_site_fract_y
 _atom_site_fract_z
 _atom_site_occupancy
  Nd  Nd0  1  0.000000  0.380837  0.079121  1
  Sm  Sm1  1  0.500000  0.118434  0.340971  1
  Sm  Sm2  1  0.500000  0.881747  0.658885  1
  Sm  Sm3  1  0.500000  0.618303  0.159198  1
  Sm  Sm4  1  0.500000  0.381518  0.840923  1
  Sm  Sm5  1  0.000000  0.118607  0.578502  1
  Sm  Sm6  1  0.000000  0.881541  0.421150  1
  Sm  Sm7  1  0.000000  0.619691  0.920548  1
  Si  Si8  1  0.500000  0.000000  0.499930  1
  Si  Si9  1  0.500000  0.501774  0.998831  1
  Br  Br10  1  0.500000  0.242729  0.165608  1
  Br  Br11  1  0.500000  0.755130  0.836289  1
  Br  Br12  1  0.500000  0.745377  0.336840  1
  Br  Br13  1  0.500000  0.254351  0.663352  1
  Br  Br14  1  0.000000  0.253819  0.411533  1
  Br  Br15  1  0.000000  0.746440  0.588405  1
  Br  Br16  1  0.000000  0.753563  0.088598  1
  Br  Br17  1  0.000000  0.244995  0.909979  1
  Br  Br18  1  0.000000  0.002317  0.244713  1
  Br  Br19  1  0.000000  0.997864  0.755022  1
  Br  Br20  1  0.000000  0.503214  0.256842  1
  Br  Br21  1  0.000000  0.497747  0.744759  1
