# generated using pymatgen
data_Er2Tm8In8Pt3Rh
_symmetry_space_group_name_H-M   'P 1'
_cell_length_a   3.57537400
_cell_length_b   8.09377364
_cell_length_c   18.14034941
_cell_angle_alpha   90.04534193
_cell_angle_beta   90.00000000
_cell_angle_gamma   90.00000000
_symmetry_Int_Tables_number   1
_chemical_formula_structural   Er2Tm8In8Pt3Rh
_chemical_formula_sum   'Er2 Tm8 In8 Pt3 Rh1'
_cell_volume   524.95012534
_cell_formula_units_Z   1
loop_
 _symmetry_equiv_pos_site_id
 _symmetry_equiv_pos_as_xyz
  1  'x, y, z'
loop_
 _atom_site_type_symbol
 _atom_site_label
 _atom_site_symmetry_multiplicity
 _atom_site_fract_x
 _atom_site_fract_y
 _atom_site_fract_z
 _atom_site_occupancy
  Er  Er0  1  0.000000  0.999816  0.999906  1
  Er  Er1  1  0.000000  0.500087  0.500027  1
  Tm  Tm2  1  0.000000  0.114471  0.411965  1
  Tm  Tm3  1  0.000000  0.882967  0.585176  1
  Tm  Tm4  1  0.000000  0.383453  0.914929  1
  Tm  Tm5  1  0.000000  0.616780  0.085610  1
  Tm  Tm6  1  0.000000  0.239370  0.221959  1
  Tm  Tm7  1  0.000000  0.756963  0.779050  1
  Tm  Tm8  1  0.000000  0.256907  0.721113  1
  Tm  Tm9  1  0.000000  0.749520  0.279408  1
  In  In10  1  0.500000  0.422488  0.351584  1
  In  In11  1  0.500000  0.576431  0.648491  1
  In  In12  1  0.500000  0.076495  0.851619  1
  In  In13  1  0.500000  0.925606  0.149482  1
  In  In14  1  0.500000  0.292308  0.066661  1
  In  In15  1  0.500000  0.707644  0.933428  1
  In  In16  1  0.500000  0.207505  0.566471  1
  In  In17  1  0.500000  0.793388  0.432130  1
  Pt  Pt18  1  0.500000  0.974872  0.696322  1
  Pt  Pt19  1  0.500000  0.474901  0.803672  1
  Pt  Pt20  1  0.500000  0.524314  0.196383  1
  Rh  Rh21  1  0.500000  0.023715  0.304615  1
