# generated using pymatgen
data_Pr4Al18MoPd5
_symmetry_space_group_name_H-M   'P 1'
_cell_length_a   7.70539099
_cell_length_b   7.70539090
_cell_length_c   9.70766200
_cell_angle_alpha   89.75754744
_cell_angle_beta   89.75754744
_cell_angle_gamma   119.02193616
_symmetry_Int_Tables_number   1
_chemical_formula_structural   Pr4Al18MoPd5
_chemical_formula_sum   'Pr4 Al18 Mo1 Pd5'
_cell_volume   503.98307110
_cell_formula_units_Z   1
loop_
 _symmetry_equiv_pos_site_id
 _symmetry_equiv_pos_as_xyz
  1  'x, y, z'
loop_
 _atom_site_type_symbol
 _atom_site_label
 _atom_site_symmetry_multiplicity
 _atom_site_fract_x
 _atom_site_fract_y
 _atom_site_fract_z
 _atom_site_occupancy
  Pr  Pr0  1  0.995332  0.675600  0.249104  1
  Pr  Pr1  1  0.004668  0.324400  0.750896  1
  Pr  Pr2  1  0.675600  0.995332  0.249104  1
  Pr  Pr3  1  0.324400  0.004668  0.750896  1
  Al  Al4  1  0.136553  0.136553  0.247759  1
  Al  Al5  1  0.863447  0.863447  0.752241  1
  Al  Al6  1  0.004685  0.333885  0.073831  1
  Al  Al7  1  0.995315  0.666115  0.926169  1
  Al  Al8  1  0.995892  0.661878  0.576734  1
  Al  Al9  1  0.338122  0.004108  0.423266  1
  Al  Al10  1  0.004108  0.338122  0.423266  1
  Al  Al11  1  0.661878  0.995892  0.576734  1
  Al  Al12  1  0.666115  0.995315  0.926169  1
  Al  Al13  1  0.333885  0.004685  0.073831  1
  Al  Al14  1  0.335222  0.335222  0.550169  1
  Al  Al15  1  0.664778  0.664778  0.449831  1
  Al  Al16  1  0.667119  0.667119  0.047522  1
  Al  Al17  1  0.332881  0.332881  0.952478  1
  Al  Al18  1  0.343266  0.548201  0.250222  1
  Al  Al19  1  0.656734  0.451799  0.749778  1
  Al  Al20  1  0.548201  0.343266  0.250222  1
  Al  Al21  1  0.451799  0.656734  0.749778  1
  Mo  Mo22  1  0.000000  0.000000  0.000000  1
  Pd  Pd23  1  0.671524  0.328476  0.000000  1
  Pd  Pd24  1  0.328476  0.671524  0.000000  1
  Pd  Pd25  1  0.328621  0.671379  0.500000  1
  Pd  Pd26  1  0.671379  0.328621  0.500000  1
  Pd  Pd27  1  0.000000  0.000000  0.500000  1
