# generated using pymatgen
data_CeHo9(Sn3O)2
_symmetry_space_group_name_H-M   'P 1'
_cell_length_a   9.01557127
_cell_length_b   9.01553378
_cell_length_c   9.01556000
_cell_angle_alpha   125.90034685
_cell_angle_beta   125.90068434
_cell_angle_gamma   80.05159409
_symmetry_Int_Tables_number   1
_chemical_formula_structural   CeHo9(Sn3O)2
_chemical_formula_sum   'Ce1 Ho9 Sn6 O2'
_cell_volume   464.19356638
_cell_formula_units_Z   1
loop_
 _symmetry_equiv_pos_site_id
 _symmetry_equiv_pos_as_xyz
  1  'x, y, z'
loop_
 _atom_site_type_symbol
 _atom_site_label
 _atom_site_symmetry_multiplicity
 _atom_site_fract_x
 _atom_site_fract_y
 _atom_site_fract_z
 _atom_site_occupancy
  Ce  Ce0  1  0.001998  0.002005  0.999983  1
  Ho  Ho1  1  0.500315  0.300598  0.499765  1
  Ho  Ho2  1  0.800617  0.000367  0.499929  1
  Ho  Ho3  1  0.000537  0.499918  0.199795  1
  Ho  Ho4  1  0.299819  0.800923  0.800283  1
  Ho  Ho5  1  0.501971  0.701733  0.500210  1
  Ho  Ho6  1  0.201740  0.001966  0.500118  1
  Ho  Ho7  1  0.001807  0.502316  0.800175  1
  Ho  Ho8  1  0.702444  0.201481  0.199758  1
  Ho  Ho9  1  0.501808  0.501818  0.999997  1
  Sn  Sn10  1  0.145944  0.356023  0.499754  1
  Sn  Sn11  1  0.856223  0.646184  0.500245  1
  Sn  Sn12  1  0.646534  0.146341  0.790651  1
  Sn  Sn13  1  0.355670  0.855812  0.209323  1
  Sn  Sn14  1  0.750122  0.750188  0.999979  1
  Sn  Sn15  1  0.253076  0.252945  0.000031  1
  O  O16  1  0.751020  0.250948  0.499923  1
  O  O17  1  0.251196  0.751278  0.500082  1
