# generated using pymatgen
data_DyHf7Ti8(Si4Mo)4
_symmetry_space_group_name_H-M   'P 1'
_cell_length_a   6.79357488
_cell_length_b   6.79191076
_cell_length_c   12.50912784
_cell_angle_alpha   90.20001540
_cell_angle_beta   89.90629187
_cell_angle_gamma   89.97210050
_symmetry_Int_Tables_number   1
_chemical_formula_structural   DyHf7Ti8(Si4Mo)4
_chemical_formula_sum   'Dy1 Hf7 Ti8 Si16 Mo4'
_cell_volume   577.18374063
_cell_formula_units_Z   1
loop_
 _symmetry_equiv_pos_site_id
 _symmetry_equiv_pos_as_xyz
  1  'x, y, z'
loop_
 _atom_site_type_symbol
 _atom_site_label
 _atom_site_symmetry_multiplicity
 _atom_site_fract_x
 _atom_site_fract_y
 _atom_site_fract_z
 _atom_site_occupancy
  Dy  Dy0  1  0.338731  0.003427  0.469274  1
  Hf  Hf1  1  0.001674  0.658200  0.032253  1
  Hf  Hf2  1  0.996469  0.346319  0.531744  1
  Hf  Hf3  1  0.657677  0.001989  0.968696  1
  Hf  Hf4  1  0.156097  0.498732  0.781402  1
  Hf  Hf5  1  0.840647  0.500387  0.279363  1
  Hf  Hf6  1  0.500066  0.157929  0.218612  1
  Hf  Hf7  1  0.502252  0.839802  0.718385  1
  Ti  Ti8  1  0.506901  0.345092  0.623881  1
  Ti  Ti9  1  0.152009  0.002230  0.874059  1
  Ti  Ti10  1  0.673618  0.670035  0.499891  1
  Ti  Ti11  1  0.831244  0.169721  0.751451  1
  Ti  Ti12  1  0.168292  0.831905  0.248807  1
  Ti  Ti13  1  0.330497  0.328081  0.000486  1
  Ti  Ti14  1  0.498608  0.653621  0.122069  1
  Ti  Ti15  1  0.655033  0.495731  0.878060  1
  Si  Si16  1  0.041722  0.702950  0.435699  1
  Si  Si17  1  0.956308  0.295523  0.936087  1
  Si  Si18  1  0.710827  0.045125  0.565050  1
  Si  Si19  1  0.206351  0.457982  0.184380  1
  Si  Si20  1  0.792634  0.543861  0.688333  1
  Si  Si21  1  0.454974  0.204710  0.814077  1
  Si  Si22  1  0.546282  0.791937  0.310798  1
  Si  Si23  1  0.295967  0.955511  0.062836  1
  Si  Si24  1  0.793253  0.866587  0.175887  1
  Si  Si25  1  0.293850  0.628774  0.574452  1
  Si  Si26  1  0.705861  0.364631  0.072489  1
  Si  Si27  1  0.636530  0.298428  0.428747  1
  Si  Si28  1  0.365300  0.705459  0.926862  1
  Si  Si29  1  0.131120  0.208923  0.318877  1
  Si  Si30  1  0.201867  0.136567  0.680988  1
  Si  Si31  1  0.864580  0.793316  0.823721  1
  Mo  Mo32  1  0.343612  0.505362  0.375436  1
  Mo  Mo33  1  0.847341  0.995234  0.372027  1
  Mo  Mo34  1  0.004864  0.154201  0.126448  1
  Mo  Mo35  1  0.996943  0.841714  0.628371  1
