# generated using pymatgen
data_Ba6Ho2(IrO6)3
_symmetry_space_group_name_H-M   'P 1'
_cell_length_a   10.31786931
_cell_length_b   10.31786707
_cell_length_c   10.31786907
_cell_angle_alpha   146.29163483
_cell_angle_beta   131.81720424
_cell_angle_gamma   60.09063835
_symmetry_Int_Tables_number   1
_chemical_formula_structural   Ba6Ho2(IrO6)3
_chemical_formula_sum   'Ba6 Ho2 Ir3 O18'
_cell_volume   450.12347248
_cell_formula_units_Z   1
loop_
 _symmetry_equiv_pos_site_id
 _symmetry_equiv_pos_as_xyz
  1  'x, y, z'
loop_
 _atom_site_type_symbol
 _atom_site_label
 _atom_site_symmetry_multiplicity
 _atom_site_fract_x
 _atom_site_fract_y
 _atom_site_fract_z
 _atom_site_occupancy
  Ba  Ba0  1  0.774689  0.500000  0.274689  1
  Ba  Ba1  1  0.393774  0.156796  0.236978  1
  Ba  Ba2  1  0.080181  0.843204  0.236978  1
  Ba  Ba3  1  0.225311  0.500000  0.725311  1
  Ba  Ba4  1  0.919819  0.156796  0.763022  1
  Ba  Ba5  1  0.606226  0.843204  0.763022  1
  Ho  Ho6  1  0.665706  0.665706  0.000000  1
  Ho  Ho7  1  0.334294  0.334294  0.000000  1
  Ir  Ir8  1  0.500000  0.000000  0.500000  1
  Ir  Ir9  1  0.170536  0.670536  0.500000  1
  Ir  Ir10  1  0.829464  0.329464  0.500000  1
  O  O11  1  0.727375  0.000000  0.727375  1
  O  O12  1  0.405474  0.669985  0.735490  1
  O  O13  1  0.065506  0.330015  0.735490  1
  O  O14  1  0.578105  0.843347  0.265242  1
  O  O15  1  0.248429  0.514305  0.265875  1
  O  O16  1  0.905602  0.180338  0.274736  1
  O  O17  1  0.421895  0.687138  0.265242  1
  O  O18  1  0.094398  0.369135  0.274736  1
  O  O19  1  0.751571  0.017446  0.265875  1
  O  O20  1  0.272625  0.000000  0.272625  1
  O  O21  1  0.934494  0.669985  0.264510  1
  O  O22  1  0.594526  0.330015  0.264510  1
  O  O23  1  0.421895  0.156653  0.734758  1
  O  O24  1  0.094398  0.819662  0.725264  1
  O  O25  1  0.751571  0.485695  0.734125  1
  O  O26  1  0.578105  0.312862  0.734758  1
  O  O27  1  0.248429  0.982554  0.734125  1
  O  O28  1  0.905602  0.630866  0.725264  1
