# generated using pymatgen
data_MnV6Fe(Si2C)2
_symmetry_space_group_name_H-M   'P 1'
_cell_length_a   7.63685564
_cell_length_b   7.65239468
_cell_length_c   7.65235914
_cell_angle_alpha   60.09748531
_cell_angle_beta   60.06691029
_cell_angle_gamma   60.06895504
_symmetry_Int_Tables_number   1
_chemical_formula_structural   MnV6Fe(Si2C)2
_chemical_formula_sum   'Mn2 V12 Fe2 Si8 C4'
_cell_volume   316.77949359
_cell_formula_units_Z   2
loop_
 _symmetry_equiv_pos_site_id
 _symmetry_equiv_pos_as_xyz
  1  'x, y, z'
loop_
 _atom_site_type_symbol
 _atom_site_label
 _atom_site_symmetry_multiplicity
 _atom_site_fract_x
 _atom_site_fract_y
 _atom_site_fract_z
 _atom_site_occupancy
  Mn  Mn0  1  0.625000  0.125000  0.625000  1
  Mn  Mn1  1  0.625000  0.625000  0.125000  1
  V  V2  1  0.808094  0.808903  0.189459  1
  V  V3  1  0.193622  0.189504  0.808903  1
  V  V4  1  0.807958  0.189499  0.808929  1
  V  V5  1  0.193553  0.808873  0.189467  1
  V  V6  1  0.190747  0.809161  0.809349  1
  V  V7  1  0.807514  0.192454  0.192478  1
  V  V8  1  0.441906  0.441097  0.060541  1
  V  V9  1  0.056378  0.060496  0.441097  1
  V  V10  1  0.442042  0.060501  0.441071  1
  V  V11  1  0.056447  0.441127  0.060533  1
  V  V12  1  0.059253  0.440839  0.440651  1
  V  V13  1  0.442486  0.057546  0.057522  1
  Fe  Fe14  1  0.125000  0.625000  0.625000  1
  Fe  Fe15  1  0.625000  0.625000  0.625000  1
  Si  Si16  1  0.759187  0.414714  0.414582  1
  Si  Si17  1  0.412574  0.759796  0.415086  1
  Si  Si18  1  0.412483  0.415129  0.759923  1
  Si  Si19  1  0.411525  0.414690  0.414573  1
  Si  Si20  1  0.490813  0.835286  0.835418  1
  Si  Si21  1  0.837426  0.490204  0.834914  1
  Si  Si22  1  0.837517  0.834871  0.490077  1
  Si  Si23  1  0.838475  0.835310  0.835427  1
  C  C24  1  0.625000  0.125000  0.125000  1
  C  C25  1  0.125000  0.625000  0.125000  1
  C  C26  1  0.125000  0.125000  0.625000  1
  C  C27  1  0.125000  0.125000  0.125000  1
