# generated using pymatgen
data_Tm14Lu2Cd4Ru3Pt
_symmetry_space_group_name_H-M   'P 1'
_cell_length_a   9.48429477
_cell_length_b   9.52187744
_cell_length_c   9.53731000
_cell_angle_alpha   59.94637857
_cell_angle_beta   59.81492525
_cell_angle_gamma   59.71668103
_symmetry_Int_Tables_number   1
_chemical_formula_structural   Tm14Lu2Cd4Ru3Pt
_chemical_formula_sum   'Tm14 Lu2 Cd4 Ru3 Pt1'
_cell_volume   606.61952931
_cell_formula_units_Z   1
loop_
 _symmetry_equiv_pos_site_id
 _symmetry_equiv_pos_as_xyz
  1  'x, y, z'
loop_
 _atom_site_type_symbol
 _atom_site_label
 _atom_site_symmetry_multiplicity
 _atom_site_fract_x
 _atom_site_fract_y
 _atom_site_fract_z
 _atom_site_occupancy
  Tm  Tm0  1  0.346576  0.953228  0.350099  1
  Tm  Tm1  1  0.962759  0.345846  0.345698  1
  Tm  Tm2  1  0.814491  0.189416  0.189654  1
  Tm  Tm3  1  0.186724  0.811238  0.812354  1
  Tm  Tm4  1  0.186724  0.811238  0.189684  1
  Tm  Tm5  1  0.814491  0.189416  0.806440  1
  Tm  Tm6  1  0.187176  0.189197  0.811813  1
  Tm  Tm7  1  0.814738  0.806029  0.189617  1
  Tm  Tm8  1  0.936977  0.562092  0.562011  1
  Tm  Tm9  1  0.558329  0.938149  0.937879  1
  Tm  Tm10  1  0.558329  0.938149  0.565643  1
  Tm  Tm11  1  0.936977  0.562092  0.938921  1
  Tm  Tm12  1  0.558115  0.565309  0.938288  1
  Tm  Tm13  1  0.936631  0.938696  0.562337  1
  Lu  Lu14  1  0.346293  0.350326  0.349594  1
  Lu  Lu15  1  0.346293  0.350326  0.953787  1
  Cd  Cd16  1  0.580102  0.580258  0.580577  1
  Cd  Cd17  1  0.580102  0.580258  0.259063  1
  Cd  Cd18  1  0.580102  0.259061  0.580419  1
  Cd  Cd19  1  0.255147  0.581527  0.581664  1
  Ru  Ru20  1  0.146038  0.139564  0.137950  1
  Ru  Ru21  1  0.146038  0.139564  0.576448  1
  Ru  Ru22  1  0.146592  0.575929  0.138739  1
  Pt  Pt23  1  0.574264  0.143097  0.141320  1
