# generated using pymatgen
data_Ac(S8Br)3
_symmetry_space_group_name_H-M   'P 1'
_cell_length_a   4.42113299
_cell_length_b   15.48561342
_cell_length_c   15.48561310
_cell_angle_alpha   119.10521066
_cell_angle_beta   95.46090231
_cell_angle_gamma   95.46089883
_symmetry_Int_Tables_number   1
_chemical_formula_structural   Ac(S8Br)3
_chemical_formula_sum   'Ac1 S24 Br3'
_cell_volume   909.85022272
_cell_formula_units_Z   1
loop_
 _symmetry_equiv_pos_site_id
 _symmetry_equiv_pos_as_xyz
  1  'x, y, z'
loop_
 _atom_site_type_symbol
 _atom_site_label
 _atom_site_symmetry_multiplicity
 _atom_site_fract_x
 _atom_site_fract_y
 _atom_site_fract_z
 _atom_site_occupancy
  Ac  Ac0  1  0.554320  0.000000  0.000000  1
  S  S1  1  0.399601  0.409308  0.000000  1
  S  S2  1  0.543172  0.720821  0.000000  1
  S  S3  1  0.268227  0.521220  0.125375  1
  S  S4  1  0.369353  0.740111  0.126660  1
  S  S5  1  0.566452  0.653324  0.176239  1
  S  S6  1  0.629243  0.386548  0.259889  1
  S  S7  1  0.822349  0.279179  0.279179  1
  S  S8  1  0.913127  0.522914  0.346675  1
  S  S9  1  0.142852  0.874626  0.395845  1
  S  S10  1  0.629243  0.259889  0.386548  1
  S  S11  1  0.399601  0.000000  0.409308  1
  S  S12  1  0.390213  0.823762  0.477086  1
  S  S13  1  0.747008  0.604155  0.478781  1
  S  S14  1  0.268227  0.125375  0.521220  1
  S  S15  1  0.913127  0.346675  0.522914  1
  S  S16  1  0.990295  0.590692  0.590692  1
  S  S17  1  0.242695  0.873340  0.613452  1
  S  S18  1  0.747008  0.478781  0.604155  1
  S  S19  1  0.566452  0.176239  0.653324  1
  S  S20  1  0.543172  0.000000  0.720821  1
  S  S21  1  0.369353  0.126660  0.740111  1
  S  S22  1  0.390213  0.477086  0.823762  1
  S  S23  1  0.242695  0.613452  0.873340  1
  S  S24  1  0.142852  0.395845  0.874626  1
  Br  Br25  1  0.101239  0.141651  0.000000  1
  Br  Br26  1  0.101239  0.000000  0.141651  1
  Br  Br27  1  0.959588  0.858349  0.858349  1
