# generated using pymatgen
data_Tb3DyTmRu2
_symmetry_space_group_name_H-M   'P 1'
_cell_length_a   6.35994636
_cell_length_b   7.27037703
_cell_length_c   8.49266929
_cell_angle_alpha   96.63604601
_cell_angle_beta   111.98954702
_cell_angle_gamma   90.00000763
_symmetry_Int_Tables_number   1
_chemical_formula_structural   Tb3DyTmRu2
_chemical_formula_sum   'Tb6 Dy2 Tm2 Ru4'
_cell_volume   361.28772130
_cell_formula_units_Z   2
loop_
 _symmetry_equiv_pos_site_id
 _symmetry_equiv_pos_as_xyz
  1  'x, y, z'
loop_
 _atom_site_type_symbol
 _atom_site_label
 _atom_site_symmetry_multiplicity
 _atom_site_fract_x
 _atom_site_fract_y
 _atom_site_fract_z
 _atom_site_occupancy
  Tb  Tb0  1  0.791784  0.084185  0.814600  1
  Tb  Tb1  1  0.977185  0.415815  0.185400  1
  Tb  Tb2  1  0.208234  0.915703  0.185398  1
  Tb  Tb3  1  0.022836  0.584297  0.814602  1
  Tb  Tb4  1  0.206878  0.184892  0.567046  1
  Tb  Tb5  1  0.639831  0.315108  0.432954  1
  Dy  Dy6  1  0.793139  0.815098  0.432939  1
  Dy  Dy7  1  0.360201  0.684902  0.567061  1
  Tm  Tm8  1  0.421861  0.250000  0.000000  1
  Tm  Tm9  1  0.578142  0.750000  0.000000  1
  Ru  Ru10  1  0.602794  0.424583  0.781630  1
  Ru  Ru11  1  0.821164  0.075417  0.218370  1
  Ru  Ru12  1  0.397193  0.575543  0.218435  1
  Ru  Ru13  1  0.178759  0.924457  0.781565  1
