# generated using pymatgen
data_HoEr3(Lu4Sb3)4
_symmetry_space_group_name_H-M   'P 1'
_cell_length_a   8.02839430
_cell_length_b   9.11558100
_cell_length_c   11.65050434
_cell_angle_alpha   90.00000000
_cell_angle_beta   90.04426579
_cell_angle_gamma   90.00000000
_symmetry_Int_Tables_number   1
_chemical_formula_structural   HoEr3(Lu4Sb3)4
_chemical_formula_sum   'Ho1 Er3 Lu16 Sb12'
_cell_volume   852.62417945
_cell_formula_units_Z   1
loop_
 _symmetry_equiv_pos_site_id
 _symmetry_equiv_pos_as_xyz
  1  'x, y, z'
loop_
 _atom_site_type_symbol
 _atom_site_label
 _atom_site_symmetry_multiplicity
 _atom_site_fract_x
 _atom_site_fract_y
 _atom_site_fract_z
 _atom_site_occupancy
  Ho  Ho0  1  0.675083  0.750000  0.271173  1
  Er  Er1  1  0.825371  0.750000  0.771189  1
  Er  Er2  1  0.657329  0.250000  0.290953  1
  Er  Er3  1  0.174587  0.250000  0.228470  1
  Lu  Lu4  1  0.308901  0.561225  0.433767  1
  Lu  Lu5  1  0.842087  0.250000  0.790080  1
  Lu  Lu6  1  0.191311  0.938645  0.933842  1
  Lu  Lu7  1  0.308901  0.938775  0.433767  1
  Lu  Lu8  1  0.691544  0.438932  0.566340  1
  Lu  Lu9  1  0.808888  0.438531  0.065146  1
  Lu  Lu10  1  0.975485  0.750000  0.495397  1
  Lu  Lu11  1  0.158668  0.750000  0.209815  1
  Lu  Lu12  1  0.324603  0.250000  0.729429  1
  Lu  Lu13  1  0.474557  0.250000  0.004202  1
  Lu  Lu14  1  0.808888  0.061469  0.065146  1
  Lu  Lu15  1  0.191311  0.561355  0.933842  1
  Lu  Lu16  1  0.024830  0.250000  0.505299  1
  Lu  Lu17  1  0.341780  0.750000  0.709467  1
  Lu  Lu18  1  0.691544  0.061068  0.566340  1
  Lu  Lu19  1  0.524663  0.750000  0.994575  1
  Sb  Sb20  1  0.097235  0.250000  0.973680  1
  Sb  Sb21  1  0.936033  0.491208  0.326352  1
  Sb  Sb22  1  0.434824  0.990757  0.173384  1
  Sb  Sb23  1  0.065763  0.991172  0.673975  1
  Sb  Sb24  1  0.434824  0.509243  0.173384  1
  Sb  Sb25  1  0.596793  0.750000  0.526318  1
  Sb  Sb26  1  0.401784  0.250000  0.476844  1
  Sb  Sb27  1  0.563760  0.490224  0.825661  1
  Sb  Sb28  1  0.065763  0.508828  0.673975  1
  Sb  Sb29  1  0.903091  0.750000  0.026176  1
  Sb  Sb30  1  0.563760  0.009776  0.825661  1
  Sb  Sb31  1  0.936033  0.008792  0.326352  1
