# generated using pymatgen
data_Rb5BaVP4
_symmetry_space_group_name_H-M   'P 1'
_cell_length_a   10.46953485
_cell_length_b   10.46953411
_cell_length_c   8.14256483
_cell_angle_alpha   88.62262496
_cell_angle_beta   88.62262213
_cell_angle_gamma   120.82863628
_symmetry_Int_Tables_number   1
_chemical_formula_structural   Rb5BaVP4
_chemical_formula_sum   'Rb10 Ba2 V2 P8'
_cell_volume   765.49801713
_cell_formula_units_Z   2
loop_
 _symmetry_equiv_pos_site_id
 _symmetry_equiv_pos_as_xyz
  1  'x, y, z'
loop_
 _atom_site_type_symbol
 _atom_site_label
 _atom_site_symmetry_multiplicity
 _atom_site_fract_x
 _atom_site_fract_y
 _atom_site_fract_z
 _atom_site_occupancy
  Rb  Rb0  1  0.467259  0.525659  0.499098  1
  Rb  Rb1  1  0.059677  0.526967  0.499776  1
  Rb  Rb2  1  0.525659  0.467259  0.999098  1
  Rb  Rb3  1  0.526967  0.059677  0.999776  1
  Rb  Rb4  1  0.865071  0.141014  0.679370  1
  Rb  Rb5  1  0.295653  0.153757  0.713574  1
  Rb  Rb6  1  0.855404  0.716617  0.655365  1
  Rb  Rb7  1  0.141014  0.865071  0.179370  1
  Rb  Rb8  1  0.716617  0.855404  0.155365  1
  Rb  Rb9  1  0.153757  0.295653  0.213574  1
  Ba  Ba10  1  0.465489  0.935249  0.495274  1
  Ba  Ba11  1  0.935249  0.465489  0.995274  1
  V  V12  1  0.669180  0.330620  0.393629  1
  V  V13  1  0.330620  0.669180  0.893629  1
  P  P14  1  0.681450  0.334452  0.677104  1
  P  P15  1  0.334452  0.681450  0.177104  1
  P  P16  1  0.786009  0.205923  0.295515  1
  P  P17  1  0.421353  0.201209  0.324409  1
  P  P18  1  0.791233  0.570756  0.281174  1
  P  P19  1  0.205923  0.786009  0.795515  1
  P  P20  1  0.570756  0.791233  0.781174  1
  P  P21  1  0.201209  0.421353  0.824409  1
