# generated using pymatgen
data_Er4TmGaBiPt
_symmetry_space_group_name_H-M   'P 1'
_cell_length_a   8.64682147
_cell_length_b   8.64682239
_cell_length_c   8.70450128
_cell_angle_alpha   125.54891456
_cell_angle_beta   125.54892861
_cell_angle_gamma   80.18006325
_symmetry_Int_Tables_number   1
_chemical_formula_structural   Er4TmGaBiPt
_chemical_formula_sum   'Er8 Tm2 Ga2 Bi2 Pt2'
_cell_volume   416.80884887
_cell_formula_units_Z   2
loop_
 _symmetry_equiv_pos_site_id
 _symmetry_equiv_pos_as_xyz
  1  'x, y, z'
loop_
 _atom_site_type_symbol
 _atom_site_label
 _atom_site_symmetry_multiplicity
 _atom_site_fract_x
 _atom_site_fract_y
 _atom_site_fract_z
 _atom_site_occupancy
  Er  Er0  1  0.786666  0.286666  0.799050  1
  Er  Er1  1  0.213334  0.713334  0.200950  1
  Er  Er2  1  0.487616  0.987616  0.200950  1
  Er  Er3  1  0.300757  0.473305  0.500000  1
  Er  Er4  1  0.026695  0.199243  0.500000  1
  Er  Er5  1  0.512384  0.012384  0.799050  1
  Er  Er6  1  0.699243  0.526695  0.500000  1
  Er  Er7  1  0.973305  0.800757  0.500000  1
  Tm  Tm8  1  0.000000  0.000000  0.000000  1
  Tm  Tm9  1  0.500000  0.500000  0.000000  1
  Ga  Ga10  1  0.138027  0.638027  0.776055  1
  Ga  Ga11  1  0.861973  0.361973  0.223945  1
  Bi  Bi12  1  0.250000  0.250000  0.000000  1
  Bi  Bi13  1  0.750000  0.750000  0.000000  1
  Pt  Pt14  1  0.637237  0.862763  0.500000  1
  Pt  Pt15  1  0.362763  0.137237  0.500000  1
