# generated using pymatgen
data_Lu16MgTl2InRh4
_symmetry_space_group_name_H-M   'P 1'
_cell_length_a   9.48804111
_cell_length_b   9.48133512
_cell_length_c   9.48143729
_cell_angle_alpha   59.86421470
_cell_angle_beta   59.85601843
_cell_angle_gamma   59.86066871
_symmetry_Int_Tables_number   1
_chemical_formula_structural   Lu16MgTl2InRh4
_chemical_formula_sum   'Lu16 Mg1 Tl2 In1 Rh4'
_cell_volume   601.21012007
_cell_formula_units_Z   1
loop_
 _symmetry_equiv_pos_site_id
 _symmetry_equiv_pos_as_xyz
  1  'x, y, z'
loop_
 _atom_site_type_symbol
 _atom_site_label
 _atom_site_symmetry_multiplicity
 _atom_site_fract_x
 _atom_site_fract_y
 _atom_site_fract_z
 _atom_site_occupancy
  Lu  Lu0  1  0.598821  0.599365  0.599339  1
  Lu  Lu1  1  0.599077  0.599811  0.202760  1
  Lu  Lu2  1  0.599075  0.202801  0.599790  1
  Lu  Lu3  1  0.203028  0.599453  0.599525  1
  Lu  Lu4  1  0.060200  0.439267  0.439245  1
  Lu  Lu5  1  0.438354  0.062066  0.062096  1
  Lu  Lu6  1  0.438947  0.059938  0.440046  1
  Lu  Lu7  1  0.062496  0.438542  0.062586  1
  Lu  Lu8  1  0.438937  0.440042  0.059959  1
  Lu  Lu9  1  0.062470  0.062605  0.438537  1
  Lu  Lu10  1  0.187192  0.812880  0.812877  1
  Lu  Lu11  1  0.811262  0.188443  0.188411  1
  Lu  Lu12  1  0.812679  0.186823  0.812728  1
  Lu  Lu13  1  0.188475  0.811467  0.187946  1
  Lu  Lu14  1  0.812666  0.812719  0.186842  1
  Lu  Lu15  1  0.188457  0.187935  0.811447  1
  Mg  Mg16  1  0.829054  0.829149  0.829203  1
  Tl  Tl17  1  0.834915  0.836046  0.496289  1
  Tl  Tl18  1  0.834927  0.496318  0.836055  1
  In  In19  1  0.499013  0.834206  0.834211  1
  Rh  Rh20  1  0.392423  0.392494  0.392501  1
  Rh  Rh21  1  0.392460  0.392488  0.822685  1
  Rh  Rh22  1  0.392430  0.822662  0.392493  1
  Rh  Rh23  1  0.822643  0.392479  0.392426  1
