# generated using pymatgen
data_Ta3AlIr2N
_symmetry_space_group_name_H-M   'P 1'
_cell_length_a   8.31678641
_cell_length_b   8.31678624
_cell_length_c   8.31678700
_cell_angle_alpha   60.00000891
_cell_angle_beta   60.00000957
_cell_angle_gamma   60.00000343
_symmetry_Int_Tables_number   1
_chemical_formula_structural   Ta3AlIr2N
_chemical_formula_sum   'Ta12 Al4 Ir8 N4'
_cell_volume   406.77264589
_cell_formula_units_Z   4
loop_
 _symmetry_equiv_pos_site_id
 _symmetry_equiv_pos_as_xyz
  1  'x, y, z'
loop_
 _atom_site_type_symbol
 _atom_site_label
 _atom_site_symmetry_multiplicity
 _atom_site_fract_x
 _atom_site_fract_y
 _atom_site_fract_z
 _atom_site_occupancy
  Ta  Ta0  1  0.811381  0.811381  0.188619  1
  Ta  Ta1  1  0.188619  0.188619  0.811381  1
  Ta  Ta2  1  0.811381  0.188619  0.811381  1
  Ta  Ta3  1  0.188619  0.811381  0.188619  1
  Ta  Ta4  1  0.188619  0.811381  0.811381  1
  Ta  Ta5  1  0.811381  0.188619  0.188619  1
  Ta  Ta6  1  0.438619  0.438619  0.061381  1
  Ta  Ta7  1  0.061381  0.061381  0.438619  1
  Ta  Ta8  1  0.438619  0.061381  0.438619  1
  Ta  Ta9  1  0.061381  0.438619  0.061381  1
  Ta  Ta10  1  0.061381  0.438619  0.438619  1
  Ta  Ta11  1  0.438619  0.061381  0.061381  1
  Al  Al12  1  0.125000  0.625000  0.625000  1
  Al  Al13  1  0.625000  0.125000  0.625000  1
  Al  Al14  1  0.625000  0.625000  0.125000  1
  Al  Al15  1  0.625000  0.625000  0.625000  1
  Ir  Ir16  1  0.771129  0.409624  0.409624  1
  Ir  Ir17  1  0.409624  0.771129  0.409624  1
  Ir  Ir18  1  0.409624  0.409624  0.771129  1
  Ir  Ir19  1  0.409624  0.409624  0.409624  1
  Ir  Ir20  1  0.478871  0.840376  0.840376  1
  Ir  Ir21  1  0.840376  0.478871  0.840376  1
  Ir  Ir22  1  0.840376  0.840376  0.478871  1
  Ir  Ir23  1  0.840376  0.840376  0.840376  1
  N  N24  1  0.625000  0.125000  0.125000  1
  N  N25  1  0.125000  0.625000  0.125000  1
  N  N26  1  0.125000  0.125000  0.625000  1
  N  N27  1  0.125000  0.125000  0.125000  1
