# generated using pymatgen
data_Fe2CoNi3Pt2
_symmetry_space_group_name_H-M   'P 1'
_cell_length_a   3.67197600
_cell_length_b   3.70889200
_cell_length_c   7.29092400
_cell_angle_alpha   90.00000000
_cell_angle_beta   90.00000000
_cell_angle_gamma   90.00000000
_symmetry_Int_Tables_number   1
_chemical_formula_structural   Fe2CoNi3Pt2
_chemical_formula_sum   'Fe2 Co1 Ni3 Pt2'
_cell_volume   99.29481989
_cell_formula_units_Z   1
loop_
 _symmetry_equiv_pos_site_id
 _symmetry_equiv_pos_as_xyz
  1  'x, y, z'
loop_
 _atom_site_type_symbol
 _atom_site_label
 _atom_site_symmetry_multiplicity
 _atom_site_fract_x
 _atom_site_fract_y
 _atom_site_fract_z
 _atom_site_occupancy
  Fe  Fe0  1  0.500000  0.500000  0.253930  1
  Fe  Fe1  1  0.500000  0.500000  0.746070  1
  Co  Co2  1  0.000000  0.500000  0.500000  1
  Ni  Ni3  1  0.000000  0.500000  0.000000  1
  Ni  Ni4  1  0.500000  0.000000  0.500000  1
  Ni  Ni5  1  0.500000  0.000000  0.000000  1
  Pt  Pt6  1  0.000000  0.000000  0.249779  1
  Pt  Pt7  1  0.000000  0.000000  0.750221  1
