# generated using pymatgen
data_Dy2ThSn3Pt2Rh
_symmetry_space_group_name_H-M   'P 1'
_cell_length_a   7.52567082
_cell_length_b   7.52567102
_cell_length_c   4.10555200
_cell_angle_alpha   90.00000000
_cell_angle_beta   90.00000000
_cell_angle_gamma   120.04759742
_symmetry_Int_Tables_number   1
_chemical_formula_structural   Dy2ThSn3Pt2Rh
_chemical_formula_sum   'Dy2 Th1 Sn3 Pt2 Rh1'
_cell_volume   201.27235970
_cell_formula_units_Z   1
loop_
 _symmetry_equiv_pos_site_id
 _symmetry_equiv_pos_as_xyz
  1  'x, y, z'
loop_
 _atom_site_type_symbol
 _atom_site_label
 _atom_site_symmetry_multiplicity
 _atom_site_fract_x
 _atom_site_fract_y
 _atom_site_fract_z
 _atom_site_occupancy
  Dy  Dy0  1  0.592798  0.000244  0.500000  1
  Dy  Dy1  1  0.000244  0.592798  0.500000  1
  Th  Th2  1  0.410904  0.410904  0.500000  1
  Sn  Sn3  1  0.756511  0.756511  0.000000  1
  Sn  Sn4  1  0.250830  0.989754  0.000000  1
  Sn  Sn5  1  0.989754  0.250830  0.000000  1
  Pt  Pt6  1  0.659891  0.332754  0.000000  1
  Pt  Pt7  1  0.332754  0.659891  0.000000  1
  Rh  Rh8  1  0.006314  0.006314  0.500000  1
