# generated using pymatgen
data_Pr15Y4ErSn16
_symmetry_space_group_name_H-M   'P 1'
_cell_length_a   8.26313602
_cell_length_b   8.43387564
_cell_length_c   16.01145521
_cell_angle_alpha   90.06425264
_cell_angle_beta   89.66730281
_cell_angle_gamma   90.09465656
_symmetry_Int_Tables_number   1
_chemical_formula_structural   Pr15Y4ErSn16
_chemical_formula_sum   'Pr15 Y4 Er1 Sn16'
_cell_volume   1115.82147879
_cell_formula_units_Z   1
loop_
 _symmetry_equiv_pos_site_id
 _symmetry_equiv_pos_as_xyz
  1  'x, y, z'
loop_
 _atom_site_type_symbol
 _atom_site_label
 _atom_site_symmetry_multiplicity
 _atom_site_fract_x
 _atom_site_fract_y
 _atom_site_fract_z
 _atom_site_occupancy
  Pr  Pr0  1  0.863116  0.661277  0.622581  1
  Pr  Pr1  1  0.635883  0.160457  0.379105  1
  Pr  Pr2  1  0.140662  0.336911  0.118394  1
  Pr  Pr3  1  0.637760  0.163122  0.121852  1
  Pr  Pr4  1  0.136168  0.337953  0.379236  1
  Pr  Pr5  1  0.363686  0.838897  0.621656  1
  Pr  Pr6  1  0.863754  0.662083  0.879635  1
  Pr  Pr7  1  0.515993  0.319170  0.902161  1
  Pr  Pr8  1  0.018719  0.180380  0.599607  1
  Pr  Pr9  1  0.482605  0.681208  0.402141  1
  Pr  Pr10  1  0.984668  0.818261  0.097296  1
  Pr  Pr11  1  0.485170  0.681627  0.095387  1
  Pr  Pr12  1  0.982805  0.818570  0.401074  1
  Pr  Pr13  1  0.517994  0.319045  0.600303  1
  Pr  Pr14  1  0.014395  0.179889  0.902490  1
  Y  Y15  1  0.359030  0.839198  0.874973  1
  Y  Y16  1  0.195486  0.502616  0.751173  1
  Y  Y17  1  0.693313  0.997860  0.750682  1
  Y  Y18  1  0.805937  0.498117  0.249974  1
  Er  Er19  1  0.304216  0.001627  0.249132  1
  Sn  Sn20  1  0.299675  0.031543  0.039475  1
  Sn  Sn21  1  0.794355  0.465597  0.456157  1
  Sn  Sn22  1  0.707163  0.965544  0.545207  1
  Sn  Sn23  1  0.209258  0.542341  0.954551  1
  Sn  Sn24  1  0.690924  0.961749  0.955167  1
  Sn  Sn25  1  0.205791  0.533800  0.545776  1
  Sn  Sn26  1  0.293028  0.033546  0.454885  1
  Sn  Sn27  1  0.797633  0.464634  0.044518  1
  Sn  Sn28  1  0.556877  0.620465  0.752207  1
  Sn  Sn29  1  0.060487  0.884395  0.752298  1
  Sn  Sn30  1  0.440043  0.384476  0.250123  1
  Sn  Sn31  1  0.941530  0.116995  0.248781  1
  Sn  Sn32  1  0.322301  0.146180  0.752366  1
  Sn  Sn33  1  0.822020  0.351752  0.751550  1
  Sn  Sn34  1  0.678477  0.851780  0.249258  1
  Sn  Sn35  1  0.179075  0.646935  0.248829  1
