# generated using pymatgen
data_EuYErGa8Ag3
_symmetry_space_group_name_H-M   'P 1'
_cell_length_a   4.36493628
_cell_length_b   8.40903498
_cell_length_c   8.40903501
_cell_angle_alpha   69.96539696
_cell_angle_beta   74.95731313
_cell_angle_gamma   74.95732371
_symmetry_Int_Tables_number   1
_chemical_formula_structural   EuYErGa8Ag3
_chemical_formula_sum   'Eu1 Y1 Er1 Ga8 Ag3'
_cell_volume   275.04183176
_cell_formula_units_Z   1
loop_
 _symmetry_equiv_pos_site_id
 _symmetry_equiv_pos_as_xyz
  1  'x, y, z'
loop_
 _atom_site_type_symbol
 _atom_site_label
 _atom_site_symmetry_multiplicity
 _atom_site_fract_x
 _atom_site_fract_y
 _atom_site_fract_z
 _atom_site_occupancy
  Eu  Eu0  1  0.000113  0.999887  0.999887  1
  Y  Y1  1  0.700108  0.299892  0.299892  1
  Er  Er2  1  0.300095  0.699905  0.699905  1
  Ga  Ga3  1  0.338955  0.292868  0.029221  1
  Ga  Ga4  1  0.661279  0.707091  0.970353  1
  Ga  Ga5  1  0.338955  0.029221  0.292868  1
  Ga  Ga6  1  0.661279  0.970353  0.707091  1
  Ga  Ga7  1  0.144657  0.573549  0.137139  1
  Ga  Ga8  1  0.855282  0.426981  0.862454  1
  Ga  Ga9  1  0.144657  0.137139  0.573549  1
  Ga  Ga10  1  0.855282  0.862454  0.426981  1
  Ag  Ag11  1  0.499778  0.307557  0.692888  1
  Ag  Ag12  1  0.499778  0.692888  0.307557  1
  Ag  Ag13  1  0.999784  0.500216  0.500216  1
