# generated using pymatgen
data_La6IrAu7
_symmetry_space_group_name_H-M   'P 1'
_cell_length_a   8.56123146
_cell_length_b   8.56123082
_cell_length_c   8.56123152
_cell_angle_alpha   114.71171363
_cell_angle_beta   114.71171191
_cell_angle_gamma   114.71170572
_symmetry_Int_Tables_number   1
_chemical_formula_structural   La6IrAu7
_chemical_formula_sum   'La6 Ir1 Au7'
_cell_volume   360.23280617
_cell_formula_units_Z   1
loop_
 _symmetry_equiv_pos_site_id
 _symmetry_equiv_pos_as_xyz
  1  'x, y, z'
loop_
 _atom_site_type_symbol
 _atom_site_label
 _atom_site_symmetry_multiplicity
 _atom_site_fract_x
 _atom_site_fract_y
 _atom_site_fract_z
 _atom_site_occupancy
  La  La0  1  0.980984  0.616027  0.733879  1
  La  La1  1  0.733879  0.980984  0.616027  1
  La  La2  1  0.616027  0.733879  0.980984  1
  La  La3  1  0.019016  0.383973  0.266121  1
  La  La4  1  0.266121  0.019016  0.383973  1
  La  La5  1  0.383973  0.266121  0.019016  1
  Ir  Ir6  1  0.000000  0.000000  0.000000  1
  Au  Au7  1  0.500000  0.500000  0.500000  1
  Au  Au8  1  0.936943  0.770917  0.434615  1
  Au  Au9  1  0.434615  0.936943  0.770917  1
  Au  Au10  1  0.770917  0.434615  0.936943  1
  Au  Au11  1  0.063057  0.229083  0.565385  1
  Au  Au12  1  0.565385  0.063057  0.229083  1
  Au  Au13  1  0.229083  0.565385  0.063057  1
