# generated using pymatgen
data_Y4Th2Zr4Al12Os7
_symmetry_space_group_name_H-M   'P 1'
_cell_length_a   9.16699948
_cell_length_b   9.16700049
_cell_length_c   9.18657494
_cell_angle_alpha   60.23019826
_cell_angle_beta   60.23018766
_cell_angle_gamma   60.13472604
_symmetry_Int_Tables_number   1
_chemical_formula_structural   Y4Th2Zr4Al12Os7
_chemical_formula_sum   'Y4 Th2 Zr4 Al12 Os7'
_cell_volume   548.32585763
_cell_formula_units_Z   1
loop_
 _symmetry_equiv_pos_site_id
 _symmetry_equiv_pos_as_xyz
  1  'x, y, z'
loop_
 _atom_site_type_symbol
 _atom_site_label
 _atom_site_symmetry_multiplicity
 _atom_site_fract_x
 _atom_site_fract_y
 _atom_site_fract_z
 _atom_site_occupancy
  Y  Y0  1  0.702902  0.702902  0.300431  1
  Y  Y1  1  0.293164  0.705125  0.294035  1
  Y  Y2  1  0.705125  0.293164  0.294035  1
  Y  Y3  1  0.295400  0.295400  0.703180  1
  Th  Th4  1  0.704341  0.298130  0.703998  1
  Th  Th5  1  0.298130  0.704341  0.703998  1
  Zr  Zr6  1  0.881583  0.881583  0.357731  1
  Zr  Zr7  1  0.881568  0.357944  0.883113  1
  Zr  Zr8  1  0.357944  0.881568  0.883113  1
  Zr  Zr9  1  0.879860  0.879860  0.882897  1
  Al  Al10  1  0.123063  0.123063  0.639188  1
  Al  Al11  1  0.116793  0.639807  0.125258  1
  Al  Al12  1  0.639807  0.116793  0.125258  1
  Al  Al13  1  0.119989  0.119989  0.120033  1
  Al  Al14  1  0.667809  0.667809  0.996051  1
  Al  Al15  1  0.668148  0.992143  0.666731  1
  Al  Al16  1  0.992143  0.668148  0.666731  1
  Al  Al17  1  0.671740  0.671740  0.666838  1
  Al  Al18  1  0.326170  0.326170  0.014257  1
  Al  Al19  1  0.331687  0.011774  0.324294  1
  Al  Al20  1  0.011774  0.331687  0.324294  1
  Al  Al21  1  0.330079  0.330079  0.329847  1
  Os  Os22  1  0.000427  0.000427  0.001673  1
  Os  Os23  1  0.001913  0.001913  0.499680  1
  Os  Os24  1  0.497146  0.002244  0.497264  1
  Os  Os25  1  0.002244  0.497146  0.497264  1
  Os  Os26  1  0.497784  0.497784  0.001190  1
  Os  Os27  1  0.001379  0.499884  0.998806  1
  Os  Os28  1  0.499884  0.001379  0.998806  1
