# generated using pymatgen
data_La2Ho3Ru2
_symmetry_space_group_name_H-M   'P 1'
_cell_length_a   6.49218178
_cell_length_b   7.22811465
_cell_length_c   8.78073203
_cell_angle_alpha   96.30760294
_cell_angle_beta   111.69609659
_cell_angle_gamma   89.99999685
_symmetry_Int_Tables_number   1
_chemical_formula_structural   La2Ho3Ru2
_chemical_formula_sum   'La4 Ho6 Ru4'
_cell_volume   380.17053153
_cell_formula_units_Z   2
loop_
 _symmetry_equiv_pos_site_id
 _symmetry_equiv_pos_as_xyz
  1  'x, y, z'
loop_
 _atom_site_type_symbol
 _atom_site_label
 _atom_site_symmetry_multiplicity
 _atom_site_fract_x
 _atom_site_fract_y
 _atom_site_fract_z
 _atom_site_occupancy
  La  La0  1  0.978202  0.911572  0.193914  1
  La  La1  1  0.784287  0.588428  0.806086  1
  La  La2  1  0.021798  0.088428  0.806086  1
  La  La3  1  0.215713  0.411572  0.193914  1
  Ho  Ho4  1  0.636695  0.815057  0.431116  1
  Ho  Ho5  1  0.205578  0.684943  0.568884  1
  Ho  Ho6  1  0.363305  0.184943  0.568884  1
  Ho  Ho7  1  0.794422  0.315057  0.431116  1
  Ho  Ho8  1  0.425523  0.750000  0.000000  1
  Ho  Ho9  1  0.574477  0.250000  0.000000  1
  Ru  Ru10  1  0.824705  0.580821  0.224425  1
  Ru  Ru11  1  0.600280  0.919179  0.775575  1
  Ru  Ru12  1  0.175295  0.419179  0.775575  1
  Ru  Ru13  1  0.399720  0.080821  0.224425  1
