# generated using pymatgen
data_Y4ZrIr3
_symmetry_space_group_name_H-M   'P 1'
_cell_length_a   10.89696300
_cell_length_b   10.89696300
_cell_length_c   6.28435600
_cell_angle_alpha   90.00000000
_cell_angle_beta   90.00000000
_cell_angle_gamma   90.00000000
_symmetry_Int_Tables_number   1
_chemical_formula_structural   Y4ZrIr3
_chemical_formula_sum   'Y16 Zr4 Ir12'
_cell_volume   746.22832848
_cell_formula_units_Z   4
loop_
 _symmetry_equiv_pos_site_id
 _symmetry_equiv_pos_as_xyz
  1  'x, y, z'
loop_
 _atom_site_type_symbol
 _atom_site_label
 _atom_site_symmetry_multiplicity
 _atom_site_fract_x
 _atom_site_fract_y
 _atom_site_fract_z
 _atom_site_occupancy
  Y  Y0  1  0.289780  0.086749  0.374581  1
  Y  Y1  1  0.289780  0.913251  0.874581  1
  Y  Y2  1  0.710220  0.086749  0.874581  1
  Y  Y3  1  0.710220  0.913251  0.374581  1
  Y  Y4  1  0.586749  0.789780  0.874581  1
  Y  Y5  1  0.586749  0.210220  0.374581  1
  Y  Y6  1  0.413251  0.789780  0.374581  1
  Y  Y7  1  0.413251  0.210220  0.874581  1
  Y  Y8  1  0.210220  0.413251  0.625419  1
  Y  Y9  1  0.210220  0.586749  0.125419  1
  Y  Y10  1  0.789780  0.413251  0.125419  1
  Y  Y11  1  0.789780  0.586749  0.625419  1
  Y  Y12  1  0.913251  0.710220  0.125419  1
  Y  Y13  1  0.913251  0.289780  0.625419  1
  Y  Y14  1  0.086749  0.710220  0.625419  1
  Y  Y15  1  0.086749  0.289780  0.125419  1
  Zr  Zr16  1  0.000000  0.000000  0.500000  1
  Zr  Zr17  1  0.000000  0.000000  0.000000  1
  Zr  Zr18  1  0.500000  0.500000  0.000000  1
  Zr  Zr19  1  0.500000  0.500000  0.500000  1
  Ir  Ir20  1  0.855972  0.144028  0.250000  1
  Ir  Ir21  1  0.855972  0.855972  0.750000  1
  Ir  Ir22  1  0.144028  0.144028  0.750000  1
  Ir  Ir23  1  0.144028  0.855972  0.250000  1
  Ir  Ir24  1  0.644028  0.355972  0.750000  1
  Ir  Ir25  1  0.644028  0.644028  0.250000  1
  Ir  Ir26  1  0.355972  0.355972  0.250000  1
  Ir  Ir27  1  0.355972  0.644028  0.750000  1
  Ir  Ir28  1  0.500000  0.000000  0.122084  1
  Ir  Ir29  1  0.500000  0.000000  0.622084  1
  Ir  Ir30  1  0.000000  0.500000  0.877916  1
  Ir  Ir31  1  0.000000  0.500000  0.377916  1
