# generated using pymatgen
data_PrAuCl6
_symmetry_space_group_name_H-M   'P 1'
_cell_length_a   7.75981515
_cell_length_b   10.18254044
_cell_length_c   14.54611176
_cell_angle_alpha   103.57659952
_cell_angle_beta   96.39308879
_cell_angle_gamma   111.94597845
_symmetry_Int_Tables_number   1
_chemical_formula_structural   PrAuCl6
_chemical_formula_sum   'Pr4 Au4 Cl24'
_cell_volume   1010.70302264
_cell_formula_units_Z   4
loop_
 _symmetry_equiv_pos_site_id
 _symmetry_equiv_pos_as_xyz
  1  'x, y, z'
loop_
 _atom_site_type_symbol
 _atom_site_label
 _atom_site_symmetry_multiplicity
 _atom_site_fract_x
 _atom_site_fract_y
 _atom_site_fract_z
 _atom_site_occupancy
  Pr  Pr0  1  0.579647  0.923958  0.622016  1
  Pr  Pr1  1  0.026665  0.687607  0.128398  1
  Pr  Pr2  1  0.420353  0.076042  0.377984  1
  Pr  Pr3  1  0.973335  0.312393  0.871602  1
  Au  Au4  1  0.294956  0.633166  0.763985  1
  Au  Au5  1  0.500000  0.500000  0.500000  1
  Au  Au6  1  0.705044  0.366834  0.236015  1
  Au  Au7  1  0.000000  0.000000  0.000000  1
  Cl  Cl8  1  0.776492  0.094554  0.969787  1
  Cl  Cl9  1  0.723324  0.154920  0.260892  1
  Cl  Cl10  1  0.276676  0.845080  0.739108  1
  Cl  Cl11  1  0.769835  0.797091  0.027574  1
  Cl  Cl12  1  0.614122  0.191006  0.744788  1
  Cl  Cl13  1  0.312291  0.418329  0.784946  1
  Cl  Cl14  1  0.687709  0.581671  0.215054  1
  Cl  Cl15  1  0.300726  0.622955  0.499242  1
  Cl  Cl16  1  0.230165  0.202909  0.972426  1
  Cl  Cl17  1  0.756609  0.724639  0.523013  1
  Cl  Cl18  1  0.223508  0.905446  0.030213  1
  Cl  Cl19  1  0.729023  0.050012  0.483557  1
  Cl  Cl20  1  0.608231  0.726715  0.746494  1
  Cl  Cl21  1  0.953731  0.058105  0.731063  1
  Cl  Cl22  1  0.243391  0.275361  0.476987  1
  Cl  Cl23  1  0.385878  0.808994  0.255212  1
  Cl  Cl24  1  0.980004  0.541645  0.779030  1
  Cl  Cl25  1  0.760324  0.436643  0.978547  1
  Cl  Cl26  1  0.239676  0.563357  0.021453  1
  Cl  Cl27  1  0.019996  0.458355  0.220970  1
  Cl  Cl28  1  0.391769  0.273285  0.253506  1
  Cl  Cl29  1  0.270977  0.949988  0.516443  1
  Cl  Cl30  1  0.699274  0.377045  0.500758  1
  Cl  Cl31  1  0.046269  0.941895  0.268937  1
