# generated using pymatgen
data_Dy6Tm4Si5As
_symmetry_space_group_name_H-M   'P 1'
_cell_length_a   8.42048393
_cell_length_b   8.42048380
_cell_length_c   6.25572000
_cell_angle_alpha   90.00000000
_cell_angle_beta   90.00000000
_cell_angle_gamma   120.09559201
_symmetry_Int_Tables_number   1
_chemical_formula_structural   Dy6Tm4Si5As
_chemical_formula_sum   'Dy6 Tm4 Si5 As1'
_cell_volume   383.76281378
_cell_formula_units_Z   1
loop_
 _symmetry_equiv_pos_site_id
 _symmetry_equiv_pos_as_xyz
  1  'x, y, z'
loop_
 _atom_site_type_symbol
 _atom_site_label
 _atom_site_symmetry_multiplicity
 _atom_site_fract_x
 _atom_site_fract_y
 _atom_site_fract_z
 _atom_site_occupancy
  Dy  Dy0  1  0.757240  0.757240  0.250000  1
  Dy  Dy1  1  0.243789  0.996542  0.250000  1
  Dy  Dy2  1  0.996542  0.243789  0.250000  1
  Dy  Dy3  1  0.244099  0.244099  0.750000  1
  Dy  Dy4  1  0.755341  0.000398  0.750000  1
  Dy  Dy5  1  0.000398  0.755341  0.750000  1
  Tm  Tm6  1  0.668812  0.332978  0.501536  1
  Tm  Tm7  1  0.332978  0.668812  0.501536  1
  Tm  Tm8  1  0.332978  0.668812  0.998464  1
  Tm  Tm9  1  0.668812  0.332978  0.998464  1
  Si  Si10  1  0.605117  0.999804  0.250000  1
  Si  Si11  1  0.999804  0.605117  0.250000  1
  Si  Si12  1  0.606090  0.606090  0.750000  1
  Si  Si13  1  0.394883  0.000845  0.750000  1
  Si  Si14  1  0.000845  0.394883  0.750000  1
  As  As15  1  0.392271  0.392271  0.250000  1
