# generated using pymatgen
data_Ac2PaRu2
_symmetry_space_group_name_H-M   'P 1'
_cell_length_a   6.42874539
_cell_length_b   6.42874720
_cell_length_c   6.42874776
_cell_angle_alpha   141.55030241
_cell_angle_beta   121.55079338
_cell_angle_gamma   72.15707005
_symmetry_Int_Tables_number   1
_chemical_formula_structural   Ac2PaRu2
_chemical_formula_sum   'Ac2 Pa1 Ru2'
_cell_volume   138.08681679
_cell_formula_units_Z   1
loop_
 _symmetry_equiv_pos_site_id
 _symmetry_equiv_pos_as_xyz
  1  'x, y, z'
loop_
 _atom_site_type_symbol
 _atom_site_label
 _atom_site_symmetry_multiplicity
 _atom_site_fract_x
 _atom_site_fract_y
 _atom_site_fract_z
 _atom_site_occupancy
  Ac  Ac0  1  0.690229  0.190230  0.500000  1
  Ac  Ac1  1  0.309770  0.809770  0.500000  1
  Pa  Pa2  1  0.000000  0.000000  0.000000  1
  Ru  Ru3  1  0.767769  0.500000  0.267769  1
  Ru  Ru4  1  0.232230  0.500000  0.732230  1
