# generated using pymatgen
data_TaNb2(BOs)3
_symmetry_space_group_name_H-M   'P 1'
_cell_length_a   3.11415100
_cell_length_b   9.10426500
_cell_length_c   15.87136800
_cell_angle_alpha   90.00000000
_cell_angle_beta   90.00000000
_cell_angle_gamma   90.00000000
_symmetry_Int_Tables_number   1
_chemical_formula_structural   TaNb2(BOs)3
_chemical_formula_sum   'Ta4 Nb8 B12 Os12'
_cell_volume   449.98591360
_cell_formula_units_Z   4
loop_
 _symmetry_equiv_pos_site_id
 _symmetry_equiv_pos_as_xyz
  1  'x, y, z'
loop_
 _atom_site_type_symbol
 _atom_site_label
 _atom_site_symmetry_multiplicity
 _atom_site_fract_x
 _atom_site_fract_y
 _atom_site_fract_z
 _atom_site_occupancy
  Ta  Ta0  1  0.000000  0.800398  0.495065  1
  Ta  Ta1  1  0.000000  0.199602  0.504935  1
  Ta  Ta2  1  0.000000  0.300398  0.004935  1
  Ta  Ta3  1  0.000000  0.699602  0.995065  1
  Nb  Nb4  1  0.000000  0.516646  0.593605  1
  Nb  Nb5  1  0.000000  0.483354  0.406395  1
  Nb  Nb6  1  0.000000  0.016646  0.906395  1
  Nb  Nb7  1  0.000000  0.983354  0.093605  1
  Nb  Nb8  1  0.000000  0.688246  0.202138  1
  Nb  Nb9  1  0.000000  0.311754  0.797862  1
  Nb  Nb10  1  0.000000  0.188246  0.297862  1
  Nb  Nb11  1  0.000000  0.811754  0.702138  1
  B  B12  1  0.500000  0.606070  0.497080  1
  B  B13  1  0.500000  0.393930  0.502920  1
  B  B14  1  0.500000  0.106070  0.002920  1
  B  B15  1  0.500000  0.893930  0.997080  1
  B  B16  1  0.000000  0.609305  0.831971  1
  B  B17  1  0.000000  0.390695  0.168029  1
  B  B18  1  0.000000  0.109305  0.668029  1
  B  B19  1  0.000000  0.890695  0.331971  1
  B  B20  1  0.500000  0.716833  0.597098  1
  B  B21  1  0.500000  0.283167  0.402902  1
  B  B22  1  0.500000  0.216833  0.902902  1
  B  B23  1  0.500000  0.783167  0.097098  1
  Os  Os24  1  0.500000  0.719751  0.355868  1
  Os  Os25  1  0.500000  0.280249  0.644132  1
  Os  Os26  1  0.500000  0.219751  0.144132  1
  Os  Os27  1  0.500000  0.780249  0.855868  1
  Os  Os28  1  0.500000  0.515656  0.093157  1
  Os  Os29  1  0.500000  0.484344  0.906843  1
  Os  Os30  1  0.500000  0.015656  0.406843  1
  Os  Os31  1  0.500000  0.984344  0.593157  1
  Os  Os32  1  0.500000  0.559659  0.735281  1
  Os  Os33  1  0.500000  0.440341  0.264719  1
  Os  Os34  1  0.500000  0.059659  0.764719  1
  Os  Os35  1  0.500000  0.940341  0.235281  1
