# generated using pymatgen
data_Mo3H4
_symmetry_space_group_name_H-M   'P 1'
_cell_length_a   7.50042953
_cell_length_b   7.50042933
_cell_length_c   7.50042931
_cell_angle_alpha   23.08950924
_cell_angle_beta   23.08951353
_cell_angle_gamma   23.08950905
_symmetry_Int_Tables_number   1
_chemical_formula_structural   Mo3H4
_chemical_formula_sum   'Mo3 H4'
_cell_volume   56.96000631
_cell_formula_units_Z   1
loop_
 _symmetry_equiv_pos_site_id
 _symmetry_equiv_pos_as_xyz
  1  'x, y, z'
loop_
 _atom_site_type_symbol
 _atom_site_label
 _atom_site_symmetry_multiplicity
 _atom_site_fract_x
 _atom_site_fract_y
 _atom_site_fract_z
 _atom_site_occupancy
  Mo  Mo0  1  0.000000  0.000000  0.000000  1
  Mo  Mo1  1  0.227759  0.227759  0.227759  1
  Mo  Mo2  1  0.772241  0.772241  0.772241  1
  H  H3  1  0.140049  0.140049  0.140049  1
  H  H4  1  0.387420  0.387420  0.387420  1
  H  H5  1  0.612580  0.612580  0.612580  1
  H  H6  1  0.859951  0.859951  0.859951  1
