# generated using pymatgen
data_Y4VRe(B8Mo)2
_symmetry_space_group_name_H-M   'P 1'
_cell_length_a   3.58998700
_cell_length_b   6.01260977
_cell_length_c   11.61686133
_cell_angle_alpha   89.89556106
_cell_angle_beta   90.00000000
_cell_angle_gamma   90.00000000
_symmetry_Int_Tables_number   1
_chemical_formula_structural   Y4VRe(B8Mo)2
_chemical_formula_sum   'Y4 V1 Re1 B16 Mo2'
_cell_volume   250.75175319
_cell_formula_units_Z   1
loop_
 _symmetry_equiv_pos_site_id
 _symmetry_equiv_pos_as_xyz
  1  'x, y, z'
loop_
 _atom_site_type_symbol
 _atom_site_label
 _atom_site_symmetry_multiplicity
 _atom_site_fract_x
 _atom_site_fract_y
 _atom_site_fract_z
 _atom_site_occupancy
  Y  Y0  1  0.000000  0.626135  0.351872  1
  Y  Y1  1  0.000000  0.374792  0.648609  1
  Y  Y2  1  0.000000  0.126467  0.150932  1
  Y  Y3  1  0.000000  0.872775  0.847382  1
  V  V4  1  0.000000  0.871980  0.581511  1
  Re  Re5  1  0.000000  0.127133  0.417681  1
  B  B6  1  0.500000  0.787296  0.187451  1
  B  B7  1  0.500000  0.212944  0.812704  1
  B  B8  1  0.500000  0.284010  0.315970  1
  B  B9  1  0.500000  0.716153  0.684088  1
  B  B10  1  0.500000  0.867263  0.031966  1
  B  B11  1  0.500000  0.132887  0.967792  1
  B  B12  1  0.500000  0.364044  0.468250  1
  B  B13  1  0.500000  0.636121  0.532038  1
  B  B14  1  0.500000  0.886849  0.453267  1
  B  B15  1  0.500000  0.113066  0.547214  1
  B  B16  1  0.500000  0.386028  0.047644  1
  B  B17  1  0.500000  0.614808  0.952496  1
  B  B18  1  0.500000  0.977048  0.308561  1
  B  B19  1  0.500000  0.022602  0.691506  1
  B  B20  1  0.500000  0.474774  0.194535  1
  B  B21  1  0.500000  0.525161  0.805542  1
  Mo  Mo22  1  0.000000  0.629442  0.084867  1
  Mo  Mo23  1  0.000000  0.370225  0.916122  1
