# generated using pymatgen
data_La2Tb3YIrI10
_symmetry_space_group_name_H-M   'P 1'
_cell_length_a   7.87346736
_cell_length_b   9.92613872
_cell_length_c   9.90860761
_cell_angle_alpha   106.81108093
_cell_angle_beta   95.75173826
_cell_angle_gamma   105.51676743
_symmetry_Int_Tables_number   1
_chemical_formula_structural   La2Tb3YIrI10
_chemical_formula_sum   'La2 Tb3 Y1 Ir1 I10'
_cell_volume   700.91146204
_cell_formula_units_Z   1
loop_
 _symmetry_equiv_pos_site_id
 _symmetry_equiv_pos_as_xyz
  1  'x, y, z'
loop_
 _atom_site_type_symbol
 _atom_site_label
 _atom_site_symmetry_multiplicity
 _atom_site_fract_x
 _atom_site_fract_y
 _atom_site_fract_z
 _atom_site_occupancy
  La  La0  1  0.117484  0.044004  0.763452  1
  La  La1  1  0.881989  0.955965  0.236505  1
  Tb  Tb2  1  0.970951  0.287274  0.087137  1
  Tb  Tb3  1  0.028544  0.712605  0.912824  1
  Tb  Tb4  1  0.349226  0.126940  0.164273  1
  Y  Y5  1  0.650616  0.872766  0.835609  1
  Ir  Ir6  1  0.000060  0.000057  0.000112  1
  I  I7  1  0.347424  0.447207  0.269504  1
  I  I8  1  0.652392  0.553436  0.730614  1
  I  I9  1  0.269308  0.089287  0.456249  1
  I  I10  1  0.730380  0.910600  0.544180  1
  I  I11  1  0.082200  0.379213  0.825513  1
  I  I12  1  0.917681  0.620876  0.174440  1
  I  I13  1  0.445655  0.818052  0.087156  1
  I  I14  1  0.554730  0.181436  0.912129  1
  I  I15  1  0.772545  0.262195  0.340935  1
  I  I16  1  0.228813  0.738087  0.659367  1
