# generated using pymatgen
data_Sc10GaSiSb4
_symmetry_space_group_name_H-M   'P 1'
_cell_length_a   8.28134800
_cell_length_b   8.29476137
_cell_length_c   5.95315100
_cell_angle_alpha   90.00000000
_cell_angle_beta   90.00000000
_cell_angle_gamma   119.94652151
_symmetry_Int_Tables_number   1
_chemical_formula_structural   Sc10GaSiSb4
_chemical_formula_sum   'Sc10 Ga1 Si1 Sb4'
_cell_volume   354.33678806
_cell_formula_units_Z   1
loop_
 _symmetry_equiv_pos_site_id
 _symmetry_equiv_pos_as_xyz
  1  'x, y, z'
loop_
 _atom_site_type_symbol
 _atom_site_label
 _atom_site_symmetry_multiplicity
 _atom_site_fract_x
 _atom_site_fract_y
 _atom_site_fract_z
 _atom_site_occupancy
  Sc  Sc0  1  0.345062  0.687993  0.003073  1
  Sc  Sc1  1  0.657070  0.312007  0.496927  1
  Sc  Sc2  1  0.657070  0.312007  0.003073  1
  Sc  Sc3  1  0.345062  0.687993  0.496927  1
  Sc  Sc4  1  0.253187  0.000000  0.250000  1
  Sc  Sc5  1  0.243668  0.230489  0.750000  1
  Sc  Sc6  1  0.013180  0.769511  0.750000  1
  Sc  Sc7  1  0.982815  0.228827  0.250000  1
  Sc  Sc8  1  0.753988  0.771173  0.250000  1
  Sc  Sc9  1  0.749710  0.000000  0.750000  1
  Ga  Ga10  1  0.395783  0.000000  0.750000  1
  Si  Si11  1  0.605231  0.000000  0.250000  1
  Sb  Sb12  1  0.613442  0.607398  0.750000  1
  Sb  Sb13  1  0.006044  0.392602  0.750000  1
  Sb  Sb14  1  0.994021  0.609353  0.250000  1
  Sb  Sb15  1  0.384668  0.390647  0.250000  1
