# generated using pymatgen
data_Sc10Al5PC8
_symmetry_space_group_name_H-M   'P 1'
_cell_length_a   10.16708700
_cell_length_b   10.16708700
_cell_length_c   3.29493600
_cell_angle_alpha   90.00000000
_cell_angle_beta   90.00000000
_cell_angle_gamma   90.00000000
_symmetry_Int_Tables_number   1
_chemical_formula_structural   Sc10Al5PC8
_chemical_formula_sum   'Sc10 Al5 P1 C8'
_cell_volume   340.59640767
_cell_formula_units_Z   1
loop_
 _symmetry_equiv_pos_site_id
 _symmetry_equiv_pos_as_xyz
  1  'x, y, z'
loop_
 _atom_site_type_symbol
 _atom_site_label
 _atom_site_symmetry_multiplicity
 _atom_site_fract_x
 _atom_site_fract_y
 _atom_site_fract_z
 _atom_site_occupancy
  Sc  Sc0  1  0.548391  0.728551  0.500000  1
  Sc  Sc1  1  0.451609  0.271449  0.500000  1
  Sc  Sc2  1  0.050827  0.762819  0.500000  1
  Sc  Sc3  1  0.949173  0.237181  0.500000  1
  Sc  Sc4  1  0.271449  0.548391  0.500000  1
  Sc  Sc5  1  0.728551  0.451609  0.500000  1
  Sc  Sc6  1  0.237181  0.050827  0.500000  1
  Sc  Sc7  1  0.762819  0.949173  0.500000  1
  Sc  Sc8  1  0.500000  0.000000  0.000000  1
  Sc  Sc9  1  0.000000  0.500000  0.000000  1
  Al  Al10  1  0.710727  0.193471  0.000000  1
  Al  Al11  1  0.289273  0.806529  0.000000  1
  Al  Al12  1  0.193471  0.289273  0.000000  1
  Al  Al13  1  0.806529  0.710727  0.000000  1
  Al  Al14  1  0.000000  0.000000  0.000000  1
  P  P15  1  0.500000  0.500000  0.000000  1
  C  C16  1  0.622384  0.125513  0.500000  1
  C  C17  1  0.377616  0.874487  0.500000  1
  C  C18  1  0.125513  0.377616  0.500000  1
  C  C19  1  0.874487  0.622384  0.500000  1
  C  C20  1  0.163892  0.656032  0.000000  1
  C  C21  1  0.836108  0.343968  0.000000  1
  C  C22  1  0.656032  0.836108  0.000000  1
  C  C23  1  0.343968  0.163892  0.000000  1
