# generated using pymatgen
data_Ca2La5(PrIr2)3
_symmetry_space_group_name_H-M   'P 1'
_cell_length_a   11.41634947
_cell_length_b   11.40069000
_cell_length_c   6.53454727
_cell_angle_alpha   90.00000000
_cell_angle_beta   89.96712837
_cell_angle_gamma   90.00000000
_symmetry_Int_Tables_number   1
_chemical_formula_structural   Ca2La5(PrIr2)3
_chemical_formula_sum   'Ca4 La10 Pr6 Ir12'
_cell_volume   850.49903232
_cell_formula_units_Z   2
loop_
 _symmetry_equiv_pos_site_id
 _symmetry_equiv_pos_as_xyz
  1  'x, y, z'
loop_
 _atom_site_type_symbol
 _atom_site_label
 _atom_site_symmetry_multiplicity
 _atom_site_fract_x
 _atom_site_fract_y
 _atom_site_fract_z
 _atom_site_occupancy
  Ca  Ca0  1  0.000086  0.000035  0.500417  1
  Ca  Ca1  1  0.000086  0.999965  0.000417  1
  Ca  Ca2  1  0.500354  0.500510  0.999929  1
  Ca  Ca3  1  0.500354  0.499490  0.499929  1
  La  La4  1  0.410372  0.790719  0.390987  1
  La  La5  1  0.410372  0.209281  0.890987  1
  La  La6  1  0.211183  0.408558  0.608456  1
  La  La7  1  0.211183  0.591442  0.108456  1
  La  La8  1  0.788415  0.408567  0.109443  1
  La  La9  1  0.788415  0.591433  0.609443  1
  La  La10  1  0.908741  0.711780  0.109106  1
  La  La11  1  0.908741  0.288220  0.609106  1
  La  La12  1  0.090718  0.711536  0.609431  1
  La  La13  1  0.090718  0.288464  0.109431  1
  Pr  Pr14  1  0.289318  0.088954  0.387800  1
  Pr  Pr15  1  0.289318  0.911046  0.887800  1
  Pr  Pr16  1  0.710417  0.088429  0.888316  1
  Pr  Pr17  1  0.710417  0.911571  0.388316  1
  Pr  Pr18  1  0.589414  0.790421  0.888755  1
  Pr  Pr19  1  0.589414  0.209579  0.388755  1
  Ir  Ir20  1  0.842935  0.158531  0.252587  1
  Ir  Ir21  1  0.842935  0.841469  0.752587  1
  Ir  Ir22  1  0.157402  0.158830  0.753167  1
  Ir  Ir23  1  0.157402  0.841170  0.253167  1
  Ir  Ir24  1  0.659017  0.343023  0.752468  1
  Ir  Ir25  1  0.659017  0.656977  0.252468  1
  Ir  Ir26  1  0.341997  0.341945  0.249708  1
  Ir  Ir27  1  0.341997  0.658055  0.749708  1
  Ir  Ir28  1  0.499621  0.999504  0.114942  1
  Ir  Ir29  1  0.499621  0.000496  0.614942  1
  Ir  Ir30  1  0.000010  0.500094  0.884487  1
  Ir  Ir31  1  0.000010  0.499906  0.384487  1
