# generated using pymatgen
data_Dy2GaSiPd4
_symmetry_space_group_name_H-M   'P 1'
_cell_length_a   5.55168300
_cell_length_b   7.11352200
_cell_length_c   7.37509800
_cell_angle_alpha   90.00000000
_cell_angle_beta   90.00000000
_cell_angle_gamma   90.00000000
_symmetry_Int_Tables_number   1
_chemical_formula_structural   Dy2GaSiPd4
_chemical_formula_sum   'Dy4 Ga2 Si2 Pd8'
_cell_volume   291.25751150
_cell_formula_units_Z   2
loop_
 _symmetry_equiv_pos_site_id
 _symmetry_equiv_pos_as_xyz
  1  'x, y, z'
loop_
 _atom_site_type_symbol
 _atom_site_label
 _atom_site_symmetry_multiplicity
 _atom_site_fract_x
 _atom_site_fract_y
 _atom_site_fract_z
 _atom_site_occupancy
  Dy  Dy0  1  0.355512  0.750000  0.029956  1
  Dy  Dy1  1  0.144488  0.750000  0.529956  1
  Dy  Dy2  1  0.642696  0.250000  0.970404  1
  Dy  Dy3  1  0.857304  0.250000  0.470404  1
  Ga  Ga4  1  0.642998  0.750000  0.379803  1
  Ga  Ga5  1  0.857002  0.750000  0.879803  1
  Si  Si6  1  0.359494  0.250000  0.619062  1
  Si  Si7  1  0.140506  0.250000  0.119062  1
  Pd  Pd8  1  0.915065  0.547494  0.179371  1
  Pd  Pd9  1  0.584935  0.952506  0.679371  1
  Pd  Pd10  1  0.100312  0.056457  0.821017  1
  Pd  Pd11  1  0.399688  0.443543  0.321017  1
  Pd  Pd12  1  0.100312  0.443543  0.821017  1
  Pd  Pd13  1  0.399688  0.056457  0.321017  1
  Pd  Pd14  1  0.915065  0.952506  0.179371  1
  Pd  Pd15  1  0.584935  0.547494  0.679371  1
