# generated using pymatgen
data_Er2U(AlCo)3
_symmetry_space_group_name_H-M   'P 1'
_cell_length_a   7.00958279
_cell_length_b   7.00958094
_cell_length_c   3.56749600
_cell_angle_alpha   90.00000000
_cell_angle_beta   90.00000000
_cell_angle_gamma   118.71592968
_symmetry_Int_Tables_number   1
_chemical_formula_structural   Er2U(AlCo)3
_chemical_formula_sum   'Er2 U1 Al3 Co3'
_cell_volume   153.72820648
_cell_formula_units_Z   1
loop_
 _symmetry_equiv_pos_site_id
 _symmetry_equiv_pos_as_xyz
  1  'x, y, z'
loop_
 _atom_site_type_symbol
 _atom_site_label
 _atom_site_symmetry_multiplicity
 _atom_site_fract_x
 _atom_site_fract_y
 _atom_site_fract_z
 _atom_site_occupancy
  Er  Er0  1  0.416781  0.001511  0.500000  1
  Er  Er1  1  0.001511  0.416781  0.500000  1
  U  U2  1  0.571657  0.571657  0.500000  1
  Al  Al3  1  0.757890  0.998470  0.000000  1
  Al  Al4  1  0.998470  0.757890  0.000000  1
  Al  Al5  1  0.227853  0.227853  0.000000  1
  Co  Co6  1  0.376660  0.658913  0.000000  1
  Co  Co7  1  0.658913  0.376660  0.000000  1
  Co  Co8  1  0.990263  0.990263  0.500000  1
