# generated using pymatgen
data_LaCe2(SnRh)3
_symmetry_space_group_name_H-M   'P 1'
_cell_length_a   7.57015507
_cell_length_b   7.52536812
_cell_length_c   4.09730000
_cell_angle_alpha   90.00000000
_cell_angle_beta   90.00000000
_cell_angle_gamma   119.80448598
_symmetry_Int_Tables_number   1
_chemical_formula_structural   LaCe2(SnRh)3
_chemical_formula_sum   'La1 Ce2 Sn3 Rh3'
_cell_volume   202.54110264
_cell_formula_units_Z   1
loop_
 _symmetry_equiv_pos_site_id
 _symmetry_equiv_pos_as_xyz
  1  'x, y, z'
loop_
 _atom_site_type_symbol
 _atom_site_label
 _atom_site_symmetry_multiplicity
 _atom_site_fract_x
 _atom_site_fract_y
 _atom_site_fract_z
 _atom_site_occupancy
  La  La0  1  0.000000  0.413271  0.000000  1
  Ce  Ce1  1  0.586100  0.586134  0.000000  1
  Ce  Ce2  1  0.413900  0.000035  0.000000  1
  Sn  Sn3  1  0.251748  0.251316  0.500000  1
  Sn  Sn4  1  0.000000  0.748634  0.500000  1
  Sn  Sn5  1  0.748252  0.999568  0.500000  1
  Rh  Rh6  1  0.654350  0.330651  0.500000  1
  Rh  Rh7  1  0.345650  0.676302  0.500000  1
  Rh  Rh8  1  0.000000  0.994087  0.000000  1
