# generated using pymatgen
data_Pr2Y9In9Rh4
_symmetry_space_group_name_H-M   'P 1'
_cell_length_a   13.22965636
_cell_length_b   13.22875350
_cell_length_c   3.72252400
_cell_angle_alpha   90.00000000
_cell_angle_beta   90.00000000
_cell_angle_gamma   111.70102571
_symmetry_Int_Tables_number   1
_chemical_formula_structural   Pr2Y9In9Rh4
_chemical_formula_sum   'Pr2 Y9 In9 Rh4'
_cell_volume   605.31241970
_cell_formula_units_Z   1
loop_
 _symmetry_equiv_pos_site_id
 _symmetry_equiv_pos_as_xyz
  1  'x, y, z'
loop_
 _atom_site_type_symbol
 _atom_site_label
 _atom_site_symmetry_multiplicity
 _atom_site_fract_x
 _atom_site_fract_y
 _atom_site_fract_z
 _atom_site_occupancy
  Pr  Pr0  1  0.341079  0.658912  0.500000  1
  Pr  Pr1  1  0.658921  0.341088  0.500000  1
  Y  Y2  1  0.500000  0.500000  0.500000  1
  Y  Y3  1  0.815239  0.815238  0.500000  1
  Y  Y4  1  0.184761  0.184762  0.500000  1
  Y  Y5  1  0.580594  0.917426  0.500000  1
  Y  Y6  1  0.419406  0.082574  0.500000  1
  Y  Y7  1  0.917431  0.580608  0.500000  1
  Y  Y8  1  0.082569  0.419392  0.500000  1
  Y  Y9  1  0.124980  0.875017  0.500000  1
  Y  Y10  1  0.875020  0.124983  0.500000  1
  In  In11  1  0.339293  0.870333  0.000000  1
  In  In12  1  0.660707  0.129667  0.000000  1
  In  In13  1  0.870335  0.339296  0.000000  1
  In  In14  1  0.129665  0.660704  0.000000  1
  In  In15  1  0.581483  0.720505  0.000000  1
  In  In16  1  0.418517  0.279495  0.000000  1
  In  In17  1  0.720503  0.581481  0.000000  1
  In  In18  1  0.279497  0.418519  0.000000  1
  In  In19  1  0.000000  0.000000  0.000000  1
  Rh  Rh20  1  0.747246  0.951722  0.000000  1
  Rh  Rh21  1  0.252754  0.048278  0.000000  1
  Rh  Rh22  1  0.951735  0.747269  0.000000  1
  Rh  Rh23  1  0.048265  0.252731  0.000000  1
