# generated using pymatgen
data_SrAc4In3
_symmetry_space_group_name_H-M   'P 1'
_cell_length_a   8.72689600
_cell_length_b   8.72689600
_cell_length_c   15.98657200
_cell_angle_alpha   90.00000000
_cell_angle_beta   90.00000000
_cell_angle_gamma   90.00000000
_symmetry_Int_Tables_number   1
_chemical_formula_structural   SrAc4In3
_chemical_formula_sum   'Sr4 Ac16 In12'
_cell_volume   1217.51676151
_cell_formula_units_Z   4
loop_
 _symmetry_equiv_pos_site_id
 _symmetry_equiv_pos_as_xyz
  1  'x, y, z'
loop_
 _atom_site_type_symbol
 _atom_site_label
 _atom_site_symmetry_multiplicity
 _atom_site_fract_x
 _atom_site_fract_y
 _atom_site_fract_z
 _atom_site_occupancy
  Sr  Sr0  1  0.500000  0.500000  0.751647  1
  Sr  Sr1  1  0.000000  0.000000  0.249499  1
  Sr  Sr2  1  0.000000  0.000000  0.750501  1
  Sr  Sr3  1  0.500000  0.500000  0.248353  1
  Ac  Ac4  1  0.666948  0.166675  0.100518  1
  Ac  Ac5  1  0.167172  0.666843  0.601201  1
  Ac  Ac6  1  0.333052  0.833325  0.100518  1
  Ac  Ac7  1  0.832828  0.333157  0.601201  1
  Ac  Ac8  1  0.833325  0.666948  0.100518  1
  Ac  Ac9  1  0.333157  0.167172  0.601201  1
  Ac  Ac10  1  0.166675  0.333052  0.100518  1
  Ac  Ac11  1  0.666843  0.832828  0.601201  1
  Ac  Ac12  1  0.833325  0.333052  0.899482  1
  Ac  Ac13  1  0.333157  0.832828  0.398799  1
  Ac  Ac14  1  0.166675  0.666948  0.899482  1
  Ac  Ac15  1  0.666843  0.167172  0.398799  1
  Ac  Ac16  1  0.666948  0.833325  0.899482  1
  Ac  Ac17  1  0.167172  0.333157  0.398799  1
  Ac  Ac18  1  0.333052  0.166675  0.899482  1
  Ac  Ac19  1  0.832828  0.666843  0.398799  1
  In  In20  1  0.500000  0.500000  0.500000  1
  In  In21  1  0.500000  0.500000  0.000000  1
  In  In22  1  0.000000  0.000000  0.500000  1
  In  In23  1  0.623376  0.123200  0.750567  1
  In  In24  1  0.123200  0.623376  0.249433  1
  In  In25  1  0.876800  0.376624  0.249433  1
  In  In26  1  0.376624  0.876800  0.750567  1
  In  In27  1  0.876800  0.623376  0.750567  1
  In  In28  1  0.376624  0.123200  0.249433  1
  In  In29  1  0.123200  0.376624  0.750567  1
  In  In30  1  0.623376  0.876800  0.249433  1
  In  In31  1  0.000000  0.000000  0.000000  1
