# generated using pymatgen
data_Sr12Sn5Pd8Pb3
_symmetry_space_group_name_H-M   'P 1'
_cell_length_a   6.20585269
_cell_length_b   9.01554290
_cell_length_c   14.50718400
_cell_angle_alpha   90.00000000
_cell_angle_beta   90.00000000
_cell_angle_gamma   90.10665959
_symmetry_Int_Tables_number   1
_chemical_formula_structural   Sr12Sn5Pd8Pb3
_chemical_formula_sum   'Sr12 Sn5 Pd8 Pb3'
_cell_volume   811.66293422
_cell_formula_units_Z   1
loop_
 _symmetry_equiv_pos_site_id
 _symmetry_equiv_pos_as_xyz
  1  'x, y, z'
loop_
 _atom_site_type_symbol
 _atom_site_label
 _atom_site_symmetry_multiplicity
 _atom_site_fract_x
 _atom_site_fract_y
 _atom_site_fract_z
 _atom_site_occupancy
  Sr  Sr0  1  0.146482  0.396227  0.599149  1
  Sr  Sr1  1  0.852490  0.605181  0.097867  1
  Sr  Sr2  1  0.147171  0.105329  0.402256  1
  Sr  Sr3  1  0.852709  0.893113  0.900827  1
  Sr  Sr4  1  0.852490  0.605181  0.402133  1
  Sr  Sr5  1  0.146482  0.396227  0.900851  1
  Sr  Sr6  1  0.852709  0.893113  0.599173  1
  Sr  Sr7  1  0.147171  0.105329  0.097744  1
  Sr  Sr8  1  0.646081  0.254031  0.750000  1
  Sr  Sr9  1  0.354980  0.746219  0.250000  1
  Sr  Sr10  1  0.645001  0.245798  0.250000  1
  Sr  Sr11  1  0.351929  0.752883  0.750000  1
  Sn  Sn12  1  0.631881  0.250469  0.500161  1
  Sn  Sn13  1  0.368913  0.749541  0.999858  1
  Sn  Sn14  1  0.368913  0.749541  0.500142  1
  Sn  Sn15  1  0.631881  0.250469  0.999839  1
  Sn  Sn16  1  0.841925  0.601727  0.750000  1
  Pd  Pd17  1  0.383578  0.030023  0.585367  1
  Pd  Pd18  1  0.616548  0.969862  0.085287  1
  Pd  Pd19  1  0.384239  0.470040  0.415202  1
  Pd  Pd20  1  0.619907  0.531266  0.912092  1
  Pd  Pd21  1  0.616548  0.969862  0.414713  1
  Pd  Pd22  1  0.383578  0.030023  0.914633  1
  Pd  Pd23  1  0.619907  0.531266  0.587908  1
  Pd  Pd24  1  0.384239  0.470040  0.084798  1
  Pb  Pb25  1  0.151531  0.103325  0.750000  1
  Pb  Pb26  1  0.849367  0.896930  0.250000  1
  Pb  Pb27  1  0.151350  0.396986  0.250000  1
