# generated using pymatgen
data_Yb2BiF2
_symmetry_space_group_name_H-M   'P 1'
_cell_length_a   7.25798149
_cell_length_b   7.25798141
_cell_length_c   7.25798101
_cell_angle_alpha   149.25343670
_cell_angle_beta   149.25343938
_cell_angle_gamma   44.03838698
_symmetry_Int_Tables_number   1
_chemical_formula_structural   Yb2BiF2
_chemical_formula_sum   'Yb2 Bi1 F2'
_cell_volume   99.64495666
_cell_formula_units_Z   1
loop_
 _symmetry_equiv_pos_site_id
 _symmetry_equiv_pos_as_xyz
  1  'x, y, z'
loop_
 _atom_site_type_symbol
 _atom_site_label
 _atom_site_symmetry_multiplicity
 _atom_site_fract_x
 _atom_site_fract_y
 _atom_site_fract_z
 _atom_site_occupancy
  Yb  Yb0  1  0.657287  0.657287  0.000000  1
  Yb  Yb1  1  0.342713  0.342713  0.000000  1
  Bi  Bi2  1  0.000000  0.000000  0.000000  1
  F  F3  1  0.750000  0.250000  0.500000  1
  F  F4  1  0.250000  0.750000  0.500000  1
