# generated using pymatgen
data_Ca2Ga3Sn2PbO12
_symmetry_space_group_name_H-M   'P 1'
_cell_length_a   11.09391165
_cell_length_b   11.09121093
_cell_length_c   11.10703430
_cell_angle_alpha   109.52841065
_cell_angle_beta   109.57487866
_cell_angle_gamma   109.46493242
_symmetry_Int_Tables_number   1
_chemical_formula_structural   Ca2Ga3Sn2PbO12
_chemical_formula_sum   'Ca8 Ga12 Sn8 Pb4 O48'
_cell_volume   1050.04620046
_cell_formula_units_Z   4
loop_
 _symmetry_equiv_pos_site_id
 _symmetry_equiv_pos_as_xyz
  1  'x, y, z'
loop_
 _atom_site_type_symbol
 _atom_site_label
 _atom_site_symmetry_multiplicity
 _atom_site_fract_x
 _atom_site_fract_y
 _atom_site_fract_z
 _atom_site_occupancy
  Ca  Ca0  1  0.373098  0.750792  0.123577  1
  Ca  Ca1  1  0.250446  0.875021  0.625566  1
  Ca  Ca2  1  0.877285  0.752301  0.624102  1
  Ca  Ca3  1  0.622864  0.246723  0.875449  1
  Ca  Ca4  1  0.374160  0.120786  0.246686  1
  Ca  Ca5  1  0.622482  0.876327  0.747437  1
  Ca  Ca6  1  0.125485  0.378161  0.752058  1
  Ca  Ca7  1  0.876664  0.624411  0.252571  1
  Ga  Ga8  1  0.249053  0.628200  0.377432  1
  Ga  Ga9  1  0.750707  0.374605  0.624677  1
  Ga  Ga10  1  0.749058  0.875361  0.124233  1
  Ga  Ga11  1  0.377125  0.248679  0.625708  1
  Ga  Ga12  1  0.625980  0.750509  0.376601  1
  Ga  Ga13  1  0.250228  0.121674  0.872584  1
  Ga  Ga14  1  0.126441  0.748878  0.875010  1
  Ga  Ga15  1  0.871589  0.250615  0.121732  1
  Ga  Ga16  1  0.625874  0.375761  0.249041  1
  Ga  Ga17  1  0.375923  0.626363  0.752712  1
  Ga  Ga18  1  0.873334  0.123122  0.749079  1
  Ga  Ga19  1  0.126647  0.876358  0.252457  1
  Sn  Sn20  1  0.999675  0.998700  0.997541  1
  Sn  Sn21  1  0.497548  0.997882  0.500555  1
  Sn  Sn22  1  0.001400  0.504377  0.501759  1
  Sn  Sn23  1  0.497557  0.999309  0.997134  1
  Sn  Sn24  1  0.500485  0.500158  0.000081  1
  Sn  Sn25  1  0.502440  0.502387  0.500140  1
  Sn  Sn26  1  0.000064  0.997161  0.501917  1
  Sn  Sn27  1  0.999976  0.500031  0.000140  1
  Pb  Pb28  1  0.253245  0.377720  0.123443  1
  Pb  Pb29  1  0.750971  0.625079  0.875665  1
  Pb  Pb30  1  0.745699  0.122163  0.375566  1
  Pb  Pb31  1  0.126368  0.250576  0.377676  1
  O  O32  1  0.477242  0.377099  0.296109  1
  O  O33  1  0.521206  0.620563  0.702251  1
  O  O34  1  0.581880  0.181553  0.203508  1
  O  O35  1  0.919705  0.122635  0.600450  1
  O  O36  1  0.293257  0.475438  0.374297  1
  O  O37  1  0.318413  0.917800  0.295871  1
  O  O38  1  0.418942  0.817942  0.796166  1
  O  O39  1  0.081035  0.878416  0.399729  1
  O  O40  1  0.705953  0.522785  0.622935  1
  O  O41  1  0.681719  0.083268  0.703331  1
  O  O42  1  0.022334  0.318269  0.900517  1
  O  O43  1  0.206165  0.582340  0.183248  1
  O  O44  1  0.121075  0.022241  0.202331  1
  O  O45  1  0.978100  0.681656  0.099854  1
  O  O46  1  0.794017  0.416970  0.816847  1
  O  O47  1  0.877967  0.977870  0.797148  1
  O  O48  1  0.598977  0.916887  0.122668  1
  O  O49  1  0.181095  0.477848  0.599782  1
  O  O50  1  0.401204  0.083058  0.876988  1
  O  O51  1  0.818050  0.521722  0.401112  1
  O  O52  1  0.900595  0.023294  0.318713  1
  O  O53  1  0.379012  0.582014  0.901593  1
  O  O54  1  0.098926  0.975656  0.681863  1
  O  O55  1  0.621532  0.419143  0.099455  1
  O  O56  1  0.379698  0.295962  0.477719  1
  O  O57  1  0.581174  0.900129  0.377395  1
  O  O58  1  0.622304  0.704139  0.522645  1
  O  O59  1  0.418780  0.099882  0.623024  1
  O  O60  1  0.120931  0.597779  0.917480  1
  O  O61  1  0.023851  0.206100  0.124148  1
  O  O62  1  0.877818  0.401131  0.080801  1
  O  O63  1  0.977925  0.795629  0.878100  1
  O  O64  1  0.318702  0.901285  0.023180  1
  O  O65  1  0.918906  0.296363  0.317829  1
  O  O66  1  0.681043  0.097842  0.977261  1
  O  O67  1  0.081684  0.704755  0.682737  1
  O  O68  1  0.183237  0.205377  0.584177  1
  O  O69  1  0.476670  0.599364  0.181228  1
  O  O70  1  0.817115  0.794870  0.415858  1
  O  O71  1  0.523081  0.400966  0.819073  1
  O  O72  1  0.293341  0.316162  0.915661  1
  O  O73  1  0.706188  0.683448  0.083143  1
  O  O74  1  0.206229  0.124320  0.023550  1
  O  O75  1  0.794926  0.878235  0.977520  1
  O  O76  1  0.900960  0.376958  0.582480  1
  O  O77  1  0.098373  0.622360  0.417063  1
  O  O78  1  0.597825  0.182382  0.476628  1
  O  O79  1  0.400965  0.817902  0.524204  1
