# generated using pymatgen
data_Yb3LuTh6(Si3C)2
_symmetry_space_group_name_H-M   'P 1'
_cell_length_a   8.74993300
_cell_length_b   8.74993303
_cell_length_c   6.35931400
_cell_angle_alpha   90.00000000
_cell_angle_beta   90.00000000
_cell_angle_gamma   120.00000368
_symmetry_Int_Tables_number   1
_chemical_formula_structural   Yb3LuTh6(Si3C)2
_chemical_formula_sum   'Yb3 Lu1 Th6 Si6 C2'
_cell_volume   421.64828803
_cell_formula_units_Z   1
loop_
 _symmetry_equiv_pos_site_id
 _symmetry_equiv_pos_as_xyz
  1  'x, y, z'
loop_
 _atom_site_type_symbol
 _atom_site_label
 _atom_site_symmetry_multiplicity
 _atom_site_fract_x
 _atom_site_fract_y
 _atom_site_fract_z
 _atom_site_occupancy
  Yb  Yb0  1  0.666667  0.333333  0.000000  1
  Yb  Yb1  1  0.333333  0.666667  0.000000  1
  Yb  Yb2  1  0.333333  0.666667  0.500000  1
  Lu  Lu3  1  0.666667  0.333333  0.500000  1
  Th  Th4  1  0.763520  0.764792  0.750254  1
  Th  Th5  1  0.235208  0.998729  0.750254  1
  Th  Th6  1  0.001271  0.236480  0.750254  1
  Th  Th7  1  0.235208  0.236480  0.249746  1
  Th  Th8  1  0.763520  0.998729  0.249746  1
  Th  Th9  1  0.001271  0.764792  0.249746  1
  Si  Si10  1  0.402154  0.394713  0.740366  1
  Si  Si11  1  0.605287  0.007441  0.740366  1
  Si  Si12  1  0.992559  0.597846  0.740366  1
  Si  Si13  1  0.605287  0.597846  0.259634  1
  Si  Si14  1  0.402154  0.007441  0.259634  1
  Si  Si15  1  0.992559  0.394713  0.259634  1
  C  C16  1  0.000000  0.000000  0.000000  1
  C  C17  1  0.000000  0.000000  0.500000  1
