# generated using pymatgen
data_Dy2YHfIn2Ir3
_symmetry_space_group_name_H-M   'P 1'
_cell_length_a   7.43905605
_cell_length_b   7.23534656
_cell_length_c   4.17814300
_cell_angle_alpha   90.00000000
_cell_angle_beta   90.00000000
_cell_angle_gamma   119.17062034
_symmetry_Int_Tables_number   1
_chemical_formula_structural   Dy2YHfIn2Ir3
_chemical_formula_sum   'Dy2 Y1 Hf1 In2 Ir3'
_cell_volume   196.36330382
_cell_formula_units_Z   1
loop_
 _symmetry_equiv_pos_site_id
 _symmetry_equiv_pos_as_xyz
  1  'x, y, z'
loop_
 _atom_site_type_symbol
 _atom_site_label
 _atom_site_symmetry_multiplicity
 _atom_site_fract_x
 _atom_site_fract_y
 _atom_site_fract_z
 _atom_site_occupancy
  Dy  Dy0  1  0.415311  0.003332  0.000000  1
  Dy  Dy1  1  0.999933  0.394689  0.000000  1
  Y  Y2  1  0.584228  0.588044  0.000000  1
  Hf  Hf3  1  0.999956  0.752536  0.500000  1
  In  In4  1  0.254941  0.253451  0.500000  1
  In  In5  1  0.745346  0.998571  0.500000  1
  Ir  Ir6  1  0.000584  0.978502  0.000000  1
  Ir  Ir7  1  0.682989  0.356324  0.500000  1
  Ir  Ir8  1  0.316711  0.674552  0.500000  1
