# generated using pymatgen
data_TbDy(ReO4)6
_symmetry_space_group_name_H-M   'P 1'
_cell_length_a   10.24862803
_cell_length_b   10.24533179
_cell_length_c   6.21280000
_cell_angle_alpha   90.00000000
_cell_angle_beta   90.00000000
_cell_angle_gamma   119.97260932
_symmetry_Int_Tables_number   1
_chemical_formula_structural   TbDy(ReO4)6
_chemical_formula_sum   'Tb1 Dy1 Re6 O24'
_cell_volume   565.10554064
_cell_formula_units_Z   1
loop_
 _symmetry_equiv_pos_site_id
 _symmetry_equiv_pos_as_xyz
  1  'x, y, z'
loop_
 _atom_site_type_symbol
 _atom_site_label
 _atom_site_symmetry_multiplicity
 _atom_site_fract_x
 _atom_site_fract_y
 _atom_site_fract_z
 _atom_site_occupancy
  Tb  Tb0  1  0.333231  0.666667  0.250000  1
  Dy  Dy1  1  0.666767  0.333334  0.750000  1
  Re  Re2  1  0.090261  0.395318  0.750000  1
  Re  Re3  1  0.396103  0.305209  0.250000  1
  Re  Re4  1  0.604450  0.694735  0.750000  1
  Re  Re5  1  0.909129  0.604126  0.250000  1
  Re  Re6  1  0.305183  0.909978  0.750000  1
  Re  Re7  1  0.694874  0.090635  0.250000  1
  O  O8  1  0.488784  0.648290  0.519858  1
  O  O9  1  0.351519  0.840604  0.519837  1
  O  O10  1  0.846831  0.732626  0.250000  1
  O  O11  1  0.114432  0.847575  0.750000  1
  O  O12  1  0.267722  0.114476  0.250000  1
  O  O13  1  0.152964  0.267108  0.750000  1
  O  O14  1  0.511590  0.351500  0.019551  1
  O  O15  1  0.885510  0.152631  0.250000  1
  O  O16  1  0.106842  0.698718  0.250000  1
  O  O17  1  0.159448  0.511018  0.980153  1
  O  O18  1  0.159448  0.511018  0.519847  1
  O  O19  1  0.892493  0.301149  0.750000  1
  O  O20  1  0.301433  0.408368  0.250000  1
  O  O21  1  0.698693  0.591097  0.750000  1
  O  O22  1  0.839971  0.488606  0.480458  1
  O  O23  1  0.408936  0.107796  0.750000  1
  O  O24  1  0.648692  0.159982  0.019531  1
  O  O25  1  0.488784  0.648290  0.980142  1
  O  O26  1  0.351519  0.840604  0.980163  1
  O  O27  1  0.648692  0.159982  0.480469  1
  O  O28  1  0.511590  0.351500  0.480449  1
  O  O29  1  0.839971  0.488606  0.019542  1
  O  O30  1  0.732547  0.885583  0.750000  1
  O  O31  1  0.591594  0.892867  0.250000  1
