# generated using pymatgen
data_MgTi4Re17Tc7
_symmetry_space_group_name_H-M   'P 1'
_cell_length_a   8.36427003
_cell_length_b   8.36426896
_cell_length_c   8.35520940
_cell_angle_alpha   109.45855098
_cell_angle_beta   109.45854644
_cell_angle_gamma   109.62434744
_symmetry_Int_Tables_number   1
_chemical_formula_structural   MgTi4Re17Tc7
_chemical_formula_sum   'Mg1 Ti4 Re17 Tc7'
_cell_volume   449.26624520
_cell_formula_units_Z   1
loop_
 _symmetry_equiv_pos_site_id
 _symmetry_equiv_pos_as_xyz
  1  'x, y, z'
loop_
 _atom_site_type_symbol
 _atom_site_label
 _atom_site_symmetry_multiplicity
 _atom_site_fract_x
 _atom_site_fract_y
 _atom_site_fract_z
 _atom_site_occupancy
  Mg  Mg0  1  0.998757  0.998757  0.999776  1
  Ti  Ti1  1  0.633303  0.999226  0.999556  1
  Ti  Ti2  1  0.999226  0.633303  0.999556  1
  Ti  Ti3  1  0.000803  0.000803  0.634983  1
  Ti  Ti4  1  0.365084  0.365084  0.365553  1
  Re  Re5  1  0.000778  0.680424  0.399773  1
  Re  Re6  1  0.680424  0.000778  0.399773  1
  Re  Re7  1  0.600393  0.600393  0.279697  1
  Re  Re8  1  0.280289  0.601129  0.600540  1
  Re  Re9  1  0.601129  0.280289  0.600540  1
  Re  Re10  1  0.376557  0.194189  0.000783  1
  Re  Re11  1  0.181544  0.807218  0.806160  1
  Re  Re12  1  0.375338  0.000814  0.193589  1
  Re  Re13  1  0.194189  0.376557  0.000783  1
  Re  Re14  1  0.000814  0.375338  0.193589  1
  Re  Re15  1  0.807218  0.181544  0.806160  1
  Re  Re16  1  0.807038  0.807038  0.182589  1
  Re  Re17  1  0.000695  0.193585  0.376908  1
  Re  Re18  1  0.193585  0.000695  0.376908  1
  Re  Re19  1  0.622740  0.622740  0.815497  1
  Re  Re20  1  0.816080  0.623304  0.622866  1
  Re  Re21  1  0.623304  0.816080  0.622866  1
  Tc  Tc22  1  0.399475  0.681164  0.000301  1
  Tc  Tc23  1  0.719434  0.318900  0.318576  1
  Tc  Tc24  1  0.401022  0.001402  0.682077  1
  Tc  Tc25  1  0.681164  0.399475  0.000301  1
  Tc  Tc26  1  0.001402  0.401022  0.682077  1
  Tc  Tc27  1  0.318900  0.719434  0.318576  1
  Tc  Tc28  1  0.319316  0.319316  0.719653  1
