# generated using pymatgen
data_HoCuHgPt3
_symmetry_space_group_name_H-M   'P 1'
_cell_length_a   5.19976665
_cell_length_b   5.45412410
_cell_length_c   5.45412600
_cell_angle_alpha   60.00000060
_cell_angle_beta   58.36820076
_cell_angle_gamma   58.36820298
_symmetry_Int_Tables_number   1
_chemical_formula_structural   HoCuHgPt3
_chemical_formula_sum   'Ho1 Cu1 Hg1 Pt3'
_cell_volume   106.59943523
_cell_formula_units_Z   1
loop_
 _symmetry_equiv_pos_site_id
 _symmetry_equiv_pos_as_xyz
  1  'x, y, z'
loop_
 _atom_site_type_symbol
 _atom_site_label
 _atom_site_symmetry_multiplicity
 _atom_site_fract_x
 _atom_site_fract_y
 _atom_site_fract_z
 _atom_site_occupancy
  Ho  Ho0  1  0.745520  0.751493  0.751493  1
  Cu  Cu1  1  0.878091  0.373970  0.373970  1
  Hg  Hg2  1  0.994751  0.001750  0.001750  1
  Pt  Pt3  1  0.377212  0.373970  0.874846  1
  Pt  Pt4  1  0.377212  0.874846  0.373970  1
  Pt  Pt5  1  0.377212  0.373970  0.373970  1
