# generated using pymatgen
data_LaNd7(LuIn3)2
_symmetry_space_group_name_H-M   'P 1'
_cell_length_a   6.25138820
_cell_length_b   9.40293318
_cell_length_c   9.37613900
_cell_angle_alpha   83.83968981
_cell_angle_beta   70.76582542
_cell_angle_gamma   70.79877848
_symmetry_Int_Tables_number   1
_chemical_formula_structural   LaNd7(LuIn3)2
_chemical_formula_sum   'La1 Nd7 Lu2 In6'
_cell_volume   491.42842003
_cell_formula_units_Z   1
loop_
 _symmetry_equiv_pos_site_id
 _symmetry_equiv_pos_as_xyz
  1  'x, y, z'
loop_
 _atom_site_type_symbol
 _atom_site_label
 _atom_site_symmetry_multiplicity
 _atom_site_fract_x
 _atom_site_fract_y
 _atom_site_fract_z
 _atom_site_occupancy
  La  La0  1  0.913616  0.863020  0.311487  1
  Nd  Nd1  1  0.721012  0.864574  0.691355  1
  Nd  Nd2  1  0.279897  0.136106  0.307022  1
  Nd  Nd3  1  0.780578  0.307232  0.135027  1
  Nd  Nd4  1  0.220307  0.693172  0.863285  1
  Nd  Nd5  1  0.584463  0.693670  0.133880  1
  Nd  Nd6  1  0.415765  0.307409  0.864373  1
  Nd  Nd7  1  0.085203  0.135489  0.692616  1
  Lu  Lu8  1  0.750266  0.499681  0.500066  1
  Lu  Lu9  1  0.249669  0.498864  0.501551  1
  In  In10  1  0.157610  0.498186  0.186965  1
  In  In11  1  0.843748  0.499770  0.812838  1
  In  In12  1  0.342784  0.812404  0.501473  1
  In  In13  1  0.654586  0.189223  0.501628  1
  In  In14  1  0.251216  0.000629  0.998219  1
  In  In15  1  0.749279  0.000570  0.998217  1
