# generated using pymatgen
data_K3Al2As2P
_symmetry_space_group_name_H-M   'P 1'
_cell_length_a   5.99630600
_cell_length_b   7.57504904
_cell_length_c   10.50489416
_cell_angle_alpha   69.74692856
_cell_angle_beta   90.00000000
_cell_angle_gamma   90.00000000
_symmetry_Int_Tables_number   1
_chemical_formula_structural   K3Al2As2P
_chemical_formula_sum   'K6 Al4 As4 P2'
_cell_volume   447.65531542
_cell_formula_units_Z   2
loop_
 _symmetry_equiv_pos_site_id
 _symmetry_equiv_pos_as_xyz
  1  'x, y, z'
loop_
 _atom_site_type_symbol
 _atom_site_label
 _atom_site_symmetry_multiplicity
 _atom_site_fract_x
 _atom_site_fract_y
 _atom_site_fract_z
 _atom_site_occupancy
  K  K0  1  0.250000  0.446003  0.424985  1
  K  K1  1  0.750000  0.128973  0.922667  1
  K  K2  1  0.750000  0.472386  0.153163  1
  K  K3  1  0.250000  0.527614  0.846837  1
  K  K4  1  0.750000  0.553997  0.575015  1
  K  K5  1  0.250000  0.871027  0.077333  1
  Al  Al6  1  0.000037  0.025500  0.348778  1
  Al  Al7  1  0.500037  0.974500  0.651222  1
  Al  Al8  1  0.499963  0.025500  0.348778  1
  Al  Al9  1  0.999963  0.974500  0.651222  1
  As  As10  1  0.250000  0.254060  0.183777  1
  As  As11  1  0.750000  0.745940  0.816223  1
  As  As12  1  0.250000  0.158808  0.744738  1
  As  As13  1  0.750000  0.841192  0.255262  1
  P  P14  1  0.250000  0.823793  0.528412  1
  P  P15  1  0.750000  0.176207  0.471588  1
