# generated using pymatgen
data_Tb15HoMgAg3Rh4
_symmetry_space_group_name_H-M   'P 1'
_cell_length_a   9.56891839
_cell_length_b   9.59642610
_cell_length_c   9.59642590
_cell_angle_alpha   60.33677862
_cell_angle_beta   60.29900177
_cell_angle_gamma   60.29900052
_symmetry_Int_Tables_number   1
_chemical_formula_structural   Tb15HoMgAg3Rh4
_chemical_formula_sum   'Tb15 Ho1 Mg1 Ag3 Rh4'
_cell_volume   627.50624981
_cell_formula_units_Z   1
loop_
 _symmetry_equiv_pos_site_id
 _symmetry_equiv_pos_as_xyz
  1  'x, y, z'
loop_
 _atom_site_type_symbol
 _atom_site_label
 _atom_site_symmetry_multiplicity
 _atom_site_fract_x
 _atom_site_fract_y
 _atom_site_fract_z
 _atom_site_occupancy
  Tb  Tb0  1  0.350339  0.349283  0.951695  1
  Tb  Tb1  1  0.350339  0.951695  0.349283  1
  Tb  Tb2  1  0.936972  0.354425  0.354425  1
  Tb  Tb3  1  0.809966  0.188490  0.188490  1
  Tb  Tb4  1  0.185538  0.813232  0.813232  1
  Tb  Tb5  1  0.186137  0.812665  0.186788  1
  Tb  Tb6  1  0.810233  0.188397  0.811309  1
  Tb  Tb7  1  0.186137  0.186788  0.812665  1
  Tb  Tb8  1  0.810233  0.811309  0.188397  1
  Tb  Tb9  1  0.934410  0.563867  0.563867  1
  Tb  Tb10  1  0.565075  0.935425  0.935425  1
  Tb  Tb11  1  0.563469  0.936437  0.564339  1
  Tb  Tb12  1  0.934245  0.564338  0.936440  1
  Tb  Tb13  1  0.563469  0.564339  0.936437  1
  Tb  Tb14  1  0.934245  0.936440  0.564338  1
  Ho  Ho15  1  0.350925  0.348637  0.348637  1
  Mg  Mg16  1  0.286407  0.570756  0.570756  1
  Ag  Ag17  1  0.582486  0.584728  0.584728  1
  Ag  Ag18  1  0.582112  0.584855  0.248880  1
  Ag  Ag19  1  0.582112  0.248880  0.584855  1
  Rh  Rh20  1  0.139658  0.143980  0.143980  1
  Rh  Rh21  1  0.142048  0.146571  0.570145  1
  Rh  Rh22  1  0.142048  0.570145  0.146571  1
  Rh  Rh23  1  0.571397  0.144317  0.144317  1
