# generated using pymatgen
data_Np2PaSb4Pt3
_symmetry_space_group_name_H-M   'P 1'
_cell_length_a   8.47626976
_cell_length_b   8.47626972
_cell_length_c   8.47627066
_cell_angle_alpha   109.42481710
_cell_angle_beta   109.42481182
_cell_angle_gamma   109.56407251
_symmetry_Int_Tables_number   1
_chemical_formula_structural   Np2PaSb4Pt3
_chemical_formula_sum   'Np4 Pa2 Sb8 Pt6'
_cell_volume   468.80432498
_cell_formula_units_Z   2
loop_
 _symmetry_equiv_pos_site_id
 _symmetry_equiv_pos_as_xyz
  1  'x, y, z'
loop_
 _atom_site_type_symbol
 _atom_site_label
 _atom_site_symmetry_multiplicity
 _atom_site_fract_x
 _atom_site_fract_y
 _atom_site_fract_z
 _atom_site_occupancy
  Np  Np0  1  0.875707  0.250000  0.125707  1
  Np  Np1  1  0.624293  0.750000  0.374293  1
  Np  Np2  1  0.250000  0.124293  0.874293  1
  Np  Np3  1  0.750000  0.375707  0.625707  1
  Pa  Pa4  1  0.125000  0.875000  0.250000  1
  Pa  Pa5  1  0.375000  0.625000  0.750000  1
  Sb  Sb6  1  0.674175  0.498079  0.999754  1
  Sb  Sb7  1  0.501675  0.001921  0.676097  1
  Sb  Sb8  1  0.998325  0.674421  0.500246  1
  Sb  Sb9  1  0.825825  0.825579  0.823903  1
  Sb  Sb10  1  0.501921  0.001675  0.176097  1
  Sb  Sb11  1  0.174421  0.498325  0.000246  1
  Sb  Sb12  1  0.998079  0.174175  0.499754  1
  Sb  Sb13  1  0.325579  0.325825  0.323903  1
  Pt  Pt14  1  0.372258  0.250000  0.622258  1
  Pt  Pt15  1  0.127742  0.750000  0.877742  1
  Pt  Pt16  1  0.250000  0.627742  0.377742  1
  Pt  Pt17  1  0.750000  0.872258  0.122258  1
  Pt  Pt18  1  0.625000  0.375000  0.250000  1
  Pt  Pt19  1  0.875000  0.125000  0.750000  1
