# generated using pymatgen
data_Ho4Cr3Co17As12
_symmetry_space_group_name_H-M   'P 1'
_cell_length_a   3.78160600
_cell_length_b   10.74095405
_cell_length_c   12.27213243
_cell_angle_alpha   89.99280306
_cell_angle_beta   90.00000000
_cell_angle_gamma   90.00000000
_symmetry_Int_Tables_number   1
_chemical_formula_structural   Ho4Cr3Co17As12
_chemical_formula_sum   'Ho4 Cr3 Co17 As12'
_cell_volume   498.47016191
_cell_formula_units_Z   1
loop_
 _symmetry_equiv_pos_site_id
 _symmetry_equiv_pos_as_xyz
  1  'x, y, z'
loop_
 _atom_site_type_symbol
 _atom_site_label
 _atom_site_symmetry_multiplicity
 _atom_site_fract_x
 _atom_site_fract_y
 _atom_site_fract_z
 _atom_site_occupancy
  Ho  Ho0  1  0.250000  0.919042  0.204779  1
  Ho  Ho1  1  0.750000  0.077864  0.795663  1
  Ho  Ho2  1  0.750000  0.418533  0.296593  1
  Ho  Ho3  1  0.250000  0.580940  0.705106  1
  Cr  Cr4  1  0.250000  0.794639  0.490248  1
  Cr  Cr5  1  0.750000  0.205996  0.509404  1
  Cr  Cr6  1  0.750000  0.295457  0.009560  1
  Co  Co7  1  0.250000  0.707823  0.989306  1
  Co  Co8  1  0.250000  0.094488  0.987794  1
  Co  Co9  1  0.750000  0.906190  0.012431  1
  Co  Co10  1  0.750000  0.594384  0.511364  1
  Co  Co11  1  0.250000  0.406316  0.487752  1
  Co  Co12  1  0.250000  0.284229  0.675015  1
  Co  Co13  1  0.750000  0.716397  0.323337  1
  Co  Co14  1  0.750000  0.782967  0.824698  1
  Co  Co15  1  0.250000  0.217057  0.175597  1
  Co  Co16  1  0.250000  0.616454  0.196903  1
  Co  Co17  1  0.750000  0.384643  0.802142  1
  Co  Co18  1  0.750000  0.115968  0.301543  1
  Co  Co19  1  0.250000  0.882972  0.699219  1
  Co  Co20  1  0.250000  0.034624  0.431744  1
  Co  Co21  1  0.750000  0.965478  0.567926  1
  Co  Co22  1  0.750000  0.533747  0.067754  1
  Co  Co23  1  0.250000  0.466354  0.933269  1
  As  As24  1  0.250000  0.082027  0.615104  1
  As  As25  1  0.750000  0.917360  0.385107  1
  As  As26  1  0.750000  0.583772  0.886453  1
  As  As27  1  0.250000  0.417947  0.115724  1
  As  As28  1  0.250000  0.232299  0.366286  1
  As  As29  1  0.750000  0.767326  0.633906  1
  As  As30  1  0.750000  0.732639  0.131382  1
  As  As31  1  0.250000  0.267387  0.865182  1
  As  As32  1  0.250000  0.899076  0.892535  1
  As  As33  1  0.750000  0.095805  0.110064  1
  As  As34  1  0.750000  0.404715  0.610212  1
  As  As35  1  0.250000  0.597083  0.388902  1
