# generated using pymatgen
data_TmCu3PtAu
_symmetry_space_group_name_H-M   'P 1'
_cell_length_a   5.05597044
_cell_length_b   5.05597131
_cell_length_c   5.15092395
_cell_angle_alpha   60.60793831
_cell_angle_beta   60.60793835
_cell_angle_gamma   59.99998600
_symmetry_Int_Tables_number   1
_chemical_formula_structural   TmCu3PtAu
_chemical_formula_sum   'Tm1 Cu3 Pt1 Au1'
_cell_volume   93.95273294
_cell_formula_units_Z   1
loop_
 _symmetry_equiv_pos_site_id
 _symmetry_equiv_pos_as_xyz
  1  'x, y, z'
loop_
 _atom_site_type_symbol
 _atom_site_label
 _atom_site_symmetry_multiplicity
 _atom_site_fract_x
 _atom_site_fract_y
 _atom_site_fract_z
 _atom_site_occupancy
  Tm  Tm0  1  0.997840  0.997840  0.006481  1
  Cu  Cu1  1  0.627548  0.129288  0.615615  1
  Cu  Cu2  1  0.129288  0.627548  0.615615  1
  Cu  Cu3  1  0.627548  0.627548  0.615615  1
  Pt  Pt4  1  0.628299  0.628299  0.115104  1
  Au  Au5  1  0.239476  0.239476  0.281571  1
