# generated using pymatgen
data_Rb2Te3RhO12
_symmetry_space_group_name_H-M   'P 1'
_cell_length_a   7.19057817
_cell_length_b   7.19057796
_cell_length_c   7.19199649
_cell_angle_alpha   61.30711382
_cell_angle_beta   61.30711761
_cell_angle_gamma   61.29116242
_symmetry_Int_Tables_number   1
_chemical_formula_structural   Rb2Te3RhO12
_chemical_formula_sum   'Rb2 Te3 Rh1 O12'
_cell_volume   270.63761128
_cell_formula_units_Z   1
loop_
 _symmetry_equiv_pos_site_id
 _symmetry_equiv_pos_as_xyz
  1  'x, y, z'
loop_
 _atom_site_type_symbol
 _atom_site_label
 _atom_site_symmetry_multiplicity
 _atom_site_fract_x
 _atom_site_fract_y
 _atom_site_fract_z
 _atom_site_occupancy
  Rb  Rb0  1  0.119473  0.139824  0.624476  1
  Rb  Rb1  1  0.860176  0.880527  0.375524  1
  Te  Te2  1  0.497881  0.001767  0.999927  1
  Te  Te3  1  0.998233  0.502119  0.000073  1
  Te  Te4  1  0.497917  0.502083  0.500000  1
  Rh  Rh5  1  0.497967  0.502033  0.000000  1
  O  O6  1  0.821359  0.825161  0.927584  1
  O  O7  1  0.422537  0.424126  0.329958  1
  O  O8  1  0.422535  0.831815  0.921559  1
  O  O9  1  0.821027  0.429259  0.322835  1
  O  O10  1  0.827710  0.425726  0.923154  1
  O  O11  1  0.426206  0.824931  0.322917  1
  O  O12  1  0.174839  0.178641  0.072416  1
  O  O13  1  0.575874  0.577463  0.670042  1
  O  O14  1  0.574274  0.172290  0.076846  1
  O  O15  1  0.175069  0.573794  0.677083  1
  O  O16  1  0.168185  0.577465  0.078441  1
  O  O17  1  0.570741  0.178973  0.677165  1
