# generated using pymatgen
data_TbYbCe2(Pt2Pb)2
_symmetry_space_group_name_H-M   'P 1'
_cell_length_a   7.96603025
_cell_length_b   7.96603025
_cell_length_c   7.29790300
_cell_angle_alpha   90.00000000
_cell_angle_beta   90.00000000
_cell_angle_gamma   90.60014606
_symmetry_Int_Tables_number   1
_chemical_formula_structural   TbYbCe2(Pt2Pb)2
_chemical_formula_sum   'Tb2 Yb2 Ce4 Pt8 Pb4'
_cell_volume   463.08228142
_cell_formula_units_Z   2
loop_
 _symmetry_equiv_pos_site_id
 _symmetry_equiv_pos_as_xyz
  1  'x, y, z'
loop_
 _atom_site_type_symbol
 _atom_site_label
 _atom_site_symmetry_multiplicity
 _atom_site_fract_x
 _atom_site_fract_y
 _atom_site_fract_z
 _atom_site_occupancy
  Tb  Tb0  1  0.339586  0.339586  0.500000  1
  Tb  Tb1  1  0.660414  0.660414  0.500000  1
  Yb  Yb2  1  0.840084  0.159916  0.000000  1
  Yb  Yb3  1  0.159916  0.840084  0.000000  1
  Ce  Ce4  1  0.677557  0.677557  0.000000  1
  Ce  Ce5  1  0.823755  0.176245  0.500000  1
  Ce  Ce6  1  0.322443  0.322443  0.000000  1
  Ce  Ce7  1  0.176245  0.823755  0.500000  1
  Pt  Pt8  1  0.870371  0.870371  0.733848  1
  Pt  Pt9  1  0.129629  0.129629  0.733848  1
  Pt  Pt10  1  0.628519  0.371481  0.763786  1
  Pt  Pt11  1  0.628519  0.371481  0.236214  1
  Pt  Pt12  1  0.371481  0.628519  0.236214  1
  Pt  Pt13  1  0.129629  0.129629  0.266152  1
  Pt  Pt14  1  0.870371  0.870371  0.266152  1
  Pt  Pt15  1  0.371481  0.628519  0.763786  1
  Pb  Pb16  1  0.500000  0.000000  0.752533  1
  Pb  Pb17  1  0.500000  0.000000  0.247467  1
  Pb  Pb18  1  0.000000  0.500000  0.752533  1
  Pb  Pb19  1  0.000000  0.500000  0.247467  1
