# generated using pymatgen
data_Th2Al16Pd9
_symmetry_space_group_name_H-M   'P 1'
_cell_length_a   11.19696749
_cell_length_b   11.19696928
_cell_length_c   11.19696973
_cell_angle_alpha   158.59001426
_cell_angle_beta   115.26865685
_cell_angle_gamma   69.03144788
_symmetry_Int_Tables_number   1
_chemical_formula_structural   Th2Al16Pd9
_chemical_formula_sum   'Th2 Al16 Pd9'
_cell_volume   460.06731278
_cell_formula_units_Z   1
loop_
 _symmetry_equiv_pos_site_id
 _symmetry_equiv_pos_as_xyz
  1  'x, y, z'
loop_
 _atom_site_type_symbol
 _atom_site_label
 _atom_site_symmetry_multiplicity
 _atom_site_fract_x
 _atom_site_fract_y
 _atom_site_fract_z
 _atom_site_occupancy
  Th  Th0  1  0.229163  0.229163  0.000000  1
  Th  Th1  1  0.770837  0.770837  0.000000  1
  Al  Al2  1  0.272432  0.392646  0.879786  1
  Al  Al3  1  0.092720  0.920321  0.172400  1
  Al  Al4  1  0.510360  0.203032  0.307329  1
  Al  Al5  1  0.252079  0.079679  0.172400  1
  Al  Al6  1  0.914116  0.414116  0.500000  1
  Al  Al7  1  0.727568  0.607354  0.120214  1
  Al  Al8  1  0.895703  0.203032  0.692671  1
  Al  Al9  1  0.489640  0.796968  0.692671  1
  Al  Al10  1  0.385670  0.000000  0.385670  1
  Al  Al11  1  0.614330  0.000000  0.614330  1
  Al  Al12  1  0.487140  0.607354  0.879786  1
  Al  Al13  1  0.104297  0.796968  0.307329  1
  Al  Al14  1  0.907280  0.079679  0.827600  1
  Al  Al15  1  0.747921  0.920321  0.827600  1
  Al  Al16  1  0.512860  0.392646  0.120214  1
  Al  Al17  1  0.085884  0.585884  0.500000  1
  Pd  Pd18  1  0.754478  0.500000  0.254478  1
  Pd  Pd19  1  0.024191  0.339340  0.684850  1
  Pd  Pd20  1  0.625759  0.125759  0.500000  1
  Pd  Pd21  1  0.245522  0.500000  0.745522  1
  Pd  Pd22  1  0.374241  0.874241  0.500000  1
  Pd  Pd23  1  0.000000  0.000000  0.000000  1
  Pd  Pd24  1  0.654491  0.339340  0.315150  1
  Pd  Pd25  1  0.345509  0.660660  0.684850  1
  Pd  Pd26  1  0.975809  0.660660  0.315150  1
