# generated using pymatgen
data_Tb12Ho8CoBi8Rh3
_symmetry_space_group_name_H-M   'P 1'
_cell_length_a   8.02456269
_cell_length_b   8.99328200
_cell_length_c   12.48073519
_cell_angle_alpha   90.00000000
_cell_angle_beta   89.83150327
_cell_angle_gamma   90.00000000
_symmetry_Int_Tables_number   1
_chemical_formula_structural   Tb12Ho8CoBi8Rh3
_chemical_formula_sum   'Tb12 Ho8 Co1 Bi8 Rh3'
_cell_volume   900.69525832
_cell_formula_units_Z   1
loop_
 _symmetry_equiv_pos_site_id
 _symmetry_equiv_pos_as_xyz
  1  'x, y, z'
loop_
 _atom_site_type_symbol
 _atom_site_label
 _atom_site_symmetry_multiplicity
 _atom_site_fract_x
 _atom_site_fract_y
 _atom_site_fract_z
 _atom_site_occupancy
  Tb  Tb0  1  0.345883  0.750000  0.699790  1
  Tb  Tb1  1  0.657369  0.250000  0.293976  1
  Tb  Tb2  1  0.843003  0.250000  0.793819  1
  Tb  Tb3  1  0.156993  0.750000  0.205746  1
  Tb  Tb4  1  0.879472  0.750000  0.806154  1
  Tb  Tb5  1  0.121114  0.250000  0.193426  1
  Tb  Tb6  1  0.378885  0.250000  0.693577  1
  Tb  Tb7  1  0.615149  0.750000  0.311611  1
  Tb  Tb8  1  0.051400  0.750000  0.498776  1
  Tb  Tb9  1  0.950179  0.250000  0.501411  1
  Tb  Tb10  1  0.547379  0.250000  0.000856  1
  Tb  Tb11  1  0.451236  0.750000  0.998168  1
  Ho  Ho12  1  0.676267  0.545037  0.564010  1
  Ho  Ho13  1  0.324418  0.465492  0.436591  1
  Ho  Ho14  1  0.177517  0.457493  0.934331  1
  Ho  Ho15  1  0.324418  0.034508  0.436591  1
  Ho  Ho16  1  0.821995  0.541649  0.065578  1
  Ho  Ho17  1  0.676267  0.954963  0.564010  1
  Ho  Ho18  1  0.821995  0.958351  0.065578  1
  Ho  Ho19  1  0.177517  0.042507  0.934331  1
  Co  Co20  1  0.432707  0.750000  0.491774  1
  Bi  Bi21  1  0.571018  0.509885  0.826061  1
  Bi  Bi22  1  0.429089  0.491012  0.173839  1
  Bi  Bi23  1  0.071753  0.490599  0.672854  1
  Bi  Bi24  1  0.429089  0.008988  0.173839  1
  Bi  Bi25  1  0.928487  0.510099  0.327328  1
  Bi  Bi26  1  0.571018  0.990115  0.826061  1
  Bi  Bi27  1  0.928487  0.989901  0.327328  1
  Bi  Bi28  1  0.071753  0.009401  0.672854  1
  Rh  Rh29  1  0.069940  0.750000  0.990638  1
  Rh  Rh30  1  0.928801  0.250000  0.009957  1
  Rh  Rh31  1  0.569399  0.250000  0.509137  1
