# generated using pymatgen
data_Gd2Sn3
_symmetry_space_group_name_H-M   'P 1'
_cell_length_a   6.37776162
_cell_length_b   8.35732330
_cell_length_c   11.09860900
_cell_angle_alpha   107.27598988
_cell_angle_beta   96.70874568
_cell_angle_gamma   100.01254003
_symmetry_Int_Tables_number   1
_chemical_formula_structural   Gd2Sn3
_chemical_formula_sum   'Gd8 Sn12'
_cell_volume   547.27670300
_cell_formula_units_Z   4
loop_
 _symmetry_equiv_pos_site_id
 _symmetry_equiv_pos_as_xyz
  1  'x, y, z'
loop_
 _atom_site_type_symbol
 _atom_site_label
 _atom_site_symmetry_multiplicity
 _atom_site_fract_x
 _atom_site_fract_y
 _atom_site_fract_z
 _atom_site_occupancy
  Gd  Gd0  1  0.557367  0.430404  0.336434  1
  Gd  Gd1  1  0.880393  0.242359  0.612872  1
  Gd  Gd2  1  0.119607  0.757640  0.387128  1
  Gd  Gd3  1  0.442632  0.569596  0.663566  1
  Gd  Gd4  1  0.332416  0.029120  0.743343  1
  Gd  Gd5  1  0.667583  0.970879  0.256656  1
  Gd  Gd6  1  0.957361  0.251593  0.058451  1
  Gd  Gd7  1  0.042637  0.748408  0.941549  1
  Sn  Sn8  1  0.437919  0.173401  0.050042  1
  Sn  Sn9  1  0.562081  0.826599  0.949958  1
  Sn  Sn10  1  0.318988  0.604818  0.142628  1
  Sn  Sn11  1  0.681010  0.395182  0.857372  1
  Sn  Sn12  1  0.363835  0.166251  0.501091  1
  Sn  Sn13  1  0.636165  0.833748  0.498909  1
  Sn  Sn14  1  0.173698  0.033055  0.221601  1
  Sn  Sn15  1  0.826302  0.966944  0.778398  1
  Sn  Sn16  1  0.220820  0.403310  0.863700  1
  Sn  Sn17  1  0.779180  0.596690  0.136299  1
  Sn  Sn18  1  0.046786  0.356539  0.378596  1
  Sn  Sn19  1  0.953215  0.643462  0.621405  1
