# generated using pymatgen
data_TbGd7(OsBr4)2
_symmetry_space_group_name_H-M   'P 1'
_cell_length_a   9.21046815
_cell_length_b   9.19708502
_cell_length_c   6.69993400
_cell_angle_alpha   89.64848268
_cell_angle_beta   89.52377322
_cell_angle_gamma   89.40509740
_symmetry_Int_Tables_number   1
_chemical_formula_structural   TbGd7(OsBr4)2
_chemical_formula_sum   'Tb1 Gd7 Os2 Br8'
_cell_volume   567.48720282
_cell_formula_units_Z   1
loop_
 _symmetry_equiv_pos_site_id
 _symmetry_equiv_pos_as_xyz
  1  'x, y, z'
loop_
 _atom_site_type_symbol
 _atom_site_label
 _atom_site_symmetry_multiplicity
 _atom_site_fract_x
 _atom_site_fract_y
 _atom_site_fract_z
 _atom_site_occupancy
  Tb  Tb0  1  0.243909  0.903589  0.012355  1
  Gd  Gd1  1  0.752617  0.098422  0.989496  1
  Gd  Gd2  1  0.098248  0.752501  0.489119  1
  Gd  Gd3  1  0.902402  0.246696  0.511599  1
  Gd  Gd4  1  0.753909  0.902979  0.507595  1
  Gd  Gd5  1  0.246052  0.095709  0.493700  1
  Gd  Gd6  1  0.096369  0.246448  0.993429  1
  Gd  Gd7  1  0.903391  0.754670  0.007264  1
  Os  Os8  1  0.996711  0.003514  0.250074  1
  Os  Os9  1  0.004092  0.996140  0.750947  1
  Br  Br10  1  0.413668  0.820196  0.411894  1
  Br  Br11  1  0.587138  0.180048  0.584608  1
  Br  Br12  1  0.180319  0.588399  0.084325  1
  Br  Br13  1  0.820711  0.413999  0.915170  1
  Br  Br14  1  0.408433  0.182439  0.086722  1
  Br  Br15  1  0.590794  0.815199  0.911358  1
  Br  Br16  1  0.816328  0.590182  0.411855  1
  Br  Br17  1  0.184909  0.408871  0.588491  1
