# generated using pymatgen
data_K2CaZr3Se8
_symmetry_space_group_name_H-M   'P 1'
_cell_length_a   6.82002100
_cell_length_b   7.90865000
_cell_length_c   16.30696200
_cell_angle_alpha   90.00000000
_cell_angle_beta   90.00000000
_cell_angle_gamma   90.00000000
_symmetry_Int_Tables_number   1
_chemical_formula_structural   K2CaZr3Se8
_chemical_formula_sum   'K4 Ca2 Zr6 Se16'
_cell_volume   879.55120353
_cell_formula_units_Z   2
loop_
 _symmetry_equiv_pos_site_id
 _symmetry_equiv_pos_as_xyz
  1  'x, y, z'
loop_
 _atom_site_type_symbol
 _atom_site_label
 _atom_site_symmetry_multiplicity
 _atom_site_fract_x
 _atom_site_fract_y
 _atom_site_fract_z
 _atom_site_occupancy
  K  K0  1  0.331674  0.000000  0.000000  1
  K  K1  1  0.651442  0.500000  0.500000  1
  K  K2  1  0.020883  0.000000  0.500000  1
  K  K3  1  0.979548  0.500000  0.000000  1
  Ca  Ca4  1  0.001718  0.000000  0.247090  1
  Ca  Ca5  1  0.001718  0.000000  0.752910  1
  Zr  Zr6  1  0.998175  0.500000  0.252738  1
  Zr  Zr7  1  0.998175  0.500000  0.747262  1
  Zr  Zr8  1  0.498589  0.246237  0.250123  1
  Zr  Zr9  1  0.498589  0.753763  0.749877  1
  Zr  Zr10  1  0.498589  0.753763  0.250123  1
  Zr  Zr11  1  0.498589  0.246237  0.749877  1
  Se  Se12  1  0.825551  0.262262  0.347044  1
  Se  Se13  1  0.825551  0.737738  0.652956  1
  Se  Se14  1  0.178826  0.731641  0.153055  1
  Se  Se15  1  0.178826  0.268359  0.846945  1
  Se  Se16  1  0.178826  0.268359  0.153055  1
  Se  Se17  1  0.178826  0.731641  0.846945  1
  Se  Se18  1  0.825551  0.737738  0.347044  1
  Se  Se19  1  0.825551  0.262262  0.652956  1
  Se  Se20  1  0.642342  0.000000  0.152642  1
  Se  Se21  1  0.642342  0.000000  0.847358  1
  Se  Se22  1  0.329888  0.500000  0.344697  1
  Se  Se23  1  0.329888  0.500000  0.655303  1
  Se  Se24  1  0.360531  0.000000  0.348437  1
  Se  Se25  1  0.360531  0.000000  0.651563  1
  Se  Se26  1  0.669639  0.500000  0.157645  1
  Se  Se27  1  0.669639  0.500000  0.842355  1
