# generated using pymatgen
data_Tb6Ho10Cd4TcPt3
_symmetry_space_group_name_H-M   'P 1'
_cell_length_a   9.70801624
_cell_length_b   9.70801561
_cell_length_c   9.70801692
_cell_angle_alpha   59.49426377
_cell_angle_beta   59.49426940
_cell_angle_gamma   59.49426907
_symmetry_Int_Tables_number   1
_chemical_formula_structural   Tb6Ho10Cd4TcPt3
_chemical_formula_sum   'Tb6 Ho10 Cd4 Tc1 Pt3'
_cell_volume   639.51720253
_cell_formula_units_Z   1
loop_
 _symmetry_equiv_pos_site_id
 _symmetry_equiv_pos_as_xyz
  1  'x, y, z'
loop_
 _atom_site_type_symbol
 _atom_site_label
 _atom_site_symmetry_multiplicity
 _atom_site_fract_x
 _atom_site_fract_y
 _atom_site_fract_z
 _atom_site_occupancy
  Tb  Tb0  1  0.935931  0.564586  0.564586  1
  Tb  Tb1  1  0.556624  0.937981  0.937981  1
  Tb  Tb2  1  0.564586  0.935931  0.564586  1
  Tb  Tb3  1  0.937981  0.556624  0.937981  1
  Tb  Tb4  1  0.564586  0.564586  0.935931  1
  Tb  Tb5  1  0.937981  0.937981  0.556624  1
  Ho  Ho6  1  0.351544  0.351544  0.351544  1
  Ho  Ho7  1  0.350159  0.350159  0.949034  1
  Ho  Ho8  1  0.350159  0.949034  0.350159  1
  Ho  Ho9  1  0.949034  0.350159  0.350159  1
  Ho  Ho10  1  0.815459  0.188146  0.188146  1
  Ho  Ho11  1  0.188896  0.809698  0.809698  1
  Ho  Ho12  1  0.188146  0.815459  0.188146  1
  Ho  Ho13  1  0.809698  0.188896  0.809698  1
  Ho  Ho14  1  0.188146  0.188146  0.815459  1
  Ho  Ho15  1  0.809698  0.809698  0.188896  1
  Cd  Cd16  1  0.579968  0.579968  0.579968  1
  Cd  Cd17  1  0.580867  0.580867  0.254657  1
  Cd  Cd18  1  0.580867  0.254657  0.580867  1
  Cd  Cd19  1  0.254657  0.580867  0.580867  1
  Tc  Tc20  1  0.143658  0.143658  0.143658  1
  Pt  Pt21  1  0.144182  0.144182  0.572989  1
  Pt  Pt22  1  0.144182  0.572989  0.144182  1
  Pt  Pt23  1  0.572989  0.144182  0.144182  1
