# generated using pymatgen
data_Lu2Th(ZnPt)4
_symmetry_space_group_name_H-M   'P 1'
_cell_length_a   8.18163669
_cell_length_b   8.18163697
_cell_length_c   8.18163663
_cell_angle_alpha   151.63315970
_cell_angle_beta   125.32993737
_cell_angle_gamma   62.72848648
_symmetry_Int_Tables_number   1
_chemical_formula_structural   Lu2Th(ZnPt)4
_chemical_formula_sum   'Lu2 Th1 Zn4 Pt4'
_cell_volume   210.46698825
_cell_formula_units_Z   1
loop_
 _symmetry_equiv_pos_site_id
 _symmetry_equiv_pos_as_xyz
  1  'x, y, z'
loop_
 _atom_site_type_symbol
 _atom_site_label
 _atom_site_symmetry_multiplicity
 _atom_site_fract_x
 _atom_site_fract_y
 _atom_site_fract_z
 _atom_site_occupancy
  Lu  Lu0  1  0.875652  0.875652  0.000000  1
  Lu  Lu1  1  0.124348  0.124348  0.000000  1
  Th  Th2  1  0.500000  0.000000  0.500000  1
  Zn  Zn3  1  0.476727  0.675925  0.800802  1
  Zn  Zn4  1  0.875121  0.675925  0.199198  1
  Zn  Zn5  1  0.124879  0.324075  0.800802  1
  Zn  Zn6  1  0.523273  0.324075  0.199198  1
  Pt  Pt7  1  0.277062  0.777062  0.500000  1
  Pt  Pt8  1  0.722938  0.222938  0.500000  1
  Pt  Pt9  1  0.804636  0.500000  0.304636  1
  Pt  Pt10  1  0.195364  0.500000  0.695364  1
