# generated using pymatgen
data_Nb4Ni4GeAs3
_symmetry_space_group_name_H-M   'P 1'
_cell_length_a   3.72829600
_cell_length_b   6.35321009
_cell_length_c   7.32556457
_cell_angle_alpha   89.79601696
_cell_angle_beta   90.00000000
_cell_angle_gamma   90.00000000
_symmetry_Int_Tables_number   1
_chemical_formula_structural   Nb4Ni4GeAs3
_chemical_formula_sum   'Nb4 Ni4 Ge1 As3'
_cell_volume   173.51696820
_cell_formula_units_Z   1
loop_
 _symmetry_equiv_pos_site_id
 _symmetry_equiv_pos_as_xyz
  1  'x, y, z'
loop_
 _atom_site_type_symbol
 _atom_site_label
 _atom_site_symmetry_multiplicity
 _atom_site_fract_x
 _atom_site_fract_y
 _atom_site_fract_z
 _atom_site_occupancy
  Nb  Nb0  1  0.250000  0.019592  0.836269  1
  Nb  Nb1  1  0.250000  0.519858  0.664646  1
  Nb  Nb2  1  0.750000  0.980917  0.164850  1
  Nb  Nb3  1  0.750000  0.479716  0.334858  1
  Ni  Ni4  1  0.250000  0.155486  0.429470  1
  Ni  Ni5  1  0.250000  0.657863  0.072524  1
  Ni  Ni6  1  0.750000  0.844851  0.568960  1
  Ni  Ni7  1  0.750000  0.340331  0.928813  1
  Ge  Ge8  1  0.750000  0.714055  0.878365  1
  As  As9  1  0.250000  0.784471  0.377754  1
  As  As10  1  0.250000  0.287435  0.120683  1
  As  As11  1  0.750000  0.215425  0.622808  1
