# generated using pymatgen
data_Ho2ScBe2Ir5
_symmetry_space_group_name_H-M   'P 1'
_cell_length_a   3.29822300
_cell_length_b   9.71822800
_cell_length_c   9.71822800
_cell_angle_alpha   90.00000000
_cell_angle_beta   90.00000000
_cell_angle_gamma   90.00000000
_symmetry_Int_Tables_number   1
_chemical_formula_structural   Ho2ScBe2Ir5
_chemical_formula_sum   'Ho4 Sc2 Be4 Ir10'
_cell_volume   311.49722611
_cell_formula_units_Z   2
loop_
 _symmetry_equiv_pos_site_id
 _symmetry_equiv_pos_as_xyz
  1  'x, y, z'
loop_
 _atom_site_type_symbol
 _atom_site_label
 _atom_site_symmetry_multiplicity
 _atom_site_fract_x
 _atom_site_fract_y
 _atom_site_fract_z
 _atom_site_occupancy
  Ho  Ho0  1  0.000000  0.177306  0.677306  1
  Ho  Ho1  1  0.000000  0.822694  0.322694  1
  Ho  Ho2  1  0.000000  0.322694  0.177306  1
  Ho  Ho3  1  0.000000  0.677306  0.822694  1
  Sc  Sc4  1  0.000000  0.000000  0.000000  1
  Sc  Sc5  1  0.000000  0.500000  0.500000  1
  Be  Be6  1  0.000000  0.620622  0.120622  1
  Be  Be7  1  0.000000  0.379378  0.879378  1
  Be  Be8  1  0.000000  0.879378  0.620622  1
  Be  Be9  1  0.000000  0.120622  0.379378  1
  Ir  Ir10  1  0.500000  0.067716  0.217898  1
  Ir  Ir11  1  0.500000  0.932284  0.782102  1
  Ir  Ir12  1  0.500000  0.782102  0.067716  1
  Ir  Ir13  1  0.500000  0.432284  0.717898  1
  Ir  Ir14  1  0.500000  0.217898  0.932284  1
  Ir  Ir15  1  0.500000  0.567716  0.282102  1
  Ir  Ir16  1  0.500000  0.717898  0.567716  1
  Ir  Ir17  1  0.500000  0.282102  0.432284  1
  Ir  Ir18  1  0.500000  0.000000  0.500000  1
  Ir  Ir19  1  0.500000  0.500000  0.000000  1
