# generated using pymatgen
data_Sm8Nb(PdPt5)4
_symmetry_space_group_name_H-M   'P 1'
_cell_length_a   8.50046900
_cell_length_b   8.50994400
_cell_length_c   8.50994400
_cell_angle_alpha   90.00000000
_cell_angle_beta   90.00000000
_cell_angle_gamma   90.00000000
_symmetry_Int_Tables_number   1
_chemical_formula_structural   Sm8Nb(PdPt5)4
_chemical_formula_sum   'Sm8 Nb1 Pd4 Pt20'
_cell_volume   615.59671309
_cell_formula_units_Z   1
loop_
 _symmetry_equiv_pos_site_id
 _symmetry_equiv_pos_as_xyz
  1  'x, y, z'
loop_
 _atom_site_type_symbol
 _atom_site_label
 _atom_site_symmetry_multiplicity
 _atom_site_fract_x
 _atom_site_fract_y
 _atom_site_fract_z
 _atom_site_occupancy
  Sm  Sm0  1  0.250409  0.250732  0.250732  1
  Sm  Sm1  1  0.749591  0.749268  0.749268  1
  Sm  Sm2  1  0.749591  0.749268  0.250732  1
  Sm  Sm3  1  0.749591  0.250732  0.749268  1
  Sm  Sm4  1  0.250409  0.250732  0.749268  1
  Sm  Sm5  1  0.250409  0.749268  0.250732  1
  Sm  Sm6  1  0.250409  0.749268  0.749268  1
  Sm  Sm7  1  0.749591  0.250732  0.250732  1
  Nb  Nb8  1  0.000000  0.000000  0.000000  1
  Pd  Pd9  1  0.500000  0.255988  0.500000  1
  Pd  Pd10  1  0.500000  0.744012  0.500000  1
  Pd  Pd11  1  0.500000  0.500000  0.255988  1
  Pd  Pd12  1  0.500000  0.500000  0.744012  1
  Pt  Pt13  1  0.266740  0.500000  0.000000  1
  Pt  Pt14  1  0.733260  0.500000  0.000000  1
  Pt  Pt15  1  0.000000  0.265894  0.500000  1
  Pt  Pt16  1  0.500000  0.266362  0.000000  1
  Pt  Pt17  1  0.000000  0.734106  0.500000  1
  Pt  Pt18  1  0.500000  0.733638  0.000000  1
  Pt  Pt19  1  0.500000  0.000000  0.266362  1
  Pt  Pt20  1  0.266740  0.000000  0.500000  1
  Pt  Pt21  1  0.500000  0.000000  0.733638  1
  Pt  Pt22  1  0.733260  0.000000  0.500000  1
  Pt  Pt23  1  0.000000  0.500000  0.265894  1
  Pt  Pt24  1  0.000000  0.500000  0.734106  1
  Pt  Pt25  1  0.255203  0.500000  0.500000  1
  Pt  Pt26  1  0.744797  0.500000  0.500000  1
  Pt  Pt27  1  0.309111  0.000000  0.000000  1
  Pt  Pt28  1  0.690889  0.000000  0.000000  1
  Pt  Pt29  1  0.000000  0.308149  0.000000  1
  Pt  Pt30  1  0.000000  0.691851  0.000000  1
  Pt  Pt31  1  0.000000  0.000000  0.308149  1
  Pt  Pt32  1  0.000000  0.000000  0.691851  1
