# generated using pymatgen
data_TbY5Ho10Cd2(HgIr2)2
_symmetry_space_group_name_H-M   'P 1'
_cell_length_a   9.59646093
_cell_length_b   9.59646132
_cell_length_c   9.59926500
_cell_angle_alpha   59.99033159
_cell_angle_beta   59.99033023
_cell_angle_gamma   60.01080389
_symmetry_Int_Tables_number   1
_chemical_formula_structural   TbY5Ho10Cd2(HgIr2)2
_chemical_formula_sum   'Tb1 Y5 Ho10 Cd2 Hg2 Ir4'
_cell_volume   625.05344103
_cell_formula_units_Z   1
loop_
 _symmetry_equiv_pos_site_id
 _symmetry_equiv_pos_as_xyz
  1  'x, y, z'
loop_
 _atom_site_type_symbol
 _atom_site_label
 _atom_site_symmetry_multiplicity
 _atom_site_fract_x
 _atom_site_fract_y
 _atom_site_fract_z
 _atom_site_occupancy
  Tb  Tb0  1  0.188802  0.188802  0.811198  1
  Y  Y1  1  0.188380  0.810652  0.811787  1
  Y  Y2  1  0.810652  0.188380  0.189181  1
  Y  Y3  1  0.810652  0.188380  0.811787  1
  Y  Y4  1  0.188380  0.810652  0.189181  1
  Y  Y5  1  0.811198  0.811198  0.188802  1
  Ho  Ho6  1  0.599561  0.599561  0.597889  1
  Ho  Ho7  1  0.599561  0.599561  0.202992  1
  Ho  Ho8  1  0.601111  0.199718  0.599586  1
  Ho  Ho9  1  0.199718  0.601111  0.599586  1
  Ho  Ho10  1  0.060021  0.438121  0.440742  1
  Ho  Ho11  1  0.438121  0.060021  0.061117  1
  Ho  Ho12  1  0.438121  0.060021  0.440742  1
  Ho  Ho13  1  0.060021  0.438121  0.061117  1
  Ho  Ho14  1  0.438698  0.438698  0.061302  1
  Ho  Ho15  1  0.059572  0.059572  0.440428  1
  Cd  Cd16  1  0.829924  0.508667  0.830705  1
  Cd  Cd17  1  0.508667  0.829924  0.830705  1
  Hg  Hg18  1  0.833672  0.833672  0.835460  1
  Hg  Hg19  1  0.833672  0.833672  0.497195  1
  Ir  Ir20  1  0.392152  0.392152  0.391225  1
  Ir  Ir21  1  0.392152  0.392152  0.824470  1
  Ir  Ir22  1  0.392189  0.825009  0.391401  1
  Ir  Ir23  1  0.825009  0.392189  0.391401  1
