# generated using pymatgen
data_RbNa3In5Ga7Te20
_symmetry_space_group_name_H-M   'P 1'
_cell_length_a   10.88270203
_cell_length_b   10.90354004
_cell_length_c   10.91873927
_cell_angle_alpha   90.49213604
_cell_angle_beta   90.36575942
_cell_angle_gamma   90.31548384
_symmetry_Int_Tables_number   1
_chemical_formula_structural   RbNa3In5Ga7Te20
_chemical_formula_sum   'Rb1 Na3 In5 Ga7 Te20'
_cell_volume   1295.52312784
_cell_formula_units_Z   1
loop_
 _symmetry_equiv_pos_site_id
 _symmetry_equiv_pos_as_xyz
  1  'x, y, z'
loop_
 _atom_site_type_symbol
 _atom_site_label
 _atom_site_symmetry_multiplicity
 _atom_site_fract_x
 _atom_site_fract_y
 _atom_site_fract_z
 _atom_site_occupancy
  Rb  Rb0  1  0.500246  0.499130  0.498802  1
  Na  Na1  1  0.254254  0.000194  0.746124  1
  Na  Na2  1  0.745203  0.254040  0.000193  1
  Na  Na3  1  0.999999  0.745893  0.254255  1
  In  In4  1  0.841476  0.881689  0.572892  1
  In  In5  1  0.571195  0.842892  0.883284  1
  In  In6  1  0.881634  0.572462  0.841869  1
  In  In7  1  0.160192  0.426131  0.118771  1
  In  In8  1  0.119559  0.158179  0.425797  1
  Ga  Ga9  1  0.429268  0.117243  0.159772  1
  Ga  Ga10  1  0.745082  0.163104  0.343247  1
  Ga  Ga11  1  0.343876  0.748016  0.163537  1
  Ga  Ga12  1  0.164188  0.344176  0.746796  1
  Ga  Ga13  1  0.253521  0.655998  0.835766  1
  Ga  Ga14  1  0.836031  0.253175  0.655659  1
  Ga  Ga15  1  0.655756  0.837167  0.252244  1
  Te  Te16  1  0.179707  0.819377  0.999424  1
  Te  Te17  1  0.821277  0.999764  0.180301  1
  Te  Te18  1  0.182371  0.166057  0.168004  1
  Te  Te19  1  0.831885  0.832971  0.832777  1
  Te  Te20  1  0.999948  0.180543  0.819477  1
  Te  Te21  1  0.913650  0.498852  0.087126  1
  Te  Te22  1  0.087042  0.913287  0.499882  1
  Te  Te23  1  0.494437  0.086533  0.927553  1
  Te  Te24  1  0.754440  0.693100  0.417352  1
  Te  Te25  1  0.418261  0.757222  0.692194  1
  Te  Te26  1  0.691606  0.417823  0.755908  1
  Te  Te27  1  0.244123  0.583758  0.308020  1
  Te  Te28  1  0.308159  0.243842  0.582433  1
  Te  Te29  1  0.572387  0.297788  0.241800  1
  Te  Te30  1  0.674565  0.081964  0.568017  1
  Te  Te31  1  0.567906  0.674501  0.081974  1
  Te  Te32  1  0.081628  0.567794  0.674627  1
  Te  Te33  1  0.325842  0.432688  0.917649  1
  Te  Te34  1  0.917281  0.324554  0.430627  1
  Te  Te35  1  0.432004  0.928095  0.315846  1
