# generated using pymatgen
data_Er3In3GePd2
_symmetry_space_group_name_H-M   'P 1'
_cell_length_a   7.47569400
_cell_length_b   7.47569407
_cell_length_c   4.09291900
_cell_angle_alpha   90.00000000
_cell_angle_beta   90.00000000
_cell_angle_gamma   119.99999967
_symmetry_Int_Tables_number   1
_chemical_formula_structural   Er3In3GePd2
_chemical_formula_sum   'Er3 In3 Ge1 Pd2'
_cell_volume   198.09194664
_cell_formula_units_Z   1
loop_
 _symmetry_equiv_pos_site_id
 _symmetry_equiv_pos_as_xyz
  1  'x, y, z'
loop_
 _atom_site_type_symbol
 _atom_site_label
 _atom_site_symmetry_multiplicity
 _atom_site_fract_x
 _atom_site_fract_y
 _atom_site_fract_z
 _atom_site_occupancy
  Er  Er0  1  0.406983  0.994208  0.500000  1
  Er  Er1  1  0.587225  0.593017  0.500000  1
  Er  Er2  1  0.005792  0.412775  0.500000  1
  In  In3  1  0.248869  0.259058  0.000000  1
  In  In4  1  0.740942  0.989811  0.000000  1
  In  In5  1  0.010189  0.751131  0.000000  1
  Ge  Ge6  1  0.666667  0.333333  0.000000  1
  Pd  Pd7  1  0.000000  0.000000  0.500000  1
  Pd  Pd8  1  0.333333  0.666667  0.000000  1
