# generated using pymatgen
data_Ba3YbBi2O9
_symmetry_space_group_name_H-M   'P 1'
_cell_length_a   10.65328065
_cell_length_b   10.65328089
_cell_length_c   10.65328073
_cell_angle_alpha   146.45115724
_cell_angle_beta   131.98854621
_cell_angle_gamma   59.84128554
_symmetry_Int_Tables_number   1
_chemical_formula_structural   Ba3YbBi2O9
_chemical_formula_sum   'Ba6 Yb2 Bi4 O18'
_cell_volume   492.15419544
_cell_formula_units_Z   2
loop_
 _symmetry_equiv_pos_site_id
 _symmetry_equiv_pos_as_xyz
  1  'x, y, z'
loop_
 _atom_site_type_symbol
 _atom_site_label
 _atom_site_symmetry_multiplicity
 _atom_site_fract_x
 _atom_site_fract_y
 _atom_site_fract_z
 _atom_site_occupancy
  Ba  Ba0  1  0.758591  0.500000  0.258591  1
  Ba  Ba1  1  0.416599  0.169410  0.247188  1
  Ba  Ba2  1  0.077778  0.830590  0.247188  1
  Ba  Ba3  1  0.241409  0.500000  0.741409  1
  Ba  Ba4  1  0.922222  0.169410  0.752812  1
  Ba  Ba5  1  0.583401  0.830590  0.752812  1
  Yb  Yb6  1  0.166124  0.666124  0.500000  1
  Yb  Yb7  1  0.833876  0.333876  0.500000  1
  Bi  Bi8  1  0.000000  0.000000  0.000000  1
  Bi  Bi9  1  0.667800  0.667800  0.000000  1
  Bi  Bi10  1  0.332200  0.332200  0.000000  1
  Bi  Bi11  1  0.500000  0.000000  0.500000  1
  O  O12  1  0.744880  0.000000  0.744880  1
  O  O13  1  0.420542  0.660916  0.759626  1
  O  O14  1  0.098710  0.339084  0.759626  1
  O  O15  1  0.581178  0.834263  0.253086  1
  O  O16  1  0.253827  0.500617  0.246791  1
  O  O17  1  0.919970  0.161189  0.241219  1
  O  O18  1  0.418822  0.671908  0.253086  1
  O  O19  1  0.080030  0.321249  0.241219  1
  O  O20  1  0.746173  0.992964  0.246791  1
  O  O21  1  0.255120  0.000000  0.255120  1
  O  O22  1  0.901290  0.660916  0.240374  1
  O  O23  1  0.579458  0.339084  0.240374  1
  O  O24  1  0.418822  0.165737  0.746914  1
  O  O25  1  0.080030  0.838811  0.758781  1
  O  O26  1  0.746173  0.499383  0.753209  1
  O  O27  1  0.581178  0.328092  0.746914  1
  O  O28  1  0.253827  0.007036  0.753209  1
  O  O29  1  0.919970  0.678751  0.758781  1
