# generated using pymatgen
data_HfNbB2Ru5W
_symmetry_space_group_name_H-M   'P 1'
_cell_length_a   9.48735177
_cell_length_b   9.48735179
_cell_length_c   3.01977500
_cell_angle_alpha   90.00000000
_cell_angle_beta   90.00000000
_cell_angle_gamma   89.90838570
_symmetry_Int_Tables_number   1
_chemical_formula_structural   HfNbB2Ru5W
_chemical_formula_sum   'Hf2 Nb2 B4 Ru10 W2'
_cell_volume   271.80912847
_cell_formula_units_Z   2
loop_
 _symmetry_equiv_pos_site_id
 _symmetry_equiv_pos_as_xyz
  1  'x, y, z'
loop_
 _atom_site_type_symbol
 _atom_site_label
 _atom_site_symmetry_multiplicity
 _atom_site_fract_x
 _atom_site_fract_y
 _atom_site_fract_z
 _atom_site_occupancy
  Hf  Hf0  1  0.824002  0.675998  0.000000  1
  Hf  Hf1  1  0.175998  0.324002  0.000000  1
  Nb  Nb2  1  0.323636  0.823636  0.000000  1
  Nb  Nb3  1  0.676364  0.176364  0.000000  1
  B  B4  1  0.620669  0.879331  0.000000  1
  B  B5  1  0.379331  0.120669  0.000000  1
  B  B6  1  0.120786  0.620786  0.000000  1
  B  B7  1  0.879214  0.379214  0.000000  1
  Ru  Ru8  1  0.568814  0.719108  0.500000  1
  Ru  Ru9  1  0.431186  0.280892  0.500000  1
  Ru  Ru10  1  0.073587  0.783236  0.500000  1
  Ru  Ru11  1  0.926413  0.216764  0.500000  1
  Ru  Ru12  1  0.283236  0.573587  0.500000  1
  Ru  Ru13  1  0.716764  0.426413  0.500000  1
  Ru  Ru14  1  0.219108  0.068814  0.500000  1
  Ru  Ru15  1  0.780892  0.931186  0.500000  1
  Ru  Ru16  1  0.500000  0.000000  0.500000  1
  Ru  Ru17  1  0.000000  0.500000  0.500000  1
  W  W18  1  0.500000  0.500000  0.000000  1
  W  W19  1  0.000000  0.000000  0.000000  1
