# generated using pymatgen
data_Tb3MgZn2Ge2Au
_symmetry_space_group_name_H-M   'P 1'
_cell_length_a   7.06215032
_cell_length_b   7.06215081
_cell_length_c   4.35155400
_cell_angle_alpha   90.00000000
_cell_angle_beta   90.00000000
_cell_angle_gamma   119.85933381
_symmetry_Int_Tables_number   1
_chemical_formula_structural   Tb3MgZn2Ge2Au
_chemical_formula_sum   'Tb3 Mg1 Zn2 Ge2 Au1'
_cell_volume   188.21871300
_cell_formula_units_Z   1
loop_
 _symmetry_equiv_pos_site_id
 _symmetry_equiv_pos_as_xyz
  1  'x, y, z'
loop_
 _atom_site_type_symbol
 _atom_site_label
 _atom_site_symmetry_multiplicity
 _atom_site_fract_x
 _atom_site_fract_y
 _atom_site_fract_z
 _atom_site_occupancy
  Tb  Tb0  1  0.577109  0.000950  0.000000  1
  Tb  Tb1  1  0.000950  0.577109  0.000000  1
  Tb  Tb2  1  0.413544  0.413544  0.000000  1
  Mg  Mg3  1  0.767875  0.767875  0.500000  1
  Zn  Zn4  1  0.245997  0.000521  0.500000  1
  Zn  Zn5  1  0.000521  0.245997  0.500000  1
  Ge  Ge6  1  0.329157  0.664534  0.500000  1
  Ge  Ge7  1  0.664534  0.329157  0.500000  1
  Au  Au8  1  0.000313  0.000313  0.000000  1
