# generated using pymatgen
data_Eu2(TcB2)3
_symmetry_space_group_name_H-M   'P 1'
_cell_length_a   6.27224379
_cell_length_b   6.27224341
_cell_length_c   7.59983511
_cell_angle_alpha   89.65809842
_cell_angle_beta   89.65808899
_cell_angle_gamma   114.35650689
_symmetry_Int_Tables_number   1
_chemical_formula_structural   Eu2(TcB2)3
_chemical_formula_sum   'Eu4 Tc6 B12'
_cell_volume   272.35830486
_cell_formula_units_Z   2
loop_
 _symmetry_equiv_pos_site_id
 _symmetry_equiv_pos_as_xyz
  1  'x, y, z'
loop_
 _atom_site_type_symbol
 _atom_site_label
 _atom_site_symmetry_multiplicity
 _atom_site_fract_x
 _atom_site_fract_y
 _atom_site_fract_z
 _atom_site_occupancy
  Eu  Eu0  1  0.443072  0.092455  0.172260  1
  Eu  Eu1  1  0.907545  0.556928  0.327740  1
  Eu  Eu2  1  0.556928  0.907545  0.827740  1
  Eu  Eu3  1  0.092455  0.443072  0.672260  1
  Tc  Tc4  1  0.804099  0.988085  0.410521  1
  Tc  Tc5  1  0.011915  0.195901  0.089479  1
  Tc  Tc6  1  0.195901  0.011915  0.589479  1
  Tc  Tc7  1  0.988085  0.804099  0.910521  1
  Tc  Tc8  1  0.416545  0.583455  0.250000  1
  Tc  Tc9  1  0.583455  0.416545  0.750000  1
  B  B10  1  0.155626  0.241086  0.367276  1
  B  B11  1  0.758914  0.844374  0.132724  1
  B  B12  1  0.844374  0.758914  0.632724  1
  B  B13  1  0.241086  0.155626  0.867276  1
  B  B14  1  0.155551  0.581488  0.016303  1
  B  B15  1  0.418512  0.844449  0.483697  1
  B  B16  1  0.844449  0.418512  0.983697  1
  B  B17  1  0.581488  0.155551  0.516303  1
  B  B18  1  0.350512  0.441580  0.967913  1
  B  B19  1  0.558420  0.649488  0.532087  1
  B  B20  1  0.649488  0.558420  0.032087  1
  B  B21  1  0.441580  0.350512  0.467913  1
