# generated using pymatgen
data_RbLa2SmB24
_symmetry_space_group_name_H-M   'P 1'
_cell_length_a   7.20114546
_cell_length_b   7.20114565
_cell_length_c   5.92498600
_cell_angle_alpha   90.00000000
_cell_angle_beta   90.00000000
_cell_angle_gamma   109.20188905
_symmetry_Int_Tables_number   1
_chemical_formula_structural   RbLa2SmB24
_chemical_formula_sum   'Rb1 La2 Sm1 B24'
_cell_volume   290.15538313
_cell_formula_units_Z   1
loop_
 _symmetry_equiv_pos_site_id
 _symmetry_equiv_pos_as_xyz
  1  'x, y, z'
loop_
 _atom_site_type_symbol
 _atom_site_label
 _atom_site_symmetry_multiplicity
 _atom_site_fract_x
 _atom_site_fract_y
 _atom_site_fract_z
 _atom_site_occupancy
  Rb  Rb0  1  0.000000  0.000000  0.000000  1
  La  La1  1  0.751064  0.248936  0.500000  1
  La  La2  1  0.248936  0.751064  0.500000  1
  Sm  Sm3  1  0.500000  0.500000  0.000000  1
  B  B4  1  0.176996  0.326769  0.649218  1
  B  B5  1  0.923555  0.574001  0.148323  1
  B  B6  1  0.673231  0.823004  0.649218  1
  B  B7  1  0.425999  0.076445  0.148323  1
  B  B8  1  0.176996  0.326769  0.350782  1
  B  B9  1  0.923555  0.574001  0.851677  1
  B  B10  1  0.673231  0.823004  0.350782  1
  B  B11  1  0.425999  0.076445  0.851677  1
  B  B12  1  0.400648  0.400648  0.500000  1
  B  B13  1  0.148158  0.650668  0.000000  1
  B  B14  1  0.898091  0.898091  0.500000  1
  B  B15  1  0.650668  0.148158  0.000000  1
  B  B16  1  0.326769  0.176996  0.649218  1
  B  B17  1  0.076445  0.425999  0.148323  1
  B  B18  1  0.823004  0.673231  0.649218  1
  B  B19  1  0.574001  0.923555  0.148323  1
  B  B20  1  0.101909  0.101909  0.500000  1
  B  B21  1  0.851842  0.349332  0.000000  1
  B  B22  1  0.599352  0.599352  0.500000  1
  B  B23  1  0.349332  0.851842  0.000000  1
  B  B24  1  0.326769  0.176996  0.350782  1
  B  B25  1  0.076445  0.425999  0.851677  1
  B  B26  1  0.823004  0.673231  0.350782  1
  B  B27  1  0.574001  0.923555  0.851677  1
