# generated using pymatgen
data_Sr4Al(TcO4)3
_symmetry_space_group_name_H-M   'P 1'
_cell_length_a   5.57907018
_cell_length_b   5.59175203
_cell_length_c   7.88363063
_cell_angle_alpha   89.99715723
_cell_angle_beta   89.92637236
_cell_angle_gamma   89.98879706
_symmetry_Int_Tables_number   1
_chemical_formula_structural   Sr4Al(TcO4)3
_chemical_formula_sum   'Sr4 Al1 Tc3 O12'
_cell_volume   245.94365853
_cell_formula_units_Z   1
loop_
 _symmetry_equiv_pos_site_id
 _symmetry_equiv_pos_as_xyz
  1  'x, y, z'
loop_
 _atom_site_type_symbol
 _atom_site_label
 _atom_site_symmetry_multiplicity
 _atom_site_fract_x
 _atom_site_fract_y
 _atom_site_fract_z
 _atom_site_occupancy
  Sr  Sr0  1  0.497407  0.999829  0.738520  1
  Sr  Sr1  1  0.996712  0.499278  0.738523  1
  Sr  Sr2  1  0.502593  0.000171  0.261480  1
  Sr  Sr3  1  0.003288  0.500722  0.261477  1
  Al  Al4  1  0.500000  0.500000  0.500000  1
  Tc  Tc5  1  0.000000  0.000000  0.000000  1
  Tc  Tc6  1  0.500000  0.500000  0.000000  1
  Tc  Tc7  1  0.000000  0.000000  0.500000  1
  O  O8  1  0.000135  0.971752  0.748630  1
  O  O9  1  0.500853  0.529312  0.743924  1
  O  O10  1  0.999865  0.028248  0.251370  1
  O  O11  1  0.499147  0.470688  0.256076  1
  O  O12  1  0.741860  0.252076  0.513447  1
  O  O13  1  0.238822  0.262361  0.984651  1
  O  O14  1  0.262283  0.760878  0.015239  1
  O  O15  1  0.748200  0.742058  0.486297  1
  O  O16  1  0.258140  0.747924  0.486553  1
  O  O17  1  0.761178  0.737639  0.015349  1
  O  O18  1  0.737717  0.239122  0.984761  1
  O  O19  1  0.251800  0.257942  0.513703  1
