# generated using pymatgen
data_CaTbPr5OsBr12
_symmetry_space_group_name_H-M   'P 1'
_cell_length_a   9.68377231
_cell_length_b   9.62721819
_cell_length_c   9.59149079
_cell_angle_alpha   107.34266617
_cell_angle_beta   107.22489747
_cell_angle_gamma   106.65798594
_symmetry_Int_Tables_number   1
_chemical_formula_structural   CaTbPr5OsBr12
_chemical_formula_sum   'Ca1 Tb1 Pr5 Os1 Br12'
_cell_volume   743.13688455
_cell_formula_units_Z   1
loop_
 _symmetry_equiv_pos_site_id
 _symmetry_equiv_pos_as_xyz
  1  'x, y, z'
loop_
 _atom_site_type_symbol
 _atom_site_label
 _atom_site_symmetry_multiplicity
 _atom_site_fract_x
 _atom_site_fract_y
 _atom_site_fract_z
 _atom_site_occupancy
  Ca  Ca0  1  0.500727  0.499531  0.498721  1
  Tb  Tb1  1  0.313493  0.108756  0.026373  1
  Pr  Pr2  1  0.022889  0.310780  0.107498  1
  Pr  Pr3  1  0.109620  0.026463  0.313487  1
  Pr  Pr4  1  0.894747  0.974767  0.688367  1
  Pr  Pr5  1  0.975886  0.689625  0.892639  1
  Pr  Pr6  1  0.677000  0.889117  0.974596  1
  Os  Os7  1  0.000243  0.000654  0.001280  1
  Br  Br8  1  0.674425  0.214447  0.067348  1
  Br  Br9  1  0.377402  0.448461  0.161565  1
  Br  Br10  1  0.069034  0.682808  0.217859  1
  Br  Br11  1  0.785014  0.932564  0.319247  1
  Br  Br12  1  0.459352  0.166668  0.368303  1
  Br  Br13  1  0.171273  0.380178  0.462373  1
  Br  Br14  1  0.830512  0.620345  0.538004  1
  Br  Br15  1  0.540804  0.831239  0.620199  1
  Br  Br16  1  0.224277  0.070941  0.693776  1
  Br  Br17  1  0.931683  0.317315  0.782345  1
  Br  Br18  1  0.622554  0.539946  0.831251  1
  Br  Br19  1  0.319067  0.795401  0.934773  1
