# generated using pymatgen
data_Pr2Be(Co3P2)3
_symmetry_space_group_name_H-M   'P 1'
_cell_length_a   6.00970730
_cell_length_b   6.00970708
_cell_length_c   11.28793116
_cell_angle_alpha   91.03152800
_cell_angle_beta   88.96847186
_cell_angle_gamma   145.01532473
_symmetry_Int_Tables_number   1
_chemical_formula_structural   Pr2Be(Co3P2)3
_chemical_formula_sum   'Pr2 Be1 Co9 P6'
_cell_volume   233.70551369
_cell_formula_units_Z   1
loop_
 _symmetry_equiv_pos_site_id
 _symmetry_equiv_pos_as_xyz
  1  'x, y, z'
loop_
 _atom_site_type_symbol
 _atom_site_label
 _atom_site_symmetry_multiplicity
 _atom_site_fract_x
 _atom_site_fract_y
 _atom_site_fract_z
 _atom_site_occupancy
  Pr  Pr0  1  0.334303  0.665697  0.246866  1
  Pr  Pr1  1  0.665697  0.334303  0.753134  1
  Be  Be2  1  0.500000  0.500000  0.500000  1
  Co  Co3  1  0.051377  0.948623  0.146105  1
  Co  Co4  1  0.046729  0.953271  0.366234  1
  Co  Co5  1  0.688856  0.311144  0.438071  1
  Co  Co6  1  0.311144  0.688856  0.561929  1
  Co  Co7  1  0.302922  0.697078  0.930789  1
  Co  Co8  1  0.697078  0.302922  0.069211  1
  Co  Co9  1  0.500000  0.500000  0.000000  1
  Co  Co10  1  0.953271  0.046729  0.633766  1
  Co  Co11  1  0.948623  0.051377  0.853895  1
  P  P12  1  0.606867  0.393133  0.251891  1
  P  P13  1  0.393133  0.606867  0.748109  1
  P  P14  1  0.124088  0.875912  0.541633  1
  P  P15  1  0.875912  0.124088  0.458367  1
  P  P16  1  0.882554  0.117446  0.037477  1
  P  P17  1  0.117446  0.882554  0.962523  1
