# generated using pymatgen
data_Dy6Y14Sn9Bi7
_symmetry_space_group_name_H-M   'P 1'
_cell_length_a   8.19454871
_cell_length_b   8.22473981
_cell_length_c   15.66822243
_cell_angle_alpha   90.05312165
_cell_angle_beta   89.62783922
_cell_angle_gamma   89.92202396
_symmetry_Int_Tables_number   1
_chemical_formula_structural   Dy6Y14Sn9Bi7
_chemical_formula_sum   'Dy6 Y14 Sn9 Bi7'
_cell_volume   1055.98362429
_cell_formula_units_Z   1
loop_
 _symmetry_equiv_pos_site_id
 _symmetry_equiv_pos_as_xyz
  1  'x, y, z'
loop_
 _atom_site_type_symbol
 _atom_site_label
 _atom_site_symmetry_multiplicity
 _atom_site_fract_x
 _atom_site_fract_y
 _atom_site_fract_z
 _atom_site_occupancy
  Dy  Dy0  1  0.394255  0.838062  0.877503  1
  Dy  Dy1  1  0.897500  0.663722  0.621688  1
  Dy  Dy2  1  0.602435  0.162339  0.377798  1
  Dy  Dy3  1  0.101658  0.338339  0.121498  1
  Dy  Dy4  1  0.607459  0.167280  0.121551  1
  Dy  Dy5  1  0.102710  0.336545  0.377965  1
  Y  Y6  1  0.396238  0.838497  0.622579  1
  Y  Y7  1  0.891730  0.660393  0.880057  1
  Y  Y8  1  0.565323  0.333883  0.890143  1
  Y  Y9  1  0.065893  0.168877  0.613874  1
  Y  Y10  1  0.434646  0.667864  0.386567  1
  Y  Y11  1  0.937043  0.823944  0.111302  1
  Y  Y12  1  0.445520  0.665440  0.109948  1
  Y  Y13  1  0.934209  0.830896  0.386068  1
  Y  Y14  1  0.566004  0.332166  0.613435  1
  Y  Y15  1  0.057039  0.173546  0.889849  1
  Y  Y16  1  0.228930  0.500614  0.750722  1
  Y  Y17  1  0.728947  0.001783  0.750787  1
  Y  Y18  1  0.771535  0.499083  0.246294  1
  Y  Y19  1  0.271130  0.998639  0.248864  1
  Sn  Sn20  1  0.768799  0.479917  0.044551  1
  Sn  Sn21  1  0.593794  0.629792  0.749697  1
  Sn  Sn22  1  0.092031  0.871673  0.751154  1
  Sn  Sn23  1  0.405554  0.370125  0.250286  1
  Sn  Sn24  1  0.906563  0.127707  0.250022  1
  Sn  Sn25  1  0.366756  0.143299  0.751771  1
  Sn  Sn26  1  0.866862  0.360178  0.749982  1
  Sn  Sn27  1  0.633210  0.859004  0.249407  1
  Sn  Sn28  1  0.135301  0.639833  0.249562  1
  Bi  Bi29  1  0.265504  0.016065  0.044371  1
  Bi  Bi30  1  0.763736  0.486404  0.454185  1
  Bi  Bi31  1  0.736726  0.987235  0.544972  1
  Bi  Bi32  1  0.233529  0.518588  0.955840  1
  Bi  Bi33  1  0.731628  0.982187  0.955980  1
  Bi  Bi34  1  0.237053  0.513275  0.545018  1
  Bi  Bi35  1  0.262751  0.012806  0.454708  1
