# generated using pymatgen
data_Sr3Pr3P17Pd6
_symmetry_space_group_name_H-M   'P 1'
_cell_length_a   9.08354744
_cell_length_b   9.08354658
_cell_length_c   9.13748068
_cell_angle_alpha   109.95421243
_cell_angle_beta   108.99488372
_cell_angle_gamma   109.22559444
_symmetry_Int_Tables_number   1
_chemical_formula_structural   Sr3Pr3P17Pd6
_chemical_formula_sum   'Sr3 Pr3 P17 Pd6'
_cell_volume   582.05606904
_cell_formula_units_Z   1
loop_
 _symmetry_equiv_pos_site_id
 _symmetry_equiv_pos_as_xyz
  1  'x, y, z'
loop_
 _atom_site_type_symbol
 _atom_site_label
 _atom_site_symmetry_multiplicity
 _atom_site_fract_x
 _atom_site_fract_y
 _atom_site_fract_z
 _atom_site_occupancy
  Sr  Sr0  1  0.281833  0.281833  0.000000  1
  Sr  Sr1  1  0.000965  0.712885  0.712637  1
  Sr  Sr2  1  0.000247  0.288326  0.287363  1
  Pr  Pr3  1  0.273984  0.000152  0.273195  1
  Pr  Pr4  1  0.726957  0.000788  0.726805  1
  Pr  Pr5  1  0.720464  0.720464  0.000000  1
  P  P6  1  0.639199  0.424027  0.641752  1
  P  P7  1  0.782274  0.997447  0.358248  1
  P  P8  1  0.363700  0.000376  0.782675  1
  P  P9  1  0.780031  0.357704  0.997427  1
  P  P10  1  0.217631  0.214467  0.573337  1
  P  P11  1  0.574901  0.216802  0.219596  1
  P  P12  1  0.997206  0.355305  0.780404  1
  P  P13  1  0.000147  0.783136  0.354545  1
  P  P14  1  0.360276  0.782604  0.002573  1
  P  P15  1  0.641130  0.644293  0.426663  1
  P  P16  1  0.428591  0.645602  0.645455  1
  P  P17  1  0.217702  0.581025  0.217325  1
  P  P18  1  0.438790  0.437719  0.439263  1
  P  P19  1  0.998456  0.999528  0.560737  1
  P  P20  1  0.562359  0.998693  0.999496  1
  P  P21  1  0.999197  0.562862  0.000504  1
  P  P22  1  0.991756  0.991756  0.000000  1
  Pd  Pd23  1  0.255131  0.755131  0.500000  1
  Pd  Pd24  1  0.499938  0.248513  0.748025  1
  Pd  Pd25  1  0.500486  0.751912  0.251975  1
  Pd  Pd26  1  0.252026  0.499490  0.751376  1
  Pd  Pd27  1  0.748114  0.500649  0.248624  1
  Pd  Pd28  1  0.746509  0.246509  0.500000  1
