# generated using pymatgen
data_Tb3Dy2HoIr2
_symmetry_space_group_name_H-M   'P 1'
_cell_length_a   6.39979217
_cell_length_b   7.25514000
_cell_length_c   9.27000801
_cell_angle_alpha   90.00000000
_cell_angle_beta   90.18758033
_cell_angle_gamma   90.00000000
_symmetry_Int_Tables_number   1
_chemical_formula_structural   Tb3Dy2HoIr2
_chemical_formula_sum   'Tb6 Dy4 Ho2 Ir4'
_cell_volume   430.41703363
_cell_formula_units_Z   2
loop_
 _symmetry_equiv_pos_site_id
 _symmetry_equiv_pos_as_xyz
  1  'x, y, z'
loop_
 _atom_site_type_symbol
 _atom_site_label
 _atom_site_symmetry_multiplicity
 _atom_site_fract_x
 _atom_site_fract_y
 _atom_site_fract_z
 _atom_site_occupancy
  Tb  Tb0  1  0.328125  0.677028  0.062567  1
  Tb  Tb1  1  0.171875  0.177028  0.437433  1
  Tb  Tb2  1  0.868794  0.534204  0.250280  1
  Tb  Tb3  1  0.631206  0.034204  0.249720  1
  Tb  Tb4  1  0.130555  0.465841  0.749910  1
  Tb  Tb5  1  0.369445  0.965841  0.750090  1
  Dy  Dy6  1  0.671327  0.323414  0.563062  1
  Dy  Dy7  1  0.828673  0.823414  0.936938  1
  Dy  Dy8  1  0.671500  0.323035  0.937023  1
  Dy  Dy9  1  0.828500  0.823035  0.562977  1
  Ho  Ho10  1  0.328899  0.676498  0.437309  1
  Ho  Ho11  1  0.171101  0.176498  0.062691  1
  Ir  Ir12  1  0.048473  0.882801  0.249977  1
  Ir  Ir13  1  0.451527  0.382801  0.250023  1
  Ir  Ir14  1  0.951064  0.117178  0.751005  1
  Ir  Ir15  1  0.548936  0.617178  0.748995  1
