# generated using pymatgen
data_Dy20Si3Bi8As
_symmetry_space_group_name_H-M   'P 1'
_cell_length_a   8.06959838
_cell_length_b   9.16782500
_cell_length_c   12.10858901
_cell_angle_alpha   90.00000000
_cell_angle_beta   89.62947068
_cell_angle_gamma   90.00000000
_symmetry_Int_Tables_number   1
_chemical_formula_structural   Dy20Si3Bi8As
_chemical_formula_sum   'Dy20 Si3 Bi8 As1'
_cell_volume   895.78274453
_cell_formula_units_Z   1
loop_
 _symmetry_equiv_pos_site_id
 _symmetry_equiv_pos_as_xyz
  1  'x, y, z'
loop_
 _atom_site_type_symbol
 _atom_site_label
 _atom_site_symmetry_multiplicity
 _atom_site_fract_x
 _atom_site_fract_y
 _atom_site_fract_z
 _atom_site_occupancy
  Dy  Dy0  1  0.819370  0.552586  0.062739  1
  Dy  Dy1  1  0.683090  0.949027  0.564878  1
  Dy  Dy2  1  0.180661  0.052418  0.936836  1
  Dy  Dy3  1  0.319635  0.444610  0.436395  1
  Dy  Dy4  1  0.180661  0.447582  0.936836  1
  Dy  Dy5  1  0.319635  0.055390  0.436395  1
  Dy  Dy6  1  0.819370  0.947414  0.062739  1
  Dy  Dy7  1  0.683090  0.550973  0.564878  1
  Dy  Dy8  1  0.157279  0.750000  0.207123  1
  Dy  Dy9  1  0.337027  0.750000  0.714683  1
  Dy  Dy10  1  0.839015  0.250000  0.789155  1
  Dy  Dy11  1  0.661150  0.250000  0.288435  1
  Dy  Dy12  1  0.461453  0.750000  0.001286  1
  Dy  Dy13  1  0.037306  0.750000  0.499458  1
  Dy  Dy14  1  0.539692  0.250000  0.999717  1
  Dy  Dy15  1  0.959754  0.250000  0.499045  1
  Dy  Dy16  1  0.636029  0.750000  0.295138  1
  Dy  Dy17  1  0.865559  0.750000  0.793993  1
  Dy  Dy18  1  0.366252  0.250000  0.704701  1
  Dy  Dy19  1  0.133724  0.250000  0.204760  1
  Si  Si20  1  0.086328  0.750000  0.977410  1
  Si  Si21  1  0.584244  0.250000  0.519154  1
  Si  Si22  1  0.914085  0.250000  0.020283  1
  Bi  Bi23  1  0.929217  0.510865  0.326437  1
  Bi  Bi24  1  0.569930  0.989262  0.826301  1
  Bi  Bi25  1  0.071443  0.010412  0.672907  1
  Bi  Bi26  1  0.429245  0.490317  0.174665  1
  Bi  Bi27  1  0.071443  0.489588  0.672907  1
  Bi  Bi28  1  0.429245  0.009683  0.174665  1
  Bi  Bi29  1  0.929217  0.989135  0.326437  1
  Bi  Bi30  1  0.569930  0.510738  0.826301  1
  As  As31  1  0.415915  0.750000  0.483341  1
