# generated using pymatgen
data_LiTa2(AsRu)3
_symmetry_space_group_name_H-M   'P 1'
_cell_length_a   7.50603983
_cell_length_b   7.50603813
_cell_length_c   7.50603849
_cell_angle_alpha   127.94000763
_cell_angle_beta   119.93306248
_cell_angle_gamma   83.46419906
_symmetry_Int_Tables_number   1
_chemical_formula_structural   LiTa2(AsRu)3
_chemical_formula_sum   'Li2 Ta4 As6 Ru6'
_cell_volume   277.26984148
_cell_formula_units_Z   2
loop_
 _symmetry_equiv_pos_site_id
 _symmetry_equiv_pos_as_xyz
  1  'x, y, z'
loop_
 _atom_site_type_symbol
 _atom_site_label
 _atom_site_symmetry_multiplicity
 _atom_site_fract_x
 _atom_site_fract_y
 _atom_site_fract_z
 _atom_site_occupancy
  Li  Li0  1  0.479467  0.235860  0.256392  1
  Li  Li1  1  0.520533  0.776924  0.756392  1
  Ta  Ta2  1  0.752105  0.677071  0.424966  1
  Ta  Ta3  1  0.247895  0.672861  0.924966  1
  Ta  Ta4  1  0.058245  0.847925  0.289681  1
  Ta  Ta5  1  0.941755  0.231436  0.789681  1
  As  As6  1  0.823964  0.577734  0.739931  1
  As  As7  1  0.176036  0.915967  0.753770  1
  As  As8  1  0.662196  0.915967  0.239931  1
  As  As9  1  0.337804  0.577734  0.253770  1
  As  As10  1  0.294372  0.300407  0.506035  1
  As  As11  1  0.705628  0.211663  0.006035  1
  Ru  Ru12  1  0.667903  0.493757  0.918524  1
  Ru  Ru13  1  0.332097  0.250619  0.825854  1
  Ru  Ru14  1  0.924767  0.250619  0.418524  1
  Ru  Ru15  1  0.075233  0.493757  0.325854  1
  Ru  Ru16  1  0.000000  0.005048  0.005048  1
  Ru  Ru17  1  0.500000  0.005048  0.505048  1
