# generated using pymatgen
data_Y17Pa3Rh16
_symmetry_space_group_name_H-M   'P 1'
_cell_length_a   7.45288740
_cell_length_b   7.50713011
_cell_length_c   14.49893743
_cell_angle_alpha   90.04544421
_cell_angle_beta   89.90092918
_cell_angle_gamma   90.14555105
_symmetry_Int_Tables_number   1
_chemical_formula_structural   Y17Pa3Rh16
_chemical_formula_sum   'Y17 Pa3 Rh16'
_cell_volume   811.20849976
_cell_formula_units_Z   1
loop_
 _symmetry_equiv_pos_site_id
 _symmetry_equiv_pos_as_xyz
  1  'x, y, z'
loop_
 _atom_site_type_symbol
 _atom_site_label
 _atom_site_symmetry_multiplicity
 _atom_site_fract_x
 _atom_site_fract_y
 _atom_site_fract_z
 _atom_site_occupancy
  Y  Y0  1  0.835194  0.661666  0.378468  1
  Y  Y1  1  0.335548  0.837264  0.379335  1
  Y  Y2  1  0.837179  0.661901  0.119335  1
  Y  Y3  1  0.661196  0.162056  0.880976  1
  Y  Y4  1  0.163803  0.335350  0.621065  1
  Y  Y5  1  0.509577  0.681205  0.592826  1
  Y  Y6  1  0.010278  0.817331  0.905487  1
  Y  Y7  1  0.492149  0.319614  0.096309  1
  Y  Y8  1  0.992295  0.186517  0.405561  1
  Y  Y9  1  0.488138  0.320215  0.407589  1
  Y  Y10  1  0.985278  0.180791  0.093383  1
  Y  Y11  1  0.512345  0.681040  0.908677  1
  Y  Y12  1  0.011184  0.816493  0.590178  1
  Y  Y13  1  0.819554  0.513303  0.748936  1
  Y  Y14  1  0.321409  0.983193  0.751152  1
  Y  Y15  1  0.171103  0.488773  0.250535  1
  Y  Y16  1  0.683537  0.008948  0.252530  1
  Pa  Pa17  1  0.662255  0.155075  0.623272  1
  Pa  Pa18  1  0.162759  0.341990  0.877475  1
  Pa  Pa19  1  0.335306  0.841384  0.122805  1
  Rh  Rh20  1  0.693144  0.973496  0.469811  1
  Rh  Rh21  1  0.200595  0.543265  0.032066  1
  Rh  Rh22  1  0.296856  0.049463  0.966033  1
  Rh  Rh23  1  0.801286  0.438032  0.542372  1
  Rh  Rh24  1  0.338081  0.033102  0.547612  1
  Rh  Rh25  1  0.846163  0.463783  0.951959  1
  Rh  Rh26  1  0.646471  0.960829  0.048258  1
  Rh  Rh27  1  0.167660  0.529556  0.456327  1
  Rh  Rh28  1  0.461825  0.367998  0.749405  1
  Rh  Rh29  1  0.966515  0.133058  0.756040  1
  Rh  Rh30  1  0.528300  0.626573  0.241596  1
  Rh  Rh31  1  0.056149  0.882134  0.238646  1
  Rh  Rh32  1  0.702173  0.876867  0.741301  1
  Rh  Rh33  1  0.195474  0.625017  0.757097  1
  Rh  Rh34  1  0.319265  0.138806  0.246489  1
  Rh  Rh35  1  0.789955  0.363910  0.249085  1
