# generated using pymatgen
data_Dy12InNi4Ru
_symmetry_space_group_name_H-M   'P 1'
_cell_length_a   8.32069288
_cell_length_b   8.32069351
_cell_length_c   8.32069443
_cell_angle_alpha   111.35227798
_cell_angle_beta   109.64862747
_cell_angle_gamma   107.43644839
_symmetry_Int_Tables_number   1
_chemical_formula_structural   Dy12InNi4Ru
_chemical_formula_sum   'Dy12 In1 Ni4 Ru1'
_cell_volume   442.94296102
_cell_formula_units_Z   1
loop_
 _symmetry_equiv_pos_site_id
 _symmetry_equiv_pos_as_xyz
  1  'x, y, z'
loop_
 _atom_site_type_symbol
 _atom_site_label
 _atom_site_symmetry_multiplicity
 _atom_site_fract_x
 _atom_site_fract_y
 _atom_site_fract_z
 _atom_site_occupancy
  Dy  Dy0  1  0.404016  0.214513  0.189504  1
  Dy  Dy1  1  0.595984  0.785487  0.810496  1
  Dy  Dy2  1  0.025010  0.214513  0.810496  1
  Dy  Dy3  1  0.974990  0.785487  0.189504  1
  Dy  Dy4  1  0.181721  0.290951  0.472672  1
  Dy  Dy5  1  0.818279  0.709049  0.527328  1
  Dy  Dy6  1  0.181721  0.709049  0.890771  1
  Dy  Dy7  1  0.818279  0.290951  0.109229  1
  Dy  Dy8  1  0.320753  0.625364  0.304612  1
  Dy  Dy9  1  0.679247  0.374636  0.695388  1
  Dy  Dy10  1  0.320753  0.016141  0.695388  1
  Dy  Dy11  1  0.679247  0.983859  0.304612  1
  In  In12  1  0.500000  0.500000  0.000000  1
  Ni  Ni13  1  0.366381  0.000000  0.366381  1
  Ni  Ni14  1  0.633619  0.000000  0.633619  1
  Ni  Ni15  1  0.121869  0.621869  0.500000  1
  Ni  Ni16  1  0.878131  0.378131  0.500000  1
  Ru  Ru17  1  0.000000  0.000000  0.000000  1
