# generated using pymatgen
data_Tb10In8CoNi3
_symmetry_space_group_name_H-M   'P 1'
_cell_length_a   3.60691700
_cell_length_b   8.02908800
_cell_length_c   17.99383500
_cell_angle_alpha   90.00066655
_cell_angle_beta   90.00000000
_cell_angle_gamma   90.00000000
_symmetry_Int_Tables_number   1
_chemical_formula_structural   Tb10In8CoNi3
_chemical_formula_sum   'Tb10 In8 Co1 Ni3'
_cell_volume   521.10603205
_cell_formula_units_Z   1
loop_
 _symmetry_equiv_pos_site_id
 _symmetry_equiv_pos_as_xyz
  1  'x, y, z'
loop_
 _atom_site_type_symbol
 _atom_site_label
 _atom_site_symmetry_multiplicity
 _atom_site_fract_x
 _atom_site_fract_y
 _atom_site_fract_z
 _atom_site_occupancy
  Tb  Tb0  1  0.000000  0.500117  0.499820  1
  Tb  Tb1  1  0.000000  0.000150  0.000365  1
  Tb  Tb2  1  0.000000  0.740766  0.277221  1
  Tb  Tb3  1  0.000000  0.253946  0.721987  1
  Tb  Tb4  1  0.000000  0.753490  0.777930  1
  Tb  Tb5  1  0.000000  0.254275  0.221423  1
  Tb  Tb6  1  0.000000  0.615472  0.090328  1
  Tb  Tb7  1  0.000000  0.383218  0.911471  1
  Tb  Tb8  1  0.000000  0.883043  0.588397  1
  Tb  Tb9  1  0.000000  0.117387  0.410667  1
  In  In10  1  0.500000  0.705928  0.930721  1
  In  In11  1  0.500000  0.294835  0.070143  1
  In  In12  1  0.500000  0.794727  0.430529  1
  In  In13  1  0.500000  0.205685  0.569327  1
  In  In14  1  0.500000  0.570829  0.651749  1
  In  In15  1  0.500000  0.430799  0.347993  1
  In  In16  1  0.500000  0.929120  0.152373  1
  In  In17  1  0.500000  0.070534  0.848262  1
  Co  Co18  1  0.500000  0.519999  0.195049  1
  Ni  Ni19  1  0.500000  0.477388  0.804039  1
  Ni  Ni20  1  0.500000  0.977490  0.695754  1
  Ni  Ni21  1  0.500000  0.020802  0.304453  1
