# generated using pymatgen
data_SrLa2Pr(Ir2O7)2
_symmetry_space_group_name_H-M   'P 1'
_cell_length_a   7.47765955
_cell_length_b   7.42890020
_cell_length_c   7.47307477
_cell_angle_alpha   59.81995895
_cell_angle_beta   59.97970487
_cell_angle_gamma   59.78263865
_symmetry_Int_Tables_number   1
_chemical_formula_structural   SrLa2Pr(Ir2O7)2
_chemical_formula_sum   'Sr1 La2 Pr1 Ir4 O14'
_cell_volume   292.61548161
_cell_formula_units_Z   1
loop_
 _symmetry_equiv_pos_site_id
 _symmetry_equiv_pos_as_xyz
  1  'x, y, z'
loop_
 _atom_site_type_symbol
 _atom_site_label
 _atom_site_symmetry_multiplicity
 _atom_site_fract_x
 _atom_site_fract_y
 _atom_site_fract_z
 _atom_site_occupancy
  Sr  Sr0  1  0.125000  0.625000  0.125000  1
  La  La1  1  0.125000  0.125000  0.125000  1
  La  La2  1  0.625000  0.125000  0.125000  1
  Pr  Pr3  1  0.125000  0.125000  0.625000  1
  Ir  Ir4  1  0.625000  0.625000  0.625000  1
  Ir  Ir5  1  0.125000  0.625000  0.625000  1
  Ir  Ir6  1  0.625000  0.125000  0.625000  1
  Ir  Ir7  1  0.625000  0.625000  0.125000  1
  O  O8  1  0.950880  0.542588  0.555653  1
  O  O9  1  0.297359  0.295512  0.700575  1
  O  O10  1  0.949966  0.546881  0.949245  1
  O  O11  1  0.702450  0.296287  0.298812  1
  O  O12  1  0.553909  0.546881  0.949245  1
  O  O13  1  0.543445  0.954488  0.549425  1
  O  O14  1  0.547550  0.953713  0.951188  1
  O  O15  1  0.254416  0.238799  0.252371  1
  O  O16  1  0.299120  0.707412  0.694347  1
  O  O17  1  0.706555  0.295512  0.700575  1
  O  O18  1  0.995584  0.011201  0.997629  1
  O  O19  1  0.952641  0.954488  0.549425  1
  O  O20  1  0.300034  0.703119  0.300755  1
  O  O21  1  0.696091  0.703119  0.300755  1
