# generated using pymatgen
data_ErLuTh2(GaRh)4
_symmetry_space_group_name_H-M   'P 1'
_cell_length_a   4.34131300
_cell_length_b   6.87835171
_cell_length_c   7.90964720
_cell_angle_alpha   90.43188930
_cell_angle_beta   90.00000000
_cell_angle_gamma   90.00000000
_symmetry_Int_Tables_number   1
_chemical_formula_structural   ErLuTh2(GaRh)4
_chemical_formula_sum   'Er1 Lu1 Th2 Ga4 Rh4'
_cell_volume   236.18387952
_cell_formula_units_Z   1
loop_
 _symmetry_equiv_pos_site_id
 _symmetry_equiv_pos_as_xyz
  1  'x, y, z'
loop_
 _atom_site_type_symbol
 _atom_site_label
 _atom_site_symmetry_multiplicity
 _atom_site_fract_x
 _atom_site_fract_y
 _atom_site_fract_z
 _atom_site_occupancy
  Er  Er0  1  0.750000  0.533884  0.806246  1
  Lu  Lu1  1  0.750000  0.034031  0.692923  1
  Th  Th2  1  0.250000  0.969465  0.322643  1
  Th  Th3  1  0.250000  0.467574  0.177930  1
  Ga  Ga4  1  0.250000  0.354002  0.574438  1
  Ga  Ga5  1  0.250000  0.854869  0.926217  1
  Ga  Ga6  1  0.750000  0.645362  0.442480  1
  Ga  Ga7  1  0.750000  0.143521  0.056704  1
  Rh  Rh8  1  0.250000  0.237996  0.886370  1
  Rh  Rh9  1  0.250000  0.742681  0.611771  1
  Rh  Rh10  1  0.750000  0.758286  0.118731  1
  Rh  Rh11  1  0.750000  0.258328  0.383546  1
