# generated using pymatgen
data_Pr6Sn2Ge2Ir3Rh
_symmetry_space_group_name_H-M   'P 1'
_cell_length_a   5.84005873
_cell_length_b   8.43371522
_cell_length_c   13.70638863
_cell_angle_alpha   89.96781755
_cell_angle_beta   89.95497178
_cell_angle_gamma   90.15545508
_symmetry_Int_Tables_number   1
_chemical_formula_structural   Pr6Sn2Ge2Ir3Rh
_chemical_formula_sum   'Pr12 Sn4 Ge4 Ir6 Rh2'
_cell_volume   675.08333387
_cell_formula_units_Z   2
loop_
 _symmetry_equiv_pos_site_id
 _symmetry_equiv_pos_as_xyz
  1  'x, y, z'
loop_
 _atom_site_type_symbol
 _atom_site_label
 _atom_site_symmetry_multiplicity
 _atom_site_fract_x
 _atom_site_fract_y
 _atom_site_fract_z
 _atom_site_occupancy
  Pr  Pr0  1  0.642092  0.250683  0.250525  1
  Pr  Pr1  1  0.357908  0.749317  0.749475  1
  Pr  Pr2  1  0.358425  0.751998  0.250705  1
  Pr  Pr3  1  0.641575  0.248002  0.749295  1
  Pr  Pr4  1  0.159384  0.393711  0.100957  1
  Pr  Pr5  1  0.840616  0.606289  0.899043  1
  Pr  Pr6  1  0.842098  0.605318  0.601264  1
  Pr  Pr7  1  0.842100  0.894657  0.399606  1
  Pr  Pr8  1  0.157902  0.394682  0.398736  1
  Pr  Pr9  1  0.157900  0.105343  0.600394  1
  Pr  Pr10  1  0.157303  0.103486  0.899343  1
  Pr  Pr11  1  0.842697  0.896514  0.100657  1
  Sn  Sn12  1  0.656103  0.250625  0.999933  1
  Sn  Sn13  1  0.343897  0.749375  0.000067  1
  Sn  Sn14  1  0.344797  0.749562  0.500109  1
  Sn  Sn15  1  0.655203  0.250438  0.499891  1
  Ge  Ge16  1  0.142698  0.104087  0.249855  1
  Ge  Ge17  1  0.857302  0.895913  0.750145  1
  Ge  Ge18  1  0.857130  0.604302  0.249260  1
  Ge  Ge19  1  0.142870  0.395698  0.750740  1
  Ir  Ir20  1  0.370306  0.039056  0.096937  1
  Ir  Ir21  1  0.629694  0.960944  0.903063  1
  Ir  Ir22  1  0.631156  0.960307  0.597116  1
  Ir  Ir23  1  0.629331  0.539792  0.402251  1
  Ir  Ir24  1  0.368844  0.039693  0.402884  1
  Ir  Ir25  1  0.370669  0.460208  0.597749  1
  Rh  Rh26  1  0.373293  0.461850  0.903677  1
  Rh  Rh27  1  0.626707  0.538150  0.096323  1
