# generated using pymatgen
data_TmTh3Al3(Ga5Ir2)3
_symmetry_space_group_name_H-M   'P 1'
_cell_length_a   7.67094454
_cell_length_b   7.68353518
_cell_length_c   9.46452305
_cell_angle_alpha   89.97234568
_cell_angle_beta   89.97365426
_cell_angle_gamma   119.70149872
_symmetry_Int_Tables_number   1
_chemical_formula_structural   TmTh3Al3(Ga5Ir2)3
_chemical_formula_sum   'Tm1 Th3 Al3 Ga15 Ir6'
_cell_volume   484.54885421
_cell_formula_units_Z   1
loop_
 _symmetry_equiv_pos_site_id
 _symmetry_equiv_pos_as_xyz
  1  'x, y, z'
loop_
 _atom_site_type_symbol
 _atom_site_label
 _atom_site_symmetry_multiplicity
 _atom_site_fract_x
 _atom_site_fract_y
 _atom_site_fract_z
 _atom_site_occupancy
  Tm  Tm0  1  0.328295  0.001857  0.749377  1
  Th  Th1  1  0.998718  0.670853  0.250036  1
  Th  Th2  1  0.000033  0.330043  0.748828  1
  Th  Th3  1  0.670521  0.997875  0.250067  1
  Al  Al4  1  0.660894  0.660829  0.452109  1
  Al  Al5  1  0.665111  0.664978  0.048222  1
  Al  Al6  1  0.334643  0.330762  0.945967  1
  Ga  Ga7  1  0.136766  0.133092  0.249310  1
  Ga  Ga8  1  0.871758  0.869999  0.749380  1
  Ga  Ga9  1  0.004680  0.335434  0.078682  1
  Ga  Ga10  1  0.002527  0.671216  0.917650  1
  Ga  Ga11  1  0.001837  0.671415  0.582259  1
  Ga  Ga12  1  0.335580  0.004940  0.426095  1
  Ga  Ga13  1  0.006710  0.335749  0.419138  1
  Ga  Ga14  1  0.657537  0.995595  0.582432  1
  Ga  Ga15  1  0.658063  0.996468  0.917596  1
  Ga  Ga16  1  0.335412  0.002917  0.071802  1
  Ga  Ga17  1  0.332666  0.327349  0.567203  1
  Ga  Ga18  1  0.350728  0.547105  0.249893  1
  Ga  Ga19  1  0.651288  0.448081  0.750130  1
  Ga  Ga20  1  0.546979  0.346853  0.249921  1
  Ga  Ga21  1  0.453216  0.658662  0.749925  1
  Ir  Ir22  1  0.672078  0.331343  0.999472  1
  Ir  Ir23  1  0.328615  0.667415  0.999514  1
  Ir  Ir24  1  0.328143  0.670802  0.499138  1
  Ir  Ir25  1  0.675953  0.331355  0.499237  1
  Ir  Ir26  1  0.998446  0.001000  0.999503  1
  Ir  Ir27  1  0.992811  0.996016  0.497113  1
