# generated using pymatgen
data_Ba5Eu(SiP2)4
_symmetry_space_group_name_H-M   'P 1'
_cell_length_a   9.65906491
_cell_length_b   9.65906428
_cell_length_c   7.54056567
_cell_angle_alpha   74.62380603
_cell_angle_beta   74.62380225
_cell_angle_gamma   121.76943818
_symmetry_Int_Tables_number   1
_chemical_formula_structural   Ba5Eu(SiP2)4
_chemical_formula_sum   'Ba5 Eu1 Si4 P8'
_cell_volume   501.49708493
_cell_formula_units_Z   1
loop_
 _symmetry_equiv_pos_site_id
 _symmetry_equiv_pos_as_xyz
  1  'x, y, z'
loop_
 _atom_site_type_symbol
 _atom_site_label
 _atom_site_symmetry_multiplicity
 _atom_site_fract_x
 _atom_site_fract_y
 _atom_site_fract_z
 _atom_site_occupancy
  Ba  Ba0  1  0.055327  0.944673  0.250000  1
  Ba  Ba1  1  0.564584  0.435416  0.250000  1
  Ba  Ba2  1  0.435537  0.564463  0.750000  1
  Ba  Ba3  1  0.808989  0.191011  0.250000  1
  Ba  Ba4  1  0.191026  0.808974  0.750000  1
  Eu  Eu5  1  0.937836  0.062164  0.750000  1
  Si  Si6  1  0.471814  0.833929  0.150714  1
  Si  Si7  1  0.166071  0.528186  0.349286  1
  Si  Si8  1  0.528935  0.166821  0.845312  1
  Si  Si9  1  0.833179  0.471065  0.654688  1
  P  P10  1  0.443015  0.045399  0.200998  1
  P  P11  1  0.954601  0.556985  0.299002  1
  P  P12  1  0.178301  0.322819  0.275204  1
  P  P13  1  0.677181  0.821699  0.224796  1
  P  P14  1  0.814335  0.668859  0.744925  1
  P  P15  1  0.331141  0.185665  0.755075  1
  P  P16  1  0.041991  0.433863  0.706494  1
  P  P17  1  0.566137  0.958009  0.793506  1
