# generated using pymatgen
data_Yb4TeAs2
_symmetry_space_group_name_H-M   'P 1'
_cell_length_a   7.87382481
_cell_length_b   7.81211829
_cell_length_c   7.86470474
_cell_angle_alpha   108.77565981
_cell_angle_beta   109.86166007
_cell_angle_gamma   109.59298667
_symmetry_Int_Tables_number   1
_chemical_formula_structural   Yb4TeAs2
_chemical_formula_sum   'Yb8 Te2 As4'
_cell_volume   373.21771669
_cell_formula_units_Z   2
loop_
 _symmetry_equiv_pos_site_id
 _symmetry_equiv_pos_as_xyz
  1  'x, y, z'
loop_
 _atom_site_type_symbol
 _atom_site_label
 _atom_site_symmetry_multiplicity
 _atom_site_fract_x
 _atom_site_fract_y
 _atom_site_fract_z
 _atom_site_occupancy
  Yb  Yb0  1  0.156683  0.496000  0.986584  1
  Yb  Yb1  1  0.505238  0.999050  0.641841  1
  Yb  Yb2  1  0.381687  0.377706  0.373095  1
  Yb  Yb3  1  0.995104  0.144653  0.516840  1
  Yb  Yb4  1  0.843317  0.839316  0.829901  1
  Yb  Yb5  1  0.004896  0.649550  0.521736  1
  Yb  Yb6  1  0.618313  0.496019  0.991408  1
  Yb  Yb7  1  0.494762  0.993811  0.136602  1
  Te  Te8  1  0.882746  0.254266  0.129197  1
  Te  Te9  1  0.117254  0.871520  0.246451  1
  As  As10  1  0.375269  0.629257  0.747071  1
  As  As11  1  0.247074  0.120968  0.877273  1
  As  As12  1  0.752926  0.373894  0.630199  1
  As  As13  1  0.624731  0.753988  0.371801  1
