# generated using pymatgen
data_Nd3Dy3Ta2O14
_symmetry_space_group_name_H-M   'P 1'
_cell_length_a   6.56392688
_cell_length_b   6.54504820
_cell_length_c   7.63953200
_cell_angle_alpha   90.00000000
_cell_angle_beta   90.00000000
_cell_angle_gamma   109.25598795
_symmetry_Int_Tables_number   1
_chemical_formula_structural   Nd3Dy3Ta2O14
_chemical_formula_sum   'Nd3 Dy3 Ta2 O14'
_cell_volume   309.84210320
_cell_formula_units_Z   1
loop_
 _symmetry_equiv_pos_site_id
 _symmetry_equiv_pos_as_xyz
  1  'x, y, z'
loop_
 _atom_site_type_symbol
 _atom_site_label
 _atom_site_symmetry_multiplicity
 _atom_site_fract_x
 _atom_site_fract_y
 _atom_site_fract_z
 _atom_site_occupancy
  Nd  Nd0  1  0.509372  0.509905  0.501854  1
  Nd  Nd1  1  0.509372  0.509905  0.998146  1
  Nd  Nd2  1  0.465663  0.002025  0.250000  1
  Dy  Dy3  1  0.002031  0.532785  0.250000  1
  Dy  Dy4  1  0.000024  0.465826  0.750000  1
  Dy  Dy5  1  0.534405  0.000950  0.750000  1
  Ta  Ta6  1  0.001129  0.000799  0.502216  1
  Ta  Ta7  1  0.001129  0.000799  0.997784  1
  O  O8  1  0.938137  0.068689  0.750000  1
  O  O9  1  0.057427  0.937705  0.250000  1
  O  O10  1  0.356887  0.632718  0.250000  1
  O  O11  1  0.644883  0.358161  0.750000  1
  O  O12  1  0.362783  0.634763  0.750000  1
  O  O13  1  0.642462  0.376890  0.250000  1
  O  O14  1  0.315028  0.068796  0.961940  1
  O  O15  1  0.677098  0.919935  0.478155  1
  O  O16  1  0.315028  0.068796  0.538060  1
  O  O17  1  0.677098  0.919935  0.021845  1
  O  O18  1  0.059253  0.314249  0.465334  1
  O  O19  1  0.935768  0.681061  0.967300  1
  O  O20  1  0.935768  0.681061  0.532700  1
  O  O21  1  0.059253  0.314249  0.034666  1
