# generated using pymatgen
data_TmLu3Zn4Ir3Rh
_symmetry_space_group_name_H-M   'P 1'
_cell_length_a   4.00061800
_cell_length_b   6.89981220
_cell_length_c   8.03213824
_cell_angle_alpha   89.77665817
_cell_angle_beta   90.00000000
_cell_angle_gamma   90.00000000
_symmetry_Int_Tables_number   1
_chemical_formula_structural   TmLu3Zn4Ir3Rh
_chemical_formula_sum   'Tm1 Lu3 Zn4 Ir3 Rh1'
_cell_volume   221.71354692
_cell_formula_units_Z   1
loop_
 _symmetry_equiv_pos_site_id
 _symmetry_equiv_pos_as_xyz
  1  'x, y, z'
loop_
 _atom_site_type_symbol
 _atom_site_label
 _atom_site_symmetry_multiplicity
 _atom_site_fract_x
 _atom_site_fract_y
 _atom_site_fract_z
 _atom_site_occupancy
  Tm  Tm0  1  0.750000  0.466969  0.820007  1
  Lu  Lu1  1  0.250000  0.535575  0.181184  1
  Lu  Lu2  1  0.750000  0.962580  0.681045  1
  Lu  Lu3  1  0.250000  0.033938  0.317287  1
  Zn  Zn4  1  0.250000  0.638777  0.565172  1
  Zn  Zn5  1  0.750000  0.360128  0.435092  1
  Zn  Zn6  1  0.750000  0.860601  0.065702  1
  Zn  Zn7  1  0.250000  0.140069  0.934916  1
  Ir  Ir8  1  0.250000  0.758888  0.874500  1
  Ir  Ir9  1  0.750000  0.243575  0.124884  1
  Ir  Ir10  1  0.750000  0.742895  0.376652  1
  Rh  Rh11  1  0.250000  0.256005  0.623558  1
