# generated using pymatgen
data_Ti3Co2SiC
_symmetry_space_group_name_H-M   'P 1'
_cell_length_a   7.85008782
_cell_length_b   7.85008743
_cell_length_c   7.85008900
_cell_angle_alpha   60.00000602
_cell_angle_beta   60.00000767
_cell_angle_gamma   60.00000590
_symmetry_Int_Tables_number   1
_chemical_formula_structural   Ti3Co2SiC
_chemical_formula_sum   'Ti12 Co8 Si4 C4'
_cell_volume   342.06501298
_cell_formula_units_Z   4
loop_
 _symmetry_equiv_pos_site_id
 _symmetry_equiv_pos_as_xyz
  1  'x, y, z'
loop_
 _atom_site_type_symbol
 _atom_site_label
 _atom_site_symmetry_multiplicity
 _atom_site_fract_x
 _atom_site_fract_y
 _atom_site_fract_z
 _atom_site_occupancy
  Ti  Ti0  1  0.553369  0.946631  0.553369  1
  Ti  Ti1  1  0.696631  0.303369  0.696631  1
  Ti  Ti2  1  0.696631  0.696631  0.303369  1
  Ti  Ti3  1  0.303369  0.303369  0.696631  1
  Ti  Ti4  1  0.696631  0.303369  0.303369  1
  Ti  Ti5  1  0.303369  0.696631  0.696631  1
  Ti  Ti6  1  0.946631  0.553369  0.553369  1
  Ti  Ti7  1  0.946631  0.946631  0.553369  1
  Ti  Ti8  1  0.303369  0.696631  0.303369  1
  Ti  Ti9  1  0.553369  0.553369  0.946631  1
  Ti  Ti10  1  0.946631  0.553369  0.946631  1
  Ti  Ti11  1  0.553369  0.946631  0.946631  1
  Co  Co12  1  0.918839  0.243484  0.918839  1
  Co  Co13  1  0.243484  0.918839  0.918839  1
  Co  Co14  1  0.918839  0.918839  0.243484  1
  Co  Co15  1  0.006516  0.331161  0.331161  1
  Co  Co16  1  0.331161  0.006516  0.331161  1
  Co  Co17  1  0.918839  0.918839  0.918839  1
  Co  Co18  1  0.331161  0.331161  0.331161  1
  Co  Co19  1  0.331161  0.331161  0.006516  1
  Si  Si20  1  0.625000  0.125000  0.125000  1
  Si  Si21  1  0.125000  0.125000  0.625000  1
  Si  Si22  1  0.125000  0.625000  0.125000  1
  Si  Si23  1  0.125000  0.125000  0.125000  1
  C  C24  1  0.625000  0.625000  0.625000  1
  C  C25  1  0.125000  0.625000  0.625000  1
  C  C26  1  0.625000  0.125000  0.625000  1
  C  C27  1  0.625000  0.625000  0.125000  1
