# generated using pymatgen
data_Nd16Tm(LuIr4)3
_symmetry_space_group_name_H-M   'P 1'
_cell_length_a   11.17874300
_cell_length_b   11.17874300
_cell_length_c   6.51457100
_cell_angle_alpha   90.00000000
_cell_angle_beta   90.00000000
_cell_angle_gamma   90.00000000
_symmetry_Int_Tables_number   1
_chemical_formula_structural   Nd16Tm(LuIr4)3
_chemical_formula_sum   'Nd16 Tm1 Lu3 Ir12'
_cell_volume   814.08877263
_cell_formula_units_Z   1
loop_
 _symmetry_equiv_pos_site_id
 _symmetry_equiv_pos_as_xyz
  1  'x, y, z'
loop_
 _atom_site_type_symbol
 _atom_site_label
 _atom_site_symmetry_multiplicity
 _atom_site_fract_x
 _atom_site_fract_y
 _atom_site_fract_z
 _atom_site_occupancy
  Nd  Nd0  1  0.087578  0.288430  0.117555  1
  Nd  Nd1  1  0.788155  0.412460  0.117524  1
  Nd  Nd2  1  0.211845  0.587540  0.117524  1
  Nd  Nd3  1  0.912422  0.711570  0.117555  1
  Nd  Nd4  1  0.412412  0.788181  0.382467  1
  Nd  Nd5  1  0.587588  0.211819  0.382467  1
  Nd  Nd6  1  0.288233  0.087570  0.382507  1
  Nd  Nd7  1  0.711767  0.912430  0.382507  1
  Nd  Nd8  1  0.412460  0.211845  0.882476  1
  Nd  Nd9  1  0.711570  0.087578  0.882445  1
  Nd  Nd10  1  0.288430  0.912422  0.882445  1
  Nd  Nd11  1  0.587540  0.788155  0.882476  1
  Nd  Nd12  1  0.087570  0.711767  0.617493  1
  Nd  Nd13  1  0.912430  0.288233  0.617493  1
  Nd  Nd14  1  0.211819  0.412412  0.617533  1
  Nd  Nd15  1  0.788181  0.587588  0.617533  1
  Tm  Tm16  1  0.000000  0.000000  0.000000  1
  Lu  Lu17  1  0.500000  0.500000  0.000000  1
  Lu  Lu18  1  0.500000  0.500000  0.500000  1
  Lu  Lu19  1  0.000000  0.000000  0.500000  1
  Ir  Ir20  1  0.147227  0.852764  0.250687  1
  Ir  Ir21  1  0.353240  0.353258  0.249975  1
  Ir  Ir22  1  0.646760  0.646742  0.249975  1
  Ir  Ir23  1  0.852773  0.147236  0.250687  1
  Ir  Ir24  1  0.353258  0.646760  0.750025  1
  Ir  Ir25  1  0.147236  0.147227  0.749313  1
  Ir  Ir26  1  0.852764  0.852773  0.749313  1
  Ir  Ir27  1  0.646742  0.353240  0.750025  1
  Ir  Ir28  1  0.000000  0.500000  0.378747  1
  Ir  Ir29  1  0.500000  0.000000  0.121193  1
  Ir  Ir30  1  0.500000  0.000000  0.621253  1
  Ir  Ir31  1  0.000000  0.500000  0.878807  1
