# generated using pymatgen
data_Sm20Fe8Bi7PdC12
_symmetry_space_group_name_H-M   'P 1'
_cell_length_a   11.33375547
_cell_length_b   11.33375611
_cell_length_c   11.33375600
_cell_angle_alpha   60.00000033
_cell_angle_beta   59.99999844
_cell_angle_gamma   59.99999748
_symmetry_Int_Tables_number   1
_chemical_formula_structural   Sm20Fe8Bi7PdC12
_chemical_formula_sum   'Sm20 Fe8 Bi7 Pd1 C12'
_cell_volume   1029.45306213
_cell_formula_units_Z   1
loop_
 _symmetry_equiv_pos_site_id
 _symmetry_equiv_pos_as_xyz
  1  'x, y, z'
loop_
 _atom_site_type_symbol
 _atom_site_label
 _atom_site_symmetry_multiplicity
 _atom_site_fract_x
 _atom_site_fract_y
 _atom_site_fract_z
 _atom_site_occupancy
  Sm  Sm0  1  0.364744  0.905768  0.364744  1
  Sm  Sm1  1  0.000000  0.657759  0.342241  1
  Sm  Sm2  1  0.364744  0.364744  0.364744  1
  Sm  Sm3  1  0.635256  0.094232  0.635256  1
  Sm  Sm4  1  0.905768  0.364744  0.364744  1
  Sm  Sm5  1  0.657759  0.342241  0.000000  1
  Sm  Sm6  1  0.000000  0.342241  0.000000  1
  Sm  Sm7  1  0.635256  0.635256  0.635256  1
  Sm  Sm8  1  0.000000  0.000000  0.342241  1
  Sm  Sm9  1  0.635256  0.635256  0.094232  1
  Sm  Sm10  1  0.364744  0.364744  0.905768  1
  Sm  Sm11  1  0.657759  0.000000  0.000000  1
  Sm  Sm12  1  0.000000  0.000000  0.657759  1
  Sm  Sm13  1  0.657759  0.000000  0.342241  1
  Sm  Sm14  1  0.094232  0.635256  0.635256  1
  Sm  Sm15  1  0.342241  0.000000  0.000000  1
  Sm  Sm16  1  0.000000  0.342241  0.657759  1
  Sm  Sm17  1  0.342241  0.000000  0.657759  1
  Sm  Sm18  1  0.342241  0.657759  0.000000  1
  Sm  Sm19  1  0.000000  0.657759  0.000000  1
  Fe  Fe20  1  0.194311  0.417064  0.194311  1
  Fe  Fe21  1  0.194311  0.194311  0.417064  1
  Fe  Fe22  1  0.582936  0.805689  0.805689  1
  Fe  Fe23  1  0.194311  0.194311  0.194311  1
  Fe  Fe24  1  0.417064  0.194311  0.194311  1
  Fe  Fe25  1  0.805689  0.805689  0.805689  1
  Fe  Fe26  1  0.805689  0.805689  0.582936  1
  Fe  Fe27  1  0.805689  0.582936  0.805689  1
  Bi  Bi28  1  0.289735  0.710265  0.710265  1
  Bi  Bi29  1  0.710265  0.710265  0.289735  1
  Bi  Bi30  1  0.710265  0.289735  0.289735  1
  Bi  Bi31  1  0.710265  0.289735  0.710265  1
  Bi  Bi32  1  0.289735  0.710265  0.289735  1
  Bi  Bi33  1  0.000000  0.000000  0.000000  1
  Bi  Bi34  1  0.289735  0.289735  0.710265  1
  Pd  Pd35  1  0.500000  0.500000  0.500000  1
  C  C36  1  0.107090  0.107090  0.392910  1
  C  C37  1  0.892910  0.892910  0.607090  1
  C  C38  1  0.107090  0.392910  0.392910  1
  C  C39  1  0.107090  0.392910  0.107090  1
  C  C40  1  0.607090  0.607090  0.892910  1
  C  C41  1  0.892910  0.607090  0.892910  1
  C  C42  1  0.392910  0.392910  0.107090  1
  C  C43  1  0.392910  0.107090  0.392910  1
  C  C44  1  0.892910  0.607090  0.607090  1
  C  C45  1  0.607090  0.892910  0.607090  1
  C  C46  1  0.392910  0.107090  0.107090  1
  C  C47  1  0.607090  0.892910  0.892910  1
