# generated using pymatgen
data_CsPuF6
_symmetry_space_group_name_H-M   'P 1'
_cell_length_a   5.52752202
_cell_length_b   5.52752268
_cell_length_c   5.52752256
_cell_angle_alpha   96.22517850
_cell_angle_beta   96.22517316
_cell_angle_gamma   96.22516263
_symmetry_Int_Tables_number   1
_chemical_formula_structural   CsPuF6
_chemical_formula_sum   'Cs1 Pu1 F6'
_cell_volume   165.66032931
_cell_formula_units_Z   1
loop_
 _symmetry_equiv_pos_site_id
 _symmetry_equiv_pos_as_xyz
  1  'x, y, z'
loop_
 _atom_site_type_symbol
 _atom_site_label
 _atom_site_symmetry_multiplicity
 _atom_site_fract_x
 _atom_site_fract_y
 _atom_site_fract_z
 _atom_site_occupancy
  Cs  Cs0  1  0.500000  0.500000  0.500000  1
  Pu  Pu1  1  0.000000  0.000000  0.000000  1
  F  F2  1  0.312911  0.917270  0.201402  1
  F  F3  1  0.201402  0.312911  0.917270  1
  F  F4  1  0.082730  0.798598  0.687089  1
  F  F5  1  0.798598  0.687089  0.082730  1
  F  F6  1  0.687089  0.082730  0.798598  1
  F  F7  1  0.917270  0.201402  0.312911  1
