# generated using pymatgen
data_Nd8Dy12Si9Ge7
_symmetry_space_group_name_H-M   'P 1'
_cell_length_a   7.64556972
_cell_length_b   7.91160284
_cell_length_c   15.00122300
_cell_angle_alpha   90.01886539
_cell_angle_beta   89.92993872
_cell_angle_gamma   89.96576846
_symmetry_Int_Tables_number   1
_chemical_formula_structural   Nd8Dy12Si9Ge7
_chemical_formula_sum   'Nd8 Dy12 Si9 Ge7'
_cell_volume   907.40375444
_cell_formula_units_Z   1
loop_
 _symmetry_equiv_pos_site_id
 _symmetry_equiv_pos_as_xyz
  1  'x, y, z'
loop_
 _atom_site_type_symbol
 _atom_site_label
 _atom_site_symmetry_multiplicity
 _atom_site_fract_x
 _atom_site_fract_y
 _atom_site_fract_z
 _atom_site_occupancy
  Nd  Nd0  1  0.987127  0.679684  0.601263  1
  Nd  Nd1  1  0.013105  0.320475  0.398668  1
  Nd  Nd2  1  0.512808  0.179872  0.398549  1
  Nd  Nd3  1  0.015685  0.321407  0.100900  1
  Nd  Nd4  1  0.487372  0.820502  0.601324  1
  Nd  Nd5  1  0.986995  0.679098  0.899399  1
  Nd  Nd6  1  0.485923  0.819827  0.899236  1
  Nd  Nd7  1  0.512785  0.180248  0.101074  1
  Dy  Dy8  1  0.166450  0.992739  0.750021  1
  Dy  Dy9  1  0.833855  0.007311  0.249934  1
  Dy  Dy10  1  0.333700  0.492757  0.248707  1
  Dy  Dy11  1  0.666205  0.507285  0.749929  1
  Dy  Dy12  1  0.333803  0.326811  0.624335  1
  Dy  Dy13  1  0.665753  0.673244  0.375656  1
  Dy  Dy14  1  0.165955  0.826493  0.375732  1
  Dy  Dy15  1  0.666170  0.674456  0.124513  1
  Dy  Dy16  1  0.833829  0.172967  0.624328  1
  Dy  Dy17  1  0.331858  0.326793  0.875909  1
  Dy  Dy18  1  0.832292  0.174269  0.876216  1
  Dy  Dy19  1  0.168342  0.823878  0.123304  1
  Si  Si20  1  0.037624  0.385666  0.750269  1
  Si  Si21  1  0.961610  0.614406  0.249719  1
  Si  Si22  1  0.461310  0.886139  0.249922  1
  Si  Si23  1  0.538256  0.114765  0.750362  1
  Si  Si24  1  0.283891  0.625411  0.750190  1
  Si  Si25  1  0.716520  0.374986  0.249836  1
  Si  Si26  1  0.216151  0.124496  0.249581  1
  Si  Si27  1  0.784052  0.874797  0.750513  1
  Si  Si28  1  0.339883  0.534434  0.040676  1
  Ge  Ge29  1  0.167697  0.036585  0.540927  1
  Ge  Ge30  1  0.832015  0.963497  0.458878  1
  Ge  Ge31  1  0.332373  0.536662  0.458998  1
  Ge  Ge32  1  0.834002  0.963873  0.040817  1
  Ge  Ge33  1  0.667609  0.463238  0.540837  1
  Ge  Ge34  1  0.165977  0.036437  0.959278  1
  Ge  Ge35  1  0.661017  0.464492  0.960199  1
