# generated using pymatgen
data_HfReIr6
_symmetry_space_group_name_H-M   'P 1'
_cell_length_a   5.57435500
_cell_length_b   5.57435435
_cell_length_c   4.48225100
_cell_angle_alpha   90.00000000
_cell_angle_beta   90.00000000
_cell_angle_gamma   120.00000979
_symmetry_Int_Tables_number   1
_chemical_formula_structural   HfReIr6
_chemical_formula_sum   'Hf1 Re1 Ir6'
_cell_volume   120.61906485
_cell_formula_units_Z   1
loop_
 _symmetry_equiv_pos_site_id
 _symmetry_equiv_pos_as_xyz
  1  'x, y, z'
loop_
 _atom_site_type_symbol
 _atom_site_label
 _atom_site_symmetry_multiplicity
 _atom_site_fract_x
 _atom_site_fract_y
 _atom_site_fract_z
 _atom_site_occupancy
  Hf  Hf0  1  0.333333  0.666667  0.750000  1
  Re  Re1  1  0.666667  0.333333  0.250000  1
  Ir  Ir2  1  0.160767  0.321534  0.250000  1
  Ir  Ir3  1  0.678466  0.839233  0.250000  1
  Ir  Ir4  1  0.160767  0.839233  0.250000  1
  Ir  Ir5  1  0.830926  0.661853  0.750000  1
  Ir  Ir6  1  0.338147  0.169074  0.750000  1
  Ir  Ir7  1  0.830926  0.169074  0.750000  1
