# generated using pymatgen
data_Li6In5AsRh12
_symmetry_space_group_name_H-M   'P 1'
_cell_length_a   4.34892700
_cell_length_b   6.29218700
_cell_length_c   13.05932901
_cell_angle_alpha   90.00000000
_cell_angle_beta   89.99525939
_cell_angle_gamma   90.00000000
_symmetry_Int_Tables_number   1
_chemical_formula_structural   Li6In5AsRh12
_chemical_formula_sum   'Li6 In5 As1 Rh12'
_cell_volume   357.35889882
_cell_formula_units_Z   1
loop_
 _symmetry_equiv_pos_site_id
 _symmetry_equiv_pos_as_xyz
  1  'x, y, z'
loop_
 _atom_site_type_symbol
 _atom_site_label
 _atom_site_symmetry_multiplicity
 _atom_site_fract_x
 _atom_site_fract_y
 _atom_site_fract_z
 _atom_site_occupancy
  Li  Li0  1  0.000005  0.000000  0.003259  1
  Li  Li1  1  0.499402  0.500001  0.163740  1
  Li  Li2  1  0.999401  0.000000  0.333282  1
  Li  Li3  1  0.500008  0.500001  0.502899  1
  Li  Li4  1  0.000465  0.000000  0.663464  1
  Li  Li5  1  0.500440  0.500001  0.833391  1
  In  In6  1  0.000016  0.500001  0.995397  1
  In  In7  1  0.499474  0.000000  0.163655  1
  In  In8  1  0.999985  0.500001  0.333242  1
  In  In9  1  0.500098  0.000000  0.503195  1
  In  In10  1  0.000411  0.500001  0.671006  1
  As  As11  1  0.500511  0.000000  0.833270  1
  Rh  Rh12  1  0.500178  0.236220  0.988003  1
  Rh  Rh13  1  0.500178  0.763781  0.988003  1
  Rh  Rh14  1  0.999446  0.251066  0.163996  1
  Rh  Rh15  1  0.999446  0.748933  0.163996  1
  Rh  Rh16  1  0.499334  0.247147  0.333382  1
  Rh  Rh17  1  0.499334  0.752853  0.333382  1
  Rh  Rh18  1  0.000010  0.251074  0.502678  1
  Rh  Rh19  1  0.000010  0.748927  0.502678  1
  Rh  Rh20  1  0.500507  0.236230  0.678699  1
  Rh  Rh21  1  0.500507  0.763770  0.678699  1
  Rh  Rh22  1  0.000417  0.225747  0.833341  1
  Rh  Rh23  1  0.000417  0.774252  0.833341  1
