# generated using pymatgen
data_LiH3SO
_symmetry_space_group_name_H-M   'P 1'
_cell_length_a   6.50880481
_cell_length_b   6.50880479
_cell_length_c   3.64188374
_cell_angle_alpha   75.79948190
_cell_angle_beta   75.79947482
_cell_angle_gamma   87.87026204
_symmetry_Int_Tables_number   1
_chemical_formula_structural   LiH3SO
_chemical_formula_sum   'Li2 H6 S2 O2'
_cell_volume   144.95825188
_cell_formula_units_Z   2
loop_
 _symmetry_equiv_pos_site_id
 _symmetry_equiv_pos_as_xyz
  1  'x, y, z'
loop_
 _atom_site_type_symbol
 _atom_site_label
 _atom_site_symmetry_multiplicity
 _atom_site_fract_x
 _atom_site_fract_y
 _atom_site_fract_z
 _atom_site_occupancy
  Li  Li0  1  0.325926  0.674074  0.500000  1
  Li  Li1  1  0.674074  0.325926  0.500000  1
  H  H2  1  0.058421  0.760579  0.091757  1
  H  H3  1  0.239421  0.941579  0.908243  1
  H  H4  1  0.941579  0.239421  0.908243  1
  H  H5  1  0.738938  0.738938  0.680273  1
  H  H6  1  0.261062  0.261062  0.319727  1
  H  H7  1  0.760579  0.058421  0.091757  1
  S  S8  1  0.720938  0.720938  0.327753  1
  S  S9  1  0.279062  0.279062  0.672247  1
  O  O10  1  0.783224  0.216776  0.000000  1
  O  O11  1  0.216776  0.783224  0.000000  1
