# generated using pymatgen
data_Pa4Ga3Sn3Os7
_symmetry_space_group_name_H-M   'P 1'
_cell_length_a   7.46674222
_cell_length_b   7.46674192
_cell_length_c   7.47921100
_cell_angle_alpha   109.50505796
_cell_angle_beta   109.50505714
_cell_angle_gamma   109.43735226
_symmetry_Int_Tables_number   1
_chemical_formula_structural   Pa4Ga3Sn3Os7
_chemical_formula_sum   'Pa4 Ga3 Sn3 Os7'
_cell_volume   320.85936514
_cell_formula_units_Z   1
loop_
 _symmetry_equiv_pos_site_id
 _symmetry_equiv_pos_as_xyz
  1  'x, y, z'
loop_
 _atom_site_type_symbol
 _atom_site_label
 _atom_site_symmetry_multiplicity
 _atom_site_fract_x
 _atom_site_fract_y
 _atom_site_fract_z
 _atom_site_occupancy
  Pa  Pa0  1  0.000000  0.000000  0.453402  1
  Pa  Pa1  1  0.000000  0.522121  0.017809  1
  Pa  Pa2  1  0.522121  0.000000  0.017809  1
  Pa  Pa3  1  0.477879  0.477879  0.495688  1
  Ga  Ga4  1  0.670328  0.670328  0.986802  1
  Ga  Ga5  1  0.329672  0.000000  0.316474  1
  Ga  Ga6  1  0.000000  0.329672  0.316474  1
  Sn  Sn7  1  0.291042  0.291042  0.987850  1
  Sn  Sn8  1  0.708958  0.000000  0.696808  1
  Sn  Sn9  1  0.000000  0.708958  0.696808  1
  Os  Os10  1  0.753378  0.254158  0.497263  1
  Os  Os11  1  0.745842  0.499220  0.243105  1
  Os  Os12  1  0.500780  0.246622  0.743885  1
  Os  Os13  1  0.246622  0.500780  0.743885  1
  Os  Os14  1  0.254158  0.753378  0.497263  1
  Os  Os15  1  0.499220  0.745842  0.243105  1
  Os  Os16  1  0.000000  0.000000  0.045570  1
