# generated using pymatgen
data_Pa2Si6(Pd2Rh)7
_symmetry_space_group_name_H-M   'P 1'
_cell_length_a   8.64338997
_cell_length_b   8.64338899
_cell_length_c   8.64339000
_cell_angle_alpha   60.19872627
_cell_angle_beta   60.19873001
_cell_angle_gamma   60.19872670
_symmetry_Int_Tables_number   1
_chemical_formula_structural   Pa2Si6(Pd2Rh)7
_chemical_formula_sum   'Pa2 Si6 Pd14 Rh7'
_cell_volume   458.65613556
_cell_formula_units_Z   1
loop_
 _symmetry_equiv_pos_site_id
 _symmetry_equiv_pos_as_xyz
  1  'x, y, z'
loop_
 _atom_site_type_symbol
 _atom_site_label
 _atom_site_symmetry_multiplicity
 _atom_site_fract_x
 _atom_site_fract_y
 _atom_site_fract_z
 _atom_site_occupancy
  Pa  Pa0  1  0.749754  0.749754  0.749754  1
  Pa  Pa1  1  0.244435  0.244435  0.244435  1
  Si  Si2  1  0.723961  0.723961  0.276218  1
  Si  Si3  1  0.273930  0.728623  0.273930  1
  Si  Si4  1  0.728623  0.273930  0.273930  1
  Si  Si5  1  0.273930  0.273930  0.728623  1
  Si  Si6  1  0.723961  0.276218  0.723961  1
  Si  Si7  1  0.276218  0.723961  0.723961  1
  Pd  Pd8  1  0.000184  0.000184  0.000184  1
  Pd  Pd9  1  0.380830  0.380830  0.380830  1
  Pd  Pd10  1  0.999268  0.999268  0.342969  1
  Pd  Pd11  1  0.658071  0.000863  0.341475  1
  Pd  Pd12  1  0.000863  0.658071  0.341475  1
  Pd  Pd13  1  0.658071  0.341475  0.000863  1
  Pd  Pd14  1  0.999268  0.342969  0.999268  1
  Pd  Pd15  1  0.000863  0.341475  0.658071  1
  Pd  Pd16  1  0.341475  0.658071  0.000863  1
  Pd  Pd17  1  0.341475  0.000863  0.658071  1
  Pd  Pd18  1  0.342969  0.999268  0.999268  1
  Pd  Pd19  1  0.000448  0.000448  0.659109  1
  Pd  Pd20  1  0.000448  0.659109  0.000448  1
  Pd  Pd21  1  0.659109  0.000448  0.000448  1
  Rh  Rh22  1  0.620437  0.620437  0.137322  1
  Rh  Rh23  1  0.620437  0.137322  0.620437  1
  Rh  Rh24  1  0.137322  0.620437  0.620437  1
  Rh  Rh25  1  0.621367  0.621367  0.621367  1
  Rh  Rh26  1  0.378445  0.378445  0.865390  1
  Rh  Rh27  1  0.378445  0.865390  0.378445  1
  Rh  Rh28  1  0.865390  0.378445  0.378445  1
