# generated using pymatgen
data_Er12Ni5Bi
_symmetry_space_group_name_H-M   'P 1'
_cell_length_a   8.29029124
_cell_length_b   8.27448939
_cell_length_c   8.29029257
_cell_angle_alpha   111.69922134
_cell_angle_beta   109.44339108
_cell_angle_gamma   107.37740744
_symmetry_Int_Tables_number   1
_chemical_formula_structural   Er12Ni5Bi
_chemical_formula_sum   'Er12 Ni5 Bi1'
_cell_volume   436.74058130
_cell_formula_units_Z   1
loop_
 _symmetry_equiv_pos_site_id
 _symmetry_equiv_pos_as_xyz
  1  'x, y, z'
loop_
 _atom_site_type_symbol
 _atom_site_label
 _atom_site_symmetry_multiplicity
 _atom_site_fract_x
 _atom_site_fract_y
 _atom_site_fract_z
 _atom_site_occupancy
  Er  Er0  1  0.821201  0.706004  0.527578  1
  Er  Er1  1  0.178799  0.293996  0.472422  1
  Er  Er2  1  0.178428  0.706004  0.884804  1
  Er  Er3  1  0.821572  0.293996  0.115196  1
  Er  Er4  1  0.679531  0.371217  0.691688  1
  Er  Er5  1  0.320469  0.628783  0.308312  1
  Er  Er6  1  0.679296  0.987246  0.307950  1
  Er  Er7  1  0.320704  0.012754  0.692050  1
  Er  Er8  1  0.599807  0.792795  0.807094  1
  Er  Er9  1  0.400193  0.207205  0.192906  1
  Er  Er10  1  0.985701  0.792795  0.192988  1
  Er  Er11  1  0.014299  0.207205  0.807012  1
  Ni  Ni12  1  0.633650  0.000000  0.633650  1
  Ni  Ni13  1  0.366350  0.000000  0.366350  1
  Ni  Ni14  1  0.124176  0.624701  0.500525  1
  Ni  Ni15  1  0.875824  0.375299  0.499475  1
  Ni  Ni16  1  0.000000  0.000000  0.000000  1
  Bi  Bi17  1  0.500000  0.500000  0.000000  1
