# generated using pymatgen
data_Tm3Hf2Zr3(NiP)12
_symmetry_space_group_name_H-M   'P 1'
_cell_length_a   3.69181900
_cell_length_b   10.10211689
_cell_length_c   12.30194306
_cell_angle_alpha   89.94421763
_cell_angle_beta   90.00000000
_cell_angle_gamma   90.00000000
_symmetry_Int_Tables_number   1
_chemical_formula_structural   Tm3Hf2Zr3(NiP)12
_chemical_formula_sum   'Tm3 Hf2 Zr3 Ni12 P12'
_cell_volume   458.80305016
_cell_formula_units_Z   1
loop_
 _symmetry_equiv_pos_site_id
 _symmetry_equiv_pos_as_xyz
  1  'x, y, z'
loop_
 _atom_site_type_symbol
 _atom_site_label
 _atom_site_symmetry_multiplicity
 _atom_site_fract_x
 _atom_site_fract_y
 _atom_site_fract_z
 _atom_site_occupancy
  Tm  Tm0  1  0.250000  0.070716  0.207447  1
  Tm  Tm1  1  0.750000  0.928342  0.792422  1
  Tm  Tm2  1  0.750000  0.572395  0.291732  1
  Hf  Hf3  1  0.750000  0.839505  0.503543  1
  Hf  Hf4  1  0.750000  0.660466  0.001964  1
  Zr  Zr5  1  0.250000  0.426215  0.707351  1
  Zr  Zr6  1  0.250000  0.162498  0.498200  1
  Zr  Zr7  1  0.250000  0.340210  0.994770  1
  Ni  Ni8  1  0.250000  0.726506  0.664407  1
  Ni  Ni9  1  0.750000  0.272511  0.334903  1
  Ni  Ni10  1  0.750000  0.226951  0.836403  1
  Ni  Ni11  1  0.250000  0.771381  0.165152  1
  Ni  Ni12  1  0.250000  0.367535  0.218771  1
  Ni  Ni13  1  0.750000  0.632860  0.780974  1
  Ni  Ni14  1  0.750000  0.865807  0.281887  1
  Ni  Ni15  1  0.250000  0.135103  0.719676  1
  Ni  Ni16  1  0.250000  0.596825  0.483780  1
  Ni  Ni17  1  0.750000  0.403075  0.517163  1
  Ni  Ni18  1  0.750000  0.097979  0.018370  1
  Ni  Ni19  1  0.250000  0.900294  0.982970  1
  P  P20  1  0.250000  0.945482  0.623940  1
  P  P21  1  0.750000  0.054357  0.376490  1
  P  P22  1  0.750000  0.445350  0.870302  1
  P  P23  1  0.250000  0.555151  0.121997  1
  P  P24  1  0.250000  0.396153  0.400626  1
  P  P25  1  0.750000  0.604090  0.599416  1
  P  P26  1  0.750000  0.893325  0.098558  1
  P  P27  1  0.250000  0.103694  0.902303  1
  P  P28  1  0.250000  0.769637  0.356591  1
  P  P29  1  0.750000  0.235805  0.647614  1
  P  P30  1  0.750000  0.269203  0.145028  1
  P  P31  1  0.250000  0.730582  0.855251  1
