# generated using pymatgen
data_YMgAlNi3
_symmetry_space_group_name_H-M   'P 1'
_cell_length_a   5.14694688
_cell_length_b   5.14694688
_cell_length_c   4.96578246
_cell_angle_alpha   58.78565696
_cell_angle_beta   58.78565526
_cell_angle_gamma   60.00001117
_symmetry_Int_Tables_number   1
_chemical_formula_structural   YMgAlNi3
_chemical_formula_sum   'Y1 Mg1 Al1 Ni3'
_cell_volume   91.27501768
_cell_formula_units_Z   1
loop_
 _symmetry_equiv_pos_site_id
 _symmetry_equiv_pos_as_xyz
  1  'x, y, z'
loop_
 _atom_site_type_symbol
 _atom_site_label
 _atom_site_symmetry_multiplicity
 _atom_site_fract_x
 _atom_site_fract_y
 _atom_site_fract_z
 _atom_site_occupancy
  Y  Y0  1  0.003945  0.003945  0.988166  1
  Mg  Mg1  1  0.254268  0.254268  0.237195  1
  Al  Al2  1  0.622029  0.622029  0.133915  1
  Ni  Ni3  1  0.621658  0.126443  0.630242  1
  Ni  Ni4  1  0.126443  0.621658  0.630242  1
  Ni  Ni5  1  0.621658  0.621658  0.630242  1
