# generated using pymatgen
data_Er14Lu6Ir11Ru
_symmetry_space_group_name_H-M   'P 1'
_cell_length_a   10.73123235
_cell_length_b   10.73433903
_cell_length_c   6.32604821
_cell_angle_alpha   89.99250382
_cell_angle_beta   89.97110787
_cell_angle_gamma   90.00378931
_symmetry_Int_Tables_number   1
_chemical_formula_structural   Er14Lu6Ir11Ru
_chemical_formula_sum   'Er14 Lu6 Ir11 Ru1'
_cell_volume   728.71438645
_cell_formula_units_Z   1
loop_
 _symmetry_equiv_pos_site_id
 _symmetry_equiv_pos_as_xyz
  1  'x, y, z'
loop_
 _atom_site_type_symbol
 _atom_site_label
 _atom_site_symmetry_multiplicity
 _atom_site_fract_x
 _atom_site_fract_y
 _atom_site_fract_z
 _atom_site_occupancy
  Er  Er0  1  0.707545  0.086589  0.879432  1
  Er  Er1  1  0.707991  0.913603  0.376333  1
  Er  Er2  1  0.585995  0.792545  0.879539  1
  Er  Er3  1  0.585812  0.207952  0.376455  1
  Er  Er4  1  0.412887  0.792418  0.376291  1
  Er  Er5  1  0.412720  0.207144  0.879558  1
  Er  Er6  1  0.209748  0.411975  0.622447  1
  Er  Er7  1  0.209718  0.587764  0.121952  1
  Er  Er8  1  0.790413  0.412201  0.122092  1
  Er  Er9  1  0.790345  0.588001  0.622601  1
  Er  Er10  1  0.912387  0.709709  0.122169  1
  Er  Er11  1  0.912145  0.290198  0.622644  1
  Er  Er12  1  0.088453  0.710175  0.622561  1
  Er  Er13  1  0.088169  0.289861  0.122173  1
  Lu  Lu14  1  0.292377  0.086078  0.377239  1
  Lu  Lu15  1  0.292841  0.913763  0.880145  1
  Lu  Lu16  1  0.000652  0.000151  0.498329  1
  Lu  Lu17  1  0.000669  0.999830  0.998345  1
  Lu  Lu18  1  0.499822  0.499831  0.998829  1
  Lu  Lu19  1  0.499787  0.500168  0.498810  1
  Ir  Ir20  1  0.848376  0.152433  0.249818  1
  Ir  Ir21  1  0.848248  0.848056  0.749706  1
  Ir  Ir22  1  0.152741  0.151038  0.748456  1
  Ir  Ir23  1  0.152662  0.848496  0.248612  1
  Ir  Ir24  1  0.652040  0.348184  0.749637  1
  Ir  Ir25  1  0.652549  0.651708  0.249821  1
  Ir  Ir26  1  0.347380  0.347398  0.250516  1
  Ir  Ir27  1  0.347830  0.652682  0.750210  1
  Ir  Ir28  1  0.498627  0.999964  0.623906  1
  Ir  Ir29  1  0.000150  0.500041  0.878028  1
  Ir  Ir30  1  0.000149  0.499929  0.378182  1
  Ru  Ru31  1  0.498773  0.000116  0.125161  1
