# generated using pymatgen
data_Tb3Sm3RuI10
_symmetry_space_group_name_H-M   'P 1'
_cell_length_a   7.82940056
_cell_length_b   9.82253579
_cell_length_c   9.85876230
_cell_angle_alpha   107.03635340
_cell_angle_beta   96.65331548
_cell_angle_gamma   104.68074108
_symmetry_Int_Tables_number   1
_chemical_formula_structural   Tb3Sm3RuI10
_chemical_formula_sum   'Tb3 Sm3 Ru1 I10'
_cell_volume   686.27411432
_cell_formula_units_Z   1
loop_
 _symmetry_equiv_pos_site_id
 _symmetry_equiv_pos_as_xyz
  1  'x, y, z'
loop_
 _atom_site_type_symbol
 _atom_site_label
 _atom_site_symmetry_multiplicity
 _atom_site_fract_x
 _atom_site_fract_y
 _atom_site_fract_z
 _atom_site_occupancy
  Tb  Tb0  1  0.648707  0.873220  0.831752  1
  Tb  Tb1  1  0.351563  0.125492  0.168162  1
  Tb  Tb2  1  0.031208  0.722297  0.917962  1
  Sm  Sm3  1  0.115222  0.042305  0.761434  1
  Sm  Sm4  1  0.884334  0.957112  0.238197  1
  Sm  Sm5  1  0.967990  0.280892  0.082550  1
  Ru  Ru6  1  0.999774  0.000042  0.999954  1
  I  I7  1  0.352367  0.448109  0.272213  1
  I  I8  1  0.653295  0.552189  0.729707  1
  I  I9  1  0.739695  0.911842  0.541492  1
  I  I10  1  0.086826  0.373381  0.818906  1
  I  I11  1  0.914837  0.629137  0.177814  1
  I  I12  1  0.451796  0.816446  0.089610  1
  I  I13  1  0.545249  0.181912  0.908701  1
  I  I14  1  0.778039  0.257288  0.346609  1
  I  I15  1  0.219177  0.740679  0.656402  1
  I  I16  1  0.259920  0.087659  0.458537  1
