# generated using pymatgen
data_Zr10Al12Ir5Pt2
_symmetry_space_group_name_H-M   'P 1'
_cell_length_a   8.97829777
_cell_length_b   8.97829767
_cell_length_c   8.97453700
_cell_angle_alpha   60.01385856
_cell_angle_beta   60.01385892
_cell_angle_gamma   59.99035854
_symmetry_Int_Tables_number   1
_chemical_formula_structural   Zr10Al12Ir5Pt2
_chemical_formula_sum   'Zr10 Al12 Ir5 Pt2'
_cell_volume   511.61625340
_cell_formula_units_Z   1
loop_
 _symmetry_equiv_pos_site_id
 _symmetry_equiv_pos_as_xyz
  1  'x, y, z'
loop_
 _atom_site_type_symbol
 _atom_site_label
 _atom_site_symmetry_multiplicity
 _atom_site_fract_x
 _atom_site_fract_y
 _atom_site_fract_z
 _atom_site_occupancy
  Zr  Zr0  1  0.682803  0.682803  0.317197  1
  Zr  Zr1  1  0.314704  0.684311  0.313645  1
  Zr  Zr2  1  0.684311  0.314704  0.313645  1
  Zr  Zr3  1  0.317088  0.317088  0.682912  1
  Zr  Zr4  1  0.684311  0.314704  0.687339  1
  Zr  Zr5  1  0.314704  0.684311  0.687339  1
  Zr  Zr6  1  0.877837  0.877837  0.361713  1
  Zr  Zr7  1  0.878683  0.362359  0.879479  1
  Zr  Zr8  1  0.362359  0.878683  0.879479  1
  Zr  Zr9  1  0.877837  0.877837  0.882612  1
  Al  Al10  1  0.125999  0.125999  0.628569  1
  Al  Al11  1  0.125132  0.627479  0.123694  1
  Al  Al12  1  0.627479  0.125132  0.123694  1
  Al  Al13  1  0.125999  0.125999  0.119434  1
  Al  Al14  1  0.658026  0.658026  0.025196  1
  Al  Al15  1  0.656547  0.025755  0.658849  1
  Al  Al16  1  0.025755  0.656547  0.658849  1
  Al  Al17  1  0.658026  0.658026  0.658754  1
  Al  Al18  1  0.338186  0.338186  0.985439  1
  Al  Al19  1  0.340945  0.983903  0.337576  1
  Al  Al20  1  0.983903  0.340945  0.337576  1
  Al  Al21  1  0.338186  0.338186  0.338190  1
  Ir  Ir22  1  0.500982  0.999167  0.500018  1
  Ir  Ir23  1  0.999167  0.500982  0.500018  1
  Ir  Ir24  1  0.500309  0.500309  0.999691  1
  Ir  Ir25  1  0.999167  0.500982  0.999834  1
  Ir  Ir26  1  0.500982  0.999167  0.999834  1
  Pt  Pt27  1  0.999901  0.999901  0.000099  1
  Pt  Pt28  1  0.000671  0.000671  0.499329  1
