# generated using pymatgen
data_TbYb6DySb6
_symmetry_space_group_name_H-M   'P 1'
_cell_length_a   8.10988475
_cell_length_b   8.10928943
_cell_length_c   8.16645518
_cell_angle_alpha   70.54167807
_cell_angle_beta   70.53463523
_cell_angle_gamma   109.10742391
_symmetry_Int_Tables_number   1
_chemical_formula_structural   TbYb6DySb6
_chemical_formula_sum   'Tb1 Yb6 Dy1 Sb6'
_cell_volume   415.37331614
_cell_formula_units_Z   1
loop_
 _symmetry_equiv_pos_site_id
 _symmetry_equiv_pos_as_xyz
  1  'x, y, z'
loop_
 _atom_site_type_symbol
 _atom_site_label
 _atom_site_symmetry_multiplicity
 _atom_site_fract_x
 _atom_site_fract_y
 _atom_site_fract_z
 _atom_site_occupancy
  Tb  Tb0  1  0.854434  0.000394  0.999474  1
  Yb  Yb1  1  0.001042  0.358853  0.494962  1
  Yb  Yb2  1  0.495539  0.495438  0.148909  1
  Yb  Yb3  1  0.644829  0.148902  0.356502  1
  Yb  Yb4  1  0.358824  0.001034  0.994993  1
  Yb  Yb5  1  0.495494  0.495587  0.648898  1
  Yb  Yb6  1  0.148896  0.644850  0.856461  1
  Dy  Dy7  1  0.000383  0.854479  0.499493  1
  Sb  Sb8  1  0.632898  0.873738  0.750214  1
  Sb  Sb9  1  0.873758  0.632737  0.250482  1
  Sb  Sb10  1  0.240839  0.119001  0.628347  1
  Sb  Sb11  1  0.756353  0.377879  0.871261  1
  Sb  Sb12  1  0.377607  0.756320  0.371388  1
  Sb  Sb13  1  0.119105  0.240789  0.128614  1
