# generated using pymatgen
data_Tm3Al12FePdRuPt
_symmetry_space_group_name_H-M   'P 1'
_cell_length_a   8.71271400
_cell_length_b   8.73045159
_cell_length_c   9.39834800
_cell_angle_alpha   90.00000000
_cell_angle_beta   90.00000000
_cell_angle_gamma   119.85454955
_symmetry_Int_Tables_number   1
_chemical_formula_structural   Tm3Al12FePdRuPt
_chemical_formula_sum   'Tm6 Al24 Fe2 Pd2 Ru2 Pt2'
_cell_volume   620.02183222
_cell_formula_units_Z   2
loop_
 _symmetry_equiv_pos_site_id
 _symmetry_equiv_pos_as_xyz
  1  'x, y, z'
loop_
 _atom_site_type_symbol
 _atom_site_label
 _atom_site_symmetry_multiplicity
 _atom_site_fract_x
 _atom_site_fract_y
 _atom_site_fract_z
 _atom_site_occupancy
  Tm  Tm0  1  0.801764  0.190169  0.750000  1
  Tm  Tm1  1  0.198236  0.809831  0.250000  1
  Tm  Tm2  1  0.389468  0.192095  0.750000  1
  Tm  Tm3  1  0.610532  0.807905  0.250000  1
  Tm  Tm4  1  0.805950  0.614705  0.750000  1
  Tm  Tm5  1  0.194050  0.385295  0.250000  1
  Al  Al6  1  0.664667  0.328157  0.973608  1
  Al  Al7  1  0.335333  0.671843  0.026392  1
  Al  Al8  1  0.335333  0.671843  0.473608  1
  Al  Al9  1  0.664667  0.328157  0.526392  1
  Al  Al10  1  0.836658  0.154529  0.420958  1
  Al  Al11  1  0.163342  0.845471  0.579042  1
  Al  Al12  1  0.318423  0.154931  0.422138  1
  Al  Al13  1  0.163342  0.845471  0.920958  1
  Al  Al14  1  0.681577  0.845069  0.577862  1
  Al  Al15  1  0.836658  0.154529  0.079042  1
  Al  Al16  1  0.843069  0.685816  0.421341  1
  Al  Al17  1  0.681577  0.845069  0.922138  1
  Al  Al18  1  0.156931  0.314184  0.578659  1
  Al  Al19  1  0.318423  0.154931  0.077862  1
  Al  Al20  1  0.156931  0.314184  0.921341  1
  Al  Al21  1  0.843069  0.685816  0.078659  1
  Al  Al22  1  0.435765  0.563896  0.750000  1
  Al  Al23  1  0.564235  0.436104  0.250000  1
  Al  Al24  1  0.124649  0.562195  0.750000  1
  Al  Al25  1  0.875351  0.437805  0.250000  1
  Al  Al26  1  0.438443  0.876924  0.750000  1
  Al  Al27  1  0.561557  0.123076  0.250000  1
  Al  Al28  1  0.999378  0.998091  0.750000  1
  Al  Al29  1  0.000622  0.001909  0.250000  1
  Fe  Fe30  1  0.000000  0.000000  0.000000  1
  Fe  Fe31  1  0.000000  0.000000  0.500000  1
  Pd  Pd32  1  0.000000  0.500000  0.000000  1
  Pd  Pd33  1  0.000000  0.500000  0.500000  1
  Ru  Ru34  1  0.500000  0.000000  0.000000  1
  Ru  Ru35  1  0.500000  0.000000  0.500000  1
  Pt  Pt36  1  0.500000  0.500000  0.000000  1
  Pt  Pt37  1  0.500000  0.500000  0.500000  1
