# generated using pymatgen
data_Mg3Sc8Pa8Si16Mo
_symmetry_space_group_name_H-M   'P 1'
_cell_length_a   6.88643767
_cell_length_b   7.23362970
_cell_length_c   14.17110100
_cell_angle_alpha   90.00000000
_cell_angle_beta   90.00000000
_cell_angle_gamma   90.08440890
_symmetry_Int_Tables_number   1
_chemical_formula_structural   Mg3Sc8Pa8Si16Mo
_chemical_formula_sum   'Mg3 Sc8 Pa8 Si16 Mo1'
_cell_volume   705.91760959
_cell_formula_units_Z   1
loop_
 _symmetry_equiv_pos_site_id
 _symmetry_equiv_pos_as_xyz
  1  'x, y, z'
loop_
 _atom_site_type_symbol
 _atom_site_label
 _atom_site_symmetry_multiplicity
 _atom_site_fract_x
 _atom_site_fract_y
 _atom_site_fract_z
 _atom_site_occupancy
  Mg  Mg0  1  0.167232  0.493487  0.250000  1
  Mg  Mg1  1  0.836729  0.502735  0.750000  1
  Mg  Mg2  1  0.337343  0.997420  0.750000  1
  Sc  Sc3  1  0.841245  0.680269  0.125325  1
  Sc  Sc4  1  0.336066  0.822740  0.373698  1
  Sc  Sc5  1  0.660925  0.178619  0.879581  1
  Sc  Sc6  1  0.159701  0.318444  0.623093  1
  Sc  Sc7  1  0.159701  0.318444  0.876907  1
  Sc  Sc8  1  0.660925  0.178619  0.620419  1
  Sc  Sc9  1  0.336066  0.822740  0.126302  1
  Sc  Sc10  1  0.841245  0.680269  0.374675  1
  Pa  Pa11  1  0.995915  0.173564  0.098404  1
  Pa  Pa12  1  0.498649  0.322396  0.401438  1
  Pa  Pa13  1  0.504462  0.675811  0.906773  1
  Pa  Pa14  1  0.002576  0.824290  0.593516  1
  Pa  Pa15  1  0.002576  0.824290  0.906484  1
  Pa  Pa16  1  0.504462  0.675811  0.593227  1
  Pa  Pa17  1  0.498649  0.322396  0.098562  1
  Pa  Pa18  1  0.995915  0.173564  0.401596  1
  Si  Si19  1  0.788205  0.362950  0.250000  1
  Si  Si20  1  0.300012  0.123726  0.250000  1
  Si  Si21  1  0.708651  0.869196  0.750000  1
  Si  Si22  1  0.210247  0.632404  0.750000  1
  Si  Si23  1  0.029031  0.901072  0.250000  1
  Si  Si24  1  0.547994  0.621698  0.250000  1
  Si  Si25  1  0.457015  0.394859  0.750000  1
  Si  Si26  1  0.956419  0.104247  0.750000  1
  Si  Si27  1  0.828954  0.459986  0.971336  1
  Si  Si28  1  0.327291  0.039604  0.528132  1
  Si  Si29  1  0.668760  0.961628  0.039928  1
  Si  Si30  1  0.173842  0.537509  0.468593  1
  Si  Si31  1  0.173842  0.537509  0.031407  1
  Si  Si32  1  0.668760  0.961628  0.460072  1
  Si  Si33  1  0.327291  0.039604  0.971868  1
  Si  Si34  1  0.828954  0.459986  0.528664  1
  Mo  Mo35  1  0.664350  0.006485  0.250000  1
