# generated using pymatgen
data_GdEr(AsPt)2
_symmetry_space_group_name_H-M   'P 1'
_cell_length_a   4.29678200
_cell_length_b   4.29678168
_cell_length_c   15.83207700
_cell_angle_alpha   90.00000000
_cell_angle_beta   90.00000000
_cell_angle_gamma   120.00000244
_symmetry_Int_Tables_number   1
_chemical_formula_structural   GdEr(AsPt)2
_chemical_formula_sum   'Gd2 Er2 As4 Pt4'
_cell_volume   253.13670481
_cell_formula_units_Z   2
loop_
 _symmetry_equiv_pos_site_id
 _symmetry_equiv_pos_as_xyz
  1  'x, y, z'
loop_
 _atom_site_type_symbol
 _atom_site_label
 _atom_site_symmetry_multiplicity
 _atom_site_fract_x
 _atom_site_fract_y
 _atom_site_fract_z
 _atom_site_occupancy
  Gd  Gd0  1  0.000000  0.000000  0.500000  1
  Gd  Gd1  1  0.000000  0.000000  0.000000  1
  Er  Er2  1  0.000000  0.000000  0.250000  1
  Er  Er3  1  0.000000  0.000000  0.750000  1
  As  As4  1  0.333333  0.666667  0.882948  1
  As  As5  1  0.666667  0.333333  0.117052  1
  As  As6  1  0.666667  0.333333  0.382948  1
  As  As7  1  0.333333  0.666667  0.617052  1
  Pt  Pt8  1  0.333333  0.666667  0.359445  1
  Pt  Pt9  1  0.666667  0.333333  0.640555  1
  Pt  Pt10  1  0.666667  0.333333  0.859445  1
  Pt  Pt11  1  0.333333  0.666667  0.140555  1
