# generated using pymatgen
data_Zr4V4Co16Si5P7
_symmetry_space_group_name_H-M   'P 1'
_cell_length_a   11.93366559
_cell_length_b   11.93570487
_cell_length_c   3.60900800
_cell_angle_alpha   90.00000000
_cell_angle_beta   90.00000000
_cell_angle_gamma   119.97985685
_symmetry_Int_Tables_number   1
_chemical_formula_structural   Zr4V4Co16Si5P7
_chemical_formula_sum   'Zr4 V4 Co16 Si5 P7'
_cell_volume   445.27522020
_cell_formula_units_Z   1
loop_
 _symmetry_equiv_pos_site_id
 _symmetry_equiv_pos_as_xyz
  1  'x, y, z'
loop_
 _atom_site_type_symbol
 _atom_site_label
 _atom_site_symmetry_multiplicity
 _atom_site_fract_x
 _atom_site_fract_y
 _atom_site_fract_z
 _atom_site_occupancy
  Zr  Zr0  1  0.668223  0.334620  0.000000  1
  Zr  Zr1  1  0.332443  0.666139  0.000000  1
  Zr  Zr2  1  0.179129  0.001364  0.500000  1
  Zr  Zr3  1  0.999212  0.178606  0.500000  1
  V  V4  1  0.444046  0.445724  0.000000  1
  V  V5  1  0.556966  0.996660  0.000000  1
  V  V6  1  0.000279  0.558228  0.000000  1
  V  V7  1  0.816892  0.816065  0.500000  1
  Co  Co8  1  0.200677  0.376702  0.000000  1
  Co  Co9  1  0.172528  0.799824  0.000000  1
  Co  Co10  1  0.827973  0.629113  0.000000  1
  Co  Co11  1  0.803016  0.171834  0.000000  1
  Co  Co12  1  0.370167  0.198362  0.000000  1
  Co  Co13  1  0.129582  0.485680  0.500000  1
  Co  Co14  1  0.353935  0.868704  0.500000  1
  Co  Co15  1  0.518424  0.646608  0.500000  1
  Co  Co16  1  0.650931  0.525390  0.500000  1
  Co  Co17  1  0.875803  0.358719  0.500000  1
  Co  Co18  1  0.477766  0.121838  0.500000  1
  Co  Co19  1  0.997235  0.997392  0.000000  1
  Co  Co20  1  0.719759  0.993079  0.500000  1
  Co  Co21  1  0.997866  0.720270  0.500000  1
  Co  Co22  1  0.626883  0.824030  0.000000  1
  Co  Co23  1  0.278832  0.283019  0.500000  1
  Si  Si24  1  0.650197  0.649431  0.000000  1
  Si  Si25  1  0.356204  0.999825  0.000000  1
  Si  Si26  1  0.000123  0.356984  0.000000  1
  Si  Si27  1  0.483248  0.316262  0.500000  1
  Si  Si28  1  0.684737  0.165307  0.500000  1
  P  P29  1  0.833925  0.518668  0.500000  1
  P  P30  1  0.517996  0.832624  0.500000  1
  P  P31  1  0.165016  0.685154  0.500000  1
  P  P32  1  0.822401  0.994740  0.000000  1
  P  P33  1  0.996450  0.823705  0.000000  1
  P  P34  1  0.316427  0.483016  0.500000  1
  P  P35  1  0.174708  0.176316  0.000000  1
