# generated using pymatgen
data_AcNd(Si4Ni9)2
_symmetry_space_group_name_H-M   'P 1'
_cell_length_a   7.98670791
_cell_length_b   7.98663823
_cell_length_c   7.98636125
_cell_angle_alpha   120.94739998
_cell_angle_beta   120.94262089
_cell_angle_gamma   88.37355194
_symmetry_Int_Tables_number   1
_chemical_formula_structural   AcNd(Si4Ni9)2
_chemical_formula_sum   'Ac1 Nd1 Si8 Ni18'
_cell_volume   354.90912493
_cell_formula_units_Z   1
loop_
 _symmetry_equiv_pos_site_id
 _symmetry_equiv_pos_as_xyz
  1  'x, y, z'
loop_
 _atom_site_type_symbol
 _atom_site_label
 _atom_site_symmetry_multiplicity
 _atom_site_fract_x
 _atom_site_fract_y
 _atom_site_fract_z
 _atom_site_occupancy
  Ac  Ac0  1  0.750048  0.750042  0.999993  1
  Nd  Nd1  1  0.249961  0.249957  0.999980  1
  Si  Si2  1  0.443835  0.948812  0.159326  1
  Si  Si3  1  0.215476  0.710531  0.159311  1
  Si  Si4  1  0.710618  0.551121  0.495064  1
  Si  Si5  1  0.948889  0.789418  0.505000  1
  Si  Si6  1  0.284441  0.443910  0.495021  1
  Si  Si7  1  0.789486  0.284491  0.840649  1
  Si  Si8  1  0.551209  0.056144  0.840662  1
  Si  Si9  1  0.056054  0.215553  0.504955  1
  Ni  Ni10  1  0.568011  0.703938  0.272817  1
  Ni  Ni11  1  0.796022  0.932010  0.727144  1
  Ni  Ni12  1  0.315276  0.817226  0.762043  1
  Ni  Ni13  1  0.817146  0.055268  0.501921  1
  Ni  Ni14  1  0.431157  0.295188  0.727220  1
  Ni  Ni15  1  0.184755  0.946643  0.501934  1
  Ni  Ni16  1  0.444742  0.682850  0.498079  1
  Ni  Ni17  1  0.946772  0.444804  0.762031  1
  Ni  Ni18  1  0.682763  0.184744  0.237973  1
  Ni  Ni19  1  0.055166  0.553232  0.237954  1
  Ni  Ni20  1  0.500054  0.999995  0.500029  1
  Ni  Ni21  1  0.999972  0.499987  0.499983  1
  Ni  Ni22  1  0.295168  0.567995  0.864068  1
  Ni  Ni23  1  0.931954  0.204872  0.135931  1
  Ni  Ni24  1  0.068870  0.796013  0.863995  1
  Ni  Ni25  1  0.204863  0.068897  0.272855  1
  Ni  Ni26  1  0.553370  0.315237  0.498097  1
  Ni  Ni27  1  0.703922  0.431122  0.135964  1
