# generated using pymatgen
data_CeNdSi2(Os2C)2
_symmetry_space_group_name_H-M   'P 1'
_cell_length_a   5.91161261
_cell_length_b   5.91161318
_cell_length_c   7.18231000
_cell_angle_alpha   90.00000000
_cell_angle_beta   90.00000000
_cell_angle_gamma   140.81777900
_symmetry_Int_Tables_number   1
_chemical_formula_structural   CeNdSi2(Os2C)2
_chemical_formula_sum   'Ce1 Nd1 Si2 Os4 C2'
_cell_volume   158.57986664
_cell_formula_units_Z   1
loop_
 _symmetry_equiv_pos_site_id
 _symmetry_equiv_pos_as_xyz
  1  'x, y, z'
loop_
 _atom_site_type_symbol
 _atom_site_label
 _atom_site_symmetry_multiplicity
 _atom_site_fract_x
 _atom_site_fract_y
 _atom_site_fract_z
 _atom_site_occupancy
  Ce  Ce0  1  0.550804  0.449196  0.250000  1
  Nd  Nd1  1  0.450618  0.549382  0.750000  1
  Si  Si2  1  0.270790  0.729210  0.250000  1
  Si  Si3  1  0.730199  0.269801  0.750000  1
  Os  Os4  1  0.833614  0.166386  0.058981  1
  Os  Os5  1  0.165637  0.834363  0.942303  1
  Os  Os6  1  0.165637  0.834363  0.557697  1
  Os  Os7  1  0.833614  0.166386  0.441019  1
  C  C8  1  0.999543  0.000457  0.001423  1
  C  C9  1  0.999543  0.000457  0.498577  1
