# generated using pymatgen
data_TbDyRu2F14
_symmetry_space_group_name_H-M   'P 1'
_cell_length_a   5.58639685
_cell_length_b   8.88606880
_cell_length_c   11.96927445
_cell_angle_alpha   63.74008013
_cell_angle_beta   89.98888278
_cell_angle_gamma   90.07815721
_symmetry_Int_Tables_number   1
_chemical_formula_structural   TbDyRu2F14
_chemical_formula_sum   'Tb2 Dy2 Ru4 F28'
_cell_volume   532.84689710
_cell_formula_units_Z   2
loop_
 _symmetry_equiv_pos_site_id
 _symmetry_equiv_pos_as_xyz
  1  'x, y, z'
loop_
 _atom_site_type_symbol
 _atom_site_label
 _atom_site_symmetry_multiplicity
 _atom_site_fract_x
 _atom_site_fract_y
 _atom_site_fract_z
 _atom_site_occupancy
  Tb  Tb0  1  0.758405  0.189884  0.230621  1
  Tb  Tb1  1  0.241595  0.810116  0.769379  1
  Dy  Dy2  1  0.258342  0.809285  0.269600  1
  Dy  Dy3  1  0.741658  0.190715  0.730400  1
  Ru  Ru4  1  0.754407  0.727924  0.044816  1
  Ru  Ru5  1  0.245593  0.272076  0.955184  1
  Ru  Ru6  1  0.254271  0.272745  0.455842  1
  Ru  Ru7  1  0.745729  0.727255  0.544158  1
  F  F8  1  0.950633  0.704384  0.419105  1
  F  F9  1  0.049367  0.295616  0.580895  1
  F  F10  1  0.449814  0.295226  0.080299  1
  F  F11  1  0.550186  0.704774  0.919701  1
  F  F12  1  0.469745  0.730932  0.140855  1
  F  F13  1  0.530255  0.269068  0.859145  1
  F  F14  1  0.969894  0.269156  0.359978  1
  F  F15  1  0.030106  0.730844  0.640022  1
  F  F16  1  0.956478  0.750869  0.172011  1
  F  F17  1  0.043522  0.249131  0.827989  1
  F  F18  1  0.455442  0.249958  0.328402  1
  F  F19  1  0.544558  0.750042  0.671598  1
  F  F20  1  0.766583  0.488751  0.140796  1
  F  F21  1  0.233417  0.511249  0.859204  1
  F  F22  1  0.266258  0.511859  0.359702  1
  F  F23  1  0.733742  0.488141  0.640298  1
  F  F24  1  0.955061  0.282514  0.045917  1
  F  F25  1  0.044939  0.717486  0.954083  1
  F  F26  1  0.454772  0.717421  0.453332  1
  F  F27  1  0.545228  0.282579  0.546668  1
  F  F28  1  0.745763  0.965031  0.451780  1
  F  F29  1  0.254237  0.034969  0.548220  1
  F  F30  1  0.245985  0.034638  0.047837  1
  F  F31  1  0.754015  0.965362  0.952163  1
  F  F32  1  0.574358  0.971936  0.233240  1
  F  F33  1  0.425642  0.028064  0.766760  1
  F  F34  1  0.076237  0.026194  0.266660  1
  F  F35  1  0.923763  0.973806  0.733340  1
