# generated using pymatgen
data_Y4Ho3Er(B6Os)4
_symmetry_space_group_name_H-M   'P 1'
_cell_length_a   3.64953900
_cell_length_b   9.14449602
_cell_length_c   11.52876603
_cell_angle_alpha   90.00773736
_cell_angle_beta   90.00000000
_cell_angle_gamma   90.00000000
_symmetry_Int_Tables_number   1
_chemical_formula_structural   Y4Ho3Er(B6Os)4
_chemical_formula_sum   'Y4 Ho3 Er1 B24 Os4'
_cell_volume   384.75175162
_cell_formula_units_Z   1
loop_
 _symmetry_equiv_pos_site_id
 _symmetry_equiv_pos_as_xyz
  1  'x, y, z'
loop_
 _atom_site_type_symbol
 _atom_site_label
 _atom_site_symmetry_multiplicity
 _atom_site_fract_x
 _atom_site_fract_y
 _atom_site_fract_z
 _atom_site_occupancy
  Y  Y0  1  0.000000  0.322053  0.413898  1
  Y  Y1  1  0.000000  0.677939  0.586191  1
  Y  Y2  1  0.000000  0.821977  0.086062  1
  Y  Y3  1  0.000000  0.178046  0.913850  1
  Ho  Ho4  1  0.000000  0.944125  0.372800  1
  Ho  Ho5  1  0.000000  0.055870  0.627250  1
  Ho  Ho6  1  0.000000  0.444190  0.127064  1
  Er  Er7  1  0.000000  0.555923  0.872611  1
  B  B8  1  0.500000  0.554257  0.432830  1
  B  B9  1  0.500000  0.445756  0.567232  1
  B  B10  1  0.500000  0.054236  0.067173  1
  B  B11  1  0.500000  0.945672  0.932809  1
  B  B12  1  0.500000  0.748306  0.419671  1
  B  B13  1  0.500000  0.251724  0.580353  1
  B  B14  1  0.500000  0.248339  0.080330  1
  B  B15  1  0.500000  0.751391  0.919650  1
  B  B16  1  0.500000  0.791293  0.266663  1
  B  B17  1  0.500000  0.208795  0.733377  1
  B  B18  1  0.500000  0.291307  0.233339  1
  B  B19  1  0.500000  0.708417  0.766753  1
  B  B20  1  0.500000  0.631734  0.185390  1
  B  B21  1  0.500000  0.368493  0.814716  1
  B  B22  1  0.500000  0.131758  0.314598  1
  B  B23  1  0.500000  0.868191  0.685447  1
  B  B24  1  0.500000  0.983598  0.213253  1
  B  B25  1  0.500000  0.016365  0.786765  1
  B  B26  1  0.500000  0.483582  0.286747  1
  B  B27  1  0.500000  0.516568  0.713479  1
  B  B28  1  0.500000  0.607096  0.029363  1
  B  B29  1  0.500000  0.393129  0.970144  1
  B  B30  1  0.500000  0.107276  0.470317  1
  B  B31  1  0.500000  0.892712  0.529699  1
  Os  Os32  1  0.000000  0.637711  0.321100  1
  Os  Os33  1  0.000000  0.362500  0.679069  1
  Os  Os34  1  0.000000  0.137736  0.178832  1
  Os  Os35  1  0.000000  0.861935  0.821173  1
