# generated using pymatgen
data_Y2TmMn(Co4P3)2
_symmetry_space_group_name_H-M   'P 1'
_cell_length_a   3.68024600
_cell_length_b   10.53671700
_cell_length_c   12.17668100
_cell_angle_alpha   90.00000000
_cell_angle_beta   90.00000000
_cell_angle_gamma   90.00000000
_symmetry_Int_Tables_number   1
_chemical_formula_structural   Y2TmMn(Co4P3)2
_chemical_formula_sum   'Y4 Tm2 Mn2 Co16 P12'
_cell_volume   472.18381179
_cell_formula_units_Z   2
loop_
 _symmetry_equiv_pos_site_id
 _symmetry_equiv_pos_as_xyz
  1  'x, y, z'
loop_
 _atom_site_type_symbol
 _atom_site_label
 _atom_site_symmetry_multiplicity
 _atom_site_fract_x
 _atom_site_fract_y
 _atom_site_fract_z
 _atom_site_occupancy
  Y  Y0  1  0.000000  0.500000  0.522114  1
  Y  Y1  1  0.500000  0.000000  0.477096  1
  Y  Y2  1  0.000000  0.682126  0.795022  1
  Y  Y3  1  0.000000  0.317874  0.795022  1
  Tm  Tm4  1  0.500000  0.818577  0.205123  1
  Tm  Tm5  1  0.500000  0.181423  0.205123  1
  Mn  Mn6  1  0.500000  0.500000  0.158626  1
  Mn  Mn7  1  0.000000  0.000000  0.841435  1
  Co  Co8  1  0.500000  0.500000  0.703007  1
  Co  Co9  1  0.000000  0.000000  0.296110  1
  Co  Co10  1  0.000000  0.500000  0.987564  1
  Co  Co11  1  0.500000  0.000000  0.014897  1
  Co  Co12  1  0.500000  0.332453  0.994941  1
  Co  Co13  1  0.500000  0.667547  0.994941  1
  Co  Co14  1  0.000000  0.166508  0.007250  1
  Co  Co15  1  0.000000  0.833492  0.007250  1
  Co  Co16  1  0.500000  0.296123  0.429330  1
  Co  Co17  1  0.500000  0.703877  0.429330  1
  Co  Co18  1  0.000000  0.203333  0.568846  1
  Co  Co19  1  0.000000  0.796667  0.568846  1
  Co  Co20  1  0.500000  0.879675  0.709214  1
  Co  Co21  1  0.500000  0.120325  0.709214  1
  Co  Co22  1  0.000000  0.621215  0.289918  1
  Co  Co23  1  0.000000  0.378785  0.289918  1
  P  P24  1  0.500000  0.500000  0.883717  1
  P  P25  1  0.000000  0.000000  0.118264  1
  P  P26  1  0.500000  0.500000  0.344329  1
  P  P27  1  0.000000  0.000000  0.655293  1
  P  P28  1  0.500000  0.310674  0.615625  1
  P  P29  1  0.500000  0.689326  0.615625  1
  P  P30  1  0.000000  0.188802  0.382326  1
  P  P31  1  0.000000  0.811198  0.382326  1
  P  P32  1  0.500000  0.847950  0.893288  1
  P  P33  1  0.500000  0.152050  0.893288  1
  P  P34  1  0.000000  0.653864  0.107891  1
  P  P35  1  0.000000  0.346136  0.107891  1
