# generated using pymatgen
data_Dy6Y2Re3B24Ru
_symmetry_space_group_name_H-M   'P 1'
_cell_length_a   3.68147800
_cell_length_b   9.17256192
_cell_length_c   11.55828902
_cell_angle_alpha   90.10302878
_cell_angle_beta   90.00000000
_cell_angle_gamma   90.00000000
_symmetry_Int_Tables_number   1
_chemical_formula_structural   Dy6Y2Re3B24Ru
_chemical_formula_sum   'Dy6 Y2 Re3 B24 Ru1'
_cell_volume   390.30643336
_cell_formula_units_Z   1
loop_
 _symmetry_equiv_pos_site_id
 _symmetry_equiv_pos_as_xyz
  1  'x, y, z'
loop_
 _atom_site_type_symbol
 _atom_site_label
 _atom_site_symmetry_multiplicity
 _atom_site_fract_x
 _atom_site_fract_y
 _atom_site_fract_z
 _atom_site_occupancy
  Dy  Dy0  1  0.000000  0.825040  0.084212  1
  Dy  Dy1  1  0.000000  0.176306  0.913636  1
  Dy  Dy2  1  0.000000  0.941851  0.369563  1
  Dy  Dy3  1  0.000000  0.056333  0.629385  1
  Dy  Dy4  1  0.000000  0.443225  0.130556  1
  Dy  Dy5  1  0.000000  0.556821  0.870921  1
  Y  Y6  1  0.000000  0.322176  0.414240  1
  Y  Y7  1  0.000000  0.677176  0.587567  1
  Re  Re8  1  0.000000  0.361923  0.678225  1
  Re  Re9  1  0.000000  0.138380  0.179414  1
  Re  Re10  1  0.000000  0.861680  0.821032  1
  B  B11  1  0.500000  0.554129  0.432537  1
  B  B12  1  0.500000  0.446847  0.566923  1
  B  B13  1  0.500000  0.053326  0.066816  1
  B  B14  1  0.500000  0.946860  0.932903  1
  B  B15  1  0.500000  0.748275  0.418351  1
  B  B16  1  0.500000  0.250800  0.581269  1
  B  B17  1  0.500000  0.249204  0.081353  1
  B  B18  1  0.500000  0.751495  0.918802  1
  B  B19  1  0.500000  0.790750  0.265626  1
  B  B20  1  0.500000  0.208033  0.734095  1
  B  B21  1  0.500000  0.291679  0.234701  1
  B  B22  1  0.500000  0.708008  0.766096  1
  B  B23  1  0.500000  0.631865  0.186071  1
  B  B24  1  0.500000  0.369012  0.813845  1
  B  B25  1  0.500000  0.131203  0.314546  1
  B  B26  1  0.500000  0.868549  0.685913  1
  B  B27  1  0.500000  0.982863  0.211754  1
  B  B28  1  0.500000  0.017204  0.787776  1
  B  B29  1  0.500000  0.484076  0.288231  1
  B  B30  1  0.500000  0.517576  0.712069  1
  B  B31  1  0.500000  0.602467  0.029042  1
  B  B32  1  0.500000  0.398130  0.972036  1
  B  B33  1  0.500000  0.101067  0.471251  1
  B  B34  1  0.500000  0.897109  0.528276  1
  Ru  Ru35  1  0.000000  0.638564  0.320968  1
