# generated using pymatgen
data_Nd7Er(Lu3Pt4)4
_symmetry_space_group_name_H-M   'P 1'
_cell_length_a   7.51941789
_cell_length_b   7.61059527
_cell_length_c   14.51713440
_cell_angle_alpha   90.00843585
_cell_angle_beta   90.04861311
_cell_angle_gamma   90.02921799
_symmetry_Int_Tables_number   1
_chemical_formula_structural   Nd7Er(Lu3Pt4)4
_chemical_formula_sum   'Nd7 Er1 Lu12 Pt16'
_cell_volume   830.77520890
_cell_formula_units_Z   1
loop_
 _symmetry_equiv_pos_site_id
 _symmetry_equiv_pos_as_xyz
  1  'x, y, z'
loop_
 _atom_site_type_symbol
 _atom_site_label
 _atom_site_symmetry_multiplicity
 _atom_site_fract_x
 _atom_site_fract_y
 _atom_site_fract_z
 _atom_site_occupancy
  Nd  Nd0  1  0.500082  0.677266  0.593327  1
  Nd  Nd1  1  0.999052  0.824686  0.905959  1
  Nd  Nd2  1  0.499973  0.325383  0.094206  1
  Nd  Nd3  1  0.000823  0.172703  0.407490  1
  Nd  Nd4  1  0.500291  0.325019  0.405616  1
  Nd  Nd5  1  0.999664  0.175957  0.093233  1
  Nd  Nd6  1  0.500123  0.675668  0.905526  1
  Er  Er7  1  0.002022  0.821427  0.595824  1
  Lu  Lu8  1  0.659985  0.165196  0.622783  1
  Lu  Lu9  1  0.157539  0.332652  0.874973  1
  Lu  Lu10  1  0.342026  0.833509  0.124124  1
  Lu  Lu11  1  0.844734  0.668354  0.377567  1
  Lu  Lu12  1  0.341905  0.833232  0.376559  1
  Lu  Lu13  1  0.841834  0.666174  0.124455  1
  Lu  Lu14  1  0.658122  0.166400  0.875076  1
  Lu  Lu15  1  0.157574  0.333258  0.623674  1
  Lu  Lu16  1  0.820968  0.506412  0.748802  1
  Lu  Lu17  1  0.320359  0.994414  0.748604  1
  Lu  Lu18  1  0.178235  0.494515  0.250234  1
  Lu  Lu19  1  0.679065  0.005659  0.250392  1
  Pt  Pt20  1  0.679891  0.960520  0.458608  1
  Pt  Pt21  1  0.178716  0.537959  0.043023  1
  Pt  Pt22  1  0.321411  0.038208  0.957064  1
  Pt  Pt23  1  0.823459  0.466896  0.544568  1
  Pt  Pt24  1  0.314426  0.033592  0.544124  1
  Pt  Pt25  1  0.821439  0.461857  0.956873  1
  Pt  Pt26  1  0.678583  0.962017  0.043077  1
  Pt  Pt27  1  0.178269  0.540754  0.458394  1
  Pt  Pt28  1  0.453663  0.378135  0.749665  1
  Pt  Pt29  1  0.955250  0.119864  0.748569  1
  Pt  Pt30  1  0.545862  0.622872  0.250456  1
  Pt  Pt31  1  0.046024  0.877299  0.250132  1
  Pt  Pt32  1  0.686256  0.861033  0.748671  1
  Pt  Pt33  1  0.181691  0.641086  0.747577  1
  Pt  Pt34  1  0.315214  0.138415  0.250309  1
  Pt  Pt35  1  0.815467  0.361608  0.250467  1
