# generated using pymatgen
data_Sc2Al9CuRu2
_symmetry_space_group_name_H-M   'P 1'
_cell_length_a   7.48335324
_cell_length_b   7.48335258
_cell_length_c   9.30701900
_cell_angle_alpha   90.00000000
_cell_angle_beta   90.00000000
_cell_angle_gamma   120.34529717
_symmetry_Int_Tables_number   1
_chemical_formula_structural   Sc2Al9CuRu2
_chemical_formula_sum   'Sc4 Al18 Cu2 Ru4'
_cell_volume   449.79232708
_cell_formula_units_Z   2
loop_
 _symmetry_equiv_pos_site_id
 _symmetry_equiv_pos_as_xyz
  1  'x, y, z'
loop_
 _atom_site_type_symbol
 _atom_site_label
 _atom_site_symmetry_multiplicity
 _atom_site_fract_x
 _atom_site_fract_y
 _atom_site_fract_z
 _atom_site_occupancy
  Sc  Sc0  1  0.996471  0.667511  0.250000  1
  Sc  Sc1  1  0.003529  0.332489  0.750000  1
  Sc  Sc2  1  0.667511  0.996471  0.250000  1
  Sc  Sc3  1  0.332489  0.003529  0.750000  1
  Al  Al4  1  0.121701  0.121701  0.250000  1
  Al  Al5  1  0.878299  0.878299  0.750000  1
  Al  Al6  1  0.997567  0.336620  0.075472  1
  Al  Al7  1  0.002433  0.663380  0.924528  1
  Al  Al8  1  0.002433  0.663380  0.575472  1
  Al  Al9  1  0.336620  0.997567  0.424528  1
  Al  Al10  1  0.997567  0.336620  0.424528  1
  Al  Al11  1  0.663380  0.002433  0.575472  1
  Al  Al12  1  0.663380  0.002433  0.924528  1
  Al  Al13  1  0.336620  0.997567  0.075472  1
  Al  Al14  1  0.335399  0.335399  0.555815  1
  Al  Al15  1  0.664601  0.664601  0.444185  1
  Al  Al16  1  0.664601  0.664601  0.055815  1
  Al  Al17  1  0.335399  0.335399  0.944185  1
  Al  Al18  1  0.336283  0.552993  0.250000  1
  Al  Al19  1  0.663717  0.447007  0.750000  1
  Al  Al20  1  0.552993  0.336283  0.250000  1
  Al  Al21  1  0.447007  0.663717  0.750000  1
  Cu  Cu22  1  0.000000  0.000000  0.000000  1
  Cu  Cu23  1  0.000000  0.000000  0.500000  1
  Ru  Ru24  1  0.672442  0.327558  0.000000  1
  Ru  Ru25  1  0.327558  0.672442  0.000000  1
  Ru  Ru26  1  0.327558  0.672442  0.500000  1
  Ru  Ru27  1  0.672442  0.327558  0.500000  1
