# generated using pymatgen
data_CrGaTeO6
_symmetry_space_group_name_H-M   'P 1'
_cell_length_a   4.62544000
_cell_length_b   4.62544000
_cell_length_c   9.16071400
_cell_angle_alpha   90.00000000
_cell_angle_beta   90.00000000
_cell_angle_gamma   89.99596181
_symmetry_Int_Tables_number   1
_chemical_formula_structural   CrGaTeO6
_chemical_formula_sum   'Cr2 Ga2 Te2 O12'
_cell_volume   195.99068354
_cell_formula_units_Z   2
loop_
 _symmetry_equiv_pos_site_id
 _symmetry_equiv_pos_as_xyz
  1  'x, y, z'
loop_
 _atom_site_type_symbol
 _atom_site_label
 _atom_site_symmetry_multiplicity
 _atom_site_fract_x
 _atom_site_fract_y
 _atom_site_fract_z
 _atom_site_occupancy
  Cr  Cr0  1  0.500000  0.500000  0.165378  1
  Cr  Cr1  1  0.000000  0.000000  0.665466  1
  Ga  Ga2  1  0.500000  0.500000  0.834510  1
  Ga  Ga3  1  0.000000  0.000000  0.334518  1
  Te  Te4  1  0.500000  0.500000  0.500414  1
  Te  Te5  1  0.000000  0.000000  0.000285  1
  O  O6  1  0.198809  0.801191  0.498703  1
  O  O7  1  0.801191  0.198809  0.498703  1
  O  O8  1  0.301143  0.301143  0.998610  1
  O  O9  1  0.698857  0.698857  0.998610  1
  O  O10  1  0.191555  0.808445  0.163709  1
  O  O11  1  0.808445  0.191555  0.163709  1
  O  O12  1  0.308432  0.308432  0.663775  1
  O  O13  1  0.691568  0.691568  0.663775  1
  O  O14  1  0.807278  0.192722  0.837465  1
  O  O15  1  0.192722  0.807278  0.837465  1
  O  O16  1  0.692721  0.692721  0.337452  1
  O  O17  1  0.307280  0.307280  0.337452  1
