# generated using pymatgen
data_Th10Sn5BiC2
_symmetry_space_group_name_H-M   'P 1'
_cell_length_a   9.40651600
_cell_length_b   9.41372031
_cell_length_c   6.52919000
_cell_angle_alpha   90.00000000
_cell_angle_beta   90.00000000
_cell_angle_gamma   119.97469437
_symmetry_Int_Tables_number   1
_chemical_formula_structural   Th10Sn5BiC2
_chemical_formula_sum   'Th10 Sn5 Bi1 C2'
_cell_volume   500.83043761
_cell_formula_units_Z   1
loop_
 _symmetry_equiv_pos_site_id
 _symmetry_equiv_pos_as_xyz
  1  'x, y, z'
loop_
 _atom_site_type_symbol
 _atom_site_label
 _atom_site_symmetry_multiplicity
 _atom_site_fract_x
 _atom_site_fract_y
 _atom_site_fract_z
 _atom_site_occupancy
  Th  Th0  1  0.330648  0.662961  0.498528  1
  Th  Th1  1  0.667687  0.337039  0.498528  1
  Th  Th2  1  0.667687  0.337039  0.001472  1
  Th  Th3  1  0.330648  0.662961  0.001472  1
  Th  Th4  1  0.219423  0.000000  0.750000  1
  Th  Th5  1  0.780639  0.000000  0.250000  1
  Th  Th6  1  0.003313  0.223641  0.750000  1
  Th  Th7  1  0.000094  0.778135  0.250000  1
  Th  Th8  1  0.779672  0.776359  0.750000  1
  Th  Th9  1  0.221959  0.221865  0.250000  1
  Sn  Sn10  1  0.399774  0.000000  0.250000  1
  Sn  Sn11  1  0.000890  0.599853  0.750000  1
  Sn  Sn12  1  0.999323  0.399451  0.250000  1
  Sn  Sn13  1  0.401037  0.400147  0.750000  1
  Sn  Sn14  1  0.599873  0.600549  0.250000  1
  Bi  Bi15  1  0.599162  0.000000  0.750000  1
  C  C16  1  0.999086  0.000000  0.500472  1
  C  C17  1  0.999086  0.000000  0.999528  1
