# generated using pymatgen
data_Yb6PrEr(Si3Pd)4
_symmetry_space_group_name_H-M   'P 1'
_cell_length_a   8.24844100
_cell_length_b   8.24844036
_cell_length_c   8.23985000
_cell_angle_alpha   90.00000000
_cell_angle_beta   90.00000000
_cell_angle_gamma   119.99999855
_symmetry_Int_Tables_number   1
_chemical_formula_structural   Yb6PrEr(Si3Pd)4
_chemical_formula_sum   'Yb6 Pr1 Er1 Si12 Pd4'
_cell_volume   485.50494185
_cell_formula_units_Z   1
loop_
 _symmetry_equiv_pos_site_id
 _symmetry_equiv_pos_as_xyz
  1  'x, y, z'
loop_
 _atom_site_type_symbol
 _atom_site_label
 _atom_site_symmetry_multiplicity
 _atom_site_fract_x
 _atom_site_fract_y
 _atom_site_fract_z
 _atom_site_occupancy
  Yb  Yb0  1  0.499353  0.500647  0.750000  1
  Yb  Yb1  1  0.500558  0.499442  0.250000  1
  Yb  Yb2  1  0.001293  0.500647  0.750000  1
  Yb  Yb3  1  0.998884  0.499442  0.250000  1
  Yb  Yb4  1  0.499353  0.998707  0.750000  1
  Yb  Yb5  1  0.500558  0.001116  0.250000  1
  Pr  Pr6  1  0.000000  0.000000  0.250000  1
  Er  Er7  1  0.000000  0.000000  0.750000  1
  Si  Si8  1  0.835250  0.164750  0.996029  1
  Si  Si9  1  0.164755  0.835245  0.997002  1
  Si  Si10  1  0.329499  0.164750  0.996029  1
  Si  Si11  1  0.164755  0.835245  0.502998  1
  Si  Si12  1  0.670492  0.835245  0.997002  1
  Si  Si13  1  0.835250  0.164750  0.503971  1
  Si  Si14  1  0.835250  0.670501  0.996029  1
  Si  Si15  1  0.670492  0.835245  0.502998  1
  Si  Si16  1  0.164755  0.329508  0.997002  1
  Si  Si17  1  0.329499  0.164750  0.503971  1
  Si  Si18  1  0.164755  0.329508  0.502998  1
  Si  Si19  1  0.835250  0.670501  0.503971  1
  Pd  Pd20  1  0.666667  0.333333  0.995967  1
  Pd  Pd21  1  0.333333  0.666667  0.998766  1
  Pd  Pd22  1  0.333333  0.666667  0.501234  1
  Pd  Pd23  1  0.666667  0.333333  0.504033  1
