# generated using pymatgen
data_Pr3Cd3Rh2Au
_symmetry_space_group_name_H-M   'P 1'
_cell_length_a   7.73866400
_cell_length_b   7.73866383
_cell_length_c   4.13792700
_cell_angle_alpha   90.00000000
_cell_angle_beta   90.00000000
_cell_angle_gamma   119.99999216
_symmetry_Int_Tables_number   1
_chemical_formula_structural   Pr3Cd3Rh2Au
_chemical_formula_sum   'Pr3 Cd3 Rh2 Au1'
_cell_volume   214.60778036
_cell_formula_units_Z   1
loop_
 _symmetry_equiv_pos_site_id
 _symmetry_equiv_pos_as_xyz
  1  'x, y, z'
loop_
 _atom_site_type_symbol
 _atom_site_label
 _atom_site_symmetry_multiplicity
 _atom_site_fract_x
 _atom_site_fract_y
 _atom_site_fract_z
 _atom_site_occupancy
  Pr  Pr0  1  0.590868  0.981512  0.000000  1
  Pr  Pr1  1  0.018488  0.609356  0.000000  1
  Pr  Pr2  1  0.390644  0.409132  0.000000  1
  Cd  Cd3  1  0.247136  0.998901  0.500000  1
  Cd  Cd4  1  0.001099  0.248234  0.500000  1
  Cd  Cd5  1  0.751766  0.752864  0.500000  1
  Rh  Rh6  1  0.333333  0.666667  0.500000  1
  Rh  Rh7  1  0.000000  0.000000  0.000000  1
  Au  Au8  1  0.666667  0.333333  0.500000  1
