# generated using pymatgen
data_Tb6Ho9Tm(CdPt)4
_symmetry_space_group_name_H-M   'P 1'
_cell_length_a   9.67045492
_cell_length_b   9.67045520
_cell_length_c   9.62466600
_cell_angle_alpha   60.15650794
_cell_angle_beta   60.15650698
_cell_angle_gamma   60.17032059
_symmetry_Int_Tables_number   1
_chemical_formula_structural   Tb6Ho9Tm(CdPt)4
_chemical_formula_sum   'Tb6 Ho9 Tm1 Cd4 Pt4'
_cell_volume   638.77272800
_cell_formula_units_Z   1
loop_
 _symmetry_equiv_pos_site_id
 _symmetry_equiv_pos_as_xyz
  1  'x, y, z'
loop_
 _atom_site_type_symbol
 _atom_site_label
 _atom_site_symmetry_multiplicity
 _atom_site_fract_x
 _atom_site_fract_y
 _atom_site_fract_z
 _atom_site_occupancy
  Tb  Tb0  1  0.936858  0.564471  0.562799  1
  Tb  Tb1  1  0.564471  0.936858  0.935872  1
  Tb  Tb2  1  0.564471  0.936858  0.562799  1
  Tb  Tb3  1  0.936858  0.564471  0.935872  1
  Tb  Tb4  1  0.566012  0.566012  0.933988  1
  Tb  Tb5  1  0.938507  0.938507  0.561493  1
  Ho  Ho6  1  0.351535  0.351535  0.349004  1
  Ho  Ho7  1  0.351535  0.351535  0.947926  1
  Ho  Ho8  1  0.356027  0.938553  0.352711  1
  Ho  Ho9  1  0.938553  0.356027  0.352711  1
  Ho  Ho10  1  0.811837  0.188832  0.188944  1
  Ho  Ho11  1  0.188832  0.811837  0.810387  1
  Ho  Ho12  1  0.188832  0.811837  0.188944  1
  Ho  Ho13  1  0.811837  0.188832  0.810387  1
  Ho  Ho14  1  0.190267  0.190267  0.809733  1
  Tm  Tm15  1  0.811716  0.811716  0.188284  1
  Cd  Cd16  1  0.580263  0.580263  0.582896  1
  Cd  Cd17  1  0.580263  0.580263  0.256577  1
  Cd  Cd18  1  0.579992  0.255023  0.582493  1
  Cd  Cd19  1  0.255023  0.579992  0.582493  1
  Pt  Pt20  1  0.142646  0.142646  0.147072  1
  Pt  Pt21  1  0.142646  0.142646  0.567637  1
  Pt  Pt22  1  0.138676  0.572346  0.144490  1
  Pt  Pt23  1  0.572346  0.138676  0.144490  1
