# generated using pymatgen
data_Li8B4Pd7Pt5
_symmetry_space_group_name_H-M   'P 1'
_cell_length_a   6.99671016
_cell_length_b   6.74530254
_cell_length_c   6.76272079
_cell_angle_alpha   89.86995048
_cell_angle_beta   90.25761786
_cell_angle_gamma   89.58792515
_symmetry_Int_Tables_number   1
_chemical_formula_structural   Li8B4Pd7Pt5
_chemical_formula_sum   'Li8 B4 Pd7 Pt5'
_cell_volume   319.15378609
_cell_formula_units_Z   1
loop_
 _symmetry_equiv_pos_site_id
 _symmetry_equiv_pos_as_xyz
  1  'x, y, z'
loop_
 _atom_site_type_symbol
 _atom_site_label
 _atom_site_symmetry_multiplicity
 _atom_site_fract_x
 _atom_site_fract_y
 _atom_site_fract_z
 _atom_site_occupancy
  Li  Li0  1  0.312442  0.308760  0.305930  1
  Li  Li1  1  0.059773  0.449586  0.556709  1
  Li  Li2  1  0.561728  0.053029  0.443976  1
  Li  Li3  1  0.446408  0.550889  0.051328  1
  Li  Li4  1  0.187570  0.694961  0.802473  1
  Li  Li5  1  0.937254  0.943530  0.943913  1
  Li  Li6  1  0.809375  0.200551  0.701135  1
  Li  Li7  1  0.692808  0.801233  0.193222  1
  B  B8  1  0.861423  0.363941  0.098404  1
  B  B9  1  0.376644  0.142700  0.892597  1
  B  B10  1  0.627643  0.634456  0.616697  1
  B  B11  1  0.122482  0.847921  0.398999  1
  Pd  Pd12  1  0.202840  0.054010  0.627297  1
  Pd  Pd13  1  0.450459  0.375231  0.691829  1
  Pd  Pd14  1  0.051491  0.616631  0.196173  1
  Pd  Pd15  1  0.960109  0.125302  0.298105  1
  Pd  Pd16  1  0.289720  0.948891  0.132979  1
  Pd  Pd17  1  0.705455  0.441639  0.372747  1
  Pd  Pd18  1  0.542150  0.881144  0.805571  1
  Pt  Pt19  1  0.621535  0.178375  0.071686  1
  Pt  Pt20  1  0.382139  0.689225  0.434268  1
  Pt  Pt21  1  0.868591  0.824836  0.558465  1
  Pt  Pt22  1  0.123160  0.307471  0.939062  1
  Pt  Pt23  1  0.806800  0.565688  0.866436  1
