# generated using pymatgen
data_Er5GaBiRu
_symmetry_space_group_name_H-M   'P 1'
_cell_length_a   8.63928257
_cell_length_b   8.63928216
_cell_length_c   8.76181678
_cell_angle_alpha   126.11302833
_cell_angle_beta   126.11301698
_cell_angle_gamma   78.72730479
_symmetry_Int_Tables_number   1
_chemical_formula_structural   Er5GaBiRu
_chemical_formula_sum   'Er10 Ga2 Bi2 Ru2'
_cell_volume   415.07343554
_cell_formula_units_Z   2
loop_
 _symmetry_equiv_pos_site_id
 _symmetry_equiv_pos_as_xyz
  1  'x, y, z'
loop_
 _atom_site_type_symbol
 _atom_site_label
 _atom_site_symmetry_multiplicity
 _atom_site_fract_x
 _atom_site_fract_y
 _atom_site_fract_z
 _atom_site_occupancy
  Er  Er0  1  0.000000  0.000000  0.000000  1
  Er  Er1  1  0.500000  0.500000  0.000000  1
  Er  Er2  1  0.782471  0.282471  0.791279  1
  Er  Er3  1  0.217529  0.717529  0.208721  1
  Er  Er4  1  0.491191  0.991191  0.208721  1
  Er  Er5  1  0.307979  0.461261  0.500000  1
  Er  Er6  1  0.038739  0.192021  0.500000  1
  Er  Er7  1  0.508809  0.008809  0.791279  1
  Er  Er8  1  0.692021  0.538739  0.500000  1
  Er  Er9  1  0.961261  0.807979  0.500000  1
  Ga  Ga10  1  0.139445  0.639445  0.778892  1
  Ga  Ga11  1  0.860555  0.360555  0.221108  1
  Bi  Bi12  1  0.250000  0.250000  0.000000  1
  Bi  Bi13  1  0.750000  0.750000  0.000000  1
  Ru  Ru14  1  0.635259  0.864741  0.500000  1
  Ru  Ru15  1  0.364741  0.135259  0.500000  1
