# generated using pymatgen
data_CeMn4ReP3
_symmetry_space_group_name_H-M   'P 1'
_cell_length_a   3.73358700
_cell_length_b   10.79561200
_cell_length_c   12.23995400
_cell_angle_alpha   90.00000000
_cell_angle_beta   90.00000000
_cell_angle_gamma   90.00000000
_symmetry_Int_Tables_number   1
_chemical_formula_structural   CeMn4ReP3
_chemical_formula_sum   'Ce4 Mn16 Re4 P12'
_cell_volume   493.34795094
_cell_formula_units_Z   4
loop_
 _symmetry_equiv_pos_site_id
 _symmetry_equiv_pos_as_xyz
  1  'x, y, z'
loop_
 _atom_site_type_symbol
 _atom_site_label
 _atom_site_symmetry_multiplicity
 _atom_site_fract_x
 _atom_site_fract_y
 _atom_site_fract_z
 _atom_site_occupancy
  Ce  Ce0  1  0.250000  0.587879  0.706318  1
  Ce  Ce1  1  0.250000  0.912121  0.206318  1
  Ce  Ce2  1  0.750000  0.412121  0.293682  1
  Ce  Ce3  1  0.750000  0.087879  0.793682  1
  Mn  Mn4  1  0.250000  0.410445  0.493804  1
  Mn  Mn5  1  0.250000  0.089555  0.993804  1
  Mn  Mn6  1  0.750000  0.589555  0.506196  1
  Mn  Mn7  1  0.750000  0.910445  0.006196  1
  Mn  Mn8  1  0.250000  0.211411  0.182801  1
  Mn  Mn9  1  0.250000  0.288589  0.682801  1
  Mn  Mn10  1  0.750000  0.788589  0.817199  1
  Mn  Mn11  1  0.750000  0.711411  0.317199  1
  Mn  Mn12  1  0.250000  0.885779  0.692617  1
  Mn  Mn13  1  0.250000  0.614221  0.192617  1
  Mn  Mn14  1  0.750000  0.114221  0.307383  1
  Mn  Mn15  1  0.750000  0.385779  0.807383  1
  Mn  Mn16  1  0.250000  0.466798  0.935880  1
  Mn  Mn17  1  0.250000  0.033202  0.435880  1
  Mn  Mn18  1  0.750000  0.533202  0.064120  1
  Mn  Mn19  1  0.750000  0.966798  0.564120  1
  Re  Re20  1  0.250000  0.709248  0.983189  1
  Re  Re21  1  0.250000  0.790752  0.483189  1
  Re  Re22  1  0.750000  0.290752  0.016811  1
  Re  Re23  1  0.750000  0.209248  0.516811  1
  P  P24  1  0.250000  0.412068  0.113638  1
  P  P25  1  0.250000  0.087932  0.613638  1
  P  P26  1  0.750000  0.587932  0.886362  1
  P  P27  1  0.750000  0.912068  0.386362  1
  P  P28  1  0.250000  0.268066  0.876178  1
  P  P29  1  0.250000  0.231934  0.376178  1
  P  P30  1  0.750000  0.731934  0.123822  1
  P  P31  1  0.750000  0.768066  0.623822  1
  P  P32  1  0.250000  0.595014  0.385916  1
  P  P33  1  0.250000  0.904986  0.885916  1
  P  P34  1  0.750000  0.404986  0.614084  1
  P  P35  1  0.750000  0.095014  0.114084  1
