# generated using pymatgen
data_CaNd9(InSi2)2
_symmetry_space_group_name_H-M   'P 1'
_cell_length_a   9.22073470
_cell_length_b   9.22055916
_cell_length_c   9.21732193
_cell_angle_alpha   129.25824847
_cell_angle_beta   129.26933452
_cell_angle_gamma   74.60651831
_symmetry_Int_Tables_number   1
_chemical_formula_structural   CaNd9(InSi2)2
_chemical_formula_sum   'Ca1 Nd9 In2 Si4'
_cell_volume   457.67641595
_cell_formula_units_Z   1
loop_
 _symmetry_equiv_pos_site_id
 _symmetry_equiv_pos_as_xyz
  1  'x, y, z'
loop_
 _atom_site_type_symbol
 _atom_site_label
 _atom_site_symmetry_multiplicity
 _atom_site_fract_x
 _atom_site_fract_y
 _atom_site_fract_z
 _atom_site_occupancy
  Ca  Ca0  1  0.500000  0.500000  0.000000  1
  Nd  Nd1  1  0.536375  0.038013  0.852768  1
  Nd  Nd2  1  0.185333  0.683678  0.147391  1
  Nd  Nd3  1  0.038209  0.185200  0.501507  1
  Nd  Nd4  1  0.683765  0.536786  0.498638  1
  Nd  Nd5  1  0.463625  0.961987  0.147232  1
  Nd  Nd6  1  0.814667  0.316322  0.852609  1
  Nd  Nd7  1  0.961791  0.814800  0.498493  1
  Nd  Nd8  1  0.316235  0.463214  0.501362  1
  Nd  Nd9  1  0.000000  0.000000  0.000000  1
  In  In10  1  0.248707  0.248723  0.999986  1
  In  In11  1  0.751293  0.751277  0.000014  1
  Si  Si12  1  0.887672  0.382638  0.270318  1
  Si  Si13  1  0.112328  0.617362  0.729682  1
  Si  Si14  1  0.382561  0.112384  0.494922  1
  Si  Si15  1  0.617439  0.887616  0.505078  1
