# generated using pymatgen
data_NdRhF7
_symmetry_space_group_name_H-M   'P 1'
_cell_length_a   5.72385200
_cell_length_b   6.12679862
_cell_length_c   8.35666281
_cell_angle_alpha   101.87613207
_cell_angle_beta   90.00000000
_cell_angle_gamma   90.00000000
_symmetry_Int_Tables_number   1
_chemical_formula_structural   NdRhF7
_chemical_formula_sum   'Nd2 Rh2 F14'
_cell_volume   286.78589277
_cell_formula_units_Z   2
loop_
 _symmetry_equiv_pos_site_id
 _symmetry_equiv_pos_as_xyz
  1  'x, y, z'
loop_
 _atom_site_type_symbol
 _atom_site_label
 _atom_site_symmetry_multiplicity
 _atom_site_fract_x
 _atom_site_fract_y
 _atom_site_fract_z
 _atom_site_occupancy
  Nd  Nd0  1  0.701743  0.658192  0.689988  1
  Nd  Nd1  1  0.201743  0.341808  0.310012  1
  Rh  Rh2  1  0.711045  0.812186  0.224127  1
  Rh  Rh3  1  0.211045  0.187814  0.775873  1
  F  F4  1  0.884496  0.444448  0.474537  1
  F  F5  1  0.384496  0.555552  0.525463  1
  F  F6  1  0.418482  0.937301  0.771903  1
  F  F7  1  0.918482  0.062699  0.228097  1
  F  F8  1  0.945156  0.979928  0.762428  1
  F  F9  1  0.445156  0.020072  0.237572  1
  F  F10  1  0.005559  0.443890  0.788507  1
  F  F11  1  0.505559  0.556110  0.211493  1
  F  F12  1  0.705352  0.762104  0.988495  1
  F  F13  1  0.205352  0.237896  0.011505  1
  F  F14  1  0.715495  0.867023  0.460319  1
  F  F15  1  0.215495  0.132977  0.539681  1
  F  F16  1  0.489032  0.380651  0.790332  1
  F  F17  1  0.989032  0.619349  0.209668  1
