# generated using pymatgen
data_Tb2Yb6Re13B12
_symmetry_space_group_name_H-M   'P 1'
_cell_length_a   7.77103212
_cell_length_b   7.77103160
_cell_length_c   7.77103160
_cell_angle_alpha   86.15197118
_cell_angle_beta   86.15197228
_cell_angle_gamma   86.15196616
_symmetry_Int_Tables_number   1
_chemical_formula_structural   Tb2Yb6Re13B12
_chemical_formula_sum   'Tb2 Yb6 Re13 B12'
_cell_volume   466.24599698
_cell_formula_units_Z   1
loop_
 _symmetry_equiv_pos_site_id
 _symmetry_equiv_pos_as_xyz
  1  'x, y, z'
loop_
 _atom_site_type_symbol
 _atom_site_label
 _atom_site_symmetry_multiplicity
 _atom_site_fract_x
 _atom_site_fract_y
 _atom_site_fract_z
 _atom_site_occupancy
  Tb  Tb0  1  0.641759  0.641759  0.641759  1
  Tb  Tb1  1  0.358241  0.358241  0.358241  1
  Yb  Yb2  1  0.187816  0.187816  0.690799  1
  Yb  Yb3  1  0.690799  0.187816  0.187816  1
  Yb  Yb4  1  0.187816  0.690799  0.187816  1
  Yb  Yb5  1  0.812184  0.812184  0.309201  1
  Yb  Yb6  1  0.309201  0.812184  0.812184  1
  Yb  Yb7  1  0.812184  0.309201  0.812184  1
  Re  Re8  1  0.000000  0.000000  0.000000  1
  Re  Re9  1  0.596302  0.063698  0.596302  1
  Re  Re10  1  0.596302  0.596302  0.063698  1
  Re  Re11  1  0.063698  0.596302  0.596302  1
  Re  Re12  1  0.403698  0.936302  0.403698  1
  Re  Re13  1  0.403698  0.403698  0.936302  1
  Re  Re14  1  0.936302  0.403698  0.403698  1
  Re  Re15  1  0.924766  0.924766  0.669555  1
  Re  Re16  1  0.669555  0.924766  0.924766  1
  Re  Re17  1  0.924766  0.669555  0.924766  1
  Re  Re18  1  0.075234  0.075234  0.330445  1
  Re  Re19  1  0.330445  0.075234  0.075234  1
  Re  Re20  1  0.075234  0.330445  0.075234  1
  B  B21  1  0.151975  0.848025  0.500000  1
  B  B22  1  0.500000  0.151975  0.848025  1
  B  B23  1  0.848025  0.500000  0.151975  1
  B  B24  1  0.500000  0.848025  0.151975  1
  B  B25  1  0.151975  0.500000  0.848025  1
  B  B26  1  0.848025  0.151975  0.500000  1
  B  B27  1  0.671540  0.500000  0.328460  1
  B  B28  1  0.328460  0.671540  0.500000  1
  B  B29  1  0.500000  0.328460  0.671540  1
  B  B30  1  0.328460  0.500000  0.671540  1
  B  B31  1  0.671540  0.328460  0.500000  1
  B  B32  1  0.500000  0.671540  0.328460  1
