# generated using pymatgen
data_Li4Nd6Pd13
_symmetry_space_group_name_H-M   'P 1'
_cell_length_a   8.38170581
_cell_length_b   8.38170571
_cell_length_c   8.38170600
_cell_angle_alpha   109.47122132
_cell_angle_beta   109.47122109
_cell_angle_gamma   109.47122041
_symmetry_Int_Tables_number   1
_chemical_formula_structural   Li4Nd6Pd13
_chemical_formula_sum   'Li4 Nd6 Pd13'
_cell_volume   453.28917686
_cell_formula_units_Z   1
loop_
 _symmetry_equiv_pos_site_id
 _symmetry_equiv_pos_as_xyz
  1  'x, y, z'
loop_
 _atom_site_type_symbol
 _atom_site_label
 _atom_site_symmetry_multiplicity
 _atom_site_fract_x
 _atom_site_fract_y
 _atom_site_fract_z
 _atom_site_occupancy
  Li  Li0  1  0.000000  0.000000  0.500000  1
  Li  Li1  1  0.000000  0.500000  0.000000  1
  Li  Li2  1  0.500000  0.000000  0.000000  1
  Li  Li3  1  0.500000  0.500000  0.500000  1
  Nd  Nd4  1  0.693509  0.693509  0.000000  1
  Nd  Nd5  1  0.306491  0.000000  0.306491  1
  Nd  Nd6  1  0.000000  0.306491  0.306491  1
  Nd  Nd7  1  0.306491  0.306491  0.000000  1
  Nd  Nd8  1  0.693509  0.000000  0.693509  1
  Nd  Nd9  1  0.000000  0.693509  0.693509  1
  Pd  Pd10  1  0.332051  0.332051  0.664102  1
  Pd  Pd11  1  0.667949  0.000000  0.332051  1
  Pd  Pd12  1  0.000000  0.667949  0.332051  1
  Pd  Pd13  1  0.667949  0.332051  0.000000  1
  Pd  Pd14  1  0.332051  0.664102  0.332051  1
  Pd  Pd15  1  0.000000  0.332051  0.667949  1
  Pd  Pd16  1  0.332051  0.667949  0.000000  1
  Pd  Pd17  1  0.332051  0.000000  0.667949  1
  Pd  Pd18  1  0.664102  0.332051  0.332051  1
  Pd  Pd19  1  0.667949  0.667949  0.335898  1
  Pd  Pd20  1  0.667949  0.335898  0.667949  1
  Pd  Pd21  1  0.335898  0.667949  0.667949  1
  Pd  Pd22  1  0.000000  0.000000  0.000000  1
