# generated using pymatgen
data_YbPa7CdSn2Pt8Pb
_symmetry_space_group_name_H-M   'P 1'
_cell_length_a   7.85549002
_cell_length_b   7.86298993
_cell_length_c   7.30231700
_cell_angle_alpha   89.93697674
_cell_angle_beta   89.99612703
_cell_angle_gamma   90.54150535
_symmetry_Int_Tables_number   1
_chemical_formula_structural   YbPa7CdSn2Pt8Pb
_chemical_formula_sum   'Yb1 Pa7 Cd1 Sn2 Pt8 Pb1'
_cell_volume   451.02646129
_cell_formula_units_Z   1
loop_
 _symmetry_equiv_pos_site_id
 _symmetry_equiv_pos_as_xyz
  1  'x, y, z'
loop_
 _atom_site_type_symbol
 _atom_site_label
 _atom_site_symmetry_multiplicity
 _atom_site_fract_x
 _atom_site_fract_y
 _atom_site_fract_z
 _atom_site_occupancy
  Yb  Yb0  1  0.175606  0.824268  0.502092  1
  Pa  Pa1  1  0.676552  0.676591  0.999345  1
  Pa  Pa2  1  0.332065  0.330773  0.500113  1
  Pa  Pa3  1  0.824729  0.172359  0.499771  1
  Pa  Pa4  1  0.664740  0.670833  0.501351  1
  Pa  Pa5  1  0.325173  0.321480  0.999056  1
  Pa  Pa6  1  0.832373  0.166188  0.998168  1
  Pa  Pa7  1  0.171918  0.831862  0.998707  1
  Cd  Cd8  1  0.002691  0.506923  0.745576  1
  Sn  Sn9  1  0.494261  0.997763  0.746610  1
  Sn  Sn10  1  0.493508  0.997088  0.253754  1
  Pt  Pt11  1  0.865282  0.872424  0.747837  1
  Pt  Pt12  1  0.126231  0.136472  0.745411  1
  Pt  Pt13  1  0.634596  0.368474  0.756671  1
  Pt  Pt14  1  0.628980  0.364267  0.240863  1
  Pt  Pt15  1  0.380428  0.626291  0.236352  1
  Pt  Pt16  1  0.129752  0.129385  0.252997  1
  Pt  Pt17  1  0.863698  0.876319  0.253418  1
  Pt  Pt18  1  0.374964  0.623414  0.764258  1
  Pb  Pb19  1  0.002456  0.506826  0.257650  1
