# generated using pymatgen
data_K2ZrHCl7
_symmetry_space_group_name_H-M   'P 1'
_cell_length_a   7.69839604
_cell_length_b   7.49403300
_cell_length_c   11.35052978
_cell_angle_alpha   90.00000000
_cell_angle_beta   98.10520132
_cell_angle_gamma   90.00000000
_symmetry_Int_Tables_number   1
_chemical_formula_structural   K2ZrHCl7
_chemical_formula_sum   'K4 Zr2 H2 Cl14'
_cell_volume   648.29391136
_cell_formula_units_Z   2
loop_
 _symmetry_equiv_pos_site_id
 _symmetry_equiv_pos_as_xyz
  1  'x, y, z'
loop_
 _atom_site_type_symbol
 _atom_site_label
 _atom_site_symmetry_multiplicity
 _atom_site_fract_x
 _atom_site_fract_y
 _atom_site_fract_z
 _atom_site_occupancy
  K  K0  1  0.236164  0.250000  0.997577  1
  K  K1  1  0.763836  0.750000  0.002423  1
  K  K2  1  0.189881  0.750000  0.670429  1
  K  K3  1  0.810119  0.250000  0.329571  1
  Zr  Zr4  1  0.297813  0.750000  0.211936  1
  Zr  Zr5  1  0.702187  0.250000  0.788064  1
  H  H6  1  0.331924  0.250000  0.531680  1
  H  H7  1  0.668076  0.750000  0.468320  1
  Cl  Cl8  1  0.165483  0.250000  0.546466  1
  Cl  Cl9  1  0.834517  0.750000  0.453534  1
  Cl  Cl10  1  0.379299  0.750000  0.433952  1
  Cl  Cl11  1  0.620701  0.250000  0.566048  1
  Cl  Cl12  1  0.076845  0.513116  0.222405  1
  Cl  Cl13  1  0.923155  0.013116  0.777595  1
  Cl  Cl14  1  0.923155  0.486884  0.777595  1
  Cl  Cl15  1  0.076845  0.986884  0.222405  1
  Cl  Cl16  1  0.210587  0.750000  0.992712  1
  Cl  Cl17  1  0.789413  0.250000  0.007288  1
  Cl  Cl18  1  0.522826  0.982823  0.187013  1
  Cl  Cl19  1  0.477174  0.482823  0.812987  1
  Cl  Cl20  1  0.477174  0.017177  0.812987  1
  Cl  Cl21  1  0.522826  0.517177  0.187013  1
