# generated using pymatgen
data_Tm8Cu(Si4Ni)3
_symmetry_space_group_name_H-M   'P 1'
_cell_length_a   7.92212100
_cell_length_b   7.92212022
_cell_length_c   7.96868700
_cell_angle_alpha   90.00000000
_cell_angle_beta   90.00000000
_cell_angle_gamma   119.99999074
_symmetry_Int_Tables_number   1
_chemical_formula_structural   Tm8Cu(Si4Ni)3
_chemical_formula_sum   'Tm8 Cu1 Si12 Ni3'
_cell_volume   433.11212372
_cell_formula_units_Z   1
loop_
 _symmetry_equiv_pos_site_id
 _symmetry_equiv_pos_as_xyz
  1  'x, y, z'
loop_
 _atom_site_type_symbol
 _atom_site_label
 _atom_site_symmetry_multiplicity
 _atom_site_fract_x
 _atom_site_fract_y
 _atom_site_fract_z
 _atom_site_occupancy
  Tm  Tm0  1  0.501388  0.002786  0.248307  1
  Tm  Tm1  1  0.501394  0.002797  0.751652  1
  Tm  Tm2  1  0.997214  0.498611  0.248307  1
  Tm  Tm3  1  0.997202  0.498606  0.751652  1
  Tm  Tm4  1  0.501387  0.498612  0.248307  1
  Tm  Tm5  1  0.501394  0.498606  0.751652  1
  Tm  Tm6  1  0.999996  0.000003  0.249114  1
  Tm  Tm7  1  0.999997  0.000003  0.750818  1
  Cu  Cu8  1  0.333292  0.666701  0.499843  1
  Si  Si9  1  0.171074  0.342159  0.999976  1
  Si  Si10  1  0.829066  0.658137  0.000039  1
  Si  Si11  1  0.657841  0.828925  0.999976  1
  Si  Si12  1  0.828078  0.656162  0.499985  1
  Si  Si13  1  0.341863  0.170934  0.000039  1
  Si  Si14  1  0.167907  0.335824  0.499886  1
  Si  Si15  1  0.171069  0.828929  0.999976  1
  Si  Si16  1  0.343837  0.171922  0.499985  1
  Si  Si17  1  0.829068  0.170932  0.000039  1
  Si  Si18  1  0.664175  0.832092  0.499886  1
  Si  Si19  1  0.828079  0.171920  0.499985  1
  Si  Si20  1  0.167906  0.832093  0.499886  1
  Ni  Ni21  1  0.333287  0.666732  0.000042  1
  Ni  Ni22  1  0.666756  0.333239  0.000287  1
  Ni  Ni23  1  0.666735  0.333271  0.500364  1
