# generated using pymatgen
data_YbHo(Ga2Ag)2
_symmetry_space_group_name_H-M   'P 1'
_cell_length_a   4.35974400
_cell_length_b   7.00719055
_cell_length_c   10.37416639
_cell_angle_alpha   90.86915136
_cell_angle_beta   90.00000000
_cell_angle_gamma   90.00000000
_symmetry_Int_Tables_number   1
_chemical_formula_structural   YbHo(Ga2Ag)2
_chemical_formula_sum   'Yb2 Ho2 Ga8 Ag4'
_cell_volume   316.88972297
_cell_formula_units_Z   2
loop_
 _symmetry_equiv_pos_site_id
 _symmetry_equiv_pos_as_xyz
  1  'x, y, z'
loop_
 _atom_site_type_symbol
 _atom_site_label
 _atom_site_symmetry_multiplicity
 _atom_site_fract_x
 _atom_site_fract_y
 _atom_site_fract_z
 _atom_site_occupancy
  Yb  Yb0  1  0.750000  0.723954  0.328447  1
  Yb  Yb1  1  0.250000  0.276046  0.671553  1
  Ho  Ho2  1  0.250000  0.777565  0.828491  1
  Ho  Ho3  1  0.750000  0.222435  0.171509  1
  Ga  Ga4  1  0.250000  0.702266  0.535458  1
  Ga  Ga5  1  0.750000  0.297734  0.464542  1
  Ga  Ga6  1  0.750000  0.796760  0.035880  1
  Ga  Ga7  1  0.250000  0.203240  0.964120  1
  Ga  Ga8  1  0.250000  0.926942  0.150913  1
  Ga  Ga9  1  0.750000  0.073058  0.849087  1
  Ga  Ga10  1  0.750000  0.572779  0.651875  1
  Ga  Ga11  1  0.250000  0.427221  0.348125  1
  Ag  Ag12  1  0.250000  0.542742  0.099006  1
  Ag  Ag13  1  0.750000  0.457258  0.900994  1
  Ag  Ag14  1  0.750000  0.959294  0.598619  1
  Ag  Ag15  1  0.250000  0.040706  0.401381  1
