# generated using pymatgen
data_Li2MnPd3
_symmetry_space_group_name_H-M   'P 1'
_cell_length_a   4.31457500
_cell_length_b   4.31457477
_cell_length_c   10.53987900
_cell_angle_alpha   90.00000000
_cell_angle_beta   90.00000000
_cell_angle_gamma   120.00000945
_symmetry_Int_Tables_number   1
_chemical_formula_structural   Li2MnPd3
_chemical_formula_sum   'Li4 Mn2 Pd6'
_cell_volume   169.91911504
_cell_formula_units_Z   2
loop_
 _symmetry_equiv_pos_site_id
 _symmetry_equiv_pos_as_xyz
  1  'x, y, z'
loop_
 _atom_site_type_symbol
 _atom_site_label
 _atom_site_symmetry_multiplicity
 _atom_site_fract_x
 _atom_site_fract_y
 _atom_site_fract_z
 _atom_site_occupancy
  Li  Li0  1  0.000000  0.000000  0.500000  1
  Li  Li1  1  0.333333  0.666667  0.165088  1
  Li  Li2  1  0.666667  0.333333  0.834912  1
  Li  Li3  1  0.000000  0.000000  0.000000  1
  Mn  Mn4  1  0.333333  0.666667  0.670006  1
  Mn  Mn5  1  0.666667  0.333333  0.329994  1
  Pd  Pd6  1  0.333333  0.666667  0.417790  1
  Pd  Pd7  1  0.666667  0.333333  0.081410  1
  Pd  Pd8  1  0.000000  0.000000  0.751945  1
  Pd  Pd9  1  0.000000  0.000000  0.248055  1
  Pd  Pd10  1  0.333333  0.666667  0.918590  1
  Pd  Pd11  1  0.666667  0.333333  0.582210  1
