# generated using pymatgen
data_Tb8Zr12Si15Au
_symmetry_space_group_name_H-M   'P 1'
_cell_length_a   7.35661046
_cell_length_b   7.40094825
_cell_length_c   13.57437276
_cell_angle_alpha   89.86648229
_cell_angle_beta   89.90254432
_cell_angle_gamma   89.93940307
_symmetry_Int_Tables_number   1
_chemical_formula_structural   Tb8Zr12Si15Au
_chemical_formula_sum   'Tb8 Zr12 Si15 Au1'
_cell_volume   739.06536548
_cell_formula_units_Z   1
loop_
 _symmetry_equiv_pos_site_id
 _symmetry_equiv_pos_as_xyz
  1  'x, y, z'
loop_
 _atom_site_type_symbol
 _atom_site_label
 _atom_site_symmetry_multiplicity
 _atom_site_fract_x
 _atom_site_fract_y
 _atom_site_fract_z
 _atom_site_occupancy
  Tb  Tb0  1  0.990596  0.349484  0.211916  1
  Tb  Tb1  1  0.004353  0.652883  0.714000  1
  Tb  Tb2  1  0.152746  0.499565  0.465100  1
  Tb  Tb3  1  0.504485  0.844680  0.034650  1
  Tb  Tb4  1  0.846271  0.503178  0.963285  1
  Tb  Tb5  1  0.497283  0.152642  0.539556  1
  Tb  Tb6  1  0.345443  0.998038  0.786610  1
  Tb  Tb7  1  0.660072  0.997273  0.285005  1
  Zr  Zr8  1  0.175855  0.177358  0.998759  1
  Zr  Zr9  1  0.825692  0.823942  0.500522  1
  Zr  Zr10  1  0.324791  0.682410  0.248999  1
  Zr  Zr11  1  0.676320  0.323842  0.750403  1
  Zr  Zr12  1  0.142959  0.996895  0.374388  1
  Zr  Zr13  1  0.854262  0.003581  0.874641  1
  Zr  Zr14  1  0.504345  0.647644  0.625537  1
  Zr  Zr15  1  0.354121  0.495689  0.874682  1
  Zr  Zr16  1  0.493834  0.352307  0.121592  1
  Zr  Zr17  1  0.650395  0.512174  0.380905  1
  Zr  Zr18  1  0.995911  0.145641  0.626413  1
  Zr  Zr19  1  0.000753  0.851175  0.122993  1
  Si  Si20  1  0.639395  0.707990  0.817586  1
  Si  Si21  1  0.206715  0.860925  0.566788  1
  Si  Si22  1  0.139372  0.793908  0.932807  1
  Si  Si23  1  0.794217  0.139473  0.065102  1
  Si  Si24  1  0.857705  0.202810  0.435782  1
  Si  Si25  1  0.294143  0.360880  0.683836  1
  Si  Si26  1  0.704462  0.639602  0.182865  1
  Si  Si27  1  0.292406  0.046230  0.181934  1
  Si  Si28  1  0.705618  0.947536  0.687420  1
  Si  Si29  1  0.445210  0.795636  0.437385  1
  Si  Si30  1  0.204579  0.552442  0.062530  1
  Si  Si31  1  0.551419  0.204230  0.936089  1
  Si  Si32  1  0.795047  0.446848  0.565601  1
  Si  Si33  1  0.051504  0.295374  0.813388  1
  Si  Si34  1  0.949327  0.704861  0.311766  1
  Au  Au35  1  0.368394  0.290859  0.319162  1
