# generated using pymatgen
data_Sc8Mn8Si13Sn
_symmetry_space_group_name_H-M   'P 1'
_cell_length_a   9.66687149
_cell_length_b   9.66669861
_cell_length_c   9.66687074
_cell_angle_alpha   94.11324426
_cell_angle_beta   94.11598485
_cell_angle_gamma   148.92727410
_symmetry_Int_Tables_number   1
_chemical_formula_structural   Sc8Mn8Si13Sn
_chemical_formula_sum   'Sc8 Mn8 Si13 Sn1'
_cell_volume   449.19570514
_cell_formula_units_Z   1
loop_
 _symmetry_equiv_pos_site_id
 _symmetry_equiv_pos_as_xyz
  1  'x, y, z'
loop_
 _atom_site_type_symbol
 _atom_site_label
 _atom_site_symmetry_multiplicity
 _atom_site_fract_x
 _atom_site_fract_y
 _atom_site_fract_z
 _atom_site_occupancy
  Sc  Sc0  1  0.135811  0.135832  0.283382  1
  Sc  Sc1  1  0.852446  0.852413  0.716619  1
  Sc  Sc2  1  0.852452  0.135832  0.000021  1
  Sc  Sc3  1  0.135793  0.852413  0.999968  1
  Sc  Sc4  1  0.505883  0.707282  0.201399  1
  Sc  Sc5  1  0.505878  0.304441  0.798562  1
  Sc  Sc6  1  0.304457  0.505881  0.798581  1
  Sc  Sc7  1  0.707299  0.505881  0.201424  1
  Mn  Mn8  1  0.397653  0.897616  0.795457  1
  Mn  Mn9  1  0.102126  0.602147  0.204498  1
  Mn  Mn10  1  0.102158  0.897616  0.499964  1
  Mn  Mn11  1  0.397649  0.602147  0.500020  1
  Mn  Mn12  1  0.602152  0.397702  0.500003  1
  Mn  Mn13  1  0.897713  0.102219  0.500030  1
  Mn  Mn14  1  0.897700  0.397702  0.795551  1
  Mn  Mn15  1  0.602189  0.102219  0.204506  1
  Si  Si16  1  0.289394  0.289353  0.581615  1
  Si  Si17  1  0.707987  0.707991  0.418373  1
  Si  Si18  1  0.707739  0.289353  0.999960  1
  Si  Si19  1  0.289618  0.707991  0.000004  1
  Si  Si20  1  0.001223  0.299644  0.298421  1
  Si  Si21  1  0.001322  0.702816  0.701495  1
  Si  Si22  1  0.702960  0.001442  0.701565  1
  Si  Si23  1  0.299877  0.001442  0.298483  1
  Si  Si24  1  0.500111  0.910753  0.410642  1
  Si  Si25  1  0.499928  0.089282  0.589354  1
  Si  Si26  1  0.089150  0.499848  0.589386  1
  Si  Si27  1  0.910462  0.499848  0.410697  1
  Si  Si28  1  0.750135  0.750143  0.000008  1
  Sn  Sn29  1  0.250733  0.250748  0.000015  1
