# generated using pymatgen
data_Ti2ZnFe(Co2B)2
_symmetry_space_group_name_H-M   'P 1'
_cell_length_a   8.55363800
_cell_length_b   8.55363800
_cell_length_c   2.90314900
_cell_angle_alpha   90.00000000
_cell_angle_beta   90.00000000
_cell_angle_gamma   90.00000000
_symmetry_Int_Tables_number   1
_chemical_formula_structural   Ti2ZnFe(Co2B)2
_chemical_formula_sum   'Ti4 Zn2 Fe2 Co8 B4'
_cell_volume   212.40809251
_cell_formula_units_Z   2
loop_
 _symmetry_equiv_pos_site_id
 _symmetry_equiv_pos_as_xyz
  1  'x, y, z'
loop_
 _atom_site_type_symbol
 _atom_site_label
 _atom_site_symmetry_multiplicity
 _atom_site_fract_x
 _atom_site_fract_y
 _atom_site_fract_z
 _atom_site_occupancy
  Ti  Ti0  1  0.826099  0.326099  0.000000  1
  Ti  Ti1  1  0.326099  0.173901  0.000000  1
  Ti  Ti2  1  0.673901  0.826099  0.000000  1
  Ti  Ti3  1  0.173901  0.673901  0.000000  1
  Zn  Zn4  1  0.000000  0.000000  0.000000  1
  Zn  Zn5  1  0.500000  0.500000  0.000000  1
  Fe  Fe6  1  0.500000  0.000000  0.500000  1
  Fe  Fe7  1  0.000000  0.500000  0.500000  1
  Co  Co8  1  0.071760  0.219153  0.500000  1
  Co  Co9  1  0.219153  0.928240  0.500000  1
  Co  Co10  1  0.780847  0.071760  0.500000  1
  Co  Co11  1  0.928240  0.780847  0.500000  1
  Co  Co12  1  0.428240  0.719153  0.500000  1
  Co  Co13  1  0.571760  0.280847  0.500000  1
  Co  Co14  1  0.719153  0.571760  0.500000  1
  Co  Co15  1  0.280847  0.428240  0.500000  1
  B  B16  1  0.623508  0.123508  0.000000  1
  B  B17  1  0.123508  0.376492  0.000000  1
  B  B18  1  0.876492  0.623508  0.000000  1
  B  B19  1  0.376492  0.876492  0.000000  1
