# generated using pymatgen
data_La2DyCuSe5
_symmetry_space_group_name_H-M   'P 1'
_cell_length_a   12.29619700
_cell_length_b   4.14472600
_cell_length_c   17.89920900
_cell_angle_alpha   90.00000000
_cell_angle_beta   90.00000000
_cell_angle_gamma   90.00000000
_symmetry_Int_Tables_number   1
_chemical_formula_structural   La2DyCuSe5
_chemical_formula_sum   'La8 Dy4 Cu4 Se20'
_cell_volume   912.22186377
_cell_formula_units_Z   4
loop_
 _symmetry_equiv_pos_site_id
 _symmetry_equiv_pos_as_xyz
  1  'x, y, z'
loop_
 _atom_site_type_symbol
 _atom_site_label
 _atom_site_symmetry_multiplicity
 _atom_site_fract_x
 _atom_site_fract_y
 _atom_site_fract_z
 _atom_site_occupancy
  La  La0  1  0.355237  0.249999  0.104756  1
  La  La1  1  0.007262  0.249999  0.174478  1
  La  La2  1  0.507262  0.249999  0.325522  1
  La  La3  1  0.855237  0.249999  0.395244  1
  La  La4  1  0.144762  0.750001  0.604756  1
  La  La5  1  0.492738  0.750001  0.674478  1
  La  La6  1  0.992738  0.750001  0.825522  1
  La  La7  1  0.644763  0.750001  0.895244  1
  Dy  Dy8  1  0.694583  0.750001  0.134231  1
  Dy  Dy9  1  0.194584  0.750001  0.365770  1
  Dy  Dy10  1  0.805416  0.249999  0.634231  1
  Dy  Dy11  1  0.305417  0.249999  0.865769  1
  Cu  Cu12  1  0.819679  0.249999  0.019761  1
  Cu  Cu13  1  0.319678  0.249999  0.480239  1
  Cu  Cu14  1  0.680321  0.750001  0.519760  1
  Cu  Cu15  1  0.180321  0.750001  0.980240  1
  Se  Se16  1  0.615179  0.249999  0.029918  1
  Se  Se17  1  0.902725  0.750001  0.070076  1
  Se  Se18  1  0.177078  0.750001  0.115258  1
  Se  Se19  1  0.481292  0.750001  0.198414  1
  Se  Se20  1  0.755558  0.249999  0.231199  1
  Se  Se21  1  0.255558  0.249999  0.268801  1
  Se  Se22  1  0.981293  0.750001  0.301585  1
  Se  Se23  1  0.677077  0.750001  0.384743  1
  Se  Se24  1  0.402725  0.750001  0.429924  1
  Se  Se25  1  0.115179  0.249999  0.470082  1
  Se  Se26  1  0.884821  0.750001  0.529918  1
  Se  Se27  1  0.597275  0.249999  0.570077  1
  Se  Se28  1  0.322923  0.249999  0.615258  1
  Se  Se29  1  0.018707  0.249999  0.698414  1
  Se  Se30  1  0.744442  0.750001  0.731199  1
  Se  Se31  1  0.244442  0.750001  0.768800  1
  Se  Se32  1  0.518708  0.249999  0.801585  1
  Se  Se33  1  0.822923  0.249999  0.884743  1
  Se  Se34  1  0.097276  0.249999  0.929924  1
  Se  Se35  1  0.384821  0.750001  0.970082  1
