# generated using pymatgen
data_Dy3Tm7Pb6
_symmetry_space_group_name_H-M   'P 1'
_cell_length_a   8.99562600
_cell_length_b   8.99562447
_cell_length_c   6.54626900
_cell_angle_alpha   89.99980858
_cell_angle_beta   89.99980818
_cell_angle_gamma   120.00071095
_symmetry_Int_Tables_number   1
_chemical_formula_structural   Dy3Tm7Pb6
_chemical_formula_sum   'Dy3 Tm7 Pb6'
_cell_volume   458.75844900
_cell_formula_units_Z   1
loop_
 _symmetry_equiv_pos_site_id
 _symmetry_equiv_pos_as_xyz
  1  'x, y, z'
loop_
 _atom_site_type_symbol
 _atom_site_label
 _atom_site_symmetry_multiplicity
 _atom_site_fract_x
 _atom_site_fract_y
 _atom_site_fract_z
 _atom_site_occupancy
  Dy  Dy0  1  0.763020  0.763021  0.249999  1
  Dy  Dy1  1  0.236983  0.999998  0.250001  1
  Dy  Dy2  1  0.999998  0.236984  0.250001  1
  Tm  Tm3  1  0.666661  0.333332  0.999841  1
  Tm  Tm4  1  0.333331  0.666661  0.999841  1
  Tm  Tm5  1  0.666671  0.333340  0.500157  1
  Tm  Tm6  1  0.333339  0.666671  0.500157  1
  Tm  Tm7  1  0.236579  0.236579  0.749999  1
  Tm  Tm8  1  0.763417  0.000003  0.750001  1
  Tm  Tm9  1  0.000003  0.763418  0.750001  1
  Pb  Pb10  1  0.604694  0.000000  0.249998  1
  Pb  Pb11  1  0.000000  0.604694  0.249998  1
  Pb  Pb12  1  0.395302  0.395301  0.250012  1
  Pb  Pb13  1  0.394636  0.999999  0.749996  1
  Pb  Pb14  1  0.999999  0.394636  0.749996  1
  Pb  Pb15  1  0.605363  0.605364  0.750003  1
