# generated using pymatgen
data_LaLu2(ZnPt)4
_symmetry_space_group_name_H-M   'P 1'
_cell_length_a   8.20823534
_cell_length_b   8.20823603
_cell_length_c   8.20823565
_cell_angle_alpha   151.80029282
_cell_angle_beta   124.55459074
_cell_angle_gamma   63.35270660
_symmetry_Int_Tables_number   1
_chemical_formula_structural   LaLu2(ZnPt)4
_chemical_formula_sum   'La1 Lu2 Zn4 Pt4'
_cell_volume   213.34669393
_cell_formula_units_Z   1
loop_
 _symmetry_equiv_pos_site_id
 _symmetry_equiv_pos_as_xyz
  1  'x, y, z'
loop_
 _atom_site_type_symbol
 _atom_site_label
 _atom_site_symmetry_multiplicity
 _atom_site_fract_x
 _atom_site_fract_y
 _atom_site_fract_z
 _atom_site_occupancy
  La  La0  1  0.500000  0.000000  0.500000  1
  Lu  Lu1  1  0.875598  0.875598  0.000000  1
  Lu  Lu2  1  0.124402  0.124402  0.000000  1
  Zn  Zn3  1  0.476668  0.675132  0.801536  1
  Zn  Zn4  1  0.873595  0.675132  0.198464  1
  Zn  Zn5  1  0.126405  0.324868  0.801536  1
  Zn  Zn6  1  0.523332  0.324868  0.198464  1
  Pt  Pt7  1  0.273504  0.773504  0.500000  1
  Pt  Pt8  1  0.726496  0.226496  0.500000  1
  Pt  Pt9  1  0.814706  0.500000  0.314706  1
  Pt  Pt10  1  0.185294  0.500000  0.685294  1
