# generated using pymatgen
data_Ho6Er2Ti11Si16Hg
_symmetry_space_group_name_H-M   'P 1'
_cell_length_a   7.07219495
_cell_length_b   7.07162010
_cell_length_c   12.90048417
_cell_angle_alpha   90.11778418
_cell_angle_beta   89.89056715
_cell_angle_gamma   89.61446183
_symmetry_Int_Tables_number   1
_chemical_formula_structural   Ho6Er2Ti11Si16Hg
_chemical_formula_sum   'Ho6 Er2 Ti11 Si16 Hg1'
_cell_volume   645.16025050
_cell_formula_units_Z   1
loop_
 _symmetry_equiv_pos_site_id
 _symmetry_equiv_pos_as_xyz
  1  'x, y, z'
loop_
 _atom_site_type_symbol
 _atom_site_label
 _atom_site_symmetry_multiplicity
 _atom_site_fract_x
 _atom_site_fract_y
 _atom_site_fract_z
 _atom_site_occupancy
  Ho  Ho0  1  0.340828  0.001502  0.466901  1
  Ho  Ho1  1  0.497770  0.840535  0.715975  1
  Ho  Ho2  1  0.501687  0.156648  0.215018  1
  Ho  Ho3  1  0.840605  0.497780  0.284038  1
  Ho  Ho4  1  0.156581  0.501676  0.784972  1
  Ho  Ho5  1  0.657135  0.001076  0.968511  1
  Er  Er6  1  0.001177  0.341032  0.533254  1
  Er  Er7  1  0.001228  0.657097  0.031488  1
  Ti  Ti8  1  0.173849  0.826238  0.250623  1
  Ti  Ti9  1  0.826350  0.173916  0.749284  1
  Ti  Ti10  1  0.672461  0.672328  0.500002  1
  Ti  Ti11  1  0.146548  0.009000  0.876831  1
  Ti  Ti12  1  0.496642  0.649921  0.122920  1
  Ti  Ti13  1  0.506281  0.351597  0.623759  1
  Ti  Ti14  1  0.650028  0.496694  0.877091  1
  Ti  Ti15  1  0.351552  0.506185  0.376248  1
  Ti  Ti16  1  0.850142  0.991116  0.374364  1
  Ti  Ti17  1  0.009021  0.146540  0.123198  1
  Ti  Ti18  1  0.991088  0.850124  0.625666  1
  Si  Si19  1  0.201442  0.132789  0.683587  1
  Si  Si20  1  0.373335  0.725719  0.926492  1
  Si  Si21  1  0.632098  0.293197  0.432150  1
  Si  Si22  1  0.725978  0.373833  0.073570  1
  Si  Si23  1  0.293012  0.631712  0.567905  1
  Si  Si24  1  0.798675  0.866257  0.182648  1
  Si  Si25  1  0.132577  0.201710  0.316378  1
  Si  Si26  1  0.866506  0.798532  0.817316  1
  Si  Si27  1  0.286431  0.932775  0.067361  1
  Si  Si28  1  0.546529  0.790598  0.314620  1
  Si  Si29  1  0.458423  0.206295  0.805331  1
  Si  Si30  1  0.790789  0.546309  0.685244  1
  Si  Si31  1  0.206198  0.458569  0.194545  1
  Si  Si32  1  0.708892  0.047670  0.563797  1
  Si  Si33  1  0.933148  0.286857  0.932662  1
  Si  Si34  1  0.047455  0.708484  0.436272  1
  Hg  Hg35  1  0.327539  0.327687  0.999977  1
