# generated using pymatgen
data_TbNd3(MoO6)2
_symmetry_space_group_name_H-M   'P 1'
_cell_length_a   5.52417221
_cell_length_b   10.20474147
_cell_length_c   10.20475506
_cell_angle_alpha   68.58370291
_cell_angle_beta   75.10032070
_cell_angle_gamma   75.10048134
_symmetry_Int_Tables_number   1
_chemical_formula_structural   TbNd3(MoO6)2
_chemical_formula_sum   'Tb2 Nd6 Mo4 O24'
_cell_volume   508.95177095
_cell_formula_units_Z   2
loop_
 _symmetry_equiv_pos_site_id
 _symmetry_equiv_pos_as_xyz
  1  'x, y, z'
loop_
 _atom_site_type_symbol
 _atom_site_label
 _atom_site_symmetry_multiplicity
 _atom_site_fract_x
 _atom_site_fract_y
 _atom_site_fract_z
 _atom_site_occupancy
  Tb  Tb0  1  0.750000  0.396548  0.603452  1
  Tb  Tb1  1  0.250000  0.603452  0.396548  1
  Nd  Nd2  1  0.620015  0.786630  0.553076  1
  Nd  Nd3  1  0.120016  0.553075  0.786630  1
  Nd  Nd4  1  0.379985  0.213371  0.446924  1
  Nd  Nd5  1  0.879986  0.446925  0.213370  1
  Nd  Nd6  1  0.750000  0.864402  0.135598  1
  Nd  Nd7  1  0.250001  0.135598  0.864402  1
  Mo  Mo8  1  0.064267  0.007496  0.297500  1
  Mo  Mo9  1  0.435733  0.702500  0.992504  1
  Mo  Mo10  1  0.935733  0.992502  0.702500  1
  Mo  Mo11  1  0.564267  0.297500  0.007499  1
  O  O12  1  0.924032  0.571566  0.606429  1
  O  O13  1  0.575969  0.393572  0.428434  1
  O  O14  1  0.075970  0.428434  0.393571  1
  O  O15  1  0.424032  0.606428  0.571566  1
  O  O16  1  0.934131  0.807363  0.337562  1
  O  O17  1  0.565867  0.662438  0.192636  1
  O  O18  1  0.065868  0.192638  0.662438  1
  O  O19  1  0.434132  0.337563  0.807363  1
  O  O20  1  0.373001  0.887650  0.328568  1
  O  O21  1  0.126996  0.671432  0.112350  1
  O  O22  1  0.626999  0.112350  0.671431  1
  O  O23  1  0.873001  0.328568  0.887651  1
  O  O24  1  0.633733  0.289773  0.176794  1
  O  O25  1  0.866268  0.823207  0.710227  1
  O  O26  1  0.366269  0.710228  0.823208  1
  O  O27  1  0.133732  0.176792  0.289772  1
  O  O28  1  0.519925  0.116175  0.044550  1
  O  O29  1  0.980076  0.955450  0.883825  1
  O  O30  1  0.763592  0.023870  0.427314  1
  O  O31  1  0.019924  0.044549  0.116175  1
  O  O32  1  0.263595  0.427313  0.023871  1
  O  O33  1  0.236407  0.976129  0.572687  1
  O  O34  1  0.736408  0.572687  0.976129  1
  O  O35  1  0.480076  0.883825  0.955451  1
