# generated using pymatgen
data_Yb5CrMoN7
_symmetry_space_group_name_H-M   'P 1'
_cell_length_a   6.03838966
_cell_length_b   8.54873183
_cell_length_c   8.69795846
_cell_angle_alpha   114.41087287
_cell_angle_beta   97.11637160
_cell_angle_gamma   89.96178493
_symmetry_Int_Tables_number   1
_chemical_formula_structural   Yb5CrMoN7
_chemical_formula_sum   'Yb10 Cr2 Mo2 N14'
_cell_volume   405.07144144
_cell_formula_units_Z   2
loop_
 _symmetry_equiv_pos_site_id
 _symmetry_equiv_pos_as_xyz
  1  'x, y, z'
loop_
 _atom_site_type_symbol
 _atom_site_label
 _atom_site_symmetry_multiplicity
 _atom_site_fract_x
 _atom_site_fract_y
 _atom_site_fract_z
 _atom_site_occupancy
  Yb  Yb0  1  0.839771  0.588363  0.331908  1
  Yb  Yb1  1  0.265950  0.985179  0.564115  1
  Yb  Yb2  1  0.706727  0.414205  0.847483  1
  Yb  Yb3  1  0.293273  0.585795  0.152517  1
  Yb  Yb4  1  0.400900  0.783450  0.913885  1
  Yb  Yb5  1  0.599100  0.216550  0.086115  1
  Yb  Yb6  1  0.160229  0.411637  0.668092  1
  Yb  Yb7  1  0.883098  0.836149  0.750377  1
  Yb  Yb8  1  0.116902  0.163851  0.249623  1
  Yb  Yb9  1  0.734050  0.014821  0.435885  1
  Cr  Cr10  1  0.579230  0.361078  0.477757  1
  Cr  Cr11  1  0.420770  0.638922  0.522243  1
  Mo  Mo12  1  0.117433  0.213445  0.915778  1
  Mo  Mo13  1  0.882567  0.786555  0.084222  1
  N  N14  1  0.548024  0.558045  0.678470  1
  N  N15  1  0.451976  0.441955  0.321530  1
  N  N16  1  0.153974  0.695996  0.560147  1
  N  N17  1  0.846026  0.304004  0.439853  1
  N  N18  1  0.416775  0.195590  0.478236  1
  N  N19  1  0.583225  0.804410  0.521764  1
  N  N20  1  0.938536  0.122370  0.703261  1
  N  N21  1  0.061464  0.877630  0.296739  1
  N  N22  1  0.240218  0.042868  0.973072  1
  N  N23  1  0.759782  0.957132  0.026928  1
  N  N24  1  0.364301  0.333436  0.897710  1
  N  N25  1  0.956906  0.357883  0.089556  1
  N  N26  1  0.043094  0.642117  0.910444  1
  N  N27  1  0.635699  0.666564  0.102290  1
