# generated using pymatgen
data_Pr4ZnCo
_symmetry_space_group_name_H-M   'P 1'
_cell_length_a   9.75810987
_cell_length_b   9.75811024
_cell_length_c   9.75811000
_cell_angle_alpha   60.00000082
_cell_angle_beta   59.99999955
_cell_angle_gamma   60.00000488
_symmetry_Int_Tables_number   1
_chemical_formula_structural   Pr4ZnCo
_chemical_formula_sum   'Pr16 Zn4 Co4'
_cell_volume   657.02538986
_cell_formula_units_Z   4
loop_
 _symmetry_equiv_pos_site_id
 _symmetry_equiv_pos_as_xyz
  1  'x, y, z'
loop_
 _atom_site_type_symbol
 _atom_site_label
 _atom_site_symmetry_multiplicity
 _atom_site_fract_x
 _atom_site_fract_y
 _atom_site_fract_z
 _atom_site_occupancy
  Pr  Pr0  1  0.349110  0.349110  0.349110  1
  Pr  Pr1  1  0.349110  0.349110  0.952669  1
  Pr  Pr2  1  0.349110  0.952669  0.349110  1
  Pr  Pr3  1  0.952669  0.349110  0.349110  1
  Pr  Pr4  1  0.807767  0.192233  0.192233  1
  Pr  Pr5  1  0.192233  0.807767  0.807767  1
  Pr  Pr6  1  0.192233  0.807767  0.192233  1
  Pr  Pr7  1  0.807767  0.192233  0.807767  1
  Pr  Pr8  1  0.192233  0.192233  0.807767  1
  Pr  Pr9  1  0.807767  0.807767  0.192233  1
  Pr  Pr10  1  0.938844  0.561156  0.561156  1
  Pr  Pr11  1  0.561156  0.938844  0.938844  1
  Pr  Pr12  1  0.561156  0.938844  0.561156  1
  Pr  Pr13  1  0.938844  0.561156  0.938844  1
  Pr  Pr14  1  0.561156  0.561156  0.938844  1
  Pr  Pr15  1  0.938844  0.938844  0.561156  1
  Zn  Zn16  1  0.577267  0.577267  0.577267  1
  Zn  Zn17  1  0.577267  0.577267  0.268197  1
  Zn  Zn18  1  0.577267  0.268197  0.577267  1
  Zn  Zn19  1  0.268197  0.577267  0.577267  1
  Co  Co20  1  0.140954  0.140954  0.140954  1
  Co  Co21  1  0.140954  0.140954  0.577137  1
  Co  Co22  1  0.140954  0.577137  0.140954  1
  Co  Co23  1  0.577137  0.140954  0.140954  1
