# generated using pymatgen
data_SmMnNi3(AgO4)3
_symmetry_space_group_name_H-M   'P 1'
_cell_length_a   6.54993389
_cell_length_b   6.54993431
_cell_length_c   6.54993459
_cell_angle_alpha   109.57403596
_cell_angle_beta   109.57404128
_cell_angle_gamma   109.57404023
_symmetry_Int_Tables_number   1
_chemical_formula_structural   SmMnNi3(AgO4)3
_chemical_formula_sum   'Sm1 Mn1 Ni3 Ag3 O12'
_cell_volume   215.48874820
_cell_formula_units_Z   1
loop_
 _symmetry_equiv_pos_site_id
 _symmetry_equiv_pos_as_xyz
  1  'x, y, z'
loop_
 _atom_site_type_symbol
 _atom_site_label
 _atom_site_symmetry_multiplicity
 _atom_site_fract_x
 _atom_site_fract_y
 _atom_site_fract_z
 _atom_site_occupancy
  Sm  Sm0  1  0.000000  0.000000  0.000000  1
  Mn  Mn1  1  0.500000  0.500000  0.500000  1
  Ni  Ni2  1  0.000000  0.000000  0.500000  1
  Ni  Ni3  1  0.000000  0.500000  0.000000  1
  Ni  Ni4  1  0.500000  0.000000  0.000000  1
  Ag  Ag5  1  0.000000  0.500000  0.500000  1
  Ag  Ag6  1  0.500000  0.000000  0.500000  1
  Ag  Ag7  1  0.500000  0.500000  0.000000  1
  O  O8  1  0.292594  0.115934  0.821432  1
  O  O9  1  0.707406  0.884066  0.178568  1
  O  O10  1  0.696107  0.527582  0.814092  1
  O  O11  1  0.472418  0.185908  0.303893  1
  O  O12  1  0.185908  0.303893  0.472418  1
  O  O13  1  0.821432  0.292594  0.115934  1
  O  O14  1  0.884066  0.178568  0.707406  1
  O  O15  1  0.814092  0.696107  0.527582  1
  O  O16  1  0.303893  0.472418  0.185908  1
  O  O17  1  0.527582  0.814092  0.696107  1
  O  O18  1  0.178568  0.707406  0.884066  1
  O  O19  1  0.115934  0.821432  0.292594  1
