# generated using pymatgen
data_Tb2Dy6In3Ni
_symmetry_space_group_name_H-M   'P 1'
_cell_length_a   10.43690500
_cell_length_b   10.43316568
_cell_length_c   6.97340300
_cell_angle_alpha   89.99287193
_cell_angle_beta   90.00000000
_cell_angle_gamma   120.01185354
_symmetry_Int_Tables_number   1
_chemical_formula_structural   Tb2Dy6In3Ni
_chemical_formula_sum   'Tb4 Dy12 In6 Ni2'
_cell_volume   657.52359162
_cell_formula_units_Z   2
loop_
 _symmetry_equiv_pos_site_id
 _symmetry_equiv_pos_as_xyz
  1  'x, y, z'
loop_
 _atom_site_type_symbol
 _atom_site_label
 _atom_site_symmetry_multiplicity
 _atom_site_fract_x
 _atom_site_fract_y
 _atom_site_fract_z
 _atom_site_occupancy
  Tb  Tb0  1  0.532345  0.064690  0.513805  1
  Tb  Tb1  1  0.935440  0.467739  0.514135  1
  Tb  Tb2  1  0.532301  0.467739  0.514135  1
  Tb  Tb3  1  0.467569  0.935139  0.013851  1
  Dy  Dy4  1  0.065073  0.532605  0.014129  1
  Dy  Dy5  1  0.467530  0.532605  0.014129  1
  Dy  Dy6  1  0.176703  0.353405  0.723605  1
  Dy  Dy7  1  0.646668  0.823256  0.723296  1
  Dy  Dy8  1  0.176588  0.823256  0.723296  1
  Dy  Dy9  1  0.823171  0.646343  0.222888  1
  Dy  Dy10  1  0.353375  0.176921  0.223087  1
  Dy  Dy11  1  0.823548  0.176921  0.223087  1
  Dy  Dy12  1  0.666773  0.333545  0.900337  1
  Dy  Dy13  1  0.333216  0.666433  0.399745  1
  Dy  Dy14  1  0.999957  0.999915  0.498892  1
  Dy  Dy15  1  0.000015  0.000030  0.999227  1
  In  In16  1  0.837058  0.674115  0.758080  1
  In  In17  1  0.325863  0.162923  0.757978  1
  In  In18  1  0.837060  0.162923  0.757978  1
  In  In19  1  0.163147  0.326293  0.257619  1
  In  In20  1  0.674119  0.836987  0.257761  1
  In  In21  1  0.162868  0.836987  0.257761  1
  Ni  Ni22  1  0.666577  0.333152  0.287607  1
  Ni  Ni23  1  0.333038  0.666078  0.787773  1
