# generated using pymatgen
data_Tb4Yb(In2Pt)2
_symmetry_space_group_name_H-M   'P 1'
_cell_length_a   3.62961800
_cell_length_b   8.23292800
_cell_length_c   18.46651400
_cell_angle_alpha   90.00000000
_cell_angle_beta   90.00000000
_cell_angle_gamma   90.00000000
_symmetry_Int_Tables_number   1
_chemical_formula_structural   Tb4Yb(In2Pt)2
_chemical_formula_sum   'Tb8 Yb2 In8 Pt4'
_cell_volume   551.82345624
_cell_formula_units_Z   2
loop_
 _symmetry_equiv_pos_site_id
 _symmetry_equiv_pos_as_xyz
  1  'x, y, z'
loop_
 _atom_site_type_symbol
 _atom_site_label
 _atom_site_symmetry_multiplicity
 _atom_site_fract_x
 _atom_site_fract_y
 _atom_site_fract_z
 _atom_site_occupancy
  Tb  Tb0  1  0.000000  0.118256  0.414397  1
  Tb  Tb1  1  0.000000  0.881744  0.585603  1
  Tb  Tb2  1  0.000000  0.381744  0.914397  1
  Tb  Tb3  1  0.000000  0.618256  0.085603  1
  Tb  Tb4  1  0.000000  0.243746  0.220053  1
  Tb  Tb5  1  0.000000  0.756254  0.779947  1
  Tb  Tb6  1  0.000000  0.256254  0.720053  1
  Tb  Tb7  1  0.000000  0.743746  0.279947  1
  Yb  Yb8  1  0.000000  0.000000  0.000000  1
  Yb  Yb9  1  0.000000  0.500000  0.500000  1
  In  In10  1  0.500000  0.424668  0.351081  1
  In  In11  1  0.500000  0.575332  0.648919  1
  In  In12  1  0.500000  0.075332  0.851081  1
  In  In13  1  0.500000  0.924668  0.148919  1
  In  In14  1  0.500000  0.291721  0.067125  1
  In  In15  1  0.500000  0.708279  0.932875  1
  In  In16  1  0.500000  0.208279  0.567125  1
  In  In17  1  0.500000  0.791721  0.432875  1
  Pt  Pt18  1  0.500000  0.024137  0.302903  1
  Pt  Pt19  1  0.500000  0.975863  0.697097  1
  Pt  Pt20  1  0.500000  0.475863  0.802903  1
  Pt  Pt21  1  0.500000  0.524137  0.197097  1
