# generated using pymatgen
data_Sc3Pa(Ga3Ir)6
_symmetry_space_group_name_H-M   'P 1'
_cell_length_a   7.56110086
_cell_length_b   7.55067652
_cell_length_c   9.36969100
_cell_angle_alpha   90.00000000
_cell_angle_beta   90.00000000
_cell_angle_gamma   119.94977014
_symmetry_Int_Tables_number   1
_chemical_formula_structural   Sc3Pa(Ga3Ir)6
_chemical_formula_sum   'Sc3 Pa1 Ga18 Ir6'
_cell_volume   463.49642810
_cell_formula_units_Z   1
loop_
 _symmetry_equiv_pos_site_id
 _symmetry_equiv_pos_as_xyz
  1  'x, y, z'
loop_
 _atom_site_type_symbol
 _atom_site_label
 _atom_site_symmetry_multiplicity
 _atom_site_fract_x
 _atom_site_fract_y
 _atom_site_fract_z
 _atom_site_occupancy
  Sc  Sc0  1  0.003490  0.329134  0.750000  1
  Sc  Sc1  1  0.672764  0.996061  0.250000  1
  Sc  Sc2  1  0.328719  0.002741  0.750000  1
  Pa  Pa3  1  0.997232  0.670848  0.250000  1
  Ga  Ga4  1  0.131070  0.132536  0.250000  1
  Ga  Ga5  1  0.875359  0.878360  0.750000  1
  Ga  Ga6  1  0.995516  0.327492  0.079918  1
  Ga  Ga7  1  0.004790  0.664814  0.909270  1
  Ga  Ga8  1  0.004790  0.664814  0.590730  1
  Ga  Ga9  1  0.343298  0.003064  0.419897  1
  Ga  Ga10  1  0.995516  0.327492  0.420082  1
  Ga  Ga11  1  0.665238  0.005562  0.584476  1
  Ga  Ga12  1  0.665238  0.005562  0.915524  1
  Ga  Ga13  1  0.343298  0.003064  0.080103  1
  Ga  Ga14  1  0.327182  0.327259  0.572281  1
  Ga  Ga15  1  0.663155  0.670216  0.435790  1
  Ga  Ga16  1  0.663155  0.670216  0.064210  1
  Ga  Ga17  1  0.327182  0.327259  0.927719  1
  Ga  Ga18  1  0.343672  0.550376  0.250000  1
  Ga  Ga19  1  0.656903  0.445552  0.750000  1
  Ga  Ga20  1  0.545588  0.340610  0.250000  1
  Ga  Ga21  1  0.446510  0.659831  0.750000  1
  Ir  Ir22  1  0.675002  0.332565  0.001660  1
  Ir  Ir23  1  0.325030  0.670735  0.001328  1
  Ir  Ir24  1  0.325030  0.670735  0.498672  1
  Ir  Ir25  1  0.675002  0.332565  0.498340  1
  Ir  Ir26  1  0.000137  0.995268  0.002607  1
  Ir  Ir27  1  0.000137  0.995268  0.497393  1
