# generated using pymatgen
data_CsPS6
_symmetry_space_group_name_H-M   'P 1'
_cell_length_a   6.92025100
_cell_length_b   12.44786500
_cell_length_c   11.68974800
_cell_angle_alpha   90.00000000
_cell_angle_beta   90.00000000
_cell_angle_gamma   90.00000000
_symmetry_Int_Tables_number   1
_chemical_formula_structural   CsPS6
_chemical_formula_sum   'Cs4 P4 S24'
_cell_volume   1006.98236613
_cell_formula_units_Z   4
loop_
 _symmetry_equiv_pos_site_id
 _symmetry_equiv_pos_as_xyz
  1  'x, y, z'
loop_
 _atom_site_type_symbol
 _atom_site_label
 _atom_site_symmetry_multiplicity
 _atom_site_fract_x
 _atom_site_fract_y
 _atom_site_fract_z
 _atom_site_occupancy
  Cs  Cs0  1  0.713323  0.629371  0.373436  1
  Cs  Cs1  1  0.286677  0.129371  0.626564  1
  Cs  Cs2  1  0.286677  0.629371  0.873436  1
  Cs  Cs3  1  0.713323  0.129371  0.126564  1
  P  P4  1  0.307671  0.816418  0.166049  1
  P  P5  1  0.307671  0.316418  0.333951  1
  P  P6  1  0.692329  0.816418  0.666049  1
  P  P7  1  0.692329  0.316418  0.833951  1
  S  S8  1  0.104394  0.205431  0.345843  1
  S  S9  1  0.104394  0.705431  0.154157  1
  S  S10  1  0.895606  0.205431  0.845843  1
  S  S11  1  0.895606  0.705431  0.654157  1
  S  S12  1  0.220106  0.967287  0.082183  1
  S  S13  1  0.779894  0.467287  0.917817  1
  S  S14  1  0.779894  0.967287  0.582183  1
  S  S15  1  0.220106  0.467287  0.417817  1
  S  S16  1  0.263011  0.934936  0.911778  1
  S  S17  1  0.736989  0.434936  0.088222  1
  S  S18  1  0.736989  0.934936  0.411778  1
  S  S19  1  0.263011  0.434936  0.588222  1
  S  S20  1  0.536196  0.993194  0.864134  1
  S  S21  1  0.463804  0.493194  0.135866  1
  S  S22  1  0.463804  0.993194  0.364134  1
  S  S23  1  0.536196  0.493194  0.635866  1
  S  S24  1  0.728330  0.868430  0.841170  1
  S  S25  1  0.271670  0.368430  0.158830  1
  S  S26  1  0.271670  0.868430  0.341170  1
  S  S27  1  0.728330  0.368430  0.658830  1
  S  S28  1  0.577768  0.786845  0.123040  1
  S  S29  1  0.422232  0.286845  0.876960  1
  S  S30  1  0.422232  0.786845  0.623040  1
  S  S31  1  0.577768  0.286845  0.376960  1
