# generated using pymatgen
data_La6HoNi16
_symmetry_space_group_name_H-M   'P 1'
_cell_length_a   7.26684639
_cell_length_b   7.26684503
_cell_length_c   8.85608392
_cell_angle_alpha   114.22206594
_cell_angle_beta   114.22206758
_cell_angle_gamma   90.00000285
_symmetry_Int_Tables_number   1
_chemical_formula_structural   La6HoNi16
_chemical_formula_sum   'La6 Ho1 Ni16'
_cell_volume   380.89473073
_cell_formula_units_Z   1
loop_
 _symmetry_equiv_pos_site_id
 _symmetry_equiv_pos_as_xyz
  1  'x, y, z'
loop_
 _atom_site_type_symbol
 _atom_site_label
 _atom_site_symmetry_multiplicity
 _atom_site_fract_x
 _atom_site_fract_y
 _atom_site_fract_z
 _atom_site_occupancy
  La  La0  1  0.403688  0.403688  0.207694  1
  La  La1  1  0.804005  0.804005  0.207694  1
  La  La2  1  0.750000  0.250000  0.499999  1
  La  La3  1  0.250000  0.750000  0.499999  1
  La  La4  1  0.596312  0.195995  0.792306  1
  La  La5  1  0.195995  0.596312  0.792306  1
  Ho  Ho6  1  0.000000  0.000000  0.000000  1
  Ni  Ni7  1  0.700203  0.181028  0.129418  1
  Ni  Ni8  1  0.948390  0.429216  0.129418  1
  Ni  Ni9  1  0.181028  0.700203  0.129418  1
  Ni  Ni10  1  0.429216  0.948390  0.129418  1
  Ni  Ni11  1  0.300263  0.065983  0.366248  1
  Ni  Ni12  1  0.065983  0.300263  0.366248  1
  Ni  Ni13  1  0.836196  0.560512  0.396708  1
  Ni  Ni14  1  0.560512  0.836196  0.396708  1
  Ni  Ni15  1  0.163804  0.163804  0.603293  1
  Ni  Ni16  1  0.439488  0.439488  0.603293  1
  Ni  Ni17  1  0.699735  0.699735  0.633751  1
  Ni  Ni18  1  0.934016  0.934016  0.633751  1
  Ni  Ni19  1  0.299798  0.051610  0.870582  1
  Ni  Ni20  1  0.051610  0.299798  0.870582  1
  Ni  Ni21  1  0.818972  0.570785  0.870582  1
  Ni  Ni22  1  0.570785  0.818972  0.870582  1
