# generated using pymatgen
data_Zr8Tc3Ru4Rh
_symmetry_space_group_name_H-M   'P 1'
_cell_length_a   6.58430400
_cell_length_b   6.58601100
_cell_length_c   6.55935100
_cell_angle_alpha   90.00000000
_cell_angle_beta   90.00036617
_cell_angle_gamma   90.00000000
_symmetry_Int_Tables_number   1
_chemical_formula_structural   Zr8Tc3Ru4Rh
_chemical_formula_sum   'Zr8 Tc3 Ru4 Rh1'
_cell_volume   284.44165520
_cell_formula_units_Z   1
loop_
 _symmetry_equiv_pos_site_id
 _symmetry_equiv_pos_as_xyz
  1  'x, y, z'
loop_
 _atom_site_type_symbol
 _atom_site_label
 _atom_site_symmetry_multiplicity
 _atom_site_fract_x
 _atom_site_fract_y
 _atom_site_fract_z
 _atom_site_occupancy
  Zr  Zr0  1  0.998772  0.498332  0.251349  1
  Zr  Zr1  1  0.998772  0.001669  0.251349  1
  Zr  Zr2  1  0.501852  0.001745  0.251335  1
  Zr  Zr3  1  0.501852  0.498254  0.251335  1
  Zr  Zr4  1  0.501229  0.498337  0.748643  1
  Zr  Zr5  1  0.501229  0.001664  0.748643  1
  Zr  Zr6  1  0.998153  0.001748  0.748643  1
  Zr  Zr7  1  0.998153  0.498251  0.748643  1
  Tc  Tc8  1  0.749961  0.250000  0.499772  1
  Tc  Tc9  1  0.250042  0.750000  0.500238  1
  Tc  Tc10  1  0.750048  0.250000  0.999785  1
  Ru  Ru11  1  0.750049  0.750000  0.000075  1
  Ru  Ru12  1  0.250030  0.250000  0.499912  1
  Ru  Ru13  1  0.749973  0.750000  0.500075  1
  Ru  Ru14  1  0.249973  0.250000  0.999896  1
  Rh  Rh15  1  0.249909  0.750000  0.000304  1
