# generated using pymatgen
data_Dy5Mg2P12Ru17
_symmetry_space_group_name_H-M   'P 1'
_cell_length_a   12.76774400
_cell_length_b   12.57989054
_cell_length_c   3.97705500
_cell_angle_alpha   90.00000000
_cell_angle_beta   90.00000000
_cell_angle_gamma   120.49522132
_symmetry_Int_Tables_number   1
_chemical_formula_structural   Dy5Mg2P12Ru17
_chemical_formula_sum   'Dy5 Mg2 P12 Ru17'
_cell_volume   550.42018030
_cell_formula_units_Z   1
loop_
 _symmetry_equiv_pos_site_id
 _symmetry_equiv_pos_as_xyz
  1  'x, y, z'
loop_
 _atom_site_type_symbol
 _atom_site_label
 _atom_site_symmetry_multiplicity
 _atom_site_fract_x
 _atom_site_fract_y
 _atom_site_fract_z
 _atom_site_occupancy
  Dy  Dy0  1  0.336119  0.674110  0.500000  1
  Dy  Dy1  1  0.662008  0.325890  0.500000  1
  Dy  Dy2  1  0.001787  0.819959  0.000000  1
  Dy  Dy3  1  0.181828  0.180041  0.000000  1
  Dy  Dy4  1  0.818365  0.000000  0.000000  1
  Mg  Mg5  1  0.999911  0.438303  0.500000  1
  Mg  Mg6  1  0.561609  0.561697  0.500000  1
  P  P7  1  0.998353  0.637886  0.500000  1
  P  P8  1  0.360466  0.362114  0.500000  1
  P  P9  1  0.622962  0.000000  0.500000  1
  P  P10  1  0.521119  0.699155  0.000000  1
  P  P11  1  0.309814  0.831191  0.000000  1
  P  P12  1  0.183254  0.484317  0.000000  1
  P  P13  1  0.478623  0.168809  0.000000  1
  P  P14  1  0.698938  0.515683  0.000000  1
  P  P15  1  0.821963  0.300845  0.000000  1
  P  P16  1  0.999534  0.186886  0.500000  1
  P  P17  1  0.812648  0.813114  0.500000  1
  P  P18  1  0.182598  0.000000  0.500000  1
  Ru  Ru19  1  0.509038  0.876424  0.000000  1
  Ru  Ru20  1  0.128917  0.635882  0.000000  1
  Ru  Ru21  1  0.369000  0.487286  0.000000  1
  Ru  Ru22  1  0.493036  0.364118  0.000000  1
  Ru  Ru23  1  0.881716  0.512714  0.000000  1
  Ru  Ru24  1  0.632615  0.123576  0.000000  1
  Ru  Ru25  1  0.442871  0.000000  0.500000  1
  Ru  Ru26  1  0.000439  0.283264  0.000000  1
  Ru  Ru27  1  0.717175  0.716736  0.000000  1
  Ru  Ru28  1  0.283251  0.000000  0.000000  1
  Ru  Ru29  1  0.622578  0.808940  0.500000  1
  Ru  Ru30  1  0.192204  0.816304  0.500000  1
  Ru  Ru31  1  0.185048  0.382121  0.500000  1
  Ru  Ru32  1  0.375900  0.183696  0.500000  1
  Ru  Ru33  1  0.802926  0.617879  0.500000  1
  Ru  Ru34  1  0.813638  0.191060  0.500000  1
  Ru  Ru35  1  0.997746  0.000000  0.500000  1
