# generated using pymatgen
data_Np3ScO10
_symmetry_space_group_name_H-M   'P 1'
_cell_length_a   5.62129326
_cell_length_b   5.61679406
_cell_length_c   7.73660989
_cell_angle_alpha   69.94174763
_cell_angle_beta   70.72510353
_cell_angle_gamma   72.57982393
_symmetry_Int_Tables_number   1
_chemical_formula_structural   Np3ScO10
_chemical_formula_sum   'Np3 Sc1 O10'
_cell_volume   211.76701810
_cell_formula_units_Z   1
loop_
 _symmetry_equiv_pos_site_id
 _symmetry_equiv_pos_as_xyz
  1  'x, y, z'
loop_
 _atom_site_type_symbol
 _atom_site_label
 _atom_site_symmetry_multiplicity
 _atom_site_fract_x
 _atom_site_fract_y
 _atom_site_fract_z
 _atom_site_occupancy
  Np  Np0  1  0.958677  0.026972  0.269313  1
  Np  Np1  1  0.500000  0.500000  0.000000  1
  Np  Np2  1  0.041323  0.973028  0.730687  1
  Sc  Sc3  1  0.500000  0.500000  0.500000  1
  O  O4  1  0.409285  0.589160  0.756622  1
  O  O5  1  0.265746  0.204115  0.628306  1
  O  O6  1  0.734254  0.795885  0.371694  1
  O  O7  1  0.189222  0.256611  0.148062  1
  O  O8  1  0.590715  0.410840  0.243378  1
  O  O9  1  0.810778  0.743389  0.851938  1
  O  O10  1  0.213688  0.804946  0.038717  1
  O  O11  1  0.815131  0.200031  0.532504  1
  O  O12  1  0.786312  0.195054  0.961283  1
  O  O13  1  0.184869  0.799969  0.467496  1
