# generated using pymatgen
data_Pr3(SiIr)2
_symmetry_space_group_name_H-M   'P 1'
_cell_length_a   5.85950957
_cell_length_b   5.85950986
_cell_length_c   13.52191800
_cell_angle_alpha   90.00000000
_cell_angle_beta   90.00000000
_cell_angle_gamma   138.19611038
_symmetry_Int_Tables_number   1
_chemical_formula_structural   Pr3(SiIr)2
_chemical_formula_sum   'Pr6 Si4 Ir4'
_cell_volume   309.46756579
_cell_formula_units_Z   2
loop_
 _symmetry_equiv_pos_site_id
 _symmetry_equiv_pos_as_xyz
  1  'x, y, z'
loop_
 _atom_site_type_symbol
 _atom_site_label
 _atom_site_symmetry_multiplicity
 _atom_site_fract_x
 _atom_site_fract_y
 _atom_site_fract_z
 _atom_site_occupancy
  Pr  Pr0  1  0.771545  0.228455  0.603058  1
  Pr  Pr1  1  0.518331  0.481669  0.250000  1
  Pr  Pr2  1  0.228455  0.771545  0.396942  1
  Pr  Pr3  1  0.771545  0.228455  0.896942  1
  Pr  Pr4  1  0.481669  0.518331  0.750000  1
  Pr  Pr5  1  0.228455  0.771545  0.103058  1
  Si  Si6  1  0.060048  0.939952  0.587330  1
  Si  Si7  1  0.060048  0.939952  0.912670  1
  Si  Si8  1  0.939952  0.060048  0.412670  1
  Si  Si9  1  0.939952  0.060048  0.087330  1
  Ir  Ir10  1  0.817776  0.182224  0.250000  1
  Ir  Ir11  1  0.182224  0.817776  0.750000  1
  Ir  Ir12  1  0.500000  0.500000  0.000000  1
  Ir  Ir13  1  0.500000  0.500000  0.500000  1
