# generated using pymatgen
data_Rb2Ge3WO9
_symmetry_space_group_name_H-M   'P 1'
_cell_length_a   12.46049600
_cell_length_b   12.46049593
_cell_length_c   10.28620000
_cell_angle_alpha   90.00000000
_cell_angle_beta   90.00000000
_cell_angle_gamma   120.00000018
_symmetry_Int_Tables_number   1
_chemical_formula_structural   Rb2Ge3WO9
_chemical_formula_sum   'Rb12 Ge18 W6 O54'
_cell_volume   1383.10850847
_cell_formula_units_Z   6
loop_
 _symmetry_equiv_pos_site_id
 _symmetry_equiv_pos_as_xyz
  1  'x, y, z'
loop_
 _atom_site_type_symbol
 _atom_site_label
 _atom_site_symmetry_multiplicity
 _atom_site_fract_x
 _atom_site_fract_y
 _atom_site_fract_z
 _atom_site_occupancy
  Rb  Rb0  1  0.000661  0.337040  0.425891  1
  Rb  Rb1  1  0.663621  0.662960  0.074109  1
  Rb  Rb2  1  0.337040  0.336379  0.574109  1
  Rb  Rb3  1  0.663621  0.000661  0.574109  1
  Rb  Rb4  1  0.337040  0.000661  0.074109  1
  Rb  Rb5  1  0.336379  0.337040  0.925891  1
  Rb  Rb6  1  0.000661  0.663621  0.925891  1
  Rb  Rb7  1  0.999339  0.336379  0.074109  1
  Rb  Rb8  1  0.336379  0.999339  0.425891  1
  Rb  Rb9  1  0.999339  0.662960  0.574109  1
  Rb  Rb10  1  0.662960  0.999339  0.925891  1
  Rb  Rb11  1  0.662960  0.663621  0.425891  1
  Ge  Ge12  1  0.332869  0.477274  0.216359  1
  Ge  Ge13  1  0.477274  0.332869  0.283641  1
  Ge  Ge14  1  0.000000  0.818755  0.250000  1
  Ge  Ge15  1  0.522726  0.667131  0.716359  1
  Ge  Ge16  1  0.855596  0.522726  0.283641  1
  Ge  Ge17  1  0.855596  0.332869  0.783641  1
  Ge  Ge18  1  0.144404  0.667131  0.216359  1
  Ge  Ge19  1  0.332869  0.855596  0.716359  1
  Ge  Ge20  1  0.818755  0.818755  0.750000  1
  Ge  Ge21  1  0.522726  0.855596  0.216359  1
  Ge  Ge22  1  0.667131  0.522726  0.783641  1
  Ge  Ge23  1  0.181245  0.000000  0.750000  1
  Ge  Ge24  1  0.477274  0.144404  0.783641  1
  Ge  Ge25  1  0.000000  0.181245  0.750000  1
  Ge  Ge26  1  0.144404  0.477274  0.716359  1
  Ge  Ge27  1  0.818755  0.000000  0.250000  1
  Ge  Ge28  1  0.181245  0.181245  0.250000  1
  Ge  Ge29  1  0.667131  0.144404  0.283641  1
  W  W30  1  0.333333  0.666667  0.464096  1
  W  W31  1  0.666667  0.333333  0.535904  1
  W  W32  1  0.666667  0.333333  0.035904  1
  W  W33  1  0.333333  0.666667  0.964096  1
  W  W34  1  0.000000  0.000000  0.500000  1
  W  W35  1  0.000000  0.000000  0.000000  1
  O  O36  1  0.890634  0.214257  0.831943  1
  O  O37  1  0.266853  0.509688  0.348573  1
  O  O38  1  0.607320  0.426275  0.918666  1
  O  O39  1  0.818955  0.426275  0.418666  1
  O  O40  1  0.733147  0.242835  0.151427  1
  O  O41  1  0.000000  0.470384  0.750000  1
  O  O42  1  0.392680  0.818955  0.581334  1
  O  O43  1  0.242835  0.733147  0.348573  1
  O  O44  1  0.076034  0.153616  0.376254  1
  O  O45  1  0.490312  0.733147  0.848573  1
  O  O46  1  0.607320  0.181045  0.418666  1
  O  O47  1  0.785743  0.676378  0.831943  1
  O  O48  1  0.490312  0.757165  0.348573  1
  O  O49  1  0.242835  0.509688  0.848573  1
  O  O50  1  0.923966  0.077582  0.123746  1
  O  O51  1  0.153616  0.076034  0.123746  1
  O  O52  1  0.676378  0.785743  0.668057  1
  O  O53  1  0.426275  0.607320  0.581334  1
  O  O54  1  0.922418  0.846384  0.123746  1
  O  O55  1  0.109366  0.323622  0.668057  1
  O  O56  1  0.266853  0.757165  0.848573  1
  O  O57  1  0.529616  0.000000  0.250000  1
  O  O58  1  0.757165  0.266853  0.651427  1
  O  O59  1  0.470384  0.000000  0.750000  1
  O  O60  1  0.214257  0.323622  0.168057  1
  O  O61  1  0.153616  0.077582  0.623746  1
  O  O62  1  0.922418  0.076034  0.623746  1
  O  O63  1  0.890634  0.676378  0.331943  1
  O  O64  1  0.470384  0.470384  0.250000  1
  O  O65  1  0.509688  0.242835  0.651427  1
  O  O66  1  0.573725  0.392680  0.418666  1
  O  O67  1  0.785743  0.109366  0.331943  1
  O  O68  1  0.323622  0.214257  0.331943  1
  O  O69  1  0.846384  0.923966  0.876254  1
  O  O70  1  0.733147  0.490312  0.651427  1
  O  O71  1  0.000000  0.529616  0.250000  1
  O  O72  1  0.509688  0.266853  0.151427  1
  O  O73  1  0.323622  0.109366  0.831943  1
  O  O74  1  0.757165  0.490312  0.151427  1
  O  O75  1  0.573725  0.181045  0.918666  1
  O  O76  1  0.426275  0.818955  0.081334  1
  O  O77  1  0.818955  0.392680  0.918666  1
  O  O78  1  0.077582  0.153616  0.876254  1
  O  O79  1  0.076034  0.922418  0.876254  1
  O  O80  1  0.676378  0.890634  0.168057  1
  O  O81  1  0.181045  0.607320  0.081334  1
  O  O82  1  0.214257  0.890634  0.668057  1
  O  O83  1  0.109366  0.785743  0.168057  1
  O  O84  1  0.923966  0.846384  0.623746  1
  O  O85  1  0.529616  0.529616  0.750000  1
  O  O86  1  0.392680  0.573725  0.081334  1
  O  O87  1  0.181045  0.573725  0.581334  1
  O  O88  1  0.077582  0.923966  0.376254  1
  O  O89  1  0.846384  0.922418  0.376254  1
