# generated using pymatgen
data_Cs2CoIr3S8
_symmetry_space_group_name_H-M   'P 1'
_cell_length_a   6.30198100
_cell_length_b   6.78720500
_cell_length_c   16.19341900
_cell_angle_alpha   90.00000000
_cell_angle_beta   90.00000000
_cell_angle_gamma   90.00000000
_symmetry_Int_Tables_number   1
_chemical_formula_structural   Cs2CoIr3S8
_chemical_formula_sum   'Cs4 Co2 Ir6 S16'
_cell_volume   692.63847060
_cell_formula_units_Z   2
loop_
 _symmetry_equiv_pos_site_id
 _symmetry_equiv_pos_as_xyz
  1  'x, y, z'
loop_
 _atom_site_type_symbol
 _atom_site_label
 _atom_site_symmetry_multiplicity
 _atom_site_fract_x
 _atom_site_fract_y
 _atom_site_fract_z
 _atom_site_occupancy
  Cs  Cs0  1  0.382882  0.000000  0.000000  1
  Cs  Cs1  1  0.625212  0.500000  0.500000  1
  Cs  Cs2  1  0.011032  0.000000  0.500000  1
  Cs  Cs3  1  0.960651  0.500000  0.000000  1
  Co  Co4  1  0.003003  0.000000  0.250063  1
  Co  Co5  1  0.003003  0.000000  0.749937  1
  Ir  Ir6  1  0.998594  0.500000  0.248267  1
  Ir  Ir7  1  0.998594  0.500000  0.751733  1
  Ir  Ir8  1  0.501138  0.221080  0.247546  1
  Ir  Ir9  1  0.501138  0.778920  0.752454  1
  Ir  Ir10  1  0.501138  0.778920  0.247546  1
  Ir  Ir11  1  0.501138  0.221080  0.752454  1
  S  S12  1  0.832443  0.237985  0.323585  1
  S  S13  1  0.832443  0.762015  0.676415  1
  S  S14  1  0.165765  0.763466  0.173830  1
  S  S15  1  0.165765  0.236534  0.826170  1
  S  S16  1  0.165765  0.236534  0.173830  1
  S  S17  1  0.165765  0.763466  0.826170  1
  S  S18  1  0.832443  0.762015  0.323585  1
  S  S19  1  0.832443  0.237985  0.676415  1
  S  S20  1  0.714130  0.000000  0.170272  1
  S  S21  1  0.714130  0.000000  0.829728  1
  S  S22  1  0.333328  0.500000  0.316092  1
  S  S23  1  0.333328  0.500000  0.683908  1
  S  S24  1  0.298896  0.000000  0.327011  1
  S  S25  1  0.298896  0.000000  0.672989  1
  S  S26  1  0.663469  0.500000  0.179985  1
  S  S27  1  0.663469  0.500000  0.820015  1
