# generated using pymatgen
data_Mg4Ge6Ir4Pt3
_symmetry_space_group_name_H-M   'P 1'
_cell_length_a   7.11033721
_cell_length_b   7.10778440
_cell_length_c   7.11033800
_cell_angle_alpha   109.46393952
_cell_angle_beta   109.47849250
_cell_angle_gamma   109.46395446
_symmetry_Int_Tables_number   1
_chemical_formula_structural   Mg4Ge6Ir4Pt3
_chemical_formula_sum   'Mg4 Ge6 Ir4 Pt3'
_cell_volume   276.65070453
_cell_formula_units_Z   1
loop_
 _symmetry_equiv_pos_site_id
 _symmetry_equiv_pos_as_xyz
  1  'x, y, z'
loop_
 _atom_site_type_symbol
 _atom_site_label
 _atom_site_symmetry_multiplicity
 _atom_site_fract_x
 _atom_site_fract_y
 _atom_site_fract_z
 _atom_site_occupancy
  Mg  Mg0  1  0.499707  0.500000  0.500293  1
  Mg  Mg1  1  0.000000  0.500000  0.000000  1
  Mg  Mg2  1  0.000587  0.000293  0.500293  1
  Mg  Mg3  1  0.499707  0.999707  0.999413  1
  Ge  Ge4  1  0.696495  0.999455  0.685695  1
  Ge  Ge5  1  0.314305  0.000545  0.303505  1
  Ge  Ge6  1  0.989200  0.302960  0.303505  1
  Ge  Ge7  1  0.989200  0.686241  0.685695  1
  Ge  Ge8  1  0.696495  0.697040  0.010800  1
  Ge  Ge9  1  0.314305  0.313759  0.010800  1
  Ir  Ir10  1  0.499094  0.749548  0.249548  1
  Ir  Ir11  1  0.750452  0.500000  0.249548  1
  Ir  Ir12  1  0.000000  0.000000  0.000000  1
  Ir  Ir13  1  0.750452  0.250452  0.500906  1
  Pt  Pt14  1  0.250495  0.500000  0.749505  1
  Pt  Pt15  1  0.250495  0.750495  0.500989  1
  Pt  Pt16  1  0.499011  0.249505  0.749505  1
