# generated using pymatgen
data_Ho2ErTm(NiP)4
_symmetry_space_group_name_H-M   'P 1'
_cell_length_a   3.88756600
_cell_length_b   3.88756484
_cell_length_c   15.29049700
_cell_angle_alpha   90.00000000
_cell_angle_beta   90.00000000
_cell_angle_gamma   120.00002687
_symmetry_Int_Tables_number   1
_chemical_formula_structural   Ho2ErTm(NiP)4
_chemical_formula_sum   'Ho2 Er1 Tm1 Ni4 P4'
_cell_volume   200.12785335
_cell_formula_units_Z   1
loop_
 _symmetry_equiv_pos_site_id
 _symmetry_equiv_pos_as_xyz
  1  'x, y, z'
loop_
 _atom_site_type_symbol
 _atom_site_label
 _atom_site_symmetry_multiplicity
 _atom_site_fract_x
 _atom_site_fract_y
 _atom_site_fract_z
 _atom_site_occupancy
  Ho  Ho0  1  0.000000  0.000000  0.499994  1
  Ho  Ho1  1  0.000000  0.000000  0.000006  1
  Er  Er2  1  0.000000  0.000000  0.250000  1
  Tm  Tm3  1  0.000000  0.000000  0.750000  1
  Ni  Ni4  1  0.333333  0.666667  0.370089  1
  Ni  Ni5  1  0.666667  0.333333  0.630153  1
  Ni  Ni6  1  0.666667  0.333333  0.869847  1
  Ni  Ni7  1  0.333333  0.666667  0.129911  1
  P  P8  1  0.333333  0.666667  0.876944  1
  P  P9  1  0.666667  0.333333  0.122951  1
  P  P10  1  0.666667  0.333333  0.377049  1
  P  P11  1  0.333333  0.666667  0.623056  1
