# generated using pymatgen
data_Dy8Ti11NbSi16
_symmetry_space_group_name_H-M   'P 1'
_cell_length_a   7.05684792
_cell_length_b   7.05684792
_cell_length_c   12.98418680
_cell_angle_alpha   90.05322021
_cell_angle_beta   89.94677979
_cell_angle_gamma   90.02409383
_symmetry_Int_Tables_number   1
_chemical_formula_structural   Dy8Ti11NbSi16
_chemical_formula_sum   'Dy8 Ti11 Nb1 Si16'
_cell_volume   646.60023478
_cell_formula_units_Z   1
loop_
 _symmetry_equiv_pos_site_id
 _symmetry_equiv_pos_as_xyz
  1  'x, y, z'
loop_
 _atom_site_type_symbol
 _atom_site_label
 _atom_site_symmetry_multiplicity
 _atom_site_fract_x
 _atom_site_fract_y
 _atom_site_fract_z
 _atom_site_occupancy
  Dy  Dy0  1  0.997185  0.659894  0.033298  1
  Dy  Dy1  1  0.002145  0.340860  0.533302  1
  Dy  Dy2  1  0.659894  0.997185  0.966702  1
  Dy  Dy3  1  0.159785  0.502687  0.783195  1
  Dy  Dy4  1  0.840656  0.497630  0.283539  1
  Dy  Dy5  1  0.502687  0.159785  0.216805  1
  Dy  Dy6  1  0.497630  0.840656  0.716461  1
  Dy  Dy7  1  0.340860  0.002145  0.466698  1
  Ti  Ti8  1  0.348352  0.508747  0.374400  1
  Ti  Ti9  1  0.846665  0.991064  0.376587  1
  Ti  Ti10  1  0.008135  0.152321  0.123696  1
  Ti  Ti11  1  0.991064  0.846665  0.623413  1
  Ti  Ti12  1  0.508747  0.348352  0.625600  1
  Ti  Ti13  1  0.152321  0.008135  0.876304  1
  Ti  Ti14  1  0.826677  0.173055  0.750071  1
  Ti  Ti15  1  0.173055  0.826677  0.249929  1
  Ti  Ti16  1  0.327122  0.327122  0.000000  1
  Ti  Ti17  1  0.491571  0.651855  0.126378  1
  Ti  Ti18  1  0.651855  0.491571  0.873622  1
  Nb  Nb19  1  0.673189  0.673189  0.500000  1
  Si  Si20  1  0.047836  0.708885  0.434922  1
  Si  Si21  1  0.953100  0.290929  0.935155  1
  Si  Si22  1  0.708885  0.047836  0.565078  1
  Si  Si23  1  0.208768  0.453062  0.184888  1
  Si  Si24  1  0.792058  0.546326  0.686299  1
  Si  Si25  1  0.453062  0.208768  0.815112  1
  Si  Si26  1  0.546326  0.792058  0.313701  1
  Si  Si27  1  0.290929  0.953100  0.064845  1
  Si  Si28  1  0.797840  0.870102  0.184669  1
  Si  Si29  1  0.296913  0.629874  0.565388  1
  Si  Si30  1  0.702286  0.370082  0.065220  1
  Si  Si31  1  0.629874  0.296913  0.434612  1
  Si  Si32  1  0.370082  0.702286  0.934780  1
  Si  Si33  1  0.129938  0.202403  0.315029  1
  Si  Si34  1  0.202403  0.129938  0.684971  1
  Si  Si35  1  0.870102  0.797840  0.815331  1
