# generated using pymatgen
data_TbYb6Y(Si3Pd)4
_symmetry_space_group_name_H-M   'P 1'
_cell_length_a   8.24557000
_cell_length_b   8.24556856
_cell_length_c   8.13511600
_cell_angle_alpha   90.00000000
_cell_angle_beta   90.00000000
_cell_angle_gamma   119.99999776
_symmetry_Int_Tables_number   1
_chemical_formula_structural   TbYb6Y(Si3Pd)4
_chemical_formula_sum   'Tb1 Yb6 Y1 Si12 Pd4'
_cell_volume   479.00018523
_cell_formula_units_Z   1
loop_
 _symmetry_equiv_pos_site_id
 _symmetry_equiv_pos_as_xyz
  1  'x, y, z'
loop_
 _atom_site_type_symbol
 _atom_site_label
 _atom_site_symmetry_multiplicity
 _atom_site_fract_x
 _atom_site_fract_y
 _atom_site_fract_z
 _atom_site_occupancy
  Tb  Tb0  1  0.000000  0.000000  0.250000  1
  Yb  Yb1  1  0.501807  0.003615  0.250000  1
  Yb  Yb2  1  0.498137  0.996274  0.750000  1
  Yb  Yb3  1  0.996385  0.498193  0.250000  1
  Yb  Yb4  1  0.003726  0.501863  0.750000  1
  Yb  Yb5  1  0.501807  0.498193  0.250000  1
  Yb  Yb6  1  0.498137  0.501863  0.750000  1
  Y  Y7  1  0.000000  0.000000  0.750000  1
  Si  Si8  1  0.163980  0.327959  0.000672  1
  Si  Si9  1  0.835906  0.671814  0.997913  1
  Si  Si10  1  0.672041  0.836020  0.000672  1
  Si  Si11  1  0.835906  0.671814  0.502087  1
  Si  Si12  1  0.328186  0.164094  0.997913  1
  Si  Si13  1  0.163980  0.327959  0.499328  1
  Si  Si14  1  0.163980  0.836020  0.000672  1
  Si  Si15  1  0.328186  0.164094  0.502087  1
  Si  Si16  1  0.835906  0.164094  0.997913  1
  Si  Si17  1  0.672041  0.836020  0.499328  1
  Si  Si18  1  0.835906  0.164094  0.502087  1
  Si  Si19  1  0.163980  0.836020  0.499328  1
  Pd  Pd20  1  0.333333  0.666667  0.003726  1
  Pd  Pd21  1  0.666667  0.333333  0.996088  1
  Pd  Pd22  1  0.666667  0.333333  0.503912  1
  Pd  Pd23  1  0.333333  0.666667  0.496274  1
