# generated using pymatgen
data_Dy2Lu3(SnPb)2
_symmetry_space_group_name_H-M   'P 1'
_cell_length_a   8.00434200
_cell_length_b   8.11722000
_cell_length_c   15.33684700
_cell_angle_alpha   90.00000000
_cell_angle_beta   90.00000000
_cell_angle_gamma   90.00000000
_symmetry_Int_Tables_number   1
_chemical_formula_structural   Dy2Lu3(SnPb)2
_chemical_formula_sum   'Dy8 Lu12 Sn8 Pb8'
_cell_volume   996.48103634
_cell_formula_units_Z   4
loop_
 _symmetry_equiv_pos_site_id
 _symmetry_equiv_pos_as_xyz
  1  'x, y, z'
loop_
 _atom_site_type_symbol
 _atom_site_label
 _atom_site_symmetry_multiplicity
 _atom_site_fract_x
 _atom_site_fract_y
 _atom_site_fract_z
 _atom_site_occupancy
  Dy  Dy0  1  0.523467  0.321388  0.900608  1
  Dy  Dy1  1  0.023467  0.178612  0.599392  1
  Dy  Dy2  1  0.476533  0.678612  0.400608  1
  Dy  Dy3  1  0.976533  0.821388  0.099392  1
  Dy  Dy4  1  0.476533  0.678612  0.099392  1
  Dy  Dy5  1  0.976533  0.821388  0.400608  1
  Dy  Dy6  1  0.523467  0.321388  0.599392  1
  Dy  Dy7  1  0.023467  0.178612  0.900608  1
  Lu  Lu8  1  0.367330  0.838287  0.875014  1
  Lu  Lu9  1  0.867330  0.661713  0.624986  1
  Lu  Lu10  1  0.632670  0.161713  0.375014  1
  Lu  Lu11  1  0.132670  0.338287  0.124986  1
  Lu  Lu12  1  0.632670  0.161713  0.124986  1
  Lu  Lu13  1  0.132670  0.338287  0.375014  1
  Lu  Lu14  1  0.367330  0.838287  0.624986  1
  Lu  Lu15  1  0.867330  0.661713  0.875014  1
  Lu  Lu16  1  0.197476  0.504614  0.750000  1
  Lu  Lu17  1  0.697476  0.995386  0.750000  1
  Lu  Lu18  1  0.802524  0.495386  0.250000  1
  Lu  Lu19  1  0.302524  0.004614  0.250000  1
  Sn  Sn20  1  0.563143  0.622207  0.750000  1
  Sn  Sn21  1  0.063143  0.877793  0.750000  1
  Sn  Sn22  1  0.436857  0.377793  0.250000  1
  Sn  Sn23  1  0.936857  0.122207  0.250000  1
  Sn  Sn24  1  0.331929  0.149390  0.750000  1
  Sn  Sn25  1  0.831929  0.350610  0.750000  1
  Sn  Sn26  1  0.668071  0.850610  0.250000  1
  Sn  Sn27  1  0.168071  0.649390  0.250000  1
  Pb  Pb28  1  0.292543  0.038628  0.041168  1
  Pb  Pb29  1  0.792543  0.461372  0.458832  1
  Pb  Pb30  1  0.707457  0.961372  0.541168  1
  Pb  Pb31  1  0.207457  0.538628  0.958832  1
  Pb  Pb32  1  0.707457  0.961372  0.958832  1
  Pb  Pb33  1  0.207457  0.538628  0.541168  1
  Pb  Pb34  1  0.292543  0.038628  0.458832  1
  Pb  Pb35  1  0.792543  0.461372  0.041168  1
