# generated using pymatgen
data_Li3Sm3MgSn4
_symmetry_space_group_name_H-M   'P 1'
_cell_length_a   8.87364849
_cell_length_b   8.74915077
_cell_length_c   8.74915262
_cell_angle_alpha   148.94993722
_cell_angle_beta   130.98877539
_cell_angle_gamma   59.02671300
_symmetry_Int_Tables_number   1
_chemical_formula_structural   Li3Sm3MgSn4
_chemical_formula_sum   'Li3 Sm3 Mg1 Sn4'
_cell_volume   262.50066570
_cell_formula_units_Z   1
loop_
 _symmetry_equiv_pos_site_id
 _symmetry_equiv_pos_as_xyz
  1  'x, y, z'
loop_
 _atom_site_type_symbol
 _atom_site_label
 _atom_site_symmetry_multiplicity
 _atom_site_fract_x
 _atom_site_fract_y
 _atom_site_fract_z
 _atom_site_occupancy
  Li  Li0  1  0.642482  0.327561  0.314922  1
  Li  Li1  1  0.369365  0.672937  0.696427  1
  Li  Li2  1  0.015376  0.326157  0.689219  1
  Sm  Sm3  1  0.376596  0.875022  0.501573  1
  Sm  Sm4  1  0.612145  0.126037  0.486108  1
  Sm  Sm5  1  0.000765  0.000792  0.999972  1
  Mg  Mg6  1  0.981113  0.672634  0.308479  1
  Sn  Sn7  1  0.234321  0.217142  0.017179  1
  Sn  Sn8  1  0.779043  0.786869  0.992174  1
  Sn  Sn9  1  0.690987  0.495941  0.195046  1
  Sn  Sn10  1  0.297808  0.498906  0.798902  1
