# generated using pymatgen
data_SrNd3Ir8
_symmetry_space_group_name_H-M   'P 1'
_cell_length_a   9.42201411
_cell_length_b   9.42201336
_cell_length_c   9.42201393
_cell_angle_alpha   33.68248007
_cell_angle_beta   33.68248521
_cell_angle_gamma   33.68247989
_symmetry_Int_Tables_number   1
_chemical_formula_structural   SrNd3Ir8
_chemical_formula_sum   'Sr1 Nd3 Ir8'
_cell_volume   229.19640691
_cell_formula_units_Z   1
loop_
 _symmetry_equiv_pos_site_id
 _symmetry_equiv_pos_as_xyz
  1  'x, y, z'
loop_
 _atom_site_type_symbol
 _atom_site_label
 _atom_site_symmetry_multiplicity
 _atom_site_fract_x
 _atom_site_fract_y
 _atom_site_fract_z
 _atom_site_occupancy
  Sr  Sr0  1  0.125584  0.125584  0.125584  1
  Nd  Nd1  1  0.624321  0.624321  0.624321  1
  Nd  Nd2  1  0.001469  0.001469  0.001469  1
  Nd  Nd3  1  0.498557  0.498557  0.498557  1
  Ir  Ir4  1  0.562222  0.562222  0.060373  1
  Ir  Ir5  1  0.062529  0.062529  0.565055  1
  Ir  Ir6  1  0.562222  0.060373  0.562222  1
  Ir  Ir7  1  0.062529  0.565055  0.062529  1
  Ir  Ir8  1  0.812538  0.812538  0.812538  1
  Ir  Ir9  1  0.312601  0.312601  0.312601  1
  Ir  Ir10  1  0.060373  0.562222  0.562222  1
  Ir  Ir11  1  0.565055  0.062529  0.062529  1
