# generated using pymatgen
data_TbDy3ZnI6
_symmetry_space_group_name_H-M   'P 1'
_cell_length_a   4.18270600
_cell_length_b   14.15969059
_cell_length_c   14.90794662
_cell_angle_alpha   89.96697924
_cell_angle_beta   90.00000000
_cell_angle_gamma   90.00000000
_symmetry_Int_Tables_number   1
_chemical_formula_structural   TbDy3ZnI6
_chemical_formula_sum   'Tb2 Dy6 Zn2 I12'
_cell_volume   882.93525784
_cell_formula_units_Z   2
loop_
 _symmetry_equiv_pos_site_id
 _symmetry_equiv_pos_as_xyz
  1  'x, y, z'
loop_
 _atom_site_type_symbol
 _atom_site_label
 _atom_site_symmetry_multiplicity
 _atom_site_fract_x
 _atom_site_fract_y
 _atom_site_fract_z
 _atom_site_occupancy
  Tb  Tb0  1  0.500000  0.614166  0.152947  1
  Tb  Tb1  1  0.500000  0.385834  0.847053  1
  Dy  Dy2  1  0.500000  0.113680  0.347704  1
  Dy  Dy3  1  0.500000  0.886320  0.652296  1
  Dy  Dy4  1  0.000000  0.113560  0.576631  1
  Dy  Dy5  1  0.000000  0.886440  0.423369  1
  Dy  Dy6  1  0.000000  0.613946  0.923105  1
  Dy  Dy7  1  0.000000  0.386054  0.076895  1
  Zn  Zn8  1  0.500000  0.000000  0.500000  1
  Zn  Zn9  1  0.500000  0.500000  0.000000  1
  I  I10  1  0.500000  0.245450  0.163174  1
  I  I11  1  0.500000  0.754550  0.836826  1
  I  I12  1  0.500000  0.745729  0.337245  1
  I  I13  1  0.500000  0.254271  0.662755  1
  I  I14  1  0.000000  0.259734  0.413806  1
  I  I15  1  0.000000  0.740266  0.586194  1
  I  I16  1  0.000000  0.760578  0.085622  1
  I  I17  1  0.000000  0.239422  0.914378  1
  I  I18  1  0.000000  0.999066  0.238627  1
  I  I19  1  0.000000  0.000934  0.761373  1
  I  I20  1  0.000000  0.498246  0.261875  1
  I  I21  1  0.000000  0.501754  0.738125  1
