# generated using pymatgen
data_Tm5LuAl24Ir3Os5
_symmetry_space_group_name_H-M   'P 1'
_cell_length_a   8.75845351
_cell_length_b   8.79504077
_cell_length_c   9.53058784
_cell_angle_alpha   89.82308061
_cell_angle_beta   90.19445514
_cell_angle_gamma   119.92845432
_symmetry_Int_Tables_number   1
_chemical_formula_structural   Tm5LuAl24Ir3Os5
_chemical_formula_sum   'Tm5 Lu1 Al24 Ir3 Os5'
_cell_volume   636.24618735
_cell_formula_units_Z   1
loop_
 _symmetry_equiv_pos_site_id
 _symmetry_equiv_pos_as_xyz
  1  'x, y, z'
loop_
 _atom_site_type_symbol
 _atom_site_label
 _atom_site_symmetry_multiplicity
 _atom_site_fract_x
 _atom_site_fract_y
 _atom_site_fract_z
 _atom_site_occupancy
  Tm  Tm0  1  0.804704  0.612402  0.748686  1
  Tm  Tm1  1  0.609135  0.807364  0.251646  1
  Tm  Tm2  1  0.390778  0.192470  0.748336  1
  Tm  Tm3  1  0.198680  0.810773  0.250016  1
  Tm  Tm4  1  0.801225  0.189065  0.749966  1
  Lu  Lu5  1  0.195923  0.388831  0.251447  1
  Al  Al6  1  0.333242  0.667196  0.025746  1
  Al  Al7  1  0.666644  0.332489  0.974488  1
  Al  Al8  1  0.666115  0.332862  0.524152  1
  Al  Al9  1  0.333702  0.666860  0.475628  1
  Al  Al10  1  0.164451  0.326364  0.576942  1
  Al  Al11  1  0.835516  0.673590  0.422696  1
  Al  Al12  1  0.672731  0.835380  0.576370  1
  Al  Al13  1  0.837103  0.673727  0.077128  1
  Al  Al14  1  0.327091  0.164697  0.423442  1
  Al  Al15  1  0.162893  0.326232  0.923234  1
  Al  Al16  1  0.164127  0.836841  0.576230  1
  Al  Al17  1  0.326643  0.162883  0.076145  1
  Al  Al18  1  0.836076  0.163219  0.423596  1
  Al  Al19  1  0.673227  0.837177  0.924017  1
  Al  Al20  1  0.835901  0.162942  0.076902  1
  Al  Al21  1  0.164303  0.837110  0.923283  1
  Al  Al22  1  0.562843  0.125489  0.249570  1
  Al  Al23  1  0.437167  0.874556  0.750415  1
  Al  Al24  1  0.876483  0.438917  0.249540  1
  Al  Al25  1  0.123826  0.560980  0.750475  1
  Al  Al26  1  0.561898  0.439208  0.250290  1
  Al  Al27  1  0.437671  0.560653  0.749677  1
  Al  Al28  1  0.000650  0.002493  0.249995  1
  Al  Al29  1  0.999696  0.998202  0.749997  1
  Ir  Ir30  1  0.000108  0.499869  0.000152  1
  Ir  Ir31  1  0.499843  0.499900  0.000103  1
  Ir  Ir32  1  0.000066  0.499860  0.499873  1
  Os  Os33  1  0.499931  0.999839  0.000050  1
  Os  Os34  1  0.499928  0.999856  0.499936  1
  Os  Os35  1  0.499781  0.499891  0.499837  1
  Os  Os36  1  0.999956  0.999914  0.999984  1
  Os  Os37  1  0.999946  0.999902  0.500010  1
