# generated using pymatgen
data_YErFe2(WO6)2
_symmetry_space_group_name_H-M   'P 1'
_cell_length_a   5.31882300
_cell_length_b   7.50428271
_cell_length_c   11.12586800
_cell_angle_alpha   90.00000000
_cell_angle_beta   90.00000000
_cell_angle_gamma   90.08210765
_symmetry_Int_Tables_number   1
_chemical_formula_structural   YErFe2(WO6)2
_chemical_formula_sum   'Y2 Er2 Fe4 W4 O24'
_cell_volume   444.07689923
_cell_formula_units_Z   2
loop_
 _symmetry_equiv_pos_site_id
 _symmetry_equiv_pos_as_xyz
  1  'x, y, z'
loop_
 _atom_site_type_symbol
 _atom_site_label
 _atom_site_symmetry_multiplicity
 _atom_site_fract_x
 _atom_site_fract_y
 _atom_site_fract_z
 _atom_site_occupancy
  Y  Y0  1  0.953534  0.251654  0.544656  1
  Y  Y1  1  0.453533  0.751654  0.955344  1
  Er  Er2  1  0.548962  0.251788  0.045163  1
  Er  Er3  1  0.048961  0.751788  0.454838  1
  Fe  Fe4  1  0.043462  0.996699  0.139222  1
  Fe  Fe5  1  0.543462  0.496699  0.360778  1
  Fe  Fe6  1  0.456995  0.995024  0.638540  1
  Fe  Fe7  1  0.956996  0.495024  0.861460  1
  W  W8  1  0.052279  0.506031  0.142316  1
  W  W9  1  0.552279  0.006030  0.357683  1
  W  W10  1  0.448432  0.506668  0.641675  1
  W  W11  1  0.948433  0.006667  0.858325  1
  O  O12  1  0.756679  0.963027  0.020663  1
  O  O13  1  0.765152  0.543549  0.028192  1
  O  O14  1  0.171771  0.748019  0.116729  1
  O  O15  1  0.931364  0.259683  0.142859  1
  O  O16  1  0.371349  0.433724  0.206579  1
  O  O17  1  0.391646  0.067438  0.212789  1
  O  O18  1  0.891647  0.567438  0.287211  1
  O  O19  1  0.871350  0.933724  0.293421  1
  O  O20  1  0.431364  0.759684  0.357141  1
  O  O21  1  0.671772  0.248019  0.383272  1
  O  O22  1  0.265151  0.043549  0.471808  1
  O  O23  1  0.256680  0.463027  0.479337  1
  O  O24  1  0.744169  0.960346  0.519810  1
  O  O25  1  0.735745  0.546703  0.527906  1
  O  O26  1  0.324517  0.747881  0.615608  1
  O  O27  1  0.563857  0.259790  0.641888  1
  O  O28  1  0.129702  0.435023  0.707534  1
  O  O29  1  0.110383  0.067155  0.714006  1
  O  O30  1  0.610384  0.567155  0.785994  1
  O  O31  1  0.629703  0.935023  0.792466  1
  O  O32  1  0.063856  0.759791  0.858112  1
  O  O33  1  0.824516  0.247881  0.884393  1
  O  O34  1  0.235746  0.046703  0.972094  1
  O  O35  1  0.244169  0.460346  0.980190  1
