# generated using pymatgen
data_Zr3Co2Au3
_symmetry_space_group_name_H-M   'P 1'
_cell_length_a   7.03271900
_cell_length_b   7.03271848
_cell_length_c   3.28199200
_cell_angle_alpha   90.00000000
_cell_angle_beta   90.00000000
_cell_angle_gamma   119.99999774
_symmetry_Int_Tables_number   1
_chemical_formula_structural   Zr3Co2Au3
_chemical_formula_sum   'Zr3 Co2 Au3'
_cell_volume   140.57712517
_cell_formula_units_Z   1
loop_
 _symmetry_equiv_pos_site_id
 _symmetry_equiv_pos_as_xyz
  1  'x, y, z'
loop_
 _atom_site_type_symbol
 _atom_site_label
 _atom_site_symmetry_multiplicity
 _atom_site_fract_x
 _atom_site_fract_y
 _atom_site_fract_z
 _atom_site_occupancy
  Zr  Zr0  1  0.581484  0.000000  0.499999  1
  Zr  Zr1  1  0.418516  0.418515  0.499999  1
  Zr  Zr2  1  0.000000  0.581485  0.499999  1
  Co  Co3  1  0.666666  0.333333  0.000000  1
  Co  Co4  1  0.333333  0.666667  0.000000  1
  Au  Au5  1  0.235145  0.000000  0.000000  1
  Au  Au6  1  0.000000  0.235146  0.000000  1
  Au  Au7  1  0.764855  0.764855  0.000000  1
