# generated using pymatgen
data_LiZr7(Si4W3)4
_symmetry_space_group_name_H-M   'P 1'
_cell_length_a   6.59279558
_cell_length_b   6.76166627
_cell_length_c   12.71332692
_cell_angle_alpha   90.03253587
_cell_angle_beta   89.95568881
_cell_angle_gamma   90.06740677
_symmetry_Int_Tables_number   1
_chemical_formula_structural   LiZr7(Si4W3)4
_chemical_formula_sum   'Li1 Zr7 Si16 W12'
_cell_volume   566.73763896
_cell_formula_units_Z   1
loop_
 _symmetry_equiv_pos_site_id
 _symmetry_equiv_pos_as_xyz
  1  'x, y, z'
loop_
 _atom_site_type_symbol
 _atom_site_label
 _atom_site_symmetry_multiplicity
 _atom_site_fract_x
 _atom_site_fract_y
 _atom_site_fract_z
 _atom_site_occupancy
  Li  Li0  1  0.976015  0.163029  0.085629  1
  Zr  Zr1  1  0.007290  0.827254  0.908593  1
  Zr  Zr2  1  0.503399  0.671203  0.909605  1
  Zr  Zr3  1  0.005412  0.832178  0.592866  1
  Zr  Zr4  1  0.499317  0.330075  0.094509  1
  Zr  Zr5  1  0.997856  0.170303  0.408552  1
  Zr  Zr6  1  0.494381  0.328783  0.405374  1
  Zr  Zr7  1  0.507348  0.669915  0.591631  1
  Si  Si8  1  0.035233  0.123392  0.752102  1
  Si  Si9  1  0.968648  0.884714  0.246306  1
  Si  Si10  1  0.463614  0.619363  0.251067  1
  Si  Si11  1  0.534757  0.381870  0.749793  1
  Si  Si12  1  0.302056  0.859975  0.750090  1
  Si  Si13  1  0.709380  0.140397  0.245763  1
  Si  Si14  1  0.189525  0.351156  0.242771  1
  Si  Si15  1  0.800460  0.641670  0.752124  1
  Si  Si16  1  0.167851  0.459171  0.543003  1
  Si  Si17  1  0.833231  0.541877  0.457812  1
  Si  Si18  1  0.333944  0.957758  0.457033  1
  Si  Si19  1  0.838589  0.532184  0.046306  1
  Si  Si20  1  0.668504  0.042440  0.542135  1
  Si  Si21  1  0.164869  0.453700  0.958875  1
  Si  Si22  1  0.667652  0.040426  0.959433  1
  Si  Si23  1  0.321526  0.969791  0.045343  1
  W  W24  1  0.166955  0.509364  0.752291  1
  W  W25  1  0.834711  0.498422  0.250793  1
  W  W26  1  0.338358  0.005526  0.250582  1
  W  W27  1  0.667247  0.995351  0.750492  1
  W  W28  1  0.335139  0.162457  0.623624  1
  W  W29  1  0.668230  0.837494  0.375361  1
  W  W30  1  0.165291  0.663014  0.375114  1
  W  W31  1  0.662261  0.831539  0.124200  1
  W  W32  1  0.833209  0.338294  0.624951  1
  W  W33  1  0.338204  0.162658  0.874800  1
  W  W34  1  0.829415  0.337230  0.876574  1
  W  W35  1  0.170125  0.666026  0.124500  1
