# generated using pymatgen
data_TbGaHgPt3
_symmetry_space_group_name_H-M   'P 1'
_cell_length_a   5.24108120
_cell_length_b   5.53136065
_cell_length_c   5.53136000
_cell_angle_alpha   60.00000387
_cell_angle_beta   58.15031169
_cell_angle_gamma   58.15030068
_symmetry_Int_Tables_number   1
_chemical_formula_structural   TbGaHgPt3
_chemical_formula_sum   'Tb1 Ga1 Hg1 Pt3'
_cell_volume   110.11443323
_cell_formula_units_Z   1
loop_
 _symmetry_equiv_pos_site_id
 _symmetry_equiv_pos_as_xyz
  1  'x, y, z'
loop_
 _atom_site_type_symbol
 _atom_site_label
 _atom_site_symmetry_multiplicity
 _atom_site_fract_x
 _atom_site_fract_y
 _atom_site_fract_z
 _atom_site_occupancy
  Tb  Tb0  1  0.736206  0.754598  0.754598  1
  Ga  Ga1  1  0.883238  0.372253  0.372253  1
  Hg  Hg2  1  0.992989  0.002337  0.002337  1
  Pt  Pt3  1  0.379188  0.873969  0.373420  1
  Pt  Pt4  1  0.379188  0.373420  0.373420  1
  Pt  Pt5  1  0.379188  0.373420  0.873969  1
