# generated using pymatgen
data_CrIn6IrBr12
_symmetry_space_group_name_H-M   'P 1'
_cell_length_a   9.09572026
_cell_length_b   9.09571963
_cell_length_c   9.09571857
_cell_angle_alpha   105.37388377
_cell_angle_beta   105.37388959
_cell_angle_gamma   105.37389611
_symmetry_Int_Tables_number   1
_chemical_formula_structural   CrIn6IrBr12
_chemical_formula_sum   'Cr1 In6 Ir1 Br12'
_cell_volume   652.50344036
_cell_formula_units_Z   1
loop_
 _symmetry_equiv_pos_site_id
 _symmetry_equiv_pos_as_xyz
  1  'x, y, z'
loop_
 _atom_site_type_symbol
 _atom_site_label
 _atom_site_symmetry_multiplicity
 _atom_site_fract_x
 _atom_site_fract_y
 _atom_site_fract_z
 _atom_site_occupancy
  Cr  Cr0  1  0.500000  0.500000  0.500000  1
  In  In1  1  0.049897  0.067232  0.313638  1
  In  In2  1  0.313638  0.049897  0.067232  1
  In  In3  1  0.067232  0.313638  0.049897  1
  In  In4  1  0.950103  0.932768  0.686362  1
  In  In5  1  0.686362  0.950103  0.932768  1
  In  In6  1  0.932768  0.686362  0.950103  1
  Ir  Ir7  1  0.000000  0.000000  0.000000  1
  Br  Br8  1  0.980987  0.561483  0.197739  1
  Br  Br9  1  0.197739  0.980987  0.561483  1
  Br  Br10  1  0.561483  0.197739  0.980987  1
  Br  Br11  1  0.019013  0.438517  0.802261  1
  Br  Br12  1  0.802261  0.019013  0.438517  1
  Br  Br13  1  0.438517  0.802261  0.019013  1
  Br  Br14  1  0.497831  0.211401  0.400288  1
  Br  Br15  1  0.400288  0.497831  0.211401  1
  Br  Br16  1  0.211401  0.400288  0.497831  1
  Br  Br17  1  0.502169  0.788599  0.599712  1
  Br  Br18  1  0.599712  0.502169  0.788599  1
  Br  Br19  1  0.788599  0.599712  0.502169  1
