# generated using pymatgen
data_Pa4Nb15Al10Mo
_symmetry_space_group_name_H-M   'P 1'
_cell_length_a   9.97788941
_cell_length_b   10.00485941
_cell_length_c   5.47209200
_cell_angle_alpha   90.00000000
_cell_angle_beta   90.00000000
_cell_angle_gamma   90.03283573
_symmetry_Int_Tables_number   1
_chemical_formula_structural   Pa4Nb15Al10Mo
_chemical_formula_sum   'Pa4 Nb15 Al10 Mo1'
_cell_volume   546.26452193
_cell_formula_units_Z   1
loop_
 _symmetry_equiv_pos_site_id
 _symmetry_equiv_pos_as_xyz
  1  'x, y, z'
loop_
 _atom_site_type_symbol
 _atom_site_label
 _atom_site_symmetry_multiplicity
 _atom_site_fract_x
 _atom_site_fract_y
 _atom_site_fract_z
 _atom_site_occupancy
  Pa  Pa0  1  0.390183  0.396992  0.000000  1
  Pa  Pa1  1  0.895840  0.103473  0.500000  1
  Pa  Pa2  1  0.104018  0.895900  0.500000  1
  Pa  Pa3  1  0.603530  0.604356  0.000000  1
  Nb  Nb4  1  0.962618  0.366256  0.500000  1
  Nb  Nb5  1  0.037700  0.633697  0.500000  1
  Nb  Nb6  1  0.869442  0.535234  0.000000  1
  Nb  Nb7  1  0.365065  0.963543  0.500000  1
  Nb  Nb8  1  0.633136  0.037286  0.500000  1
  Nb  Nb9  1  0.462427  0.134358  0.000000  1
  Nb  Nb10  1  0.537504  0.865623  0.000000  1
  Nb  Nb11  1  0.183043  0.183654  0.251351  1
  Nb  Nb12  1  0.683846  0.316951  0.750421  1
  Nb  Nb13  1  0.316103  0.682603  0.750164  1
  Nb  Nb14  1  0.816899  0.816024  0.250371  1
  Nb  Nb15  1  0.316103  0.682603  0.249836  1
  Nb  Nb16  1  0.683846  0.316951  0.249579  1
  Nb  Nb17  1  0.183043  0.183654  0.748649  1
  Nb  Nb18  1  0.816899  0.816024  0.749629  1
  Al  Al19  1  0.000052  0.000437  0.000000  1
  Al  Al20  1  0.499839  0.499731  0.500000  1
  Al  Al21  1  0.268323  0.935626  0.000000  1
  Al  Al22  1  0.436319  0.231980  0.500000  1
  Al  Al23  1  0.563492  0.768560  0.500000  1
  Al  Al24  1  0.731074  0.064727  0.000000  1
  Al  Al25  1  0.229326  0.436062  0.500000  1
  Al  Al26  1  0.768538  0.564353  0.500000  1
  Al  Al27  1  0.938856  0.269743  0.000000  1
  Al  Al28  1  0.065124  0.729458  0.000000  1
  Mo  Mo29  1  0.137814  0.464142  0.000000  1
