# generated using pymatgen
data_Ac5Sc(SnPd)6
_symmetry_space_group_name_H-M   'P 1'
_cell_length_a   7.86694554
_cell_length_b   7.82099585
_cell_length_c   8.52387400
_cell_angle_alpha   90.00000000
_cell_angle_beta   90.00000000
_cell_angle_gamma   119.83634799
_symmetry_Int_Tables_number   1
_chemical_formula_structural   Ac5Sc(SnPd)6
_chemical_formula_sum   'Ac5 Sc1 Sn6 Pd6'
_cell_volume   454.93533828
_cell_formula_units_Z   1
loop_
 _symmetry_equiv_pos_site_id
 _symmetry_equiv_pos_as_xyz
  1  'x, y, z'
loop_
 _atom_site_type_symbol
 _atom_site_label
 _atom_site_symmetry_multiplicity
 _atom_site_fract_x
 _atom_site_fract_y
 _atom_site_fract_z
 _atom_site_occupancy
  Ac  Ac0  1  0.419407  0.000492  0.250000  1
  Ac  Ac1  1  0.583607  0.580922  0.250000  1
  Ac  Ac2  1  0.414501  0.001800  0.750000  1
  Ac  Ac3  1  0.586020  0.588869  0.750000  1
  Ac  Ac4  1  0.000695  0.423979  0.750000  1
  Sc  Sc5  1  0.003920  0.397288  0.250000  1
  Sn  Sn6  1  0.763469  0.010263  0.003512  1
  Sn  Sn7  1  0.237875  0.246538  0.497105  1
  Sn  Sn8  1  0.000140  0.750841  0.484772  1
  Sn  Sn9  1  0.000140  0.750841  0.015228  1
  Sn  Sn10  1  0.237875  0.246538  0.002895  1
  Sn  Sn11  1  0.763469  0.010263  0.496488  1
  Pd  Pd12  1  0.310336  0.649486  0.018356  1
  Pd  Pd13  1  0.310336  0.649486  0.481644  1
  Pd  Pd14  1  0.683313  0.338500  0.011963  1
  Pd  Pd15  1  0.683313  0.338500  0.488037  1
  Pd  Pd16  1  0.001188  0.012565  0.250000  1
  Pd  Pd17  1  0.000396  0.002830  0.750000  1
