# generated using pymatgen
data_Hf8Ta2Si7P
_symmetry_space_group_name_H-M   'P 1'
_cell_length_a   6.97844653
_cell_length_b   6.97327853
_cell_length_c   12.79130700
_cell_angle_alpha   90.00000000
_cell_angle_beta   90.00000000
_cell_angle_gamma   89.85571457
_symmetry_Int_Tables_number   1
_chemical_formula_structural   Hf8Ta2Si7P
_chemical_formula_sum   'Hf16 Ta4 Si14 P2'
_cell_volume   622.45693925
_cell_formula_units_Z   2
loop_
 _symmetry_equiv_pos_site_id
 _symmetry_equiv_pos_as_xyz
  1  'x, y, z'
loop_
 _atom_site_type_symbol
 _atom_site_label
 _atom_site_symmetry_multiplicity
 _atom_site_fract_x
 _atom_site_fract_y
 _atom_site_fract_z
 _atom_site_occupancy
  Hf  Hf0  1  0.496850  0.151968  0.530973  1
  Hf  Hf1  1  0.503150  0.848032  0.030973  1
  Hf  Hf2  1  0.656939  0.002446  0.280072  1
  Hf  Hf3  1  0.343061  0.997554  0.780072  1
  Hf  Hf4  1  0.846427  0.500927  0.969274  1
  Hf  Hf5  1  0.153573  0.499073  0.469274  1
  Hf  Hf6  1  0.001259  0.656367  0.718819  1
  Hf  Hf7  1  0.998741  0.343633  0.218819  1
  Hf  Hf8  1  0.501772  0.349825  0.125228  1
  Hf  Hf9  1  0.498228  0.650175  0.625228  1
  Hf  Hf10  1  0.852529  0.004176  0.877703  1
  Hf  Hf11  1  0.147471  0.995824  0.377703  1
  Hf  Hf12  1  0.646788  0.500299  0.373942  1
  Hf  Hf13  1  0.353212  0.499701  0.873942  1
  Hf  Hf14  1  0.999710  0.857637  0.123917  1
  Hf  Hf15  1  0.000290  0.142363  0.623917  1
  Ta  Ta16  1  0.674706  0.326752  0.750312  1
  Ta  Ta17  1  0.325294  0.673248  0.250312  1
  Ta  Ta18  1  0.824906  0.824338  0.500357  1
  Ta  Ta19  1  0.175094  0.175662  0.000357  1
  Si  Si20  1  0.646655  0.703711  0.821729  1
  Si  Si21  1  0.353345  0.296289  0.321729  1
  Si  Si22  1  0.854359  0.202589  0.428298  1
  Si  Si23  1  0.145641  0.797411  0.928298  1
  Si  Si24  1  0.702512  0.645883  0.178144  1
  Si  Si25  1  0.297488  0.354117  0.678144  1
  Si  Si26  1  0.541261  0.196562  0.931406  1
  Si  Si27  1  0.458739  0.803438  0.431406  1
  Si  Si28  1  0.697183  0.954309  0.685714  1
  Si  Si29  1  0.302817  0.045691  0.185714  1
  Si  Si30  1  0.802177  0.452830  0.566330  1
  Si  Si31  1  0.197823  0.547170  0.066330  1
  Si  Si32  1  0.953023  0.697274  0.314560  1
  Si  Si33  1  0.046977  0.302726  0.814560  1
  P  P34  1  0.799995  0.147770  0.073219  1
  P  P35  1  0.200005  0.852230  0.573219  1
