# generated using pymatgen
data_SiHg2(IF3)2
_symmetry_space_group_name_H-M   'P 1'
_cell_length_a   8.38756200
_cell_length_b   5.67752490
_cell_length_c   10.07497520
_cell_angle_alpha   78.38246503
_cell_angle_beta   90.00000000
_cell_angle_gamma   90.00000000
_symmetry_Int_Tables_number   1
_chemical_formula_structural   SiHg2(IF3)2
_chemical_formula_sum   'Si2 Hg4 I4 F12'
_cell_volume   469.94742712
_cell_formula_units_Z   2
loop_
 _symmetry_equiv_pos_site_id
 _symmetry_equiv_pos_as_xyz
  1  'x, y, z'
loop_
 _atom_site_type_symbol
 _atom_site_label
 _atom_site_symmetry_multiplicity
 _atom_site_fract_x
 _atom_site_fract_y
 _atom_site_fract_z
 _atom_site_occupancy
  Si  Si0  1  0.000000  0.000000  0.500000  1
  Si  Si1  1  0.500000  0.000000  0.000000  1
  Hg  Hg2  1  0.698882  0.558457  0.775555  1
  Hg  Hg3  1  0.198882  0.441543  0.724445  1
  Hg  Hg4  1  0.301118  0.441543  0.224445  1
  Hg  Hg5  1  0.801118  0.558457  0.275555  1
  I  I6  1  0.054762  0.730704  0.127301  1
  I  I7  1  0.554762  0.269296  0.372699  1
  I  I8  1  0.945238  0.269296  0.872699  1
  I  I9  1  0.445238  0.730704  0.627301  1
  F  F10  1  0.653477  0.889936  0.914022  1
  F  F11  1  0.153477  0.110064  0.585978  1
  F  F12  1  0.346523  0.110064  0.085978  1
  F  F13  1  0.846523  0.889936  0.414022  1
  F  F14  1  0.107725  0.741416  0.501521  1
  F  F15  1  0.607725  0.258584  0.998479  1
  F  F16  1  0.892275  0.258584  0.498479  1
  F  F17  1  0.392275  0.741416  0.001521  1
  F  F18  1  0.913256  0.869382  0.651697  1
  F  F19  1  0.413256  0.130618  0.848303  1
  F  F20  1  0.086744  0.130618  0.348303  1
  F  F21  1  0.586744  0.869382  0.151697  1
