# generated using pymatgen
data_Hf9NbCoMo3
_symmetry_space_group_name_H-M   'P 1'
_cell_length_a   8.71875300
_cell_length_b   8.71875361
_cell_length_c   8.49562400
_cell_angle_alpha   90.00000000
_cell_angle_beta   90.00000000
_cell_angle_gamma   120.00000149
_symmetry_Int_Tables_number   1
_chemical_formula_structural   Hf9NbCoMo3
_chemical_formula_sum   'Hf18 Nb2 Co2 Mo6'
_cell_volume   559.28695180
_cell_formula_units_Z   2
loop_
 _symmetry_equiv_pos_site_id
 _symmetry_equiv_pos_as_xyz
  1  'x, y, z'
loop_
 _atom_site_type_symbol
 _atom_site_label
 _atom_site_symmetry_multiplicity
 _atom_site_fract_x
 _atom_site_fract_y
 _atom_site_fract_z
 _atom_site_occupancy
  Hf  Hf0  1  0.202483  0.797524  0.440721  1
  Hf  Hf1  1  0.202489  0.404961  0.440742  1
  Hf  Hf2  1  0.595037  0.797513  0.440757  1
  Hf  Hf3  1  0.797517  0.202476  0.559279  1
  Hf  Hf4  1  0.797511  0.595039  0.559258  1
  Hf  Hf5  1  0.404963  0.202487  0.559243  1
  Hf  Hf6  1  0.797517  0.202476  0.940721  1
  Hf  Hf7  1  0.797511  0.595039  0.940742  1
  Hf  Hf8  1  0.404963  0.202487  0.940757  1
  Hf  Hf9  1  0.202483  0.797524  0.059279  1
  Hf  Hf10  1  0.202489  0.404961  0.059258  1
  Hf  Hf11  1  0.595037  0.797513  0.059243  1
  Hf  Hf12  1  0.542420  0.457555  0.250000  1
  Hf  Hf13  1  0.542400  0.084862  0.250000  1
  Hf  Hf14  1  0.915140  0.457587  0.250000  1
  Hf  Hf15  1  0.457580  0.542445  0.750000  1
  Hf  Hf16  1  0.457600  0.915138  0.750000  1
  Hf  Hf17  1  0.084860  0.542413  0.750000  1
  Nb  Nb18  1  0.000000  0.000000  0.500000  1
  Nb  Nb19  1  0.000000  0.000000  0.000000  1
  Co  Co20  1  0.333341  0.666666  0.250000  1
  Co  Co21  1  0.666659  0.333334  0.750000  1
  Mo  Mo22  1  0.885091  0.114914  0.250000  1
  Mo  Mo23  1  0.885097  0.770179  0.250000  1
  Mo  Mo24  1  0.229824  0.114907  0.250000  1
  Mo  Mo25  1  0.114909  0.885086  0.750000  1
  Mo  Mo26  1  0.114903  0.229821  0.750000  1
  Mo  Mo27  1  0.770176  0.885093  0.750000  1
