# generated using pymatgen
data_Nb3Rh7
_symmetry_space_group_name_H-M   'P 1'
_cell_length_a   10.11114000
_cell_length_b   10.11113989
_cell_length_c   3.94593000
_cell_angle_alpha   90.00000000
_cell_angle_beta   90.00000000
_cell_angle_gamma   157.75461712
_symmetry_Int_Tables_number   1
_chemical_formula_structural   Nb3Rh7
_chemical_formula_sum   'Nb3 Rh7'
_cell_volume   152.72159122
_cell_formula_units_Z   1
loop_
 _symmetry_equiv_pos_site_id
 _symmetry_equiv_pos_as_xyz
  1  'x, y, z'
loop_
 _atom_site_type_symbol
 _atom_site_label
 _atom_site_symmetry_multiplicity
 _atom_site_fract_x
 _atom_site_fract_y
 _atom_site_fract_z
 _atom_site_occupancy
  Nb  Nb0  1  0.000000  0.000000  0.000000  1
  Nb  Nb1  1  0.807986  0.192014  0.000000  1
  Nb  Nb2  1  0.192014  0.807986  0.000000  1
  Rh  Rh3  1  0.599085  0.400915  0.000000  1
  Rh  Rh4  1  0.400915  0.599085  0.000000  1
  Rh  Rh5  1  0.900779  0.099221  0.500000  1
  Rh  Rh6  1  0.699183  0.300818  0.500000  1
  Rh  Rh7  1  0.500000  0.500000  0.500000  1
  Rh  Rh8  1  0.300818  0.699183  0.500000  1
  Rh  Rh9  1  0.099221  0.900779  0.500000  1
