# generated using pymatgen
data_TaNbH2(SO4)6
_symmetry_space_group_name_H-M   'P 1'
_cell_length_a   8.49689145
_cell_length_b   9.22647704
_cell_length_c   8.59517500
_cell_angle_alpha   109.70849810
_cell_angle_beta   105.11131115
_cell_angle_gamma   110.75486370
_symmetry_Int_Tables_number   1
_chemical_formula_structural   TaNbH2(SO4)6
_chemical_formula_sum   'Ta1 Nb1 H2 S6 O24'
_cell_volume   535.01594268
_cell_formula_units_Z   1
loop_
 _symmetry_equiv_pos_site_id
 _symmetry_equiv_pos_as_xyz
  1  'x, y, z'
loop_
 _atom_site_type_symbol
 _atom_site_label
 _atom_site_symmetry_multiplicity
 _atom_site_fract_x
 _atom_site_fract_y
 _atom_site_fract_z
 _atom_site_occupancy
  Ta  Ta0  1  0.475117  0.506915  0.526019  1
  Nb  Nb1  1  0.027375  0.989140  0.998172  1
  H  H2  1  0.840651  0.512013  0.130079  1
  H  H3  1  0.690347  0.087303  0.379067  1
  S  S4  1  0.584306  0.931193  0.781705  1
  S  S5  1  0.189679  0.418164  0.104396  1
  S  S6  1  0.081497  0.187872  0.454313  1
  S  S7  1  0.884010  0.757335  0.539432  1
  S  S8  1  0.781789  0.554862  0.898406  1
  S  S9  1  0.490820  0.156111  0.264795  1
  O  O10  1  0.012227  0.873288  0.752523  1
  O  O11  1  0.295468  0.028541  0.116551  1
  O  O12  1  0.984380  0.689964  0.454606  1
  O  O13  1  0.548804  0.035421  0.321768  1
  O  O14  1  0.048792  0.436987  0.158716  1
  O  O15  1  0.479647  0.938212  0.886476  1
  O  O16  1  0.488172  0.732861  0.629553  1
  O  O17  1  0.259343  0.503039  0.007652  1
  O  O18  1  0.231099  0.381480  0.523490  1
  O  O19  1  0.126347  0.217190  0.998462  1
  O  O20  1  0.360960  0.471193  0.281186  1
  O  O21  1  0.800804  0.849367  0.476758  1
  O  O22  1  0.162035  0.112791  0.548732  1
  O  O23  1  0.599807  0.537322  0.787409  1
  O  O24  1  0.926461  0.747589  0.995975  1
  O  O25  1  0.728075  0.602730  0.541463  1
  O  O26  1  0.737662  0.518215  0.050012  1
  O  O27  1  0.467565  0.267476  0.424987  1
  O  O28  1  0.615075  0.259758  0.214197  1
  O  O29  1  0.839688  0.442539  0.800077  1
  O  O30  1  0.624675  0.042939  0.700559  1
  O  O31  1  0.914523  0.192334  0.456482  1
  O  O32  1  0.772905  0.946326  0.898495  1
  O  O33  1  0.049187  0.100022  0.249703  1
