# generated using pymatgen
data_DyLu3C2Cl3
_symmetry_space_group_name_H-M   'P 1'
_cell_length_a   3.58716100
_cell_length_b   10.23741600
_cell_length_c   19.51550100
_cell_angle_alpha   90.00000000
_cell_angle_beta   90.00000000
_cell_angle_gamma   90.00000000
_symmetry_Int_Tables_number   1
_chemical_formula_structural   DyLu3C2Cl3
_chemical_formula_sum   'Dy4 Lu12 C8 Cl12'
_cell_volume   716.67280586
_cell_formula_units_Z   4
loop_
 _symmetry_equiv_pos_site_id
 _symmetry_equiv_pos_as_xyz
  1  'x, y, z'
loop_
 _atom_site_type_symbol
 _atom_site_label
 _atom_site_symmetry_multiplicity
 _atom_site_fract_x
 _atom_site_fract_y
 _atom_site_fract_z
 _atom_site_occupancy
  Dy  Dy0  1  0.250000  0.138066  0.573713  1
  Dy  Dy1  1  0.250000  0.638066  0.926287  1
  Dy  Dy2  1  0.750000  0.861934  0.426287  1
  Dy  Dy3  1  0.750000  0.361934  0.073713  1
  Lu  Lu4  1  0.250000  0.636095  0.757298  1
  Lu  Lu5  1  0.250000  0.136095  0.742702  1
  Lu  Lu6  1  0.750000  0.363905  0.242702  1
  Lu  Lu7  1  0.750000  0.863905  0.257298  1
  Lu  Lu8  1  0.250000  0.100546  0.329757  1
  Lu  Lu9  1  0.250000  0.600546  0.170243  1
  Lu  Lu10  1  0.750000  0.899454  0.670243  1
  Lu  Lu11  1  0.750000  0.399454  0.829757  1
  Lu  Lu12  1  0.250000  0.127057  0.167331  1
  Lu  Lu13  1  0.250000  0.627057  0.332669  1
  Lu  Lu14  1  0.750000  0.872943  0.832669  1
  Lu  Lu15  1  0.750000  0.372943  0.667331  1
  C  C16  1  0.250000  0.864874  0.345476  1
  C  C17  1  0.250000  0.364874  0.154524  1
  C  C18  1  0.750000  0.135126  0.654524  1
  C  C19  1  0.750000  0.635126  0.845476  1
  C  C20  1  0.250000  0.386706  0.750258  1
  C  C21  1  0.250000  0.886706  0.749742  1
  C  C22  1  0.750000  0.613294  0.249742  1
  C  C23  1  0.750000  0.113294  0.250258  1
  Cl  Cl24  1  0.250000  0.371300  0.949677  1
  Cl  Cl25  1  0.250000  0.871300  0.550323  1
  Cl  Cl26  1  0.750000  0.628700  0.050323  1
  Cl  Cl27  1  0.750000  0.128700  0.449677  1
  Cl  Cl28  1  0.250000  0.894082  0.940084  1
  Cl  Cl29  1  0.250000  0.394082  0.559916  1
  Cl  Cl30  1  0.750000  0.105918  0.059916  1
  Cl  Cl31  1  0.750000  0.605918  0.440084  1
  Cl  Cl32  1  0.250000  0.361806  0.351197  1
  Cl  Cl33  1  0.250000  0.861806  0.148803  1
  Cl  Cl34  1  0.750000  0.638194  0.648803  1
  Cl  Cl35  1  0.750000  0.138194  0.851197  1
