# generated using pymatgen
data_TmLu5Al24IrRu7
_symmetry_space_group_name_H-M   'P 1'
_cell_length_a   8.74506911
_cell_length_b   8.74299583
_cell_length_c   9.54268413
_cell_angle_alpha   89.92048872
_cell_angle_beta   90.07808915
_cell_angle_gamma   119.99232074
_symmetry_Int_Tables_number   1
_chemical_formula_structural   TmLu5Al24IrRu7
_chemical_formula_sum   'Tm1 Lu5 Al24 Ir1 Ru7'
_cell_volume   631.91367064
_cell_formula_units_Z   1
loop_
 _symmetry_equiv_pos_site_id
 _symmetry_equiv_pos_as_xyz
  1  'x, y, z'
loop_
 _atom_site_type_symbol
 _atom_site_label
 _atom_site_symmetry_multiplicity
 _atom_site_fract_x
 _atom_site_fract_y
 _atom_site_fract_z
 _atom_site_occupancy
  Tm  Tm0  1  0.193428  0.387684  0.250764  1
  Lu  Lu1  1  0.805080  0.195015  0.749845  1
  Lu  Lu2  1  0.195016  0.804985  0.250139  1
  Lu  Lu3  1  0.389115  0.194168  0.749308  1
  Lu  Lu4  1  0.610740  0.805772  0.250686  1
  Lu  Lu5  1  0.806024  0.611149  0.749290  1
  Al  Al6  1  0.667609  0.332579  0.979445  1
  Al  Al7  1  0.332507  0.667651  0.019966  1
  Al  Al8  1  0.333394  0.666870  0.480180  1
  Al  Al9  1  0.666748  0.333435  0.520408  1
  Al  Al10  1  0.836907  0.162787  0.421955  1
  Al  Al11  1  0.162792  0.837230  0.578421  1
  Al  Al12  1  0.325650  0.162919  0.421830  1
  Al  Al13  1  0.162430  0.837597  0.921446  1
  Al  Al14  1  0.674683  0.837096  0.578546  1
  Al  Al15  1  0.837319  0.162422  0.078157  1
  Al  Al16  1  0.837060  0.674623  0.421867  1
  Al  Al17  1  0.675134  0.838614  0.921487  1
  Al  Al18  1  0.162994  0.325447  0.578867  1
  Al  Al19  1  0.325133  0.161431  0.078145  1
  Al  Al20  1  0.161465  0.324985  0.921224  1
  Al  Al21  1  0.838576  0.675091  0.078087  1
  Al  Al22  1  0.438542  0.561685  0.748734  1
  Al  Al23  1  0.562055  0.438524  0.251260  1
  Al  Al24  1  0.122370  0.561002  0.750071  1
  Al  Al25  1  0.877254  0.439228  0.249898  1
  Al  Al26  1  0.439142  0.877691  0.750069  1
  Al  Al27  1  0.560871  0.122347  0.249919  1
  Al  Al28  1  0.000199  0.000023  0.750032  1
  Al  Al29  1  0.999332  0.999095  0.249966  1
  Ir  Ir30  1  0.500219  0.500146  0.999885  1
  Ru  Ru31  1  0.999942  0.500172  0.999850  1
  Ru  Ru32  1  0.500193  0.500130  0.500133  1
  Ru  Ru33  1  0.500041  0.000055  0.999972  1
  Ru  Ru34  1  0.999959  0.500106  0.500114  1
  Ru  Ru35  1  0.500020  0.000087  0.500021  1
  Ru  Ru36  1  0.000033  0.000067  0.000021  1
  Ru  Ru37  1  0.000028  0.000090  0.499989  1
