# generated using pymatgen
data_Tm8MgSc11Si15Au
_symmetry_space_group_name_H-M   'P 1'
_cell_length_a   7.04667075
_cell_length_b   7.32891929
_cell_length_c   14.01339489
_cell_angle_alpha   89.91155542
_cell_angle_beta   89.55662860
_cell_angle_gamma   90.22733131
_symmetry_Int_Tables_number   1
_chemical_formula_structural   Tm8MgSc11Si15Au
_chemical_formula_sum   'Tm8 Mg1 Sc11 Si15 Au1'
_cell_volume   723.68624683
_cell_formula_units_Z   1
loop_
 _symmetry_equiv_pos_site_id
 _symmetry_equiv_pos_as_xyz
  1  'x, y, z'
loop_
 _atom_site_type_symbol
 _atom_site_label
 _atom_site_symmetry_multiplicity
 _atom_site_fract_x
 _atom_site_fract_y
 _atom_site_fract_z
 _atom_site_occupancy
  Tm  Tm0  1  0.012429  0.176798  0.096333  1
  Tm  Tm1  1  0.988858  0.819480  0.903367  1
  Tm  Tm2  1  0.485311  0.676002  0.903847  1
  Tm  Tm3  1  0.990794  0.822585  0.597566  1
  Tm  Tm4  1  0.510252  0.324327  0.095537  1
  Tm  Tm5  1  0.009471  0.176101  0.400202  1
  Tm  Tm6  1  0.507672  0.323238  0.401872  1
  Tm  Tm7  1  0.490489  0.674888  0.599559  1
  Mg  Mg8  1  0.160291  0.504793  0.749841  1
  Sc  Sc9  1  0.836812  0.497564  0.250329  1
  Sc  Sc10  1  0.338261  0.001907  0.249337  1
  Sc  Sc11  1  0.662634  0.996093  0.751205  1
  Sc  Sc12  1  0.337302  0.179254  0.626264  1
  Sc  Sc13  1  0.665868  0.824434  0.372849  1
  Sc  Sc14  1  0.167454  0.672465  0.372569  1
  Sc  Sc15  1  0.670150  0.824119  0.125599  1
  Sc  Sc16  1  0.832874  0.328094  0.625082  1
  Sc  Sc17  1  0.327170  0.179020  0.876167  1
  Sc  Sc18  1  0.833475  0.324125  0.876057  1
  Sc  Sc19  1  0.171561  0.677038  0.124808  1
  Si  Si20  1  0.032325  0.105850  0.750287  1
  Si  Si21  1  0.968514  0.887663  0.248604  1
  Si  Si22  1  0.466851  0.612354  0.248258  1
  Si  Si23  1  0.540063  0.385269  0.752907  1
  Si  Si24  1  0.287957  0.878061  0.751362  1
  Si  Si25  1  0.712192  0.131486  0.248643  1
  Si  Si26  1  0.212767  0.368556  0.247731  1
  Si  Si27  1  0.779512  0.630970  0.752712  1
  Si  Si28  1  0.830841  0.537327  0.460271  1
  Si  Si29  1  0.338582  0.962451  0.461465  1
  Si  Si30  1  0.842184  0.535606  0.038390  1
  Si  Si31  1  0.659458  0.034529  0.537826  1
  Si  Si32  1  0.159757  0.462733  0.965837  1
  Si  Si33  1  0.658713  0.033592  0.961085  1
  Si  Si34  1  0.344425  0.966949  0.039109  1
  Au  Au35  1  0.166730  0.464281  0.537120  1
