# generated using pymatgen
data_Cs12Zn3CoBr20
_symmetry_space_group_name_H-M   'P 1'
_cell_length_a   9.63672668
_cell_length_b   11.09159000
_cell_length_c   14.32806496
_cell_angle_alpha   90.00009048
_cell_angle_beta   90.04253669
_cell_angle_gamma   89.99999998
_symmetry_Int_Tables_number   1
_chemical_formula_structural   Cs12Zn3CoBr20
_chemical_formula_sum   'Cs12 Zn3 Co1 Br20'
_cell_volume   1531.47803134
_cell_formula_units_Z   1
loop_
 _symmetry_equiv_pos_site_id
 _symmetry_equiv_pos_as_xyz
  1  'x, y, z'
loop_
 _atom_site_type_symbol
 _atom_site_label
 _atom_site_symmetry_multiplicity
 _atom_site_fract_x
 _atom_site_fract_y
 _atom_site_fract_z
 _atom_site_occupancy
  Cs  Cs0  1  0.090395  0.750000  0.046351  1
  Cs  Cs1  1  0.586999  0.518924  0.172711  1
  Cs  Cs2  1  0.587000  0.981078  0.172712  1
  Cs  Cs3  1  0.087327  0.518822  0.327030  1
  Cs  Cs4  1  0.087327  0.981177  0.327030  1
  Cs  Cs5  1  0.590040  0.750000  0.453696  1
  Cs  Cs6  1  0.410002  0.250000  0.546084  1
  Cs  Cs7  1  0.912884  0.018997  0.672750  1
  Cs  Cs8  1  0.912883  0.481005  0.672750  1
  Cs  Cs9  1  0.412680  0.019127  0.827479  1
  Cs  Cs10  1  0.412680  0.480873  0.827479  1
  Cs  Cs11  1  0.910459  0.249999  0.954100  1
  Zn  Zn12  1  0.811442  0.250000  0.394143  1
  Zn  Zn13  1  0.188610  0.750000  0.605797  1
  Zn  Zn14  1  0.688534  0.750000  0.894267  1
  Co  Co15  1  0.311787  0.250000  0.105316  1
  Br  Br16  1  0.524924  0.249999  0.016110  1
  Br  Br17  1  0.192309  0.066828  0.064322  1
  Br  Br18  1  0.192308  0.433173  0.064322  1
  Br  Br19  1  0.860840  0.250001  0.227344  1
  Br  Br20  1  0.838786  0.750000  0.238515  1
  Br  Br21  1  0.338629  0.749999  0.261438  1
  Br  Br22  1  0.359911  0.250001  0.270147  1
  Br  Br23  1  0.690387  0.065082  0.436412  1
  Br  Br24  1  0.690386  0.434918  0.436412  1
  Br  Br25  1  0.028344  0.250000  0.484851  1
  Br  Br26  1  0.971742  0.750000  0.515083  1
  Br  Br27  1  0.309533  0.564998  0.563541  1
  Br  Br28  1  0.309533  0.935002  0.563541  1
  Br  Br29  1  0.638888  0.750000  0.727414  1
  Br  Br30  1  0.661154  0.250001  0.738774  1
  Br  Br31  1  0.161305  0.249999  0.761465  1
  Br  Br32  1  0.139064  0.749999  0.772620  1
  Br  Br33  1  0.809535  0.564936  0.936559  1
  Br  Br34  1  0.809534  0.935063  0.936560  1
  Br  Br35  1  0.471825  0.749999  0.984870  1
