# generated using pymatgen
data_Y6Er3Lu7(CdIr)4
_symmetry_space_group_name_H-M   'P 1'
_cell_length_a   9.54409860
_cell_length_b   9.54002652
_cell_length_c   9.54002700
_cell_angle_alpha   60.00000181
_cell_angle_beta   60.01411458
_cell_angle_gamma   60.01410955
_symmetry_Int_Tables_number   1
_chemical_formula_structural   Y6Er3Lu7(CdIr)4
_chemical_formula_sum   'Y6 Er3 Lu7 Cd4 Ir4'
_cell_volume   614.34413306
_cell_formula_units_Z   1
loop_
 _symmetry_equiv_pos_site_id
 _symmetry_equiv_pos_as_xyz
  1  'x, y, z'
loop_
 _atom_site_type_symbol
 _atom_site_label
 _atom_site_symmetry_multiplicity
 _atom_site_fract_x
 _atom_site_fract_y
 _atom_site_fract_z
 _atom_site_occupancy
  Y  Y0  1  0.939204  0.560711  0.560711  1
  Y  Y1  1  0.561628  0.938746  0.938746  1
  Y  Y2  1  0.561628  0.938746  0.560879  1
  Y  Y3  1  0.939204  0.560711  0.939375  1
  Y  Y4  1  0.561628  0.560879  0.938746  1
  Y  Y5  1  0.939204  0.939375  0.560711  1
  Er  Er6  1  0.349104  0.349290  0.349290  1
  Er  Er7  1  0.349104  0.349290  0.952317  1
  Er  Er8  1  0.349104  0.952317  0.349290  1
  Lu  Lu9  1  0.954645  0.348452  0.348452  1
  Lu  Lu10  1  0.812402  0.187585  0.187585  1
  Lu  Lu11  1  0.186658  0.812901  0.812901  1
  Lu  Lu12  1  0.186658  0.812901  0.187541  1
  Lu  Lu13  1  0.812402  0.187585  0.812428  1
  Lu  Lu14  1  0.186658  0.187541  0.812901  1
  Lu  Lu15  1  0.812402  0.812428  0.187585  1
  Cd  Cd16  1  0.580430  0.579789  0.579789  1
  Cd  Cd17  1  0.580430  0.579789  0.259995  1
  Cd  Cd18  1  0.580430  0.259995  0.579789  1
  Cd  Cd19  1  0.259770  0.580077  0.580077  1
  Ir  Ir20  1  0.140262  0.141850  0.141850  1
  Ir  Ir21  1  0.140262  0.141850  0.576039  1
  Ir  Ir22  1  0.140262  0.576039  0.141850  1
  Ir  Ir23  1  0.576524  0.141159  0.141159  1
