# generated using pymatgen
data_Dy5V3P12Ir7Rh9
_symmetry_space_group_name_H-M   'P 1'
_cell_length_a   12.69344600
_cell_length_b   12.69344626
_cell_length_c   3.91871300
_cell_angle_alpha   90.00000000
_cell_angle_beta   90.00000000
_cell_angle_gamma   119.99999932
_symmetry_Int_Tables_number   1
_chemical_formula_structural   Dy5V3P12Ir7Rh9
_chemical_formula_sum   'Dy5 V3 P12 Ir7 Rh9'
_cell_volume   546.80588608
_cell_formula_units_Z   1
loop_
 _symmetry_equiv_pos_site_id
 _symmetry_equiv_pos_as_xyz
  1  'x, y, z'
loop_
 _atom_site_type_symbol
 _atom_site_label
 _atom_site_symmetry_multiplicity
 _atom_site_fract_x
 _atom_site_fract_y
 _atom_site_fract_z
 _atom_site_occupancy
  Dy  Dy0  1  0.333333  0.666667  0.500000  1
  Dy  Dy1  1  0.666667  0.333333  0.500000  1
  Dy  Dy2  1  0.000097  0.810734  0.000000  1
  Dy  Dy3  1  0.189266  0.189363  0.000000  1
  Dy  Dy4  1  0.810637  0.999903  0.000000  1
  V  V5  1  0.000166  0.449617  0.500000  1
  V  V6  1  0.550383  0.550548  0.500000  1
  V  V7  1  0.449452  0.999834  0.500000  1
  P  P8  1  0.999599  0.634562  0.500000  1
  P  P9  1  0.365438  0.365037  0.500000  1
  P  P10  1  0.634963  0.000401  0.500000  1
  P  P11  1  0.516685  0.682875  0.000000  1
  P  P12  1  0.317125  0.833809  0.000000  1
  P  P13  1  0.166191  0.483315  0.000000  1
  P  P14  1  0.482917  0.165603  0.000000  1
  P  P15  1  0.682685  0.517083  0.000000  1
  P  P16  1  0.834397  0.317315  0.000000  1
  P  P17  1  0.000401  0.177679  0.500000  1
  P  P18  1  0.822321  0.822722  0.500000  1
  P  P19  1  0.177278  0.999599  0.500000  1
  Ir  Ir20  1  0.488652  0.357275  0.000000  1
  Ir  Ir21  1  0.868624  0.511348  0.000000  1
  Ir  Ir22  1  0.642725  0.131376  0.000000  1
  Ir  Ir23  1  0.000128  0.283894  0.000000  1
  Ir  Ir24  1  0.716106  0.716235  0.000000  1
  Ir  Ir25  1  0.283765  0.999872  0.000000  1
  Ir  Ir26  1  0.000000  0.000000  0.500000  1
  Rh  Rh27  1  0.512255  0.869857  0.000000  1
  Rh  Rh28  1  0.130143  0.642399  0.000000  1
  Rh  Rh29  1  0.357601  0.487745  0.000000  1
  Rh  Rh30  1  0.623435  0.802397  0.500000  1
  Rh  Rh31  1  0.197603  0.821037  0.500000  1
  Rh  Rh32  1  0.178963  0.376565  0.500000  1
  Rh  Rh33  1  0.375445  0.178359  0.500000  1
  Rh  Rh34  1  0.802913  0.624555  0.500000  1
  Rh  Rh35  1  0.821641  0.197087  0.500000  1
