# generated using pymatgen
data_Hf5Sc(Ni3P2)6
_symmetry_space_group_name_H-M   'P 1'
_cell_length_a   3.63412300
_cell_length_b   10.33178900
_cell_length_c   12.06271200
_cell_angle_alpha   90.00000000
_cell_angle_beta   90.00094796
_cell_angle_gamma   90.00000000
_symmetry_Int_Tables_number   1
_chemical_formula_structural   Hf5Sc(Ni3P2)6
_chemical_formula_sum   'Hf5 Sc1 Ni18 P12'
_cell_volume   452.91855137
_cell_formula_units_Z   1
loop_
 _symmetry_equiv_pos_site_id
 _symmetry_equiv_pos_as_xyz
  1  'x, y, z'
loop_
 _atom_site_type_symbol
 _atom_site_label
 _atom_site_symmetry_multiplicity
 _atom_site_fract_x
 _atom_site_fract_y
 _atom_site_fract_z
 _atom_site_occupancy
  Hf  Hf0  1  0.751972  0.000000  0.474076  1
  Hf  Hf1  1  0.251852  0.678419  0.794356  1
  Hf  Hf2  1  0.251852  0.321581  0.794356  1
  Hf  Hf3  1  0.751846  0.822092  0.205897  1
  Hf  Hf4  1  0.751846  0.177908  0.205897  1
  Sc  Sc5  1  0.251967  0.500000  0.525617  1
  Ni  Ni6  1  0.751743  0.000000  0.014595  1
  Ni  Ni7  1  0.251760  0.500000  0.985734  1
  Ni  Ni8  1  0.251919  0.196717  0.568713  1
  Ni  Ni9  1  0.251919  0.803283  0.568713  1
  Ni  Ni10  1  0.751970  0.300385  0.430988  1
  Ni  Ni11  1  0.751970  0.699615  0.430988  1
  Ni  Ni12  1  0.251833  0.625164  0.291628  1
  Ni  Ni13  1  0.251833  0.374836  0.291628  1
  Ni  Ni14  1  0.751829  0.875432  0.707501  1
  Ni  Ni15  1  0.751829  0.124568  0.707501  1
  Ni  Ni16  1  0.251764  0.169029  0.004506  1
  Ni  Ni17  1  0.251764  0.830971  0.004506  1
  Ni  Ni18  1  0.751761  0.330769  0.995634  1
  Ni  Ni19  1  0.751761  0.669231  0.995634  1
  Ni  Ni20  1  0.251385  0.000000  0.835690  1
  Ni  Ni21  1  0.751410  0.500000  0.164352  1
  Ni  Ni22  1  0.251814  0.000000  0.300088  1
  Ni  Ni23  1  0.751821  0.500000  0.700947  1
  P  P24  1  0.251959  0.183012  0.383775  1
  P  P25  1  0.251959  0.816988  0.383775  1
  P  P26  1  0.751925  0.317298  0.616441  1
  P  P27  1  0.751925  0.682702  0.616441  1
  P  P28  1  0.251796  0.000000  0.123570  1
  P  P29  1  0.751780  0.500000  0.876764  1
  P  P30  1  0.251768  0.655853  0.112836  1
  P  P31  1  0.251768  0.344147  0.112836  1
  P  P32  1  0.751765  0.844353  0.886907  1
  P  P33  1  0.751765  0.155647  0.886907  1
  P  P34  1  0.251891  0.000000  0.647966  1
  P  P35  1  0.751881  0.500000  0.352235  1
