# generated using pymatgen
data_Ti4SiB2Mo
_symmetry_space_group_name_H-M   'P 1'
_cell_length_a   7.16053630
_cell_length_b   7.16053610
_cell_length_c   7.16053553
_cell_angle_alpha   129.61898861
_cell_angle_beta   129.61899430
_cell_angle_gamma   74.01661317
_symmetry_Int_Tables_number   1
_chemical_formula_structural   Ti4SiB2Mo
_chemical_formula_sum   'Ti8 Si2 B4 Mo2'
_cell_volume   212.45200650
_cell_formula_units_Z   2
loop_
 _symmetry_equiv_pos_site_id
 _symmetry_equiv_pos_as_xyz
  1  'x, y, z'
loop_
 _atom_site_type_symbol
 _atom_site_label
 _atom_site_symmetry_multiplicity
 _atom_site_fract_x
 _atom_site_fract_y
 _atom_site_fract_z
 _atom_site_occupancy
  Ti  Ti0  1  0.807476  0.956370  0.500000  1
  Ti  Ti1  1  0.307476  0.807476  0.851106  1
  Ti  Ti2  1  0.192524  0.043630  0.500000  1
  Ti  Ti3  1  0.543630  0.692524  0.500000  1
  Ti  Ti4  1  0.043630  0.543630  0.851106  1
  Ti  Ti5  1  0.692524  0.192524  0.148894  1
  Ti  Ti6  1  0.956370  0.456370  0.148894  1
  Ti  Ti7  1  0.456370  0.307476  0.500000  1
  Si  Si8  1  0.750000  0.750000  0.000000  1
  Si  Si9  1  0.250000  0.250000  0.000000  1
  B  B10  1  0.392120  0.892120  0.284241  1
  B  B11  1  0.892120  0.607880  0.500000  1
  B  B12  1  0.607880  0.107880  0.715759  1
  B  B13  1  0.107880  0.392120  0.500000  1
  Mo  Mo14  1  0.000000  0.000000  0.000000  1
  Mo  Mo15  1  0.500000  0.500000  0.000000  1
