# generated using pymatgen
data_Tm2Hf3(In2Pt)2
_symmetry_space_group_name_H-M   'P 1'
_cell_length_a   3.52440000
_cell_length_b   7.73638500
_cell_length_c   17.54307700
_cell_angle_alpha   90.00000000
_cell_angle_beta   90.00000000
_cell_angle_gamma   90.00000000
_symmetry_Int_Tables_number   1
_chemical_formula_structural   Tm2Hf3(In2Pt)2
_chemical_formula_sum   'Tm4 Hf6 In8 Pt4'
_cell_volume   478.33156009
_cell_formula_units_Z   2
loop_
 _symmetry_equiv_pos_site_id
 _symmetry_equiv_pos_as_xyz
  1  'x, y, z'
loop_
 _atom_site_type_symbol
 _atom_site_label
 _atom_site_symmetry_multiplicity
 _atom_site_fract_x
 _atom_site_fract_y
 _atom_site_fract_z
 _atom_site_occupancy
  Tm  Tm0  1  0.000000  0.248661  0.219191  1
  Tm  Tm1  1  0.000000  0.751339  0.780809  1
  Tm  Tm2  1  0.000000  0.251339  0.719191  1
  Tm  Tm3  1  0.000000  0.748661  0.280809  1
  Hf  Hf4  1  0.000000  0.128281  0.420233  1
  Hf  Hf5  1  0.000000  0.871719  0.579767  1
  Hf  Hf6  1  0.000000  0.371719  0.920233  1
  Hf  Hf7  1  0.000000  0.628281  0.079767  1
  Hf  Hf8  1  0.000000  0.000000  0.000000  1
  Hf  Hf9  1  0.000000  0.500000  0.500000  1
  In  In10  1  0.500000  0.428158  0.353608  1
  In  In11  1  0.500000  0.571842  0.646392  1
  In  In12  1  0.500000  0.071842  0.853608  1
  In  In13  1  0.500000  0.928158  0.146392  1
  In  In14  1  0.500000  0.295881  0.061446  1
  In  In15  1  0.500000  0.704119  0.938554  1
  In  In16  1  0.500000  0.204119  0.561446  1
  In  In17  1  0.500000  0.795881  0.438554  1
  Pt  Pt18  1  0.500000  0.039229  0.310043  1
  Pt  Pt19  1  0.500000  0.960771  0.689957  1
  Pt  Pt20  1  0.500000  0.460771  0.810043  1
  Pt  Pt21  1  0.500000  0.539229  0.189957  1
