# generated using pymatgen
data_Y2Si4Tc3
_symmetry_space_group_name_H-M   'P 1'
_cell_length_a   6.80083300
_cell_length_b   6.78826815
_cell_length_c   6.79092203
_cell_angle_alpha   69.75597607
_cell_angle_beta   90.00000000
_cell_angle_gamma   90.00000000
_symmetry_Int_Tables_number   1
_chemical_formula_structural   Y2Si4Tc3
_chemical_formula_sum   'Y4 Si8 Tc6'
_cell_volume   294.14263002
_cell_formula_units_Z   2
loop_
 _symmetry_equiv_pos_site_id
 _symmetry_equiv_pos_as_xyz
  1  'x, y, z'
loop_
 _atom_site_type_symbol
 _atom_site_label
 _atom_site_symmetry_multiplicity
 _atom_site_fract_x
 _atom_site_fract_y
 _atom_site_fract_z
 _atom_site_occupancy
  Y  Y0  1  0.167799  0.941109  0.191708  1
  Y  Y1  1  0.332201  0.441109  0.191708  1
  Y  Y2  1  0.832201  0.058891  0.808292  1
  Y  Y3  1  0.667799  0.558891  0.808292  1
  Si  Si4  1  0.551964  0.120952  0.103781  1
  Si  Si5  1  0.358102  0.630514  0.513745  1
  Si  Si6  1  0.858102  0.869486  0.486255  1
  Si  Si7  1  0.051964  0.379048  0.896219  1
  Si  Si8  1  0.141898  0.130514  0.513745  1
  Si  Si9  1  0.641898  0.369486  0.486255  1
  Si  Si10  1  0.948036  0.620952  0.103781  1
  Si  Si11  1  0.448036  0.879048  0.896219  1
  Tc  Tc12  1  0.849874  0.242794  0.240104  1
  Tc  Tc13  1  0.349874  0.257206  0.759896  1
  Tc  Tc14  1  0.150126  0.757206  0.759896  1
  Tc  Tc15  1  0.650126  0.742794  0.240104  1
  Tc  Tc16  1  0.500000  0.000000  0.500000  1
  Tc  Tc17  1  0.000000  0.500000  0.500000  1
