# generated using pymatgen
data_Y4HoRuRh4
_symmetry_space_group_name_H-M   'P 1'
_cell_length_a   3.42407600
_cell_length_b   3.42407600
_cell_length_c   17.24076500
_cell_angle_alpha   90.00000000
_cell_angle_beta   90.00000000
_cell_angle_gamma   90.00000000
_symmetry_Int_Tables_number   1
_chemical_formula_structural   Y4HoRuRh4
_chemical_formula_sum   'Y4 Ho1 Ru1 Rh4'
_cell_volume   202.13583995
_cell_formula_units_Z   1
loop_
 _symmetry_equiv_pos_site_id
 _symmetry_equiv_pos_as_xyz
  1  'x, y, z'
loop_
 _atom_site_type_symbol
 _atom_site_label
 _atom_site_symmetry_multiplicity
 _atom_site_fract_x
 _atom_site_fract_y
 _atom_site_fract_z
 _atom_site_occupancy
  Y  Y0  1  0.000000  0.000000  0.197058  1
  Y  Y1  1  0.000000  0.000000  0.398514  1
  Y  Y2  1  0.000000  0.000000  0.600288  1
  Y  Y3  1  0.000000  0.000000  0.802001  1
  Ho  Ho4  1  0.000000  0.000000  0.002022  1
  Ru  Ru5  1  0.500000  0.500000  0.097990  1
  Rh  Rh6  1  0.500000  0.500000  0.300266  1
  Rh  Rh7  1  0.500000  0.500000  0.500148  1
  Rh  Rh8  1  0.500000  0.500000  0.700512  1
  Rh  Rh9  1  0.500000  0.500000  0.901201  1
