# generated using pymatgen
data_CrFe7Ge4(O2F)8
_symmetry_space_group_name_H-M   'P 1'
_cell_length_a   4.99360670
_cell_length_b   9.05677007
_cell_length_c   9.48252927
_cell_angle_alpha   90.00746083
_cell_angle_beta   90.05914431
_cell_angle_gamma   90.01193342
_symmetry_Int_Tables_number   1
_chemical_formula_structural   CrFe7Ge4(O2F)8
_chemical_formula_sum   'Cr1 Fe7 Ge4 O16 F8'
_cell_volume   428.85613128
_cell_formula_units_Z   1
loop_
 _symmetry_equiv_pos_site_id
 _symmetry_equiv_pos_as_xyz
  1  'x, y, z'
loop_
 _atom_site_type_symbol
 _atom_site_label
 _atom_site_symmetry_multiplicity
 _atom_site_fract_x
 _atom_site_fract_y
 _atom_site_fract_z
 _atom_site_occupancy
  Cr  Cr0  1  0.598918  0.416947  0.869302  1
  Fe  Fe1  1  0.401651  0.916261  0.129080  1
  Fe  Fe2  1  0.598125  0.083876  0.871381  1
  Fe  Fe3  1  0.902601  0.416203  0.370373  1
  Fe  Fe4  1  0.097857  0.583817  0.629279  1
  Fe  Fe5  1  0.402641  0.583444  0.128777  1
  Fe  Fe6  1  0.902815  0.084178  0.370533  1
  Fe  Fe7  1  0.097899  0.916333  0.629352  1
  Ge  Ge8  1  0.603361  0.749985  0.438586  1
  Ge  Ge9  1  0.896526  0.749116  0.938698  1
  Ge  Ge10  1  0.103548  0.251020  0.060139  1
  Ge  Ge11  1  0.398200  0.250287  0.561968  1
  O  O12  1  0.710474  0.908812  0.990447  1
  O  O13  1  0.789417  0.909739  0.490350  1
  O  O14  1  0.789167  0.590278  0.490436  1
  O  O15  1  0.210443  0.749920  0.028809  1
  O  O16  1  0.287684  0.090355  0.009198  1
  O  O17  1  0.289879  0.410478  0.007814  1
  O  O18  1  0.957871  0.749473  0.752798  1
  O  O19  1  0.290198  0.749654  0.529415  1
  O  O20  1  0.211432  0.090867  0.510023  1
  O  O21  1  0.541593  0.750010  0.252844  1
  O  O22  1  0.788015  0.251024  0.971005  1
  O  O23  1  0.211669  0.409910  0.510358  1
  O  O24  1  0.712910  0.588669  0.991409  1
  O  O25  1  0.711369  0.250152  0.471309  1
  O  O26  1  0.041732  0.250500  0.246264  1
  O  O27  1  0.458892  0.249676  0.748129  1
  F  F28  1  0.085579  0.940262  0.249091  1
  F  F29  1  0.085536  0.559494  0.248475  1
  F  F30  1  0.910554  0.439252  0.749249  1
  F  F31  1  0.414963  0.940345  0.748760  1
  F  F32  1  0.585526  0.059880  0.251008  1
  F  F33  1  0.584190  0.440122  0.251791  1
  F  F34  1  0.411907  0.560210  0.751969  1
  F  F35  1  0.914862  0.059450  0.751583  1
