# generated using pymatgen
data_Pr4AlZn3Ir4
_symmetry_space_group_name_H-M   'P 1'
_cell_length_a   4.25367500
_cell_length_b   7.18612003
_cell_length_c   8.21226801
_cell_angle_alpha   90.00799918
_cell_angle_beta   90.00000000
_cell_angle_gamma   90.00000000
_symmetry_Int_Tables_number   1
_chemical_formula_structural   Pr4AlZn3Ir4
_chemical_formula_sum   'Pr4 Al1 Zn3 Ir4'
_cell_volume   251.02783571
_cell_formula_units_Z   1
loop_
 _symmetry_equiv_pos_site_id
 _symmetry_equiv_pos_as_xyz
  1  'x, y, z'
loop_
 _atom_site_type_symbol
 _atom_site_label
 _atom_site_symmetry_multiplicity
 _atom_site_fract_x
 _atom_site_fract_y
 _atom_site_fract_z
 _atom_site_occupancy
  Pr  Pr0  1  0.250000  0.521269  0.807690  1
  Pr  Pr1  1  0.250000  0.027570  0.686623  1
  Pr  Pr2  1  0.750000  0.977431  0.312635  1
  Pr  Pr3  1  0.750000  0.473349  0.190023  1
  Al  Al4  1  0.750000  0.851530  0.932368  1
  Zn  Zn5  1  0.250000  0.151163  0.071462  1
  Zn  Zn6  1  0.750000  0.349453  0.569676  1
  Zn  Zn7  1  0.250000  0.654113  0.431454  1
  Ir  Ir8  1  0.250000  0.772360  0.097523  1
  Ir  Ir9  1  0.250000  0.270949  0.388530  1
  Ir  Ir10  1  0.750000  0.732251  0.620229  1
  Ir  Ir11  1  0.750000  0.218561  0.891789  1
