# generated using pymatgen
data_Hf3Zr7(Sn3S)2
_symmetry_space_group_name_H-M   'P 1'
_cell_length_a   8.56339500
_cell_length_b   8.56339509
_cell_length_c   5.98505100
_cell_angle_alpha   90.00000000
_cell_angle_beta   90.00000000
_cell_angle_gamma   119.99999581
_symmetry_Int_Tables_number   1
_chemical_formula_structural   Hf3Zr7(Sn3S)2
_chemical_formula_sum   'Hf3 Zr7 Sn6 S2'
_cell_volume   380.09351845
_cell_formula_units_Z   1
loop_
 _symmetry_equiv_pos_site_id
 _symmetry_equiv_pos_as_xyz
  1  'x, y, z'
loop_
 _atom_site_type_symbol
 _atom_site_label
 _atom_site_symmetry_multiplicity
 _atom_site_fract_x
 _atom_site_fract_y
 _atom_site_fract_z
 _atom_site_occupancy
  Hf  Hf0  1  0.666667  0.333333  0.000000  1
  Hf  Hf1  1  0.333333  0.666667  0.000000  1
  Hf  Hf2  1  0.333333  0.666667  0.500000  1
  Zr  Zr3  1  0.666667  0.333333  0.500000  1
  Zr  Zr4  1  0.748801  0.749125  0.750254  1
  Zr  Zr5  1  0.250875  0.999675  0.750254  1
  Zr  Zr6  1  0.000325  0.251199  0.750254  1
  Zr  Zr7  1  0.250875  0.251199  0.249746  1
  Zr  Zr8  1  0.748801  0.999675  0.249746  1
  Zr  Zr9  1  0.000325  0.749125  0.249746  1
  Sn  Sn10  1  0.399615  0.400062  0.750769  1
  Sn  Sn11  1  0.599938  0.999553  0.750769  1
  Sn  Sn12  1  0.000447  0.600385  0.750769  1
  Sn  Sn13  1  0.599938  0.600385  0.249231  1
  Sn  Sn14  1  0.399615  0.999553  0.249231  1
  Sn  Sn15  1  0.000447  0.400062  0.249231  1
  S  S16  1  0.000000  0.000000  0.000000  1
  S  S17  1  0.000000  0.000000  0.500000  1
