# generated using pymatgen
data_Pr4LuSn3
_symmetry_space_group_name_H-M   'P 1'
_cell_length_a   9.25632100
_cell_length_b   9.25632027
_cell_length_c   6.78182600
_cell_angle_alpha   90.00000000
_cell_angle_beta   90.00000000
_cell_angle_gamma   120.00000618
_symmetry_Int_Tables_number   1
_chemical_formula_structural   Pr4LuSn3
_chemical_formula_sum   'Pr8 Lu2 Sn6'
_cell_volume   503.21552066
_cell_formula_units_Z   2
loop_
 _symmetry_equiv_pos_site_id
 _symmetry_equiv_pos_as_xyz
  1  'x, y, z'
loop_
 _atom_site_type_symbol
 _atom_site_label
 _atom_site_symmetry_multiplicity
 _atom_site_fract_x
 _atom_site_fract_y
 _atom_site_fract_z
 _atom_site_occupancy
  Pr  Pr0  1  0.666667  0.333333  0.000000  1
  Pr  Pr1  1  0.333333  0.666667  0.000000  1
  Pr  Pr2  1  0.757440  0.757440  0.747663  1
  Pr  Pr3  1  0.242560  0.000000  0.747663  1
  Pr  Pr4  1  0.000000  0.242560  0.747663  1
  Pr  Pr5  1  0.242560  0.242560  0.252337  1
  Pr  Pr6  1  0.757440  0.000000  0.252337  1
  Pr  Pr7  1  0.000000  0.757440  0.252337  1
  Lu  Lu8  1  0.333333  0.666667  0.500000  1
  Lu  Lu9  1  0.666667  0.333333  0.500000  1
  Sn  Sn10  1  0.397166  0.397166  0.741713  1
  Sn  Sn11  1  0.602834  0.000000  0.741713  1
  Sn  Sn12  1  0.000000  0.602834  0.741713  1
  Sn  Sn13  1  0.602834  0.602834  0.258287  1
  Sn  Sn14  1  0.397166  0.000000  0.258287  1
  Sn  Sn15  1  0.000000  0.397166  0.258287  1
