# generated using pymatgen
data_Pr6VCo16P12W
_symmetry_space_group_name_H-M   'P 1'
_cell_length_a   3.78123500
_cell_length_b   10.72572300
_cell_length_c   12.45761900
_cell_angle_alpha   90.00000000
_cell_angle_beta   90.00000000
_cell_angle_gamma   90.00000000
_symmetry_Int_Tables_number   1
_chemical_formula_structural   Pr6VCo16P12W
_chemical_formula_sum   'Pr6 V1 Co16 P12 W1'
_cell_volume   505.23716595
_cell_formula_units_Z   1
loop_
 _symmetry_equiv_pos_site_id
 _symmetry_equiv_pos_as_xyz
  1  'x, y, z'
loop_
 _atom_site_type_symbol
 _atom_site_label
 _atom_site_symmetry_multiplicity
 _atom_site_fract_x
 _atom_site_fract_y
 _atom_site_fract_z
 _atom_site_occupancy
  Pr  Pr0  1  0.000000  0.500000  0.522379  1
  Pr  Pr1  1  0.500000  0.000000  0.476527  1
  Pr  Pr2  1  0.500000  0.818234  0.205087  1
  Pr  Pr3  1  0.500000  0.181766  0.205087  1
  Pr  Pr4  1  0.000000  0.680553  0.794945  1
  Pr  Pr5  1  0.000000  0.319447  0.794945  1
  V  V6  1  0.500000  0.500000  0.151214  1
  Co  Co7  1  0.500000  0.500000  0.703489  1
  Co  Co8  1  0.000000  0.000000  0.296853  1
  Co  Co9  1  0.000000  0.500000  0.988566  1
  Co  Co10  1  0.500000  0.000000  0.011704  1
  Co  Co11  1  0.500000  0.332732  0.994191  1
  Co  Co12  1  0.500000  0.667268  0.994191  1
  Co  Co13  1  0.000000  0.167409  0.007347  1
  Co  Co14  1  0.000000  0.832591  0.007347  1
  Co  Co15  1  0.500000  0.295888  0.430614  1
  Co  Co16  1  0.500000  0.704112  0.430614  1
  Co  Co17  1  0.000000  0.204367  0.569105  1
  Co  Co18  1  0.000000  0.795633  0.569105  1
  Co  Co19  1  0.500000  0.881162  0.709768  1
  Co  Co20  1  0.500000  0.118838  0.709768  1
  Co  Co21  1  0.000000  0.618676  0.290549  1
  Co  Co22  1  0.000000  0.381324  0.290549  1
  P  P23  1  0.500000  0.500000  0.887457  1
  P  P24  1  0.000000  0.000000  0.114105  1
  P  P25  1  0.500000  0.500000  0.340845  1
  P  P26  1  0.000000  0.000000  0.655892  1
  P  P27  1  0.500000  0.305890  0.613894  1
  P  P28  1  0.500000  0.694110  0.613894  1
  P  P29  1  0.000000  0.194290  0.386187  1
  P  P30  1  0.000000  0.805710  0.386187  1
  P  P31  1  0.500000  0.846115  0.895694  1
  P  P32  1  0.500000  0.153885  0.895694  1
  P  P33  1  0.000000  0.651830  0.105004  1
  P  P34  1  0.000000  0.348170  0.105004  1
  W  W35  1  0.000000  0.000000  0.846200  1
