# generated using pymatgen
data_Tb2Mn4Co3Ni5P7
_symmetry_space_group_name_H-M   'P 1'
_cell_length_a   9.09485986
_cell_length_b   9.11630677
_cell_length_c   3.66662800
_cell_angle_alpha   90.00000000
_cell_angle_beta   90.00000000
_cell_angle_gamma   119.91210599
_symmetry_Int_Tables_number   1
_chemical_formula_structural   Tb2Mn4Co3Ni5P7
_chemical_formula_sum   'Tb2 Mn4 Co3 Ni5 P7'
_cell_volume   263.50956796
_cell_formula_units_Z   1
loop_
 _symmetry_equiv_pos_site_id
 _symmetry_equiv_pos_as_xyz
  1  'x, y, z'
loop_
 _atom_site_type_symbol
 _atom_site_label
 _atom_site_symmetry_multiplicity
 _atom_site_fract_x
 _atom_site_fract_y
 _atom_site_fract_z
 _atom_site_occupancy
  Tb  Tb0  1  0.668453  0.334805  0.000000  1
  Tb  Tb1  1  0.332021  0.666849  0.500000  1
  Mn  Mn2  1  0.880651  0.155493  0.000000  1
  Mn  Mn3  1  0.097211  0.876726  0.500000  1
  Mn  Mn4  1  0.782898  0.901108  0.500000  1
  Mn  Mn5  1  0.118700  0.214736  0.500000  1
  Co  Co6  1  0.276621  0.120713  0.000000  1
  Co  Co7  1  0.842418  0.723050  0.000000  1
  Co  Co8  1  0.952660  0.388015  0.500000  1
  Ni  Ni9  1  0.060310  0.628799  0.000000  1
  Ni  Ni10  1  0.564452  0.937056  0.000000  1
  Ni  Ni11  1  0.370392  0.433241  0.000000  1
  Ni  Ni12  1  0.438718  0.052320  0.500000  1
  Ni  Ni13  1  0.612980  0.561835  0.500000  1
  P  P14  1  0.294593  0.889515  0.000000  1
  P  P15  1  0.592277  0.703708  0.000000  1
  P  P16  1  0.107926  0.407627  0.000000  1
  P  P17  1  0.399902  0.285390  0.500000  1
  P  P18  1  0.887624  0.598402  0.500000  1
  P  P19  1  0.718971  0.122384  0.500000  1
  P  P20  1  0.000223  0.998231  0.000000  1
