# generated using pymatgen
data_Yb2ErTm(Ga2Ag)4
_symmetry_space_group_name_H-M   'P 1'
_cell_length_a   4.34282200
_cell_length_b   6.95329231
_cell_length_c   10.32164651
_cell_angle_alpha   90.77515942
_cell_angle_beta   90.00000000
_cell_angle_gamma   90.00000000
_symmetry_Int_Tables_number   1
_chemical_formula_structural   Yb2ErTm(Ga2Ag)4
_chemical_formula_sum   'Yb2 Er1 Tm1 Ga8 Ag4'
_cell_volume   311.65331495
_cell_formula_units_Z   1
loop_
 _symmetry_equiv_pos_site_id
 _symmetry_equiv_pos_as_xyz
  1  'x, y, z'
loop_
 _atom_site_type_symbol
 _atom_site_label
 _atom_site_symmetry_multiplicity
 _atom_site_fract_x
 _atom_site_fract_y
 _atom_site_fract_z
 _atom_site_occupancy
  Yb  Yb0  1  0.750000  0.723947  0.327964  1
  Yb  Yb1  1  0.250000  0.276045  0.671991  1
  Er  Er2  1  0.250000  0.776842  0.828375  1
  Tm  Tm3  1  0.750000  0.223206  0.171600  1
  Ga  Ga4  1  0.250000  0.702986  0.535369  1
  Ga  Ga5  1  0.750000  0.296923  0.464527  1
  Ga  Ga6  1  0.750000  0.797071  0.035485  1
  Ga  Ga7  1  0.250000  0.203018  0.964632  1
  Ga  Ga8  1  0.250000  0.928432  0.151157  1
  Ga  Ga9  1  0.750000  0.071822  0.848875  1
  Ga  Ga10  1  0.750000  0.572643  0.652111  1
  Ga  Ga11  1  0.250000  0.427284  0.347803  1
  Ag  Ag12  1  0.250000  0.542051  0.099207  1
  Ag  Ag13  1  0.750000  0.457731  0.900931  1
  Ag  Ag14  1  0.750000  0.959607  0.598993  1
  Ag  Ag15  1  0.250000  0.040394  0.400981  1
