# generated using pymatgen
data_SmH7Os
_symmetry_space_group_name_H-M   'P 1'
_cell_length_a   4.75045396
_cell_length_b   4.67737579
_cell_length_c   7.89082600
_cell_angle_alpha   90.00000000
_cell_angle_beta   90.00000000
_cell_angle_gamma   62.72720059
_symmetry_Int_Tables_number   1
_chemical_formula_structural   SmH7Os
_chemical_formula_sum   'Sm2 H14 Os2'
_cell_volume   155.84071387
_cell_formula_units_Z   2
loop_
 _symmetry_equiv_pos_site_id
 _symmetry_equiv_pos_as_xyz
  1  'x, y, z'
loop_
 _atom_site_type_symbol
 _atom_site_label
 _atom_site_symmetry_multiplicity
 _atom_site_fract_x
 _atom_site_fract_y
 _atom_site_fract_z
 _atom_site_occupancy
  Sm  Sm0  1  0.000000  0.000000  0.000000  1
  Sm  Sm1  1  0.000000  0.000000  0.500000  1
  H  H2  1  0.787869  0.919115  0.250000  1
  H  H3  1  0.212131  0.080885  0.750000  1
  H  H4  1  0.705635  0.685678  0.458077  1
  H  H5  1  0.294365  0.314322  0.958077  1
  H  H6  1  0.294365  0.314322  0.541923  1
  H  H7  1  0.705635  0.685678  0.041923  1
  H  H8  1  0.498879  0.447992  0.358620  1
  H  H9  1  0.501121  0.552008  0.858620  1
  H  H10  1  0.501121  0.552008  0.641380  1
  H  H11  1  0.498879  0.447992  0.141380  1
  H  H12  1  0.300217  0.968736  0.250000  1
  H  H13  1  0.699783  0.031264  0.750000  1
  H  H14  1  0.031488  0.342323  0.250000  1
  H  H15  1  0.968512  0.657677  0.750000  1
  Os  Os16  1  0.656525  0.637552  0.250000  1
  Os  Os17  1  0.343475  0.362448  0.750000  1
