# generated using pymatgen
data_TbMgGa3Os
_symmetry_space_group_name_H-M   'P 1'
_cell_length_a   5.34638200
_cell_length_b   5.34638282
_cell_length_c   8.74788100
_cell_angle_alpha   90.00000000
_cell_angle_beta   90.00000000
_cell_angle_gamma   120.00000730
_symmetry_Int_Tables_number   1
_chemical_formula_structural   TbMgGa3Os
_chemical_formula_sum   'Tb2 Mg2 Ga6 Os2'
_cell_volume   216.54766484
_cell_formula_units_Z   2
loop_
 _symmetry_equiv_pos_site_id
 _symmetry_equiv_pos_as_xyz
  1  'x, y, z'
loop_
 _atom_site_type_symbol
 _atom_site_label
 _atom_site_symmetry_multiplicity
 _atom_site_fract_x
 _atom_site_fract_y
 _atom_site_fract_z
 _atom_site_occupancy
  Tb  Tb0  1  0.333333  0.666666  0.550286  1
  Tb  Tb1  1  0.333333  0.666666  0.949714  1
  Mg  Mg2  1  0.666666  0.333333  0.044947  1
  Mg  Mg3  1  0.666666  0.333333  0.455054  1
  Ga  Ga4  1  0.164879  0.329757  0.250000  1
  Ga  Ga5  1  0.164880  0.835122  0.250000  1
  Ga  Ga6  1  0.670243  0.835122  0.250000  1
  Ga  Ga7  1  0.330394  0.165197  0.750000  1
  Ga  Ga8  1  0.834802  0.165197  0.750000  1
  Ga  Ga9  1  0.834803  0.669607  0.750000  1
  Os  Os10  1  0.000000  0.000000  0.008411  1
  Os  Os11  1  0.000000  0.000000  0.491589  1
