# generated using pymatgen
data_LiY4Er4InRh2
_symmetry_space_group_name_H-M   'P 1'
_cell_length_a   9.68554614
_cell_length_b   9.60257056
_cell_length_c   9.62792857
_cell_angle_alpha   60.19450257
_cell_angle_beta   59.63156120
_cell_angle_gamma   59.72737389
_symmetry_Int_Tables_number   1
_chemical_formula_structural   LiY4Er4InRh2
_chemical_formula_sum   'Li2 Y8 Er8 In2 Rh4'
_cell_volume   631.00928222
_cell_formula_units_Z   2
loop_
 _symmetry_equiv_pos_site_id
 _symmetry_equiv_pos_as_xyz
  1  'x, y, z'
loop_
 _atom_site_type_symbol
 _atom_site_label
 _atom_site_symmetry_multiplicity
 _atom_site_fract_x
 _atom_site_fract_y
 _atom_site_fract_z
 _atom_site_occupancy
  Li  Li0  1  0.428541  0.717285  0.426543  1
  Li  Li1  1  0.428242  0.427129  0.717497  1
  Y  Y2  1  0.186888  0.189478  0.811292  1
  Y  Y3  1  0.440547  0.058872  0.059823  1
  Y  Y4  1  0.434031  0.064242  0.434689  1
  Y  Y5  1  0.062791  0.438902  0.063918  1
  Y  Y6  1  0.651682  0.052071  0.644763  1
  Y  Y7  1  0.184724  0.815738  0.817410  1
  Y  Y8  1  0.063000  0.063720  0.437515  1
  Y  Y9  1  0.806991  0.192025  0.191208  1
  Er  Er10  1  0.813257  0.810202  0.190321  1
  Er  Er11  1  0.652010  0.645851  0.050342  1
  Er  Er12  1  0.655092  0.654181  0.653426  1
  Er  Er13  1  0.061474  0.438352  0.436349  1
  Er  Er14  1  0.038550  0.652384  0.651692  1
  Er  Er15  1  0.812565  0.190287  0.811352  1
  Er  Er16  1  0.435000  0.437710  0.063116  1
  Er  Er17  1  0.188056  0.810075  0.189362  1
  In  In18  1  0.746354  0.421279  0.420401  1
  In  In19  1  0.414580  0.420101  0.419588  1
  Rh  Rh20  1  0.853985  0.430153  0.857189  1
  Rh  Rh21  1  0.859497  0.854835  0.426497  1
  Rh  Rh22  1  0.429457  0.855679  0.863292  1
  Rh  Rh23  1  0.852687  0.859450  0.862416  1
