# generated using pymatgen
data_Li4PrNd(ErSi3)2
_symmetry_space_group_name_H-M   'P 1'
_cell_length_a   9.31168213
_cell_length_b   9.31168165
_cell_length_c   6.79848300
_cell_angle_alpha   90.00000000
_cell_angle_beta   90.00000000
_cell_angle_gamma   153.17910092
_symmetry_Int_Tables_number   1
_chemical_formula_structural   Li4PrNd(ErSi3)2
_chemical_formula_sum   'Li4 Pr1 Nd1 Er2 Si6'
_cell_volume   265.97470840
_cell_formula_units_Z   1
loop_
 _symmetry_equiv_pos_site_id
 _symmetry_equiv_pos_as_xyz
  1  'x, y, z'
loop_
 _atom_site_type_symbol
 _atom_site_label
 _atom_site_symmetry_multiplicity
 _atom_site_fract_x
 _atom_site_fract_y
 _atom_site_fract_z
 _atom_site_occupancy
  Li  Li0  1  0.190693  0.809307  0.059697  1
  Li  Li1  1  0.190693  0.809307  0.440303  1
  Li  Li2  1  0.809381  0.190619  0.940079  1
  Li  Li3  1  0.809381  0.190619  0.559921  1
  Pr  Pr4  1  0.554013  0.445987  0.250000  1
  Nd  Nd5  1  0.445938  0.554062  0.750000  1
  Er  Er6  1  0.344237  0.655763  0.250000  1
  Er  Er7  1  0.655770  0.344230  0.750000  1
  Si  Si8  1  0.724047  0.275953  0.250000  1
  Si  Si9  1  0.276324  0.723676  0.750000  1
  Si  Si10  1  0.059671  0.940329  0.924436  1
  Si  Si11  1  0.940090  0.059910  0.074645  1
  Si  Si12  1  0.940090  0.059910  0.425355  1
  Si  Si13  1  0.059671  0.940329  0.575564  1
