# generated using pymatgen
data_Tb2PaP4Pd7
_symmetry_space_group_name_H-M   'P 1'
_cell_length_a   7.95671886
_cell_length_b   7.95671872
_cell_length_c   9.44631942
_cell_angle_alpha   55.35182102
_cell_angle_beta   55.35182113
_cell_angle_gamma   29.34346972
_symmetry_Int_Tables_number   1
_chemical_formula_structural   Tb2PaP4Pd7
_chemical_formula_sum   'Tb2 Pa1 P4 Pd7'
_cell_volume   237.11388382
_cell_formula_units_Z   1
loop_
 _symmetry_equiv_pos_site_id
 _symmetry_equiv_pos_as_xyz
  1  'x, y, z'
loop_
 _atom_site_type_symbol
 _atom_site_label
 _atom_site_symmetry_multiplicity
 _atom_site_fract_x
 _atom_site_fract_y
 _atom_site_fract_z
 _atom_site_occupancy
  Tb  Tb0  1  0.680682  0.680682  0.320498  1
  Tb  Tb1  1  0.319318  0.319318  0.679502  1
  Pa  Pa2  1  0.000000  0.000000  0.000000  1
  P  P3  1  0.346306  0.346306  0.243934  1
  P  P4  1  0.653694  0.653694  0.756066  1
  P  P5  1  0.896388  0.896388  0.823983  1
  P  P6  1  0.103612  0.103612  0.176017  1
  Pd  Pd7  1  0.307079  0.307079  0.026851  1
  Pd  Pd8  1  0.692921  0.692921  0.973149  1
  Pd  Pd9  1  0.510575  0.510575  0.710222  1
  Pd  Pd10  1  0.830799  0.830799  0.426538  1
  Pd  Pd11  1  0.489425  0.489425  0.289778  1
  Pd  Pd12  1  0.169201  0.169201  0.573462  1
  Pd  Pd13  1  0.000000  0.000000  0.500000  1
