# generated using pymatgen
data_K3UO4
_symmetry_space_group_name_H-M   'P 1'
_cell_length_a   7.55035600
_cell_length_b   6.28776207
_cell_length_c   6.64751698
_cell_angle_alpha   70.57607884
_cell_angle_beta   90.00000000
_cell_angle_gamma   90.00000000
_symmetry_Int_Tables_number   1
_chemical_formula_structural   K3UO4
_chemical_formula_sum   'K6 U2 O8'
_cell_volume   297.62767593
_cell_formula_units_Z   2
loop_
 _symmetry_equiv_pos_site_id
 _symmetry_equiv_pos_as_xyz
  1  'x, y, z'
loop_
 _atom_site_type_symbol
 _atom_site_label
 _atom_site_symmetry_multiplicity
 _atom_site_fract_x
 _atom_site_fract_y
 _atom_site_fract_z
 _atom_site_occupancy
  K  K0  1  0.627910  0.250000  0.000000  1
  K  K1  1  0.372090  0.750000  0.000000  1
  K  K2  1  0.614374  0.750000  0.500000  1
  K  K3  1  0.385626  0.250000  0.500000  1
  K  K4  1  0.879329  0.750000  0.000000  1
  K  K5  1  0.120671  0.250000  0.000000  1
  U  U6  1  0.882443  0.250000  0.500000  1
  U  U7  1  0.117557  0.750000  0.500000  1
  O  O8  1  0.088861  0.005178  0.678332  1
  O  O9  1  0.088861  0.494822  0.321668  1
  O  O10  1  0.690067  0.436925  0.292892  1
  O  O11  1  0.690067  0.063075  0.707108  1
  O  O12  1  0.309933  0.563075  0.707108  1
  O  O13  1  0.309933  0.936925  0.292892  1
  O  O14  1  0.911139  0.994822  0.321668  1
  O  O15  1  0.911139  0.505178  0.678332  1
