# generated using pymatgen
data_HgBiRh4(PbO7)2
_symmetry_space_group_name_H-M   'P 1'
_cell_length_a   7.39938737
_cell_length_b   7.20396856
_cell_length_c   7.35304300
_cell_angle_alpha   59.31307938
_cell_angle_beta   60.20697641
_cell_angle_gamma   59.52770442
_symmetry_Int_Tables_number   1
_chemical_formula_structural   HgBiRh4(PbO7)2
_chemical_formula_sum   'Hg1 Bi1 Rh4 Pb2 O14'
_cell_volume   275.11755913
_cell_formula_units_Z   1
loop_
 _symmetry_equiv_pos_site_id
 _symmetry_equiv_pos_as_xyz
  1  'x, y, z'
loop_
 _atom_site_type_symbol
 _atom_site_label
 _atom_site_symmetry_multiplicity
 _atom_site_fract_x
 _atom_site_fract_y
 _atom_site_fract_z
 _atom_site_occupancy
  Hg  Hg0  1  0.125000  0.625000  0.125000  1
  Bi  Bi1  1  0.625000  0.125000  0.125000  1
  Rh  Rh2  1  0.625000  0.625000  0.625000  1
  Rh  Rh3  1  0.625000  0.625000  0.125000  1
  Rh  Rh4  1  0.125000  0.625000  0.625000  1
  Rh  Rh5  1  0.625000  0.125000  0.625000  1
  Pb  Pb6  1  0.125000  0.125000  0.125000  1
  Pb  Pb7  1  0.125000  0.125000  0.625000  1
  O  O8  1  0.251717  0.261492  0.243396  1
  O  O9  1  0.298900  0.711056  0.297575  1
  O  O10  1  0.955354  0.961442  0.541603  1
  O  O11  1  0.543009  0.960296  0.540687  1
  O  O12  1  0.693904  0.711253  0.297422  1
  O  O13  1  0.951100  0.538944  0.557531  1
  O  O14  1  0.706991  0.289704  0.709313  1
  O  O15  1  0.294646  0.288558  0.708397  1
  O  O16  1  0.706991  0.289704  0.293991  1
  O  O17  1  0.298900  0.711056  0.692469  1
  O  O18  1  0.951100  0.538944  0.952425  1
  O  O19  1  0.556096  0.538747  0.952578  1
  O  O20  1  0.998283  0.988508  0.006604  1
  O  O21  1  0.543009  0.960296  0.956009  1
