# generated using pymatgen
data_PRuCl9
_symmetry_space_group_name_H-M   'P 1'
_cell_length_a   7.15279441
_cell_length_b   9.29933006
_cell_length_c   9.79049190
_cell_angle_alpha   102.00666483
_cell_angle_beta   96.24835681
_cell_angle_gamma   94.93621712
_symmetry_Int_Tables_number   1
_chemical_formula_structural   PRuCl9
_chemical_formula_sum   'P2 Ru2 Cl18'
_cell_volume   629.22721400
_cell_formula_units_Z   2
loop_
 _symmetry_equiv_pos_site_id
 _symmetry_equiv_pos_as_xyz
  1  'x, y, z'
loop_
 _atom_site_type_symbol
 _atom_site_label
 _atom_site_symmetry_multiplicity
 _atom_site_fract_x
 _atom_site_fract_y
 _atom_site_fract_z
 _atom_site_occupancy
  P  P0  1  0.051787  0.190070  0.779804  1
  P  P1  1  0.948213  0.809930  0.220196  1
  Ru  Ru2  1  0.608187  0.629342  0.665757  1
  Ru  Ru3  1  0.391813  0.370658  0.334243  1
  Cl  Cl4  1  0.373768  0.569304  0.225436  1
  Cl  Cl5  1  0.626232  0.430696  0.774564  1
  Cl  Cl6  1  0.420588  0.174880  0.444583  1
  Cl  Cl7  1  0.579412  0.825120  0.555417  1
  Cl  Cl8  1  0.080816  0.283350  0.244649  1
  Cl  Cl9  1  0.919184  0.716650  0.755351  1
  Cl  Cl10  1  0.513846  0.237183  0.141024  1
  Cl  Cl11  1  0.486154  0.762817  0.858976  1
  Cl  Cl12  1  0.297513  0.517463  0.546227  1
  Cl  Cl13  1  0.702487  0.482537  0.453773  1
  Cl  Cl14  1  0.836694  0.615859  0.110975  1
  Cl  Cl15  1  0.163306  0.384141  0.889025  1
  Cl  Cl16  1  0.949567  0.205384  0.590529  1
  Cl  Cl17  1  0.050433  0.794616  0.409471  1
  Cl  Cl18  1  0.247153  0.053400  0.767806  1
  Cl  Cl19  1  0.752847  0.946600  0.232194  1
  Cl  Cl20  1  0.847787  0.112385  0.871978  1
  Cl  Cl21  1  0.152213  0.887615  0.128022  1
