# generated using pymatgen
data_K12In2As5P
_symmetry_space_group_name_H-M   'P 1'
_cell_length_a   9.17382649
_cell_length_b   9.19121420
_cell_length_c   10.21754895
_cell_angle_alpha   81.80474179
_cell_angle_beta   107.22455901
_cell_angle_gamma   119.08238704
_symmetry_Int_Tables_number   1
_chemical_formula_structural   K12In2As5P
_chemical_formula_sum   'K12 In2 As5 P1'
_cell_volume   719.14145637
_cell_formula_units_Z   1
loop_
 _symmetry_equiv_pos_site_id
 _symmetry_equiv_pos_as_xyz
  1  'x, y, z'
loop_
 _atom_site_type_symbol
 _atom_site_label
 _atom_site_symmetry_multiplicity
 _atom_site_fract_x
 _atom_site_fract_y
 _atom_site_fract_z
 _atom_site_occupancy
  K  K0  1  0.734985  0.126955  0.618835  1
  K  K1  1  0.260657  0.858776  0.393229  1
  K  K2  1  0.971795  0.822142  0.628437  1
  K  K3  1  0.022101  0.193328  0.394443  1
  K  K4  1  0.623537  0.449865  0.399497  1
  K  K5  1  0.392738  0.556706  0.594404  1
  K  K6  1  0.872044  0.486383  0.139614  1
  K  K7  1  0.114801  0.498254  0.846806  1
  K  K8  1  0.746909  0.091695  0.986895  1
  K  K9  1  0.239262  0.875187  0.003726  1
  K  K10  1  0.575337  0.627541  0.945234  1
  K  K11  1  0.245640  0.208901  0.105263  1
  In  In12  1  0.585611  0.827280  0.256554  1
  In  In13  1  0.414308  0.177349  0.750402  1
  As  As14  1  0.285336  0.550026  0.231993  1
  As  As15  1  0.717399  0.445902  0.763588  1
  As  As16  1  0.596398  0.121865  0.259703  1
  As  As17  1  0.388009  0.872460  0.740621  1
  As  As18  1  0.869270  0.824602  0.243651  1
  P  P19  1  0.153245  0.201524  0.758486  1
