# generated using pymatgen
data_Li3U4Co17P12
_symmetry_space_group_name_H-M   'P 1'
_cell_length_a   3.67830400
_cell_length_b   10.30932907
_cell_length_c   11.73606671
_cell_angle_alpha   90.09425547
_cell_angle_beta   90.00000000
_cell_angle_gamma   90.00000000
_symmetry_Int_Tables_number   1
_chemical_formula_structural   Li3U4Co17P12
_chemical_formula_sum   'Li3 U4 Co17 P12'
_cell_volume   445.04098018
_cell_formula_units_Z   1
loop_
 _symmetry_equiv_pos_site_id
 _symmetry_equiv_pos_as_xyz
  1  'x, y, z'
loop_
 _atom_site_type_symbol
 _atom_site_label
 _atom_site_symmetry_multiplicity
 _atom_site_fract_x
 _atom_site_fract_y
 _atom_site_fract_z
 _atom_site_occupancy
  Li  Li0  1  0.250000  0.697731  0.992515  1
  Li  Li1  1  0.250000  0.801764  0.493408  1
  Li  Li2  1  0.750000  0.300323  0.004834  1
  U  U3  1  0.250000  0.581602  0.699309  1
  U  U4  1  0.250000  0.919160  0.199469  1
  U  U5  1  0.750000  0.419104  0.297451  1
  U  U6  1  0.750000  0.080201  0.798804  1
  Co  Co7  1  0.750000  0.210661  0.511467  1
  Co  Co8  1  0.250000  0.408241  0.482002  1
  Co  Co9  1  0.250000  0.091715  0.979495  1
  Co  Co10  1  0.750000  0.590781  0.523066  1
  Co  Co11  1  0.750000  0.908952  0.024177  1
  Co  Co12  1  0.250000  0.217445  0.176527  1
  Co  Co13  1  0.250000  0.278716  0.669726  1
  Co  Co14  1  0.750000  0.784073  0.826914  1
  Co  Co15  1  0.750000  0.715366  0.327225  1
  Co  Co16  1  0.250000  0.882586  0.701433  1
  Co  Co17  1  0.250000  0.616610  0.201619  1
  Co  Co18  1  0.750000  0.119245  0.302040  1
  Co  Co19  1  0.750000  0.378751  0.795626  1
  Co  Co20  1  0.250000  0.467769  0.928344  1
  Co  Co21  1  0.250000  0.031799  0.429494  1
  Co  Co22  1  0.750000  0.529914  0.067810  1
  Co  Co23  1  0.750000  0.969342  0.566816  1
  P  P24  1  0.250000  0.419703  0.113693  1
  P  P25  1  0.250000  0.078733  0.612602  1
  P  P26  1  0.750000  0.578302  0.882062  1
  P  P27  1  0.750000  0.919503  0.382825  1
  P  P28  1  0.250000  0.272064  0.858860  1
  P  P29  1  0.250000  0.228827  0.367424  1
  P  P30  1  0.750000  0.724153  0.140057  1
  P  P31  1  0.750000  0.775768  0.639282  1
  P  P32  1  0.250000  0.606038  0.394526  1
  P  P33  1  0.250000  0.892968  0.894179  1
  P  P34  1  0.750000  0.392944  0.605782  1
  P  P35  1  0.750000  0.109149  0.109139  1
