# generated using pymatgen
data_Ba3NaTaS6
_symmetry_space_group_name_H-M   'P 1'
_cell_length_a   8.40953484
_cell_length_b   8.40953515
_cell_length_c   8.40953458
_cell_angle_alpha   91.13241715
_cell_angle_beta   91.13241256
_cell_angle_gamma   91.13240955
_symmetry_Int_Tables_number   1
_chemical_formula_structural   Ba3NaTaS6
_chemical_formula_sum   'Ba6 Na2 Ta2 S12'
_cell_volume   594.37150538
_cell_formula_units_Z   2
loop_
 _symmetry_equiv_pos_site_id
 _symmetry_equiv_pos_as_xyz
  1  'x, y, z'
loop_
 _atom_site_type_symbol
 _atom_site_label
 _atom_site_symmetry_multiplicity
 _atom_site_fract_x
 _atom_site_fract_y
 _atom_site_fract_z
 _atom_site_occupancy
  Ba  Ba0  1  0.250000  0.880339  0.619661  1
  Ba  Ba1  1  0.619661  0.250000  0.880339  1
  Ba  Ba2  1  0.880339  0.619661  0.250000  1
  Ba  Ba3  1  0.750000  0.119661  0.380339  1
  Ba  Ba4  1  0.380339  0.750000  0.119661  1
  Ba  Ba5  1  0.119661  0.380339  0.750000  1
  Na  Na6  1  0.750000  0.750000  0.750000  1
  Na  Na7  1  0.250000  0.250000  0.250000  1
  Ta  Ta8  1  0.500000  0.500000  0.500000  1
  Ta  Ta9  1  0.000000  0.000000  0.000000  1
  S  S10  1  0.052831  0.719729  0.920793  1
  S  S11  1  0.920793  0.052831  0.719729  1
  S  S12  1  0.719729  0.920793  0.052831  1
  S  S13  1  0.447169  0.579207  0.780271  1
  S  S14  1  0.780271  0.447169  0.579207  1
  S  S15  1  0.579207  0.780271  0.447169  1
  S  S16  1  0.947169  0.280271  0.079207  1
  S  S17  1  0.079207  0.947169  0.280271  1
  S  S18  1  0.280271  0.079207  0.947169  1
  S  S19  1  0.552831  0.420793  0.219729  1
  S  S20  1  0.420793  0.219729  0.552831  1
  S  S21  1  0.219729  0.552831  0.420793  1
