# generated using pymatgen
data_Sm2Pd14Se
_symmetry_space_group_name_H-M   'P 1'
_cell_length_a   9.00157100
_cell_length_b   9.00157100
_cell_length_c   7.19603900
_cell_angle_alpha   90.00000000
_cell_angle_beta   90.00000000
_cell_angle_gamma   90.00000000
_symmetry_Int_Tables_number   1
_chemical_formula_structural   Sm2Pd14Se
_chemical_formula_sum   'Sm4 Pd28 Se2'
_cell_volume   583.08266635
_cell_formula_units_Z   2
loop_
 _symmetry_equiv_pos_site_id
 _symmetry_equiv_pos_as_xyz
  1  'x, y, z'
loop_
 _atom_site_type_symbol
 _atom_site_label
 _atom_site_symmetry_multiplicity
 _atom_site_fract_x
 _atom_site_fract_y
 _atom_site_fract_z
 _atom_site_occupancy
  Sm  Sm0  1  0.500000  0.000000  0.934020  1
  Sm  Sm1  1  0.000000  0.500000  0.065980  1
  Sm  Sm2  1  0.000000  0.000000  0.500000  1
  Sm  Sm3  1  0.500000  0.500000  0.500000  1
  Pd  Pd4  1  0.329780  0.829780  0.624141  1
  Pd  Pd5  1  0.329780  0.170220  0.624141  1
  Pd  Pd6  1  0.670220  0.829780  0.624141  1
  Pd  Pd7  1  0.670220  0.170220  0.624141  1
  Pd  Pd8  1  0.170220  0.670220  0.375859  1
  Pd  Pd9  1  0.170220  0.329780  0.375859  1
  Pd  Pd10  1  0.829780  0.670220  0.375859  1
  Pd  Pd11  1  0.829780  0.329780  0.375859  1
  Pd  Pd12  1  0.500000  0.763889  0.251528  1
  Pd  Pd13  1  0.500000  0.236111  0.251528  1
  Pd  Pd14  1  0.263889  0.000000  0.251528  1
  Pd  Pd15  1  0.736111  0.000000  0.251528  1
  Pd  Pd16  1  0.000000  0.736111  0.748472  1
  Pd  Pd17  1  0.000000  0.263889  0.748472  1
  Pd  Pd18  1  0.236111  0.500000  0.748472  1
  Pd  Pd19  1  0.763889  0.500000  0.748472  1
  Pd  Pd20  1  0.500000  0.348341  0.857567  1
  Pd  Pd21  1  0.500000  0.651659  0.857567  1
  Pd  Pd22  1  0.848341  0.000000  0.857567  1
  Pd  Pd23  1  0.151659  0.000000  0.857567  1
  Pd  Pd24  1  0.000000  0.151659  0.142433  1
  Pd  Pd25  1  0.000000  0.848341  0.142433  1
  Pd  Pd26  1  0.651659  0.500000  0.142433  1
  Pd  Pd27  1  0.348341  0.500000  0.142433  1
  Pd  Pd28  1  0.250000  0.750000  0.000000  1
  Pd  Pd29  1  0.250000  0.250000  0.000000  1
  Pd  Pd30  1  0.750000  0.750000  0.000000  1
  Pd  Pd31  1  0.750000  0.250000  0.000000  1
  Se  Se32  1  0.500000  0.000000  0.449108  1
  Se  Se33  1  0.000000  0.500000  0.550892  1
