# generated using pymatgen
data_K3VTe4
_symmetry_space_group_name_H-M   'P 1'
_cell_length_a   10.35136800
_cell_length_b   10.33580600
_cell_length_c   11.78654600
_cell_angle_alpha   90.00000000
_cell_angle_beta   90.00000000
_cell_angle_gamma   90.00000000
_symmetry_Int_Tables_number   1
_chemical_formula_structural   K3VTe4
_chemical_formula_sum   'K12 V4 Te16'
_cell_volume   1261.03939165
_cell_formula_units_Z   4
loop_
 _symmetry_equiv_pos_site_id
 _symmetry_equiv_pos_as_xyz
  1  'x, y, z'
loop_
 _atom_site_type_symbol
 _atom_site_label
 _atom_site_symmetry_multiplicity
 _atom_site_fract_x
 _atom_site_fract_y
 _atom_site_fract_z
 _atom_site_occupancy
  K  K0  1  0.053541  0.202878  0.047511  1
  K  K1  1  0.131986  0.411485  0.750000  1
  K  K2  1  0.368014  0.911485  0.250000  1
  K  K3  1  0.631986  0.088515  0.750000  1
  K  K4  1  0.868014  0.588515  0.250000  1
  K  K5  1  0.946459  0.797122  0.547511  1
  K  K6  1  0.553541  0.297122  0.452489  1
  K  K7  1  0.446459  0.702878  0.952489  1
  K  K8  1  0.553541  0.297122  0.047511  1
  K  K9  1  0.053541  0.202878  0.452489  1
  K  K10  1  0.446459  0.702878  0.547511  1
  K  K11  1  0.946459  0.797122  0.952489  1
  V  V12  1  0.785291  0.012945  0.250000  1
  V  V13  1  0.714709  0.512945  0.750000  1
  V  V14  1  0.285291  0.487055  0.250000  1
  V  V15  1  0.214709  0.987055  0.750000  1
  Te  Te16  1  0.334812  0.053207  0.925809  1
  Te  Te17  1  0.194745  0.744672  0.750000  1
  Te  Te18  1  0.305255  0.244672  0.250000  1
  Te  Te19  1  0.694745  0.755328  0.750000  1
  Te  Te20  1  0.805255  0.255328  0.250000  1
  Te  Te21  1  0.991093  0.085327  0.750000  1
  Te  Te22  1  0.508907  0.585327  0.250000  1
  Te  Te23  1  0.491093  0.414673  0.750000  1
  Te  Te24  1  0.008907  0.914673  0.250000  1
  Te  Te25  1  0.665188  0.946793  0.425809  1
  Te  Te26  1  0.834812  0.446793  0.574191  1
  Te  Te27  1  0.165188  0.553207  0.074191  1
  Te  Te28  1  0.665188  0.946793  0.074191  1
  Te  Te29  1  0.334812  0.053207  0.574191  1
  Te  Te30  1  0.165188  0.553207  0.425809  1
  Te  Te31  1  0.834812  0.446793  0.925809  1
