# generated using pymatgen
data_Tb2Dy2Al18CuRh5
_symmetry_space_group_name_H-M   'P 1'
_cell_length_a   7.56841996
_cell_length_b   7.56877398
_cell_length_c   9.44290103
_cell_angle_alpha   90.06446988
_cell_angle_beta   90.07455382
_cell_angle_gamma   119.60206103
_symmetry_Int_Tables_number   1
_chemical_formula_structural   Tb2Dy2Al18CuRh5
_chemical_formula_sum   'Tb2 Dy2 Al18 Cu1 Rh5'
_cell_volume   470.31963505
_cell_formula_units_Z   1
loop_
 _symmetry_equiv_pos_site_id
 _symmetry_equiv_pos_as_xyz
  1  'x, y, z'
loop_
 _atom_site_type_symbol
 _atom_site_label
 _atom_site_symmetry_multiplicity
 _atom_site_fract_x
 _atom_site_fract_y
 _atom_site_fract_z
 _atom_site_occupancy
  Tb  Tb0  1  0.994662  0.672231  0.749519  1
  Tb  Tb1  1  0.005338  0.327769  0.250481  1
  Dy  Dy2  1  0.672212  0.994675  0.749546  1
  Dy  Dy3  1  0.327788  0.005325  0.250454  1
  Al  Al4  1  0.129151  0.129205  0.751441  1
  Al  Al5  1  0.870849  0.870795  0.248559  1
  Al  Al6  1  0.000590  0.338375  0.577765  1
  Al  Al7  1  0.999410  0.661625  0.422235  1
  Al  Al8  1  0.000438  0.665400  0.074549  1
  Al  Al9  1  0.334782  0.999651  0.925535  1
  Al  Al10  1  0.999562  0.334600  0.925451  1
  Al  Al11  1  0.665218  0.000349  0.074465  1
  Al  Al12  1  0.661448  0.999326  0.422300  1
  Al  Al13  1  0.338552  0.000674  0.577700  1
  Al  Al14  1  0.332918  0.332847  0.050677  1
  Al  Al15  1  0.667082  0.667153  0.949323  1
  Al  Al16  1  0.663888  0.663963  0.552780  1
  Al  Al17  1  0.336112  0.336037  0.447220  1
  Al  Al18  1  0.339248  0.549652  0.750591  1
  Al  Al19  1  0.660752  0.450348  0.249409  1
  Al  Al20  1  0.549562  0.339096  0.750587  1
  Al  Al21  1  0.450438  0.660904  0.249413  1
  Cu  Cu22  1  0.000000  0.000000  0.500000  1
  Rh  Rh23  1  0.671962  0.327909  0.499995  1
  Rh  Rh24  1  0.328038  0.672091  0.500005  1
  Rh  Rh25  1  0.328094  0.672012  0.999996  1
  Rh  Rh26  1  0.671906  0.327988  0.000004  1
  Rh  Rh27  1  0.000000  0.000000  0.000000  1
