# generated using pymatgen
data_Mn3Nb(Pd3Pt)3
_symmetry_space_group_name_H-M   'P 1'
_cell_length_a   6.82693512
_cell_length_b   6.82692600
_cell_length_c   6.82130753
_cell_angle_alpha   109.53557402
_cell_angle_beta   109.53151575
_cell_angle_gamma   109.38014538
_symmetry_Int_Tables_number   1
_chemical_formula_structural   Mn3Nb(Pd3Pt)3
_chemical_formula_sum   'Mn3 Nb1 Pd9 Pt3'
_cell_volume   244.63345882
_cell_formula_units_Z   1
loop_
 _symmetry_equiv_pos_site_id
 _symmetry_equiv_pos_as_xyz
  1  'x, y, z'
loop_
 _atom_site_type_symbol
 _atom_site_label
 _atom_site_symmetry_multiplicity
 _atom_site_fract_x
 _atom_site_fract_y
 _atom_site_fract_z
 _atom_site_occupancy
  Mn  Mn0  1  0.749267  0.749273  0.498538  1
  Mn  Mn1  1  0.250872  0.749183  0.000057  1
  Mn  Mn2  1  0.749190  0.250869  0.000056  1
  Nb  Nb3  1  0.251333  0.251335  0.502667  1
  Pd  Pd4  1  0.499627  0.250272  0.250410  1
  Pd  Pd5  1  0.499955  0.749706  0.749596  1
  Pd  Pd6  1  0.999890  0.249641  0.749596  1
  Pd  Pd7  1  0.249623  0.999874  0.749596  1
  Pd  Pd8  1  0.000138  0.750783  0.250410  1
  Pd  Pd9  1  0.750766  0.000122  0.250412  1
  Pd  Pd10  1  0.250289  0.499645  0.250410  1
  Pd  Pd11  1  0.749722  0.499973  0.749595  1
  Pd  Pd12  1  0.000338  0.000323  0.000661  1
  Pt  Pt13  1  0.499202  0.000660  0.499862  1
  Pt  Pt14  1  0.000664  0.499208  0.499872  1
  Pt  Pt15  1  0.499126  0.499133  0.998259  1
