# generated using pymatgen
data_Er6Tm2Tc(B8Os)3
_symmetry_space_group_name_H-M   'P 1'
_cell_length_a   3.63502500
_cell_length_b   9.09809264
_cell_length_c   11.47892208
_cell_angle_alpha   89.96314858
_cell_angle_beta   90.00000000
_cell_angle_gamma   90.00000000
_symmetry_Int_Tables_number   1
_chemical_formula_structural   Er6Tm2Tc(B8Os)3
_chemical_formula_sum   'Er6 Tm2 Tc1 B24 Os3'
_cell_volume   379.62847019
_cell_formula_units_Z   1
loop_
 _symmetry_equiv_pos_site_id
 _symmetry_equiv_pos_as_xyz
  1  'x, y, z'
loop_
 _atom_site_type_symbol
 _atom_site_label
 _atom_site_symmetry_multiplicity
 _atom_site_fract_x
 _atom_site_fract_y
 _atom_site_fract_z
 _atom_site_occupancy
  Er  Er0  1  0.000000  0.323733  0.412938  1
  Er  Er1  1  0.000000  0.677422  0.583516  1
  Er  Er2  1  0.000000  0.819697  0.088144  1
  Er  Er3  1  0.000000  0.178170  0.914908  1
  Er  Er4  1  0.000000  0.942731  0.372600  1
  Er  Er5  1  0.000000  0.056870  0.627445  1
  Tm  Tm6  1  0.000000  0.444595  0.128007  1
  Tm  Tm7  1  0.000000  0.556581  0.872439  1
  Tc  Tc8  1  0.000000  0.637199  0.321050  1
  B  B9  1  0.500000  0.552674  0.433268  1
  B  B10  1  0.500000  0.446792  0.567033  1
  B  B11  1  0.500000  0.053546  0.066734  1
  B  B12  1  0.500000  0.946409  0.933536  1
  B  B13  1  0.500000  0.748214  0.419582  1
  B  B14  1  0.500000  0.251924  0.580292  1
  B  B15  1  0.500000  0.249041  0.080104  1
  B  B16  1  0.500000  0.751042  0.919873  1
  B  B17  1  0.500000  0.791458  0.265868  1
  B  B18  1  0.500000  0.208861  0.734098  1
  B  B19  1  0.500000  0.291585  0.233304  1
  B  B20  1  0.500000  0.708713  0.766152  1
  B  B21  1  0.500000  0.630907  0.185177  1
  B  B22  1  0.500000  0.368918  0.815252  1
  B  B23  1  0.500000  0.131447  0.314311  1
  B  B24  1  0.500000  0.868844  0.685262  1
  B  B25  1  0.500000  0.982387  0.212680  1
  B  B26  1  0.500000  0.017560  0.787668  1
  B  B27  1  0.500000  0.481624  0.286990  1
  B  B28  1  0.500000  0.517657  0.713086  1
  B  B29  1  0.500000  0.605592  0.028905  1
  B  B30  1  0.500000  0.394198  0.970491  1
  B  B31  1  0.500000  0.107153  0.470425  1
  B  B32  1  0.500000  0.893938  0.529901  1
  Os  Os33  1  0.000000  0.362447  0.679496  1
  Os  Os34  1  0.000000  0.137786  0.177923  1
  Os  Os35  1  0.000000  0.862282  0.821542  1
