# generated using pymatgen
data_Y5(ZnTe)2
_symmetry_space_group_name_H-M   'P 1'
_cell_length_a   8.01791033
_cell_length_b   8.01790999
_cell_length_c   15.14262300
_cell_angle_alpha   90.00000000
_cell_angle_beta   90.00000000
_cell_angle_gamma   150.87433213
_symmetry_Int_Tables_number   1
_chemical_formula_structural   Y5(ZnTe)2
_chemical_formula_sum   'Y10 Zn4 Te4'
_cell_volume   473.81490241
_cell_formula_units_Z   2
loop_
 _symmetry_equiv_pos_site_id
 _symmetry_equiv_pos_as_xyz
  1  'x, y, z'
loop_
 _atom_site_type_symbol
 _atom_site_label
 _atom_site_symmetry_multiplicity
 _atom_site_fract_x
 _atom_site_fract_y
 _atom_site_fract_z
 _atom_site_occupancy
  Y  Y0  1  0.964194  0.035806  0.112719  1
  Y  Y1  1  0.035806  0.964194  0.887281  1
  Y  Y2  1  0.035806  0.964194  0.612719  1
  Y  Y3  1  0.964194  0.035806  0.387281  1
  Y  Y4  1  0.748265  0.251735  0.613836  1
  Y  Y5  1  0.251735  0.748265  0.386164  1
  Y  Y6  1  0.251735  0.748265  0.113836  1
  Y  Y7  1  0.748265  0.251735  0.886164  1
  Y  Y8  1  0.607959  0.392041  0.250000  1
  Y  Y9  1  0.392041  0.607959  0.750000  1
  Zn  Zn10  1  0.413983  0.586017  0.250000  1
  Zn  Zn11  1  0.586017  0.413983  0.750000  1
  Zn  Zn12  1  0.805439  0.194561  0.250000  1
  Zn  Zn13  1  0.194561  0.805439  0.750000  1
  Te  Te14  1  0.612109  0.387891  0.039585  1
  Te  Te15  1  0.387891  0.612109  0.960415  1
  Te  Te16  1  0.387891  0.612109  0.539585  1
  Te  Te17  1  0.612109  0.387891  0.460415  1
