# generated using pymatgen
data_Ta6Zn6N
_symmetry_space_group_name_H-M   'P 1'
_cell_length_a   8.17220823
_cell_length_b   8.17220884
_cell_length_c   8.17220800
_cell_angle_alpha   60.00000338
_cell_angle_beta   60.00000094
_cell_angle_gamma   60.00000541
_symmetry_Int_Tables_number   1
_chemical_formula_structural   Ta6Zn6N
_chemical_formula_sum   'Ta12 Zn12 N2'
_cell_volume   385.92536733
_cell_formula_units_Z   2
loop_
 _symmetry_equiv_pos_site_id
 _symmetry_equiv_pos_as_xyz
  1  'x, y, z'
loop_
 _atom_site_type_symbol
 _atom_site_label
 _atom_site_symmetry_multiplicity
 _atom_site_fract_x
 _atom_site_fract_y
 _atom_site_fract_z
 _atom_site_occupancy
  Ta  Ta0  1  0.188965  0.811035  0.188965  1
  Ta  Ta1  1  0.438965  0.061035  0.438965  1
  Ta  Ta2  1  0.438965  0.061035  0.061035  1
  Ta  Ta3  1  0.438965  0.438965  0.061035  1
  Ta  Ta4  1  0.188965  0.811035  0.811035  1
  Ta  Ta5  1  0.061035  0.438965  0.061035  1
  Ta  Ta6  1  0.811035  0.811035  0.188965  1
  Ta  Ta7  1  0.061035  0.438965  0.438965  1
  Ta  Ta8  1  0.188965  0.188965  0.811035  1
  Ta  Ta9  1  0.811035  0.188965  0.188965  1
  Ta  Ta10  1  0.811035  0.188965  0.811035  1
  Ta  Ta11  1  0.061035  0.061035  0.438965  1
  Zn  Zn12  1  0.833265  0.500207  0.833265  1
  Zn  Zn13  1  0.416735  0.416735  0.749793  1
  Zn  Zn14  1  0.749793  0.416735  0.416735  1
  Zn  Zn15  1  0.416735  0.416735  0.416735  1
  Zn  Zn16  1  0.833265  0.833265  0.500207  1
  Zn  Zn17  1  0.416735  0.749793  0.416735  1
  Zn  Zn18  1  0.833265  0.833265  0.833265  1
  Zn  Zn19  1  0.500207  0.833265  0.833265  1
  Zn  Zn20  1  0.625000  0.125000  0.625000  1
  Zn  Zn21  1  0.625000  0.625000  0.125000  1
  Zn  Zn22  1  0.125000  0.625000  0.625000  1
  Zn  Zn23  1  0.625000  0.625000  0.625000  1
  N  N24  1  0.000000  0.000000  0.000000  1
  N  N25  1  0.250000  0.250000  0.250000  1
