# generated using pymatgen
data_Tb3YZnI6
_symmetry_space_group_name_H-M   'P 1'
_cell_length_a   4.19414100
_cell_length_b   14.20769004
_cell_length_c   14.93753405
_cell_angle_alpha   89.99092556
_cell_angle_beta   90.00000000
_cell_angle_gamma   90.00000000
_symmetry_Int_Tables_number   1
_chemical_formula_structural   Tb3YZnI6
_chemical_formula_sum   'Tb6 Y2 Zn2 I12'
_cell_volume   890.11353166
_cell_formula_units_Z   2
loop_
 _symmetry_equiv_pos_site_id
 _symmetry_equiv_pos_as_xyz
  1  'x, y, z'
loop_
 _atom_site_type_symbol
 _atom_site_label
 _atom_site_symmetry_multiplicity
 _atom_site_fract_x
 _atom_site_fract_y
 _atom_site_fract_z
 _atom_site_occupancy
  Tb  Tb0  1  0.500000  0.614224  0.153042  1
  Tb  Tb1  1  0.500000  0.385776  0.846958  1
  Tb  Tb2  1  0.000000  0.114637  0.577147  1
  Tb  Tb3  1  0.000000  0.885363  0.422853  1
  Tb  Tb4  1  0.000000  0.614501  0.922939  1
  Tb  Tb5  1  0.000000  0.385499  0.077061  1
  Y  Y6  1  0.500000  0.114271  0.346877  1
  Y  Y7  1  0.500000  0.885729  0.653123  1
  Zn  Zn8  1  0.500000  0.000000  0.500000  1
  Zn  Zn9  1  0.500000  0.500000  0.000000  1
  I  I10  1  0.500000  0.245084  0.163046  1
  I  I11  1  0.500000  0.754916  0.836954  1
  I  I12  1  0.500000  0.745242  0.337141  1
  I  I13  1  0.500000  0.254758  0.662859  1
  I  I14  1  0.000000  0.259675  0.413608  1
  I  I15  1  0.000000  0.740325  0.586392  1
  I  I16  1  0.000000  0.760048  0.086302  1
  I  I17  1  0.000000  0.239952  0.913698  1
  I  I18  1  0.000000  0.998948  0.238854  1
  I  I19  1  0.000000  0.001052  0.761146  1
  I  I20  1  0.000000  0.498744  0.261450  1
  I  I21  1  0.000000  0.501256  0.738550  1
