# generated using pymatgen
data_Tb3YIrPd3O14
_symmetry_space_group_name_H-M   'P 1'
_cell_length_a   7.26640526
_cell_length_b   7.26640591
_cell_length_c   7.28465940
_cell_angle_alpha   60.08285708
_cell_angle_beta   60.08285198
_cell_angle_gamma   59.99999632
_symmetry_Int_Tables_number   1
_chemical_formula_structural   Tb3YIrPd3O14
_chemical_formula_sum   'Tb3 Y1 Ir1 Pd3 O14'
_cell_volume   272.31794689
_cell_formula_units_Z   1
loop_
 _symmetry_equiv_pos_site_id
 _symmetry_equiv_pos_as_xyz
  1  'x, y, z'
loop_
 _atom_site_type_symbol
 _atom_site_label
 _atom_site_symmetry_multiplicity
 _atom_site_fract_x
 _atom_site_fract_y
 _atom_site_fract_z
 _atom_site_occupancy
  Tb  Tb0  1  0.625000  0.125000  0.125000  1
  Tb  Tb1  1  0.125000  0.625000  0.125000  1
  Tb  Tb2  1  0.125000  0.125000  0.125000  1
  Y  Y3  1  0.125000  0.125000  0.625000  1
  Ir  Ir4  1  0.625000  0.625000  0.125000  1
  Pd  Pd5  1  0.125000  0.625000  0.625000  1
  Pd  Pd6  1  0.625000  0.125000  0.625000  1
  Pd  Pd7  1  0.625000  0.625000  0.625000  1
  O  O8  1  0.712625  0.712625  0.284016  1
  O  O9  1  0.284051  0.284051  0.717398  1
  O  O10  1  0.714500  0.284051  0.717398  1
  O  O11  1  0.290734  0.712625  0.284016  1
  O  O12  1  0.284051  0.714500  0.717398  1
  O  O13  1  0.712625  0.290734  0.284016  1
  O  O14  1  0.537375  0.537375  0.965984  1
  O  O15  1  0.965949  0.965949  0.532602  1
  O  O16  1  0.535500  0.965949  0.532602  1
  O  O17  1  0.959266  0.537375  0.965984  1
  O  O18  1  0.965949  0.535500  0.532602  1
  O  O19  1  0.537375  0.959266  0.965984  1
  O  O20  1  0.250114  0.250114  0.249659  1
  O  O21  1  0.999886  0.999886  0.000341  1
