# generated using pymatgen
data_Sc9Cd5Pt4
_symmetry_space_group_name_H-M   'P 1'
_cell_length_a   10.48152800
_cell_length_b   10.48152800
_cell_length_c   3.47511700
_cell_angle_alpha   90.00000000
_cell_angle_beta   90.00000000
_cell_angle_gamma   90.00000000
_symmetry_Int_Tables_number   1
_chemical_formula_structural   Sc9Cd5Pt4
_chemical_formula_sum   'Sc9 Cd5 Pt4'
_cell_volume   381.78479543
_cell_formula_units_Z   1
loop_
 _symmetry_equiv_pos_site_id
 _symmetry_equiv_pos_as_xyz
  1  'x, y, z'
loop_
 _atom_site_type_symbol
 _atom_site_label
 _atom_site_symmetry_multiplicity
 _atom_site_fract_x
 _atom_site_fract_y
 _atom_site_fract_z
 _atom_site_occupancy
  Sc  Sc0  1  0.329793  0.329793  0.500000  1
  Sc  Sc1  1  0.670207  0.670207  0.500000  1
  Sc  Sc2  1  0.329793  0.670207  0.500000  1
  Sc  Sc3  1  0.670207  0.329793  0.500000  1
  Sc  Sc4  1  0.000000  0.284746  0.500000  1
  Sc  Sc5  1  0.000000  0.715254  0.500000  1
  Sc  Sc6  1  0.284746  0.000000  0.500000  1
  Sc  Sc7  1  0.715254  0.000000  0.500000  1
  Sc  Sc8  1  0.000000  0.000000  0.000000  1
  Cd  Cd9  1  0.500000  0.147145  0.000000  1
  Cd  Cd10  1  0.500000  0.852855  0.000000  1
  Cd  Cd11  1  0.147145  0.500000  0.000000  1
  Cd  Cd12  1  0.852855  0.500000  0.000000  1
  Cd  Cd13  1  0.500000  0.500000  0.000000  1
  Pt  Pt14  1  0.190930  0.190930  0.000000  1
  Pt  Pt15  1  0.809070  0.809070  0.000000  1
  Pt  Pt16  1  0.190930  0.809070  0.000000  1
  Pt  Pt17  1  0.809070  0.190930  0.000000  1
