# generated using pymatgen
data_Hf9BeNbRe3
_symmetry_space_group_name_H-M   'P 1'
_cell_length_a   8.61072600
_cell_length_b   8.61072510
_cell_length_c   8.57254300
_cell_angle_alpha   90.00000000
_cell_angle_beta   90.00000000
_cell_angle_gamma   119.99999577
_symmetry_Int_Tables_number   1
_chemical_formula_structural   Hf9BeNbRe3
_chemical_formula_sum   'Hf18 Be2 Nb2 Re6'
_cell_volume   550.45245980
_cell_formula_units_Z   2
loop_
 _symmetry_equiv_pos_site_id
 _symmetry_equiv_pos_as_xyz
  1  'x, y, z'
loop_
 _atom_site_type_symbol
 _atom_site_label
 _atom_site_symmetry_multiplicity
 _atom_site_fract_x
 _atom_site_fract_y
 _atom_site_fract_z
 _atom_site_occupancy
  Hf  Hf0  1  0.199938  0.800062  0.445845  1
  Hf  Hf1  1  0.199938  0.399877  0.445845  1
  Hf  Hf2  1  0.600123  0.800062  0.445845  1
  Hf  Hf3  1  0.800062  0.199938  0.554155  1
  Hf  Hf4  1  0.800062  0.600123  0.554155  1
  Hf  Hf5  1  0.399877  0.199938  0.554155  1
  Hf  Hf6  1  0.800062  0.199938  0.945845  1
  Hf  Hf7  1  0.800062  0.600123  0.945845  1
  Hf  Hf8  1  0.399877  0.199938  0.945845  1
  Hf  Hf9  1  0.199938  0.800062  0.054155  1
  Hf  Hf10  1  0.199938  0.399877  0.054155  1
  Hf  Hf11  1  0.600123  0.800062  0.054155  1
  Hf  Hf12  1  0.540013  0.459987  0.250000  1
  Hf  Hf13  1  0.540013  0.080025  0.250000  1
  Hf  Hf14  1  0.919975  0.459987  0.250000  1
  Hf  Hf15  1  0.459987  0.540013  0.750000  1
  Hf  Hf16  1  0.459987  0.919975  0.750000  1
  Hf  Hf17  1  0.080025  0.540013  0.750000  1
  Be  Be18  1  0.333333  0.666667  0.250000  1
  Be  Be19  1  0.666667  0.333333  0.750000  1
  Nb  Nb20  1  0.000000  0.000000  0.500000  1
  Nb  Nb21  1  0.000000  0.000000  0.000000  1
  Re  Re22  1  0.886215  0.113785  0.250000  1
  Re  Re23  1  0.886215  0.772433  0.250000  1
  Re  Re24  1  0.227567  0.113785  0.250000  1
  Re  Re25  1  0.113785  0.886215  0.750000  1
  Re  Re26  1  0.113785  0.227567  0.750000  1
  Re  Re27  1  0.772433  0.886215  0.750000  1
