# generated using pymatgen
data_YErTm3(In2Ni)2
_symmetry_space_group_name_H-M   'P 1'
_cell_length_a   3.56742300
_cell_length_b   7.95402918
_cell_length_c   17.81265902
_cell_angle_alpha   89.95998719
_cell_angle_beta   90.00000000
_cell_angle_gamma   90.00000000
_symmetry_Int_Tables_number   1
_chemical_formula_structural   YErTm3(In2Ni)2
_chemical_formula_sum   'Y2 Er2 Tm6 In8 Ni4'
_cell_volume   505.44096370
_cell_formula_units_Z   2
loop_
 _symmetry_equiv_pos_site_id
 _symmetry_equiv_pos_as_xyz
  1  'x, y, z'
loop_
 _atom_site_type_symbol
 _atom_site_label
 _atom_site_symmetry_multiplicity
 _atom_site_fract_x
 _atom_site_fract_y
 _atom_site_fract_z
 _atom_site_occupancy
  Y  Y0  1  0.000000  0.500000  0.500000  1
  Y  Y1  1  0.000000  0.000000  0.000000  1
  Er  Er2  1  0.000000  0.745891  0.278106  1
  Er  Er3  1  0.000000  0.254109  0.721894  1
  Tm  Tm4  1  0.000000  0.753959  0.778099  1
  Tm  Tm5  1  0.000000  0.246041  0.221901  1
  Tm  Tm6  1  0.000000  0.616442  0.088635  1
  Tm  Tm7  1  0.000000  0.383558  0.911365  1
  Tm  Tm8  1  0.000000  0.883270  0.588642  1
  Tm  Tm9  1  0.000000  0.116730  0.411358  1
  In  In10  1  0.500000  0.704091  0.930844  1
  In  In11  1  0.500000  0.295909  0.069156  1
  In  In12  1  0.500000  0.796226  0.431029  1
  In  In13  1  0.500000  0.203774  0.568971  1
  In  In14  1  0.500000  0.574268  0.652272  1
  In  In15  1  0.500000  0.425732  0.347728  1
  In  In16  1  0.500000  0.926612  0.152077  1
  In  In17  1  0.500000  0.073388  0.847923  1
  Ni  Ni18  1  0.500000  0.523652  0.195278  1
  Ni  Ni19  1  0.500000  0.476348  0.804722  1
  Ni  Ni20  1  0.500000  0.974229  0.695569  1
  Ni  Ni21  1  0.500000  0.025771  0.304431  1
