# generated using pymatgen
data_Th3Al12Fe3Rh
_symmetry_space_group_name_H-M   'P 1'
_cell_length_a   8.87430695
_cell_length_b   8.86987705
_cell_length_c   9.41963183
_cell_angle_alpha   89.99999657
_cell_angle_beta   90.04145525
_cell_angle_gamma   119.98349992
_symmetry_Int_Tables_number   1
_chemical_formula_structural   Th3Al12Fe3Rh
_chemical_formula_sum   'Th6 Al24 Fe6 Rh2'
_cell_volume   642.22711656
_cell_formula_units_Z   2
loop_
 _symmetry_equiv_pos_site_id
 _symmetry_equiv_pos_as_xyz
  1  'x, y, z'
loop_
 _atom_site_type_symbol
 _atom_site_label
 _atom_site_symmetry_multiplicity
 _atom_site_fract_x
 _atom_site_fract_y
 _atom_site_fract_z
 _atom_site_occupancy
  Th  Th0  1  0.807022  0.197493  0.746658  1
  Th  Th1  1  0.192978  0.802507  0.253342  1
  Th  Th2  1  0.389607  0.194804  0.745798  1
  Th  Th3  1  0.610393  0.805196  0.254202  1
  Th  Th4  1  0.807022  0.609529  0.746658  1
  Th  Th5  1  0.192978  0.390471  0.253342  1
  Al  Al6  1  0.673770  0.336885  0.993926  1
  Al  Al7  1  0.326230  0.663115  0.006074  1
  Al  Al8  1  0.332988  0.666494  0.494970  1
  Al  Al9  1  0.667012  0.333506  0.505030  1
  Al  Al10  1  0.839265  0.161422  0.423072  1
  Al  Al11  1  0.160735  0.838578  0.576928  1
  Al  Al12  1  0.321244  0.160622  0.422390  1
  Al  Al13  1  0.156392  0.837048  0.922846  1
  Al  Al14  1  0.678756  0.839378  0.577610  1
  Al  Al15  1  0.843608  0.162952  0.077154  1
  Al  Al16  1  0.839265  0.677843  0.423072  1
  Al  Al17  1  0.682454  0.841227  0.922465  1
  Al  Al18  1  0.160735  0.322157  0.576928  1
  Al  Al19  1  0.317546  0.158773  0.077535  1
  Al  Al20  1  0.156392  0.319344  0.922846  1
  Al  Al21  1  0.843608  0.680656  0.077154  1
  Al  Al22  1  0.437462  0.563028  0.745405  1
  Al  Al23  1  0.562538  0.436972  0.254595  1
  Al  Al24  1  0.124666  0.562333  0.750288  1
  Al  Al25  1  0.875334  0.437667  0.249712  1
  Al  Al26  1  0.437462  0.874434  0.745405  1
  Al  Al27  1  0.562538  0.125566  0.254595  1
  Al  Al28  1  0.000029  0.000015  0.749883  1
  Al  Al29  1  0.999971  0.999985  0.250117  1
  Fe  Fe30  1  0.000000  0.500000  0.000000  1
  Fe  Fe31  1  0.500000  0.500000  0.500000  1
  Fe  Fe32  1  0.000000  0.500000  0.500000  1
  Fe  Fe33  1  0.500000  0.000000  0.500000  1
  Fe  Fe34  1  0.000000  0.000000  0.000000  1
  Fe  Fe35  1  0.000000  0.000000  0.500000  1
  Rh  Rh36  1  0.500000  0.500000  0.000000  1
  Rh  Rh37  1  0.500000  0.000000  0.000000  1
