# generated using pymatgen
data_Sc2SiB2Ir2Rh3
_symmetry_space_group_name_H-M   'P 1'
_cell_length_a   9.19557403
_cell_length_b   9.19663403
_cell_length_c   3.14560200
_cell_angle_alpha   90.00000000
_cell_angle_beta   90.00000000
_cell_angle_gamma   89.99026182
_symmetry_Int_Tables_number   1
_chemical_formula_structural   Sc2SiB2Ir2Rh3
_chemical_formula_sum   'Sc4 Si2 B4 Ir4 Rh6'
_cell_volume   266.01830134
_cell_formula_units_Z   2
loop_
 _symmetry_equiv_pos_site_id
 _symmetry_equiv_pos_as_xyz
  1  'x, y, z'
loop_
 _atom_site_type_symbol
 _atom_site_label
 _atom_site_symmetry_multiplicity
 _atom_site_fract_x
 _atom_site_fract_y
 _atom_site_fract_z
 _atom_site_occupancy
  Sc  Sc0  1  0.675109  0.174934  0.000000  1
  Sc  Sc1  1  0.175063  0.324738  0.000000  1
  Sc  Sc2  1  0.824347  0.675416  0.000000  1
  Sc  Sc3  1  0.324125  0.824451  0.000000  1
  Si  Si4  1  0.999503  0.999092  0.000000  1
  Si  Si5  1  0.499906  0.500028  0.000000  1
  B  B6  1  0.375726  0.122540  0.000000  1
  B  B7  1  0.877561  0.375723  0.000000  1
  B  B8  1  0.122738  0.622824  0.000000  1
  B  B9  1  0.622769  0.877533  0.000000  1
  Ir  Ir10  1  0.500273  0.999306  0.500000  1
  Ir  Ir11  1  0.212356  0.071013  0.500000  1
  Ir  Ir12  1  0.929531  0.212730  0.500000  1
  Ir  Ir13  1  0.999947  0.501482  0.500000  1
  Rh  Rh14  1  0.429656  0.288805  0.500000  1
  Rh  Rh15  1  0.711262  0.429268  0.500000  1
  Rh  Rh16  1  0.288784  0.571287  0.500000  1
  Rh  Rh17  1  0.571659  0.711264  0.500000  1
  Rh  Rh18  1  0.071405  0.788603  0.500000  1
  Rh  Rh19  1  0.788274  0.928958  0.500000  1
