# generated using pymatgen
data_Lu2As2Cl2O5
_symmetry_space_group_name_H-M   'P 1'
_cell_length_a   6.92051146
_cell_length_b   7.61075001
_cell_length_c   9.34147980
_cell_angle_alpha   108.94310921
_cell_angle_beta   104.31665246
_cell_angle_gamma   102.33371503
_symmetry_Int_Tables_number   1
_chemical_formula_structural   Lu2As2Cl2O5
_chemical_formula_sum   'Lu4 As4 Cl4 O10'
_cell_volume   427.10677581
_cell_formula_units_Z   2
loop_
 _symmetry_equiv_pos_site_id
 _symmetry_equiv_pos_as_xyz
  1  'x, y, z'
loop_
 _atom_site_type_symbol
 _atom_site_label
 _atom_site_symmetry_multiplicity
 _atom_site_fract_x
 _atom_site_fract_y
 _atom_site_fract_z
 _atom_site_occupancy
  Lu  Lu0  1  0.402106  0.695800  0.519368  1
  Lu  Lu1  1  0.597894  0.304200  0.480632  1
  Lu  Lu2  1  0.852484  0.771483  0.338618  1
  Lu  Lu3  1  0.147516  0.228517  0.661382  1
  As  As4  1  0.887111  0.847063  0.746725  1
  As  As5  1  0.112889  0.152937  0.253275  1
  As  As6  1  0.704339  0.230156  0.794541  1
  As  As7  1  0.295661  0.769844  0.205459  1
  Cl  Cl8  1  0.235615  0.616841  0.724733  1
  Cl  Cl9  1  0.764385  0.383159  0.275267  1
  Cl  Cl10  1  0.769359  0.722280  0.043469  1
  Cl  Cl11  1  0.230641  0.277720  0.956531  1
  O  O12  1  0.840570  0.269209  0.658718  1
  O  O13  1  0.159430  0.730791  0.341282  1
  O  O14  1  0.539912  0.784438  0.345848  1
  O  O15  1  0.460088  0.215562  0.654152  1
  O  O16  1  0.658319  0.958123  0.722959  1
  O  O17  1  0.341681  0.041877  0.277041  1
  O  O18  1  0.690335  0.618451  0.599346  1
  O  O19  1  0.309665  0.381549  0.400654  1
  O  O20  1  0.989268  0.917051  0.605846  1
  O  O21  1  0.010732  0.082949  0.394154  1
