# generated using pymatgen
data_Tb3Th11TcRu5
_symmetry_space_group_name_H-M   'P 1'
_cell_length_a   9.82377147
_cell_length_b   9.90968557
_cell_length_c   6.40935270
_cell_angle_alpha   89.91828912
_cell_angle_beta   89.99805410
_cell_angle_gamma   120.33228857
_symmetry_Int_Tables_number   1
_chemical_formula_structural   Tb3Th11TcRu5
_chemical_formula_sum   'Tb3 Th11 Tc1 Ru5'
_cell_volume   538.54052184
_cell_formula_units_Z   1
loop_
 _symmetry_equiv_pos_site_id
 _symmetry_equiv_pos_as_xyz
  1  'x, y, z'
loop_
 _atom_site_type_symbol
 _atom_site_label
 _atom_site_symmetry_multiplicity
 _atom_site_fract_x
 _atom_site_fract_y
 _atom_site_fract_z
 _atom_site_occupancy
  Tb  Tb0  1  0.461787  0.536778  0.295552  1
  Tb  Tb1  1  0.073544  0.536273  0.299838  1
  Tb  Tb2  1  0.925609  0.461060  0.799528  1
  Th  Th3  1  0.249713  0.126443  0.510808  1
  Th  Th4  1  0.542239  0.081910  0.797149  1
  Th  Th5  1  0.749198  0.873281  0.013560  1
  Th  Th6  1  0.667495  0.334134  0.275588  1
  Th  Th7  1  0.123511  0.870587  0.009751  1
  Th  Th8  1  0.459929  0.918443  0.297577  1
  Th  Th9  1  0.539149  0.463311  0.797888  1
  Th  Th10  1  0.875970  0.129141  0.511626  1
  Th  Th11  1  0.124503  0.251977  0.012644  1
  Th  Th12  1  0.874422  0.748996  0.510795  1
  Th  Th13  1  0.333285  0.665493  0.772598  1
  Tc  Tc14  1  0.811717  0.633632  0.047399  1
  Ru  Ru15  1  0.812858  0.179062  0.046276  1
  Ru  Ru16  1  0.631268  0.817997  0.546388  1
  Ru  Ru17  1  0.369435  0.185835  0.041689  1
  Ru  Ru18  1  0.183937  0.364728  0.553249  1
  Ru  Ru19  1  0.190430  0.820921  0.544093  1
