# generated using pymatgen
data_Yb2SmU5(ReB6)4
_symmetry_space_group_name_H-M   'P 1'
_cell_length_a   3.65052600
_cell_length_b   9.28971204
_cell_length_c   11.40717438
_cell_angle_alpha   90.04255833
_cell_angle_beta   90.00000000
_cell_angle_gamma   90.00000000
_symmetry_Int_Tables_number   1
_chemical_formula_structural   Yb2SmU5(ReB6)4
_chemical_formula_sum   'Yb2 Sm1 U5 Re4 B24'
_cell_volume   386.84381612
_cell_formula_units_Z   1
loop_
 _symmetry_equiv_pos_site_id
 _symmetry_equiv_pos_as_xyz
  1  'x, y, z'
loop_
 _atom_site_type_symbol
 _atom_site_label
 _atom_site_symmetry_multiplicity
 _atom_site_fract_x
 _atom_site_fract_y
 _atom_site_fract_z
 _atom_site_occupancy
  Yb  Yb0  1  0.000000  0.662934  0.591147  1
  Yb  Yb1  1  0.000000  0.835735  0.092300  1
  Sm  Sm2  1  0.000000  0.337659  0.408330  1
  U  U3  1  0.000000  0.162925  0.907947  1
  U  U4  1  0.000000  0.954219  0.396366  1
  U  U5  1  0.000000  0.040942  0.603666  1
  U  U6  1  0.000000  0.458947  0.104546  1
  U  U7  1  0.000000  0.544714  0.896325  1
  Re  Re8  1  0.000000  0.646720  0.317456  1
  Re  Re9  1  0.000000  0.350779  0.685967  1
  Re  Re10  1  0.000000  0.146350  0.177032  1
  Re  Re11  1  0.000000  0.858397  0.819652  1
  B  B12  1  0.500000  0.554127  0.431570  1
  B  B13  1  0.500000  0.447626  0.571527  1
  B  B14  1  0.500000  0.052890  0.067812  1
  B  B15  1  0.500000  0.949989  0.930557  1
  B  B16  1  0.500000  0.743283  0.422677  1
  B  B17  1  0.500000  0.255674  0.578417  1
  B  B18  1  0.500000  0.243031  0.075684  1
  B  B19  1  0.500000  0.756894  0.922021  1
  B  B20  1  0.500000  0.801668  0.274414  1
  B  B21  1  0.500000  0.196226  0.727473  1
  B  B22  1  0.500000  0.302080  0.224159  1
  B  B23  1  0.500000  0.699096  0.774707  1
  B  B24  1  0.500000  0.643829  0.188173  1
  B  B25  1  0.500000  0.354889  0.812655  1
  B  B26  1  0.500000  0.143008  0.310280  1
  B  B27  1  0.500000  0.855942  0.688624  1
  B  B28  1  0.500000  0.989249  0.218860  1
  B  B29  1  0.500000  0.013195  0.781890  1
  B  B30  1  0.500000  0.490620  0.280244  1
  B  B31  1  0.500000  0.511157  0.719715  1
  B  B32  1  0.500000  0.638897  0.037670  1
  B  B33  1  0.500000  0.357371  0.960561  1
  B  B34  1  0.500000  0.136882  0.461498  1
  B  B35  1  0.500000  0.862058  0.538079  1
