# generated using pymatgen
data_Rb2Al3AgF12
_symmetry_space_group_name_H-M   'P 1'
_cell_length_a   7.12038300
_cell_length_b   7.37443611
_cell_length_c   10.13268148
_cell_angle_alpha   87.33662839
_cell_angle_beta   90.00000000
_cell_angle_gamma   90.00000000
_symmetry_Int_Tables_number   1
_chemical_formula_structural   Rb2Al3AgF12
_chemical_formula_sum   'Rb4 Al6 Ag2 F24'
_cell_volume   531.48030820
_cell_formula_units_Z   2
loop_
 _symmetry_equiv_pos_site_id
 _symmetry_equiv_pos_as_xyz
  1  'x, y, z'
loop_
 _atom_site_type_symbol
 _atom_site_label
 _atom_site_symmetry_multiplicity
 _atom_site_fract_x
 _atom_site_fract_y
 _atom_site_fract_z
 _atom_site_occupancy
  Rb  Rb0  1  0.750000  0.000095  0.113618  1
  Rb  Rb1  1  0.250000  0.999905  0.886382  1
  Rb  Rb2  1  0.250000  0.476368  0.642073  1
  Rb  Rb3  1  0.750000  0.523632  0.357927  1
  Al  Al4  1  0.500000  0.000000  0.500000  1
  Al  Al5  1  0.000000  0.000000  0.500000  1
  Al  Al6  1  0.000000  0.500000  0.000000  1
  Al  Al7  1  0.500000  0.500000  0.000000  1
  Al  Al8  1  0.750000  0.710544  0.729225  1
  Al  Al9  1  0.250000  0.289456  0.270775  1
  Ag  Ag10  1  0.750000  0.222976  0.755394  1
  Ag  Ag11  1  0.250000  0.777024  0.244606  1
  F  F12  1  0.750000  0.077124  0.492468  1
  F  F13  1  0.250000  0.922876  0.507532  1
  F  F14  1  0.750000  0.516361  0.629984  1
  F  F15  1  0.250000  0.483639  0.370016  1
  F  F16  1  0.250000  0.501898  0.945741  1
  F  F17  1  0.750000  0.498102  0.054259  1
  F  F18  1  0.250000  0.100689  0.169344  1
  F  F19  1  0.750000  0.899311  0.830656  1
  F  F20  1  0.958494  0.855741  0.366822  1
  F  F21  1  0.458494  0.144259  0.633178  1
  F  F22  1  0.041506  0.144259  0.633178  1
  F  F23  1  0.541506  0.855741  0.366822  1
  F  F24  1  0.938359  0.810687  0.620966  1
  F  F25  1  0.438359  0.189313  0.379034  1
  F  F26  1  0.061641  0.189313  0.379034  1
  F  F27  1  0.561641  0.810687  0.620966  1
  F  F28  1  0.024829  0.722882  0.058378  1
  F  F29  1  0.524829  0.277118  0.941622  1
  F  F30  1  0.975171  0.277118  0.941622  1
  F  F31  1  0.475171  0.722882  0.058378  1
  F  F32  1  0.437496  0.401475  0.166755  1
  F  F33  1  0.937496  0.598525  0.833245  1
  F  F34  1  0.562504  0.598525  0.833245  1
  F  F35  1  0.062504  0.401475  0.166755  1
