# generated using pymatgen
data_Pr16Cd4Os3Pt
_symmetry_space_group_name_H-M   'P 1'
_cell_length_a   10.00033863
_cell_length_b   10.05462684
_cell_length_c   10.05462600
_cell_angle_alpha   59.99999619
_cell_angle_beta   59.82025522
_cell_angle_gamma   59.82025573
_symmetry_Int_Tables_number   1
_chemical_formula_structural   Pr16Cd4Os3Pt
_chemical_formula_sum   'Pr16 Cd4 Os3 Pt1'
_cell_volume   712.92904500
_cell_formula_units_Z   1
loop_
 _symmetry_equiv_pos_site_id
 _symmetry_equiv_pos_as_xyz
  1  'x, y, z'
loop_
 _atom_site_type_symbol
 _atom_site_label
 _atom_site_symmetry_multiplicity
 _atom_site_fract_x
 _atom_site_fract_y
 _atom_site_fract_z
 _atom_site_occupancy
  Pr  Pr0  1  0.343485  0.349790  0.349790  1
  Pr  Pr1  1  0.343485  0.349790  0.956936  1
  Pr  Pr2  1  0.343485  0.956936  0.349790  1
  Pr  Pr3  1  0.961171  0.346276  0.346276  1
  Pr  Pr4  1  0.814568  0.190893  0.190893  1
  Pr  Pr5  1  0.190275  0.810565  0.810565  1
  Pr  Pr6  1  0.190275  0.810565  0.188595  1
  Pr  Pr7  1  0.814568  0.190893  0.803646  1
  Pr  Pr8  1  0.190275  0.188595  0.810565  1
  Pr  Pr9  1  0.814568  0.803646  0.190893  1
  Pr  Pr10  1  0.939077  0.560457  0.560457  1
  Pr  Pr11  1  0.557835  0.938839  0.938839  1
  Pr  Pr12  1  0.557835  0.938839  0.564488  1
  Pr  Pr13  1  0.939077  0.560457  0.940008  1
  Pr  Pr14  1  0.557835  0.564488  0.938839  1
  Pr  Pr15  1  0.939077  0.940008  0.560457  1
  Cd  Cd16  1  0.579225  0.579976  0.579976  1
  Cd  Cd17  1  0.579225  0.579976  0.260822  1
  Cd  Cd18  1  0.579225  0.260822  0.579976  1
  Cd  Cd19  1  0.261227  0.579591  0.579591  1
  Os  Os20  1  0.142130  0.138248  0.138248  1
  Os  Os21  1  0.142130  0.138248  0.581374  1
  Os  Os22  1  0.142130  0.581374  0.138248  1
  Pt  Pt23  1  0.577816  0.140728  0.140728  1
