# generated using pymatgen
data_Ce3Lu7(Al2Ru3)2
_symmetry_space_group_name_H-M   'P 1'
_cell_length_a   8.34734252
_cell_length_b   8.34734204
_cell_length_c   8.34734300
_cell_angle_alpha   110.02896399
_cell_angle_beta   110.02896279
_cell_angle_gamma   110.02895859
_symmetry_Int_Tables_number   1
_chemical_formula_structural   Ce3Lu7(Al2Ru3)2
_chemical_formula_sum   'Ce3 Lu7 Al4 Ru6'
_cell_volume   438.24750442
_cell_formula_units_Z   1
loop_
 _symmetry_equiv_pos_site_id
 _symmetry_equiv_pos_as_xyz
  1  'x, y, z'
loop_
 _atom_site_type_symbol
 _atom_site_label
 _atom_site_symmetry_multiplicity
 _atom_site_fract_x
 _atom_site_fract_y
 _atom_site_fract_z
 _atom_site_occupancy
  Ce  Ce0  1  0.254611  0.199800  0.943663  1
  Ce  Ce1  1  0.943663  0.254611  0.199800  1
  Ce  Ce2  1  0.199800  0.943663  0.254611  1
  Lu  Lu3  1  0.780356  0.780356  0.780356  1
  Lu  Lu4  1  0.315905  0.570107  0.750953  1
  Lu  Lu5  1  0.750953  0.315905  0.570107  1
  Lu  Lu6  1  0.570107  0.750953  0.315905  1
  Lu  Lu7  1  0.718510  0.507526  0.995499  1
  Lu  Lu8  1  0.995499  0.718510  0.507526  1
  Lu  Lu9  1  0.507526  0.995499  0.718510  1
  Al  Al10  1  0.415839  0.415839  0.415839  1
  Al  Al11  1  0.090894  0.497969  0.999704  1
  Al  Al12  1  0.999704  0.090894  0.497969  1
  Al  Al13  1  0.497969  0.999704  0.090894  1
  Ru  Ru14  1  0.893815  0.117167  0.751451  1
  Ru  Ru15  1  0.751451  0.893815  0.117167  1
  Ru  Ru16  1  0.117167  0.751451  0.893815  1
  Ru  Ru17  1  0.227255  0.600677  0.368300  1
  Ru  Ru18  1  0.368300  0.227255  0.600677  1
  Ru  Ru19  1  0.600677  0.368300  0.227255  1
