# generated using pymatgen
data_Tb3Tm(ScPt)4
_symmetry_space_group_name_H-M   'P 1'
_cell_length_a   4.64446800
_cell_length_b   6.96896700
_cell_length_c   8.39474943
_cell_angle_alpha   90.26195808
_cell_angle_beta   90.00000000
_cell_angle_gamma   90.00000000
_symmetry_Int_Tables_number   1
_chemical_formula_structural   Tb3Tm(ScPt)4
_chemical_formula_sum   'Tb3 Tm1 Sc4 Pt4'
_cell_volume   271.71122586
_cell_formula_units_Z   1
loop_
 _symmetry_equiv_pos_site_id
 _symmetry_equiv_pos_as_xyz
  1  'x, y, z'
loop_
 _atom_site_type_symbol
 _atom_site_label
 _atom_site_symmetry_multiplicity
 _atom_site_fract_x
 _atom_site_fract_y
 _atom_site_fract_z
 _atom_site_occupancy
  Tb  Tb0  1  0.250000  0.985059  0.322546  1
  Tb  Tb1  1  0.750000  0.016619  0.678171  1
  Tb  Tb2  1  0.250000  0.484001  0.176412  1
  Tm  Tm3  1  0.750000  0.515421  0.824870  1
  Sc  Sc4  1  0.750000  0.640644  0.428438  1
  Sc  Sc5  1  0.250000  0.361048  0.576856  1
  Sc  Sc6  1  0.750000  0.140857  0.071956  1
  Sc  Sc7  1  0.250000  0.855469  0.925313  1
  Pt  Pt8  1  0.250000  0.246252  0.901056  1
  Pt  Pt9  1  0.750000  0.753926  0.094085  1
  Pt  Pt10  1  0.250000  0.745914  0.596605  1
  Pt  Pt11  1  0.750000  0.254790  0.403692  1
