# generated using pymatgen
data_Ho3Mn2Co7P6
_symmetry_space_group_name_H-M   'P 1'
_cell_length_a   3.70870400
_cell_length_b   10.57797700
_cell_length_c   12.11345300
_cell_angle_alpha   90.00000000
_cell_angle_beta   90.00000000
_cell_angle_gamma   90.00000000
_symmetry_Int_Tables_number   1
_chemical_formula_structural   Ho3Mn2Co7P6
_chemical_formula_sum   'Ho6 Mn4 Co14 P12'
_cell_volume   475.21785497
_cell_formula_units_Z   2
loop_
 _symmetry_equiv_pos_site_id
 _symmetry_equiv_pos_as_xyz
  1  'x, y, z'
loop_
 _atom_site_type_symbol
 _atom_site_label
 _atom_site_symmetry_multiplicity
 _atom_site_fract_x
 _atom_site_fract_y
 _atom_site_fract_z
 _atom_site_occupancy
  Ho  Ho0  1  0.000000  0.500000  0.523371  1
  Ho  Ho1  1  0.500000  0.000000  0.476629  1
  Ho  Ho2  1  0.500000  0.819989  0.203952  1
  Ho  Ho3  1  0.500000  0.180011  0.203952  1
  Ho  Ho4  1  0.000000  0.680011  0.796048  1
  Ho  Ho5  1  0.000000  0.319989  0.796048  1
  Mn  Mn6  1  0.000000  0.500000  0.988478  1
  Mn  Mn7  1  0.500000  0.000000  0.011522  1
  Mn  Mn8  1  0.500000  0.500000  0.153660  1
  Mn  Mn9  1  0.000000  0.000000  0.846340  1
  Co  Co10  1  0.500000  0.296165  0.430381  1
  Co  Co11  1  0.500000  0.703835  0.430381  1
  Co  Co12  1  0.000000  0.203835  0.569619  1
  Co  Co13  1  0.000000  0.796165  0.569619  1
  Co  Co14  1  0.500000  0.878590  0.707960  1
  Co  Co15  1  0.500000  0.121410  0.707960  1
  Co  Co16  1  0.000000  0.621410  0.292040  1
  Co  Co17  1  0.000000  0.378590  0.292040  1
  Co  Co18  1  0.500000  0.332138  0.995095  1
  Co  Co19  1  0.500000  0.667862  0.995095  1
  Co  Co20  1  0.000000  0.167862  0.004905  1
  Co  Co21  1  0.000000  0.832138  0.004905  1
  Co  Co22  1  0.500000  0.500000  0.699074  1
  Co  Co23  1  0.000000  0.000000  0.300926  1
  P  P24  1  0.500000  0.310393  0.616336  1
  P  P25  1  0.500000  0.689607  0.616336  1
  P  P26  1  0.000000  0.189607  0.383664  1
  P  P27  1  0.000000  0.810393  0.383664  1
  P  P28  1  0.500000  0.500000  0.882446  1
  P  P29  1  0.000000  0.000000  0.117554  1
  P  P30  1  0.500000  0.844894  0.893461  1
  P  P31  1  0.500000  0.155106  0.893461  1
  P  P32  1  0.000000  0.655106  0.106539  1
  P  P33  1  0.000000  0.344894  0.106539  1
  P  P34  1  0.500000  0.500000  0.346570  1
  P  P35  1  0.000000  0.000000  0.653430  1
