# generated using pymatgen
data_TbYbZr2(Al8Pt3)3
_symmetry_space_group_name_H-M   'P 1'
_cell_length_a   7.51365021
_cell_length_b   7.51013877
_cell_length_c   13.08299709
_cell_angle_alpha   84.51023612
_cell_angle_beta   100.99970238
_cell_angle_gamma   120.00681880
_symmetry_Int_Tables_number   1
_chemical_formula_structural   TbYbZr2(Al8Pt3)3
_chemical_formula_sum   'Tb1 Yb1 Zr2 Al24 Pt9'
_cell_volume   627.55813515
_cell_formula_units_Z   1
loop_
 _symmetry_equiv_pos_site_id
 _symmetry_equiv_pos_as_xyz
  1  'x, y, z'
loop_
 _atom_site_type_symbol
 _atom_site_label
 _atom_site_symmetry_multiplicity
 _atom_site_fract_x
 _atom_site_fract_y
 _atom_site_fract_z
 _atom_site_occupancy
  Tb  Tb0  1  0.768449  0.501836  0.808595  1
  Yb  Yb1  1  0.232174  0.498170  0.192123  1
  Zr  Zr2  1  0.438034  0.831311  0.809603  1
  Zr  Zr3  1  0.561833  0.168333  0.190618  1
  Al  Al4  1  0.482704  0.164036  0.943732  1
  Al  Al5  1  0.516857  0.835363  0.056834  1
  Al  Al6  1  0.020425  0.167393  0.562092  1
  Al  Al7  1  0.979618  0.832903  0.437793  1
  Al  Al8  1  0.353546  0.833177  0.560344  1
  Al  Al9  1  0.646491  0.166572  0.439274  1
  Al  Al10  1  0.614808  0.835681  0.326640  1
  Al  Al11  1  0.383706  0.163605  0.672904  1
  Al  Al12  1  0.059095  0.495459  0.673180  1
  Al  Al13  1  0.941703  0.504137  0.326370  1
  Al  Al14  1  0.729005  0.840087  0.672213  1
  Al  Al15  1  0.271060  0.161253  0.327238  1
  Al  Al16  1  0.149921  0.502375  0.944189  1
  Al  Al17  1  0.851164  0.497223  0.057590  1
  Al  Al18  1  0.814011  0.832452  0.951675  1
  Al  Al19  1  0.186269  0.168118  0.049110  1
  Al  Al20  1  0.313836  0.500710  0.440090  1
  Al  Al21  1  0.685584  0.499145  0.559033  1
  Al  Al22  1  0.109058  0.843390  0.183392  1
  Al  Al23  1  0.891904  0.157923  0.816461  1
  Al  Al24  1  0.306753  0.373858  0.815350  1
  Al  Al25  1  0.693337  0.625180  0.184449  1
  Al  Al26  1  0.109669  0.960467  0.815990  1
  Al  Al27  1  0.889541  0.039963  0.183864  1
  Pt  Pt28  1  0.388214  0.508909  0.638914  1
  Pt  Pt29  1  0.612812  0.491795  0.361528  1
  Pt  Pt30  1  0.170544  0.828103  0.998932  1
  Pt  Pt31  1  0.828590  0.171615  0.999690  1
  Pt  Pt32  1  0.295579  0.833442  0.361875  1
  Pt  Pt33  1  0.703895  0.166510  0.638688  1
  Pt  Pt34  1  0.045828  0.824538  0.637662  1
  Pt  Pt35  1  0.953870  0.174651  0.362740  1
  Pt  Pt36  1  0.500111  0.500320  0.999225  1
