# generated using pymatgen
data_K3(RuS)8
_symmetry_space_group_name_H-M   'P 1'
_cell_length_a   7.91752764
_cell_length_b   7.03193092
_cell_length_c   8.81395186
_cell_angle_alpha   67.59569547
_cell_angle_beta   63.33107553
_cell_angle_gamma   73.61464093
_symmetry_Int_Tables_number   1
_chemical_formula_structural   K3(RuS)8
_chemical_formula_sum   'K3 Ru8 S8'
_cell_volume   401.73782893
_cell_formula_units_Z   1
loop_
 _symmetry_equiv_pos_site_id
 _symmetry_equiv_pos_as_xyz
  1  'x, y, z'
loop_
 _atom_site_type_symbol
 _atom_site_label
 _atom_site_symmetry_multiplicity
 _atom_site_fract_x
 _atom_site_fract_y
 _atom_site_fract_z
 _atom_site_occupancy
  K  K0  1  0.763762  0.999939  0.472725  1
  K  K1  1  0.500000  0.000000  0.000000  1
  K  K2  1  0.236238  0.000061  0.527275  1
  Ru  Ru3  1  0.062712  0.499068  0.625056  1
  Ru  Ru4  1  0.562923  0.498868  0.624746  1
  Ru  Ru5  1  0.812246  0.498685  0.125322  1
  Ru  Ru6  1  0.312932  0.498854  0.125632  1
  Ru  Ru7  1  0.937288  0.500932  0.374944  1
  Ru  Ru8  1  0.437077  0.501132  0.375254  1
  Ru  Ru9  1  0.687068  0.501146  0.874368  1
  Ru  Ru10  1  0.187754  0.501315  0.874678  1
  S  S11  1  0.164142  0.690646  0.326812  1
  S  S12  1  0.664357  0.690508  0.325333  1
  S  S13  1  0.913740  0.689260  0.826860  1
  S  S14  1  0.414539  0.690187  0.826575  1
  S  S15  1  0.835858  0.309354  0.673188  1
  S  S16  1  0.335643  0.309492  0.674667  1
  S  S17  1  0.585461  0.309813  0.173425  1
  S  S18  1  0.086260  0.310740  0.173140  1
