# generated using pymatgen
data_Dy10CdIn7CoNi3
_symmetry_space_group_name_H-M   'P 1'
_cell_length_a   3.57673600
_cell_length_b   8.07157655
_cell_length_c   18.07654269
_cell_angle_alpha   89.98022927
_cell_angle_beta   90.00000000
_cell_angle_gamma   90.00000000
_symmetry_Int_Tables_number   1
_chemical_formula_structural   Dy10CdIn7CoNi3
_chemical_formula_sum   'Dy10 Cd1 In7 Co1 Ni3'
_cell_volume   521.86792033
_cell_formula_units_Z   1
loop_
 _symmetry_equiv_pos_site_id
 _symmetry_equiv_pos_as_xyz
  1  'x, y, z'
loop_
 _atom_site_type_symbol
 _atom_site_label
 _atom_site_symmetry_multiplicity
 _atom_site_fract_x
 _atom_site_fract_y
 _atom_site_fract_z
 _atom_site_occupancy
  Dy  Dy0  1  0.500000  0.382907  0.588910  1
  Dy  Dy1  1  0.500000  0.885099  0.909556  1
  Dy  Dy2  1  0.500000  0.112200  0.088915  1
  Dy  Dy3  1  0.500000  0.760518  0.722695  1
  Dy  Dy4  1  0.500000  0.246701  0.778693  1
  Dy  Dy5  1  0.500000  0.500517  0.000195  1
  Dy  Dy6  1  0.500000  0.748566  0.219898  1
  Dy  Dy7  1  0.500000  0.245105  0.278888  1
  Dy  Dy8  1  0.500000  0.999707  0.500221  1
  Dy  Dy9  1  0.500000  0.616718  0.410866  1
  Cd  Cd10  1  0.000000  0.792266  0.069233  1
  In  In11  1  0.000000  0.927489  0.348075  1
  In  In12  1  0.000000  0.070853  0.652434  1
  In  In13  1  0.000000  0.572207  0.848064  1
  In  In14  1  0.000000  0.705461  0.568888  1
  In  In15  1  0.000000  0.204238  0.930299  1
  In  In16  1  0.000000  0.294330  0.431292  1
  In  In17  1  0.000000  0.429133  0.151576  1
  Co  Co18  1  0.000000  0.980465  0.804036  1
  Ni  Ni19  1  0.000000  0.522212  0.303675  1
  Ni  Ni20  1  0.000000  0.478673  0.696149  1
  Ni  Ni21  1  0.000000  0.024635  0.197445  1
