# generated using pymatgen
data_Yb2Dy(Si3Os)4
_symmetry_space_group_name_H-M   'P 1'
_cell_length_a   10.17086349
_cell_length_b   10.17093453
_cell_length_c   8.16124909
_cell_angle_alpha   90.02708965
_cell_angle_beta   90.02619136
_cell_angle_gamma   132.69204302
_symmetry_Int_Tables_number   1
_chemical_formula_structural   Yb2Dy(Si3Os)4
_chemical_formula_sum   'Yb4 Dy2 Si24 Os8'
_cell_volume   620.53680549
_cell_formula_units_Z   2
loop_
 _symmetry_equiv_pos_site_id
 _symmetry_equiv_pos_as_xyz
  1  'x, y, z'
loop_
 _atom_site_type_symbol
 _atom_site_label
 _atom_site_symmetry_multiplicity
 _atom_site_fract_x
 _atom_site_fract_y
 _atom_site_fract_z
 _atom_site_occupancy
  Yb  Yb0  1  0.499806  0.499692  0.499918  1
  Yb  Yb1  1  0.999894  0.000007  0.999731  1
  Yb  Yb2  1  0.499931  0.000116  0.749938  1
  Yb  Yb3  1  0.999951  0.500260  0.250146  1
  Dy  Dy4  1  0.500945  0.000771  0.250254  1
  Dy  Dy5  1  0.999314  0.499219  0.749811  1
  Si  Si6  1  0.796138  0.203949  0.499978  1
  Si  Si7  1  0.295547  0.704525  0.000026  1
  Si  Si8  1  0.204519  0.795610  0.500007  1
  Si  Si9  1  0.703945  0.296095  0.000022  1
  Si  Si10  1  0.330947  0.336317  0.831782  1
  Si  Si11  1  0.663624  0.668915  0.168106  1
  Si  Si12  1  0.169050  0.163397  0.331592  1
  Si  Si13  1  0.836310  0.830810  0.668187  1
  Si  Si14  1  0.123654  0.890481  0.730510  1
  Si  Si15  1  0.109580  0.876399  0.269456  1
  Si  Si16  1  0.608272  0.374844  0.230730  1
  Si  Si17  1  0.625307  0.391880  0.769340  1
  Si  Si18  1  0.875834  0.108967  0.269515  1
  Si  Si19  1  0.891023  0.124218  0.730459  1
  Si  Si20  1  0.391241  0.624682  0.769297  1
  Si  Si21  1  0.375351  0.608782  0.230763  1
  Si  Si22  1  0.347262  0.113429  0.506648  1
  Si  Si23  1  0.886579  0.652783  0.493470  1
  Si  Si24  1  0.385735  0.152241  0.009237  1
  Si  Si25  1  0.847784  0.614326  0.990940  1
  Si  Si26  1  0.652535  0.885784  0.491649  1
  Si  Si27  1  0.114171  0.347445  0.508434  1
  Si  Si28  1  0.613441  0.847513  0.992704  1
  Si  Si29  1  0.152481  0.386588  0.007459  1
  Os  Os30  1  0.671497  0.328557  0.500040  1
  Os  Os31  1  0.170767  0.829293  0.999998  1
  Os  Os32  1  0.329380  0.670638  0.500030  1
  Os  Os33  1  0.828490  0.171556  0.000021  1
  Os  Os34  1  0.126811  0.127616  0.625269  1
  Os  Os35  1  0.872286  0.873084  0.374622  1
  Os  Os36  1  0.373315  0.372611  0.125144  1
  Os  Os37  1  0.627282  0.626599  0.874770  1
