# generated using pymatgen
data_Tm2Cu2BRh4
_symmetry_space_group_name_H-M   'P 1'
_cell_length_a   5.77242683
_cell_length_b   5.77242579
_cell_length_c   5.61308000
_cell_angle_alpha   60.90902930
_cell_angle_beta   60.90903505
_cell_angle_gamma   59.98466130
_symmetry_Int_Tables_number   1
_chemical_formula_structural   Tm2Cu2BRh4
_chemical_formula_sum   'Tm2 Cu2 B1 Rh4'
_cell_volume   134.02439203
_cell_formula_units_Z   1
loop_
 _symmetry_equiv_pos_site_id
 _symmetry_equiv_pos_as_xyz
  1  'x, y, z'
loop_
 _atom_site_type_symbol
 _atom_site_label
 _atom_site_symmetry_multiplicity
 _atom_site_fract_x
 _atom_site_fract_y
 _atom_site_fract_z
 _atom_site_occupancy
  Tm  Tm0  1  0.253141  0.253141  0.246336  1
  Tm  Tm1  1  0.746859  0.746859  0.752619  1
  Cu  Cu2  1  0.767065  0.232934  0.240849  1
  Cu  Cu3  1  0.232934  0.767065  0.240849  1
  B  B4  1  0.500000  0.500000  0.506715  1
  Rh  Rh5  1  0.752488  0.752488  0.245798  1
  Rh  Rh6  1  0.247511  0.247511  0.750776  1
  Rh  Rh7  1  0.759793  0.240206  0.758028  1
  Rh  Rh8  1  0.240206  0.759793  0.758028  1
