# generated using pymatgen
data_Er8MgHgIr2
_symmetry_space_group_name_H-M   'P 1'
_cell_length_a   9.56736612
_cell_length_b   9.56736776
_cell_length_c   9.56555600
_cell_angle_alpha   60.00627097
_cell_angle_beta   60.00626532
_cell_angle_gamma   60.17714603
_symmetry_Int_Tables_number   1
_chemical_formula_structural   Er8MgHgIr2
_chemical_formula_sum   'Er16 Mg2 Hg2 Ir4'
_cell_volume   620.01098853
_cell_formula_units_Z   2
loop_
 _symmetry_equiv_pos_site_id
 _symmetry_equiv_pos_as_xyz
  1  'x, y, z'
loop_
 _atom_site_type_symbol
 _atom_site_label
 _atom_site_symmetry_multiplicity
 _atom_site_fract_x
 _atom_site_fract_y
 _atom_site_fract_z
 _atom_site_occupancy
  Er  Er0  1  0.348207  0.348207  0.345709  1
  Er  Er1  1  0.348207  0.348207  0.957878  1
  Er  Er2  1  0.350319  0.952832  0.348425  1
  Er  Er3  1  0.952832  0.350319  0.348425  1
  Er  Er4  1  0.809793  0.188319  0.190804  1
  Er  Er5  1  0.188319  0.809793  0.811084  1
  Er  Er6  1  0.188319  0.809793  0.190804  1
  Er  Er7  1  0.809793  0.188319  0.811084  1
  Er  Er8  1  0.188028  0.188028  0.811972  1
  Er  Er9  1  0.806495  0.806495  0.193505  1
  Er  Er10  1  0.936159  0.561085  0.562927  1
  Er  Er11  1  0.561085  0.936159  0.939829  1
  Er  Er12  1  0.561085  0.936159  0.562927  1
  Er  Er13  1  0.936159  0.561085  0.939829  1
  Er  Er14  1  0.561903  0.561903  0.938097  1
  Er  Er15  1  0.937597  0.937597  0.562403  1
  Mg  Mg16  1  0.579862  0.271823  0.574158  1
  Mg  Mg17  1  0.271823  0.579862  0.574158  1
  Hg  Hg18  1  0.581677  0.581677  0.587885  1
  Hg  Hg19  1  0.581677  0.581677  0.248763  1
  Ir  Ir20  1  0.141721  0.141721  0.141511  1
  Ir  Ir21  1  0.141721  0.141721  0.575047  1
  Ir  Ir22  1  0.140852  0.576371  0.141388  1
  Ir  Ir23  1  0.576371  0.140852  0.141388  1
