# generated using pymatgen
data_Li3Dy3YAlPt4
_symmetry_space_group_name_H-M   'P 1'
_cell_length_a   4.04002600
_cell_length_b   7.00997003
_cell_length_c   8.42766439
_cell_angle_alpha   90.90945307
_cell_angle_beta   90.00000000
_cell_angle_gamma   90.00000000
_symmetry_Int_Tables_number   1
_chemical_formula_structural   Li3Dy3YAlPt4
_chemical_formula_sum   'Li3 Dy3 Y1 Al1 Pt4'
_cell_volume   238.64527565
_cell_formula_units_Z   1
loop_
 _symmetry_equiv_pos_site_id
 _symmetry_equiv_pos_as_xyz
  1  'x, y, z'
loop_
 _atom_site_type_symbol
 _atom_site_label
 _atom_site_symmetry_multiplicity
 _atom_site_fract_x
 _atom_site_fract_y
 _atom_site_fract_z
 _atom_site_occupancy
  Li  Li0  1  0.250000  0.873960  0.942102  1
  Li  Li1  1  0.750000  0.130981  0.061022  1
  Li  Li2  1  0.750000  0.629553  0.438576  1
  Dy  Dy3  1  0.750000  0.544315  0.817814  1
  Dy  Dy4  1  0.750000  0.042079  0.684071  1
  Dy  Dy5  1  0.250000  0.955841  0.319649  1
  Y  Y6  1  0.250000  0.455430  0.180349  1
  Al  Al7  1  0.250000  0.371280  0.558153  1
  Pt  Pt8  1  0.250000  0.741436  0.617926  1
  Pt  Pt9  1  0.750000  0.254025  0.391585  1
  Pt  Pt10  1  0.750000  0.745799  0.123869  1
  Pt  Pt11  1  0.250000  0.255298  0.864883  1
