# generated using pymatgen
data_Tm8In3Ir
_symmetry_space_group_name_H-M   'P 1'
_cell_length_a   10.29893600
_cell_length_b   10.29893582
_cell_length_c   6.97187500
_cell_angle_alpha   90.00000000
_cell_angle_beta   90.00000000
_cell_angle_gamma   120.00000058
_symmetry_Int_Tables_number   1
_chemical_formula_structural   Tm8In3Ir
_chemical_formula_sum   'Tm16 In6 Ir2'
_cell_volume   640.42006778
_cell_formula_units_Z   2
loop_
 _symmetry_equiv_pos_site_id
 _symmetry_equiv_pos_as_xyz
  1  'x, y, z'
loop_
 _atom_site_type_symbol
 _atom_site_label
 _atom_site_symmetry_multiplicity
 _atom_site_fract_x
 _atom_site_fract_y
 _atom_site_fract_z
 _atom_site_occupancy
  Tm  Tm0  1  0.533075  0.066151  0.514796  1
  Tm  Tm1  1  0.933849  0.466925  0.514796  1
  Tm  Tm2  1  0.533075  0.466925  0.514796  1
  Tm  Tm3  1  0.466925  0.933849  0.014796  1
  Tm  Tm4  1  0.066151  0.533075  0.014796  1
  Tm  Tm5  1  0.466925  0.533075  0.014796  1
  Tm  Tm6  1  0.176850  0.353701  0.721273  1
  Tm  Tm7  1  0.646299  0.823150  0.721273  1
  Tm  Tm8  1  0.176850  0.823150  0.721273  1
  Tm  Tm9  1  0.823150  0.646299  0.221273  1
  Tm  Tm10  1  0.353701  0.176850  0.221273  1
  Tm  Tm11  1  0.823150  0.176850  0.221273  1
  Tm  Tm12  1  0.666667  0.333333  0.895967  1
  Tm  Tm13  1  0.333333  0.666667  0.395967  1
  Tm  Tm14  1  0.000000  0.000000  0.500468  1
  Tm  Tm15  1  0.000000  0.000000  0.000468  1
  In  In16  1  0.837226  0.674453  0.760832  1
  In  In17  1  0.325547  0.162774  0.760832  1
  In  In18  1  0.837226  0.162774  0.760832  1
  In  In19  1  0.162774  0.325547  0.260832  1
  In  In20  1  0.674453  0.837226  0.260832  1
  In  In21  1  0.162774  0.837226  0.260832  1
  Ir  Ir22  1  0.666667  0.333333  0.291861  1
  Ir  Ir23  1  0.333333  0.666667  0.791861  1
