# generated using pymatgen
data_Tm3Lu2(FeB3)2
_symmetry_space_group_name_H-M   'P 1'
_cell_length_a   5.37541906
_cell_length_b   5.37541755
_cell_length_c   8.09177236
_cell_angle_alpha   70.60047043
_cell_angle_beta   70.60047439
_cell_angle_gamma   60.00000180
_symmetry_Int_Tables_number   1
_chemical_formula_structural   Tm3Lu2(FeB3)2
_chemical_formula_sum   'Tm3 Lu2 Fe2 B6'
_cell_volume   187.00257893
_cell_formula_units_Z   1
loop_
 _symmetry_equiv_pos_site_id
 _symmetry_equiv_pos_as_xyz
  1  'x, y, z'
loop_
 _atom_site_type_symbol
 _atom_site_label
 _atom_site_symmetry_multiplicity
 _atom_site_fract_x
 _atom_site_fract_y
 _atom_site_fract_z
 _atom_site_occupancy
  Tm  Tm0  1  0.000000  0.000000  0.000000  1
  Tm  Tm1  1  0.748269  0.748269  0.755193  1
  Tm  Tm2  1  0.251731  0.251731  0.244807  1
  Lu  Lu3  1  0.583425  0.583425  0.249725  1
  Lu  Lu4  1  0.416575  0.416575  0.750275  1
  Fe  Fe5  1  0.883728  0.883728  0.348816  1
  Fe  Fe6  1  0.116272  0.116272  0.651184  1
  B  B7  1  0.500000  0.168740  0.500000  1
  B  B8  1  0.831260  0.500000  0.500000  1
  B  B9  1  0.168740  0.831260  0.500000  1
  B  B10  1  0.168740  0.500000  0.500000  1
  B  B11  1  0.831260  0.168740  0.500000  1
  B  B12  1  0.500000  0.831260  0.500000  1
