# generated using pymatgen
data_Tb3Tm3(RuI3)2
_symmetry_space_group_name_H-M   'P 1'
_cell_length_a   4.20778600
_cell_length_b   8.85731699
_cell_length_c   12.27040692
_cell_angle_alpha   85.98289718
_cell_angle_beta   90.00000000
_cell_angle_gamma   90.00000000
_symmetry_Int_Tables_number   1
_chemical_formula_structural   Tb3Tm3(RuI3)2
_chemical_formula_sum   'Tb3 Tm3 Ru2 I6'
_cell_volume   456.19077909
_cell_formula_units_Z   1
loop_
 _symmetry_equiv_pos_site_id
 _symmetry_equiv_pos_as_xyz
  1  'x, y, z'
loop_
 _atom_site_type_symbol
 _atom_site_label
 _atom_site_symmetry_multiplicity
 _atom_site_fract_x
 _atom_site_fract_y
 _atom_site_fract_z
 _atom_site_occupancy
  Tb  Tb0  1  0.250000  0.902689  0.316592  1
  Tb  Tb1  1  0.250000  0.261889  0.896781  1
  Tb  Tb2  1  0.750000  0.737948  0.101591  1
  Tm  Tm3  1  0.750000  0.129038  0.125075  1
  Tm  Tm4  1  0.250000  0.871177  0.873560  1
  Tm  Tm5  1  0.750000  0.097716  0.687234  1
  Ru  Ru6  1  0.750000  0.052252  0.907572  1
  Ru  Ru7  1  0.250000  0.947925  0.091519  1
  I  I8  1  0.250000  0.350390  0.635984  1
  I  I9  1  0.750000  0.645245  0.363489  1
  I  I10  1  0.750000  0.144922  0.392521  1
  I  I11  1  0.250000  0.859281  0.608524  1
  I  I12  1  0.250000  0.424474  0.133516  1
  I  I13  1  0.750000  0.575055  0.866039  1
