# generated using pymatgen
data_Nd10In8IrRh3
_symmetry_space_group_name_H-M   'P 1'
_cell_length_a   3.79973700
_cell_length_b   8.23680903
_cell_length_c   18.65254337
_cell_angle_alpha   89.87344261
_cell_angle_beta   90.00000000
_cell_angle_gamma   90.00000000
_symmetry_Int_Tables_number   1
_chemical_formula_structural   Nd10In8IrRh3
_chemical_formula_sum   'Nd10 In8 Ir1 Rh3'
_cell_volume   583.78043205
_cell_formula_units_Z   1
loop_
 _symmetry_equiv_pos_site_id
 _symmetry_equiv_pos_as_xyz
  1  'x, y, z'
loop_
 _atom_site_type_symbol
 _atom_site_label
 _atom_site_symmetry_multiplicity
 _atom_site_fract_x
 _atom_site_fract_y
 _atom_site_fract_z
 _atom_site_occupancy
  Nd  Nd0  1  0.000000  0.116228  0.411660  1
  Nd  Nd1  1  0.000000  0.884139  0.588229  1
  Nd  Nd2  1  0.000000  0.383760  0.911697  1
  Nd  Nd3  1  0.000000  0.616195  0.088439  1
  Nd  Nd4  1  0.000000  0.242581  0.222341  1
  Nd  Nd5  1  0.000000  0.754213  0.778483  1
  Nd  Nd6  1  0.000000  0.254466  0.721684  1
  Nd  Nd7  1  0.000000  0.747087  0.278403  1
  Nd  Nd8  1  0.000000  0.000235  0.000219  1
  Nd  Nd9  1  0.000000  0.500594  0.499790  1
  In  In10  1  0.500000  0.435090  0.349592  1
  In  In11  1  0.500000  0.566337  0.650397  1
  In  In12  1  0.500000  0.065910  0.849594  1
  In  In13  1  0.500000  0.933836  0.149822  1
  In  In14  1  0.500000  0.291222  0.070293  1
  In  In15  1  0.500000  0.709121  0.929679  1
  In  In16  1  0.500000  0.209596  0.570483  1
  In  In17  1  0.500000  0.791398  0.430299  1
  Ir  Ir18  1  0.500000  0.013712  0.304564  1
  Rh  Rh19  1  0.500000  0.984614  0.694616  1
  Rh  Rh20  1  0.500000  0.484840  0.805401  1
  Rh  Rh21  1  0.500000  0.514825  0.194314  1
