# generated using pymatgen
data_NaCe4TmSe8
_symmetry_space_group_name_H-M   'P 1'
_cell_length_a   7.76208406
_cell_length_b   7.76208408
_cell_length_c   7.76208524
_cell_angle_alpha   109.43174697
_cell_angle_beta   109.43175000
_cell_angle_gamma   109.55018823
_symmetry_Int_Tables_number   1
_chemical_formula_structural   NaCe4TmSe8
_chemical_formula_sum   'Na1 Ce4 Tm1 Se8'
_cell_volume   360.00838231
_cell_formula_units_Z   1
loop_
 _symmetry_equiv_pos_site_id
 _symmetry_equiv_pos_as_xyz
  1  'x, y, z'
loop_
 _atom_site_type_symbol
 _atom_site_label
 _atom_site_symmetry_multiplicity
 _atom_site_fract_x
 _atom_site_fract_y
 _atom_site_fract_z
 _atom_site_occupancy
  Na  Na0  1  0.500000  0.500000  0.000000  1
  Ce  Ce1  1  0.001290  0.618048  0.877074  1
  Ce  Ce2  1  0.875784  0.998710  0.616759  1
  Ce  Ce3  1  0.740975  0.124216  0.122926  1
  Ce  Ce4  1  0.381952  0.259025  0.383241  1
  Tm  Tm5  1  0.250000  0.750000  0.500000  1
  Se  Se6  1  0.119982  0.380931  0.117200  1
  Se  Se7  1  0.125213  0.378074  0.597999  1
  Se  Se8  1  0.780075  0.527215  0.402001  1
  Se  Se9  1  0.619069  0.736269  0.739050  1
  Se  Se10  1  0.263731  0.002782  0.882800  1
  Se  Se11  1  0.472785  0.874787  0.252861  1
  Se  Se12  1  0.997218  0.880018  0.260950  1
  Se  Se13  1  0.621926  0.219925  0.747139  1
