# generated using pymatgen
data_Dy5ErPtI10
_symmetry_space_group_name_H-M   'P 1'
_cell_length_a   7.76321280
_cell_length_b   9.74988656
_cell_length_c   9.79532440
_cell_angle_alpha   107.00442378
_cell_angle_beta   96.86557211
_cell_angle_gamma   104.30978826
_symmetry_Int_Tables_number   1
_chemical_formula_structural   Dy5ErPtI10
_chemical_formula_sum   'Dy5 Er1 Pt1 I10'
_cell_volume   672.11979090
_cell_formula_units_Z   1
loop_
 _symmetry_equiv_pos_site_id
 _symmetry_equiv_pos_as_xyz
  1  'x, y, z'
loop_
 _atom_site_type_symbol
 _atom_site_label
 _atom_site_symmetry_multiplicity
 _atom_site_fract_x
 _atom_site_fract_y
 _atom_site_fract_z
 _atom_site_occupancy
  Dy  Dy0  1  0.531251  0.714813  0.414977  1
  Dy  Dy1  1  0.468492  0.285458  0.586210  1
  Dy  Dy2  1  0.154113  0.876694  0.334854  1
  Dy  Dy3  1  0.845794  0.123172  0.665106  1
  Dy  Dy4  1  0.615328  0.041626  0.258947  1
  Er  Er5  1  0.385719  0.958913  0.738517  1
  Pt  Pt6  1  0.500313  0.000279  0.499779  1
  I  I7  1  0.724078  0.743925  0.155681  1
  I  I8  1  0.275991  0.253953  0.845083  1
  I  I9  1  0.044527  0.182751  0.408615  1
  I  I10  1  0.956560  0.817852  0.592408  1
  I  I11  1  0.585241  0.373244  0.321806  1
  I  I12  1  0.414111  0.628397  0.679879  1
  I  I13  1  0.150173  0.550600  0.229047  1
  I  I14  1  0.849764  0.449324  0.771493  1
  I  I15  1  0.753068  0.085977  0.960707  1
  I  I16  1  0.245477  0.913021  0.036892  1
