# generated using pymatgen
data_Dy2Ga5Co3
_symmetry_space_group_name_H-M   'P 1'
_cell_length_a   8.32236120
_cell_length_b   8.32236110
_cell_length_c   5.51446633
_cell_angle_alpha   70.59404655
_cell_angle_beta   70.59403843
_cell_angle_gamma   96.41706530
_symmetry_Int_Tables_number   1
_chemical_formula_structural   Dy2Ga5Co3
_chemical_formula_sum   'Dy4 Ga10 Co6'
_cell_volume   329.01075135
_cell_formula_units_Z   2
loop_
 _symmetry_equiv_pos_site_id
 _symmetry_equiv_pos_as_xyz
  1  'x, y, z'
loop_
 _atom_site_type_symbol
 _atom_site_label
 _atom_site_symmetry_multiplicity
 _atom_site_fract_x
 _atom_site_fract_y
 _atom_site_fract_z
 _atom_site_occupancy
  Dy  Dy0  1  0.420033  0.132283  0.721857  1
  Dy  Dy1  1  0.867717  0.579967  0.778143  1
  Dy  Dy2  1  0.132283  0.420033  0.221857  1
  Dy  Dy3  1  0.579967  0.867717  0.278143  1
  Ga  Ga4  1  0.500662  0.499338  0.750000  1
  Ga  Ga5  1  0.499338  0.500662  0.250000  1
  Ga  Ga6  1  0.794980  0.205020  0.750000  1
  Ga  Ga7  1  0.205020  0.794980  0.250000  1
  Ga  Ga8  1  0.095781  0.263390  0.818739  1
  Ga  Ga9  1  0.736610  0.904219  0.681261  1
  Ga  Ga10  1  0.795994  0.204006  0.250000  1
  Ga  Ga11  1  0.204006  0.795994  0.750000  1
  Ga  Ga12  1  0.263390  0.095781  0.318739  1
  Ga  Ga13  1  0.904219  0.736610  0.181261  1
  Co  Co14  1  0.999940  0.000060  0.750000  1
  Co  Co15  1  0.000060  0.999940  0.250000  1
  Co  Co16  1  0.265001  0.564094  0.587143  1
  Co  Co17  1  0.564094  0.265001  0.087143  1
  Co  Co18  1  0.734999  0.435906  0.412857  1
  Co  Co19  1  0.435906  0.734999  0.912857  1
