# generated using pymatgen
data_DyTm12Lu7Ir12
_symmetry_space_group_name_H-M   'P 1'
_cell_length_a   10.72302903
_cell_length_b   10.72154430
_cell_length_c   6.28313710
_cell_angle_alpha   89.97479791
_cell_angle_beta   89.98585480
_cell_angle_gamma   90.00695087
_symmetry_Int_Tables_number   1
_chemical_formula_structural   DyTm12Lu7Ir12
_chemical_formula_sum   'Dy1 Tm12 Lu7 Ir12'
_cell_volume   722.35603291
_cell_formula_units_Z   1
loop_
 _symmetry_equiv_pos_site_id
 _symmetry_equiv_pos_as_xyz
  1  'x, y, z'
loop_
 _atom_site_type_symbol
 _atom_site_label
 _atom_site_symmetry_multiplicity
 _atom_site_fract_x
 _atom_site_fract_y
 _atom_site_fract_z
 _atom_site_occupancy
  Dy  Dy0  1  0.087859  0.289861  0.123339  1
  Tm  Tm1  1  0.291572  0.086745  0.378186  1
  Tm  Tm2  1  0.290662  0.912124  0.878090  1
  Tm  Tm3  1  0.709248  0.087753  0.877319  1
  Tm  Tm4  1  0.709304  0.912106  0.377665  1
  Tm  Tm5  1  0.587654  0.790978  0.878023  1
  Tm  Tm6  1  0.587659  0.209014  0.377916  1
  Tm  Tm7  1  0.412453  0.790778  0.377718  1
  Tm  Tm8  1  0.412450  0.209093  0.877454  1
  Tm  Tm9  1  0.208797  0.413239  0.622033  1
  Tm  Tm10  1  0.208700  0.588618  0.122097  1
  Tm  Tm11  1  0.790826  0.412914  0.122211  1
  Tm  Tm12  1  0.790980  0.587886  0.622334  1
  Lu  Lu13  1  0.912641  0.708696  0.121685  1
  Lu  Lu14  1  0.912151  0.291901  0.621573  1
  Lu  Lu15  1  0.087253  0.708890  0.621757  1
  Lu  Lu16  1  0.999757  0.999847  0.500175  1
  Lu  Lu17  1  0.999451  0.998822  0.999845  1
  Lu  Lu18  1  0.500004  0.500319  0.999704  1
  Lu  Lu19  1  0.500275  0.500205  0.500057  1
  Ir  Ir20  1  0.846504  0.152148  0.251921  1
  Ir  Ir21  1  0.848114  0.846719  0.750960  1
  Ir  Ir22  1  0.152265  0.152136  0.747492  1
  Ir  Ir23  1  0.151786  0.846793  0.250698  1
  Ir  Ir24  1  0.653347  0.347426  0.749652  1
  Ir  Ir25  1  0.653305  0.652511  0.249312  1
  Ir  Ir26  1  0.348940  0.347383  0.250874  1
  Ir  Ir27  1  0.346859  0.652712  0.749539  1
  Ir  Ir28  1  0.500309  0.999785  0.123837  1
  Ir  Ir29  1  0.500165  0.999734  0.624304  1
  Ir  Ir30  1  0.999408  0.501423  0.875055  1
  Ir  Ir31  1  0.999297  0.501443  0.377177  1
