# generated using pymatgen
data_Ta2NbCrCo2N
_symmetry_space_group_name_H-M   'P 1'
_cell_length_a   8.01188617
_cell_length_b   8.01167559
_cell_length_c   8.01167600
_cell_angle_alpha   60.00174252
_cell_angle_beta   59.99912821
_cell_angle_gamma   59.99913211
_symmetry_Int_Tables_number   1
_chemical_formula_structural   Ta2NbCrCo2N
_chemical_formula_sum   'Ta8 Nb4 Cr4 Co8 N4'
_cell_volume   363.63570076
_cell_formula_units_Z   4
loop_
 _symmetry_equiv_pos_site_id
 _symmetry_equiv_pos_as_xyz
  1  'x, y, z'
loop_
 _atom_site_type_symbol
 _atom_site_label
 _atom_site_symmetry_multiplicity
 _atom_site_fract_x
 _atom_site_fract_y
 _atom_site_fract_z
 _atom_site_occupancy
  Ta  Ta0  1  0.195966  0.804034  0.804034  1
  Ta  Ta1  1  0.804034  0.195966  0.195966  1
  Ta  Ta2  1  0.447410  0.447410  0.052590  1
  Ta  Ta3  1  0.052590  0.052590  0.447410  1
  Ta  Ta4  1  0.447410  0.052590  0.447410  1
  Ta  Ta5  1  0.052590  0.447410  0.052590  1
  Ta  Ta6  1  0.055382  0.444618  0.444618  1
  Ta  Ta7  1  0.444618  0.055382  0.055382  1
  Nb  Nb8  1  0.803368  0.803368  0.196632  1
  Nb  Nb9  1  0.196632  0.196632  0.803368  1
  Nb  Nb10  1  0.803368  0.196632  0.803368  1
  Nb  Nb11  1  0.196632  0.803368  0.196632  1
  Cr  Cr12  1  0.124492  0.625403  0.625403  1
  Cr  Cr13  1  0.625403  0.124492  0.624702  1
  Cr  Cr14  1  0.625403  0.624702  0.124492  1
  Cr  Cr15  1  0.624702  0.625403  0.625403  1
  Co  Co16  1  0.728228  0.423507  0.423507  1
  Co  Co17  1  0.423507  0.728228  0.424758  1
  Co  Co18  1  0.423507  0.424758  0.728228  1
  Co  Co19  1  0.424758  0.423507  0.423507  1
  Co  Co20  1  0.522693  0.825684  0.825684  1
  Co  Co21  1  0.825684  0.522693  0.825940  1
  Co  Co22  1  0.825684  0.825940  0.522693  1
  Co  Co23  1  0.825940  0.825684  0.825684  1
  N  N24  1  0.622789  0.126640  0.126640  1
  N  N25  1  0.126640  0.622789  0.123932  1
  N  N26  1  0.126640  0.123932  0.622789  1
  N  N27  1  0.123932  0.126640  0.126640  1
