# generated using pymatgen
data_Dy3Ho7(IrRu)2
_symmetry_space_group_name_H-M   'P 1'
_cell_length_a   6.38595063
_cell_length_b   7.27233945
_cell_length_c   8.46997884
_cell_angle_alpha   96.82000709
_cell_angle_beta   112.11200004
_cell_angle_gamma   90.00584408
_symmetry_Int_Tables_number   1
_chemical_formula_structural   Dy3Ho7(IrRu)2
_chemical_formula_sum   'Dy3 Ho7 Ir2 Ru2'
_cell_volume   361.41342989
_cell_formula_units_Z   1
loop_
 _symmetry_equiv_pos_site_id
 _symmetry_equiv_pos_as_xyz
  1  'x, y, z'
loop_
 _atom_site_type_symbol
 _atom_site_label
 _atom_site_symmetry_multiplicity
 _atom_site_fract_x
 _atom_site_fract_y
 _atom_site_fract_z
 _atom_site_occupancy
  Dy  Dy0  1  0.978837  0.917632  0.186442  1
  Dy  Dy1  1  0.792522  0.582347  0.813762  1
  Dy  Dy2  1  0.024169  0.084994  0.814719  1
  Ho  Ho3  1  0.209297  0.414949  0.185283  1
  Ho  Ho4  1  0.642594  0.816262  0.435227  1
  Ho  Ho5  1  0.207192  0.683787  0.564564  1
  Ho  Ho6  1  0.355589  0.185901  0.563151  1
  Ho  Ho7  1  0.792357  0.314158  0.436781  1
  Ho  Ho8  1  0.422560  0.749879  0.999971  1
  Ho  Ho9  1  0.576258  0.250036  0.000026  1
  Ir  Ir10  1  0.823861  0.576504  0.221627  1
  Ir  Ir11  1  0.602025  0.923239  0.778610  1
  Ru  Ru12  1  0.176076  0.425045  0.779149  1
  Ru  Ru13  1  0.396662  0.075265  0.220689  1
