# generated using pymatgen
data_Dy4Co16Si3Tc4P9
_symmetry_space_group_name_H-M   'P 1'
_cell_length_a   3.71955800
_cell_length_b   10.39042499
_cell_length_c   11.83692427
_cell_angle_alpha   89.92903927
_cell_angle_beta   90.00000000
_cell_angle_gamma   90.00000000
_symmetry_Int_Tables_number   1
_chemical_formula_structural   Dy4Co16Si3Tc4P9
_chemical_formula_sum   'Dy4 Co16 Si3 Tc4 P9'
_cell_volume   457.47059366
_cell_formula_units_Z   1
loop_
 _symmetry_equiv_pos_site_id
 _symmetry_equiv_pos_as_xyz
  1  'x, y, z'
loop_
 _atom_site_type_symbol
 _atom_site_label
 _atom_site_symmetry_multiplicity
 _atom_site_fract_x
 _atom_site_fract_y
 _atom_site_fract_z
 _atom_site_occupancy
  Dy  Dy0  1  0.250000  0.583768  0.701293  1
  Dy  Dy1  1  0.250000  0.915437  0.203646  1
  Dy  Dy2  1  0.750000  0.416242  0.298799  1
  Dy  Dy3  1  0.750000  0.083820  0.797581  1
  Co  Co4  1  0.250000  0.407215  0.489113  1
  Co  Co5  1  0.250000  0.092860  0.989081  1
  Co  Co6  1  0.750000  0.593333  0.510530  1
  Co  Co7  1  0.750000  0.906745  0.011490  1
  Co  Co8  1  0.250000  0.214339  0.177844  1
  Co  Co9  1  0.250000  0.284931  0.677199  1
  Co  Co10  1  0.750000  0.785366  0.822985  1
  Co  Co11  1  0.750000  0.721560  0.323880  1
  Co  Co12  1  0.250000  0.884917  0.701197  1
  Co  Co13  1  0.250000  0.617099  0.202715  1
  Co  Co14  1  0.750000  0.112210  0.298659  1
  Co  Co15  1  0.750000  0.384123  0.798445  1
  Co  Co16  1  0.250000  0.464940  0.931201  1
  Co  Co17  1  0.250000  0.033374  0.429006  1
  Co  Co18  1  0.750000  0.535003  0.069629  1
  Co  Co19  1  0.750000  0.962992  0.564767  1
  Si  Si20  1  0.250000  0.417745  0.114538  1
  Si  Si21  1  0.250000  0.082189  0.613002  1
  Si  Si22  1  0.750000  0.582287  0.886056  1
  Tc  Tc23  1  0.250000  0.708675  0.989217  1
  Tc  Tc24  1  0.250000  0.788740  0.489351  1
  Tc  Tc25  1  0.750000  0.291031  0.011528  1
  Tc  Tc26  1  0.750000  0.210175  0.510931  1
  P  P27  1  0.750000  0.919470  0.385482  1
  P  P28  1  0.250000  0.271143  0.865350  1
  P  P29  1  0.250000  0.228984  0.365678  1
  P  P30  1  0.750000  0.729129  0.134497  1
  P  P31  1  0.750000  0.771389  0.635191  1
  P  P32  1  0.250000  0.597213  0.391193  1
  P  P33  1  0.250000  0.902188  0.890950  1
  P  P34  1  0.750000  0.402276  0.609179  1
  P  P35  1  0.750000  0.097091  0.108798  1
