# generated using pymatgen
data_Mg2CrNi9P7W2
_symmetry_space_group_name_H-M   'P 1'
_cell_length_a   3.59893800
_cell_length_b   9.19180639
_cell_length_c   9.19446794
_cell_angle_alpha   120.07682295
_cell_angle_beta   90.00000000
_cell_angle_gamma   90.00000000
_symmetry_Int_Tables_number   1
_chemical_formula_structural   Mg2CrNi9P7W2
_chemical_formula_sum   'Mg2 Cr1 Ni9 P7 W2'
_cell_volume   263.20597936
_cell_formula_units_Z   1
loop_
 _symmetry_equiv_pos_site_id
 _symmetry_equiv_pos_as_xyz
  1  'x, y, z'
loop_
 _atom_site_type_symbol
 _atom_site_label
 _atom_site_symmetry_multiplicity
 _atom_site_fract_x
 _atom_site_fract_y
 _atom_site_fract_z
 _atom_site_occupancy
  Mg  Mg0  1  0.000000  0.668591  0.336128  1
  Mg  Mg1  1  0.500000  0.333065  0.671330  1
  Cr  Cr2  1  0.500000  0.102146  0.878467  1
  Ni  Ni3  1  0.000000  0.557487  0.928965  1
  Ni  Ni4  1  0.000000  0.369253  0.439020  1
  Ni  Ni5  1  0.000000  0.070957  0.629629  1
  Ni  Ni6  1  0.500000  0.936489  0.383430  1
  Ni  Ni7  1  0.500000  0.443256  0.060120  1
  Ni  Ni8  1  0.500000  0.618646  0.553522  1
  Ni  Ni9  1  0.000000  0.870914  0.157148  1
  Ni  Ni10  1  0.000000  0.285533  0.127224  1
  Ni  Ni11  1  0.000000  0.844753  0.715985  1
  P  P12  1  0.500000  0.705034  0.119854  1
  P  P13  1  0.500000  0.412901  0.291917  1
  P  P14  1  0.500000  0.886317  0.593092  1
  P  P15  1  0.000000  0.003955  0.996066  1
  P  P16  1  0.000000  0.585147  0.701069  1
  P  P17  1  0.000000  0.115276  0.413707  1
  P  P18  1  0.000000  0.292860  0.884686  1
  W  W19  1  0.500000  0.778550  0.900120  1
  W  W20  1  0.500000  0.118872  0.218519  1
