# generated using pymatgen
data_YGaF6
_symmetry_space_group_name_H-M   'P 1'
_cell_length_a   5.81249670
_cell_length_b   5.81249671
_cell_length_c   5.81249700
_cell_angle_alpha   60.00000403
_cell_angle_beta   60.00000397
_cell_angle_gamma   60.00000599
_symmetry_Int_Tables_number   1
_chemical_formula_structural   YGaF6
_chemical_formula_sum   'Y1 Ga1 F6'
_cell_volume   138.85874275
_cell_formula_units_Z   1
loop_
 _symmetry_equiv_pos_site_id
 _symmetry_equiv_pos_as_xyz
  1  'x, y, z'
loop_
 _atom_site_type_symbol
 _atom_site_label
 _atom_site_symmetry_multiplicity
 _atom_site_fract_x
 _atom_site_fract_y
 _atom_site_fract_z
 _atom_site_occupancy
  Y  Y0  1  0.500001  0.500001  0.500001  1
  Ga  Ga1  1  0.000000  0.000000  0.000000  1
  F  F2  1  0.233187  0.766814  0.233187  1
  F  F3  1  0.766812  0.766812  0.233189  1
  F  F4  1  0.766814  0.233187  0.233187  1
  F  F5  1  0.766812  0.233189  0.766812  1
  F  F6  1  0.233187  0.233187  0.766814  1
  F  F7  1  0.233189  0.766812  0.766812  1
