# generated using pymatgen
data_LiYbHo2(Al3Pd)6
_symmetry_space_group_name_H-M   'P 1'
_cell_length_a   7.64673013
_cell_length_b   7.61721243
_cell_length_c   9.39722600
_cell_angle_alpha   90.00000000
_cell_angle_beta   90.00000000
_cell_angle_gamma   119.63171578
_symmetry_Int_Tables_number   1
_chemical_formula_structural   LiYbHo2(Al3Pd)6
_chemical_formula_sum   'Li1 Yb1 Ho2 Al18 Pd6'
_cell_volume   475.77531014
_cell_formula_units_Z   1
loop_
 _symmetry_equiv_pos_site_id
 _symmetry_equiv_pos_as_xyz
  1  'x, y, z'
loop_
 _atom_site_type_symbol
 _atom_site_label
 _atom_site_symmetry_multiplicity
 _atom_site_fract_x
 _atom_site_fract_y
 _atom_site_fract_z
 _atom_site_occupancy
  Li  Li0  1  0.010194  0.326845  0.750000  1
  Yb  Yb1  1  0.993086  0.666768  0.250000  1
  Ho  Ho2  1  0.673814  0.000855  0.250000  1
  Ho  Ho3  1  0.327736  0.001910  0.750000  1
  Al  Al4  1  0.127906  0.134352  0.250000  1
  Al  Al5  1  0.874806  0.869859  0.750000  1
  Al  Al6  1  0.001617  0.335331  0.066812  1
  Al  Al7  1  0.000091  0.656205  0.914490  1
  Al  Al8  1  0.000091  0.656205  0.585510  1
  Al  Al9  1  0.334013  0.000439  0.423769  1
  Al  Al10  1  0.001617  0.335331  0.433188  1
  Al  Al11  1  0.672728  0.009319  0.586902  1
  Al  Al12  1  0.672728  0.009319  0.913098  1
  Al  Al13  1  0.334013  0.000439  0.076231  1
  Al  Al14  1  0.327217  0.331358  0.565528  1
  Al  Al15  1  0.666276  0.667244  0.449159  1
  Al  Al16  1  0.666276  0.667244  0.050841  1
  Al  Al17  1  0.327217  0.331358  0.934472  1
  Al  Al18  1  0.340319  0.549029  0.250000  1
  Al  Al19  1  0.653527  0.446358  0.750000  1
  Al  Al20  1  0.541349  0.339176  0.250000  1
  Al  Al21  1  0.452067  0.663645  0.750000  1
  Pd  Pd22  1  0.669850  0.327636  0.001994  1
  Pd  Pd23  1  0.331294  0.676098  0.000312  1
  Pd  Pd24  1  0.331294  0.676098  0.499688  1
  Pd  Pd25  1  0.669850  0.327636  0.498006  1
  Pd  Pd26  1  0.999510  0.996974  0.000684  1
  Pd  Pd27  1  0.999510  0.996974  0.499316  1
