# generated using pymatgen
data_Er12Fe3CoAgBi
_symmetry_space_group_name_H-M   'P 1'
_cell_length_a   8.33835151
_cell_length_b   8.33917122
_cell_length_c   8.33835191
_cell_angle_alpha   110.50353930
_cell_angle_beta   111.53674082
_cell_angle_gamma   106.41392646
_symmetry_Int_Tables_number   1
_chemical_formula_structural   Er12Fe3CoAgBi
_chemical_formula_sum   'Er12 Fe3 Co1 Ag1 Bi1'
_cell_volume   445.37212765
_cell_formula_units_Z   1
loop_
 _symmetry_equiv_pos_site_id
 _symmetry_equiv_pos_as_xyz
  1  'x, y, z'
loop_
 _atom_site_type_symbol
 _atom_site_label
 _atom_site_symmetry_multiplicity
 _atom_site_fract_x
 _atom_site_fract_y
 _atom_site_fract_z
 _atom_site_occupancy
  Er  Er0  1  0.288696  0.186176  0.477112  1
  Er  Er1  1  0.708959  0.811460  0.522743  1
  Er  Er2  1  0.288717  0.811460  0.102500  1
  Er  Er3  1  0.709064  0.186176  0.897481  1
  Er  Er4  1  0.615656  0.310949  0.304655  1
  Er  Er5  1  0.384473  0.690008  0.694433  1
  Er  Er6  1  0.006297  0.310949  0.695293  1
  Er  Er7  1  0.995572  0.690008  0.305535  1
  Er  Er8  1  0.216767  0.429371  0.212603  1
  Er  Er9  1  0.782934  0.571556  0.788621  1
  Er  Er10  1  0.216959  0.004181  0.787222  1
  Er  Er11  1  0.783115  0.994548  0.211433  1
  Fe  Fe12  1  0.999028  0.385331  0.386303  1
  Fe  Fe13  1  0.998763  0.612753  0.613989  1
  Fe  Fe14  1  0.393710  0.894092  0.500382  1
  Co  Co15  1  0.611906  0.111722  0.499815  1
  Ag  Ag16  1  0.000172  0.000069  0.999897  1
  Bi  Bi17  1  0.499211  0.499194  0.999983  1
