# generated using pymatgen
data_Tb4Yb2ReSi24Os7
_symmetry_space_group_name_H-M   'P 1'
_cell_length_a   10.16873166
_cell_length_b   10.16873046
_cell_length_c   8.16841270
_cell_angle_alpha   89.96445792
_cell_angle_beta   89.96445218
_cell_angle_gamma   132.52492592
_symmetry_Int_Tables_number   1
_chemical_formula_structural   Tb4Yb2ReSi24Os7
_chemical_formula_sum   'Tb4 Yb2 Re1 Si24 Os7'
_cell_volume   622.48423960
_cell_formula_units_Z   1
loop_
 _symmetry_equiv_pos_site_id
 _symmetry_equiv_pos_as_xyz
  1  'x, y, z'
loop_
 _atom_site_type_symbol
 _atom_site_label
 _atom_site_symmetry_multiplicity
 _atom_site_fract_x
 _atom_site_fract_y
 _atom_site_fract_z
 _atom_site_occupancy
  Tb  Tb0  1  0.500026  0.001286  0.750657  1
  Tb  Tb1  1  0.999682  0.500065  0.248754  1
  Tb  Tb2  1  0.500065  0.999682  0.248754  1
  Tb  Tb3  1  0.001286  0.500026  0.750657  1
  Yb  Yb4  1  0.500402  0.500402  0.500764  1
  Yb  Yb5  1  0.999026  0.999026  0.999520  1
  Re  Re6  1  0.626060  0.626060  0.874899  1
  Si  Si7  1  0.797533  0.202619  0.499996  1
  Si  Si8  1  0.297620  0.703292  0.999781  1
  Si  Si9  1  0.202619  0.797533  0.499996  1
  Si  Si10  1  0.703292  0.297620  0.999781  1
  Si  Si11  1  0.332762  0.332762  0.832110  1
  Si  Si12  1  0.665960  0.665960  0.169118  1
  Si  Si13  1  0.165652  0.165652  0.332572  1
  Si  Si14  1  0.833194  0.833194  0.668620  1
  Si  Si15  1  0.126203  0.893387  0.732317  1
  Si  Si16  1  0.106375  0.874022  0.268349  1
  Si  Si17  1  0.608955  0.376744  0.231189  1
  Si  Si18  1  0.625228  0.392196  0.767998  1
  Si  Si19  1  0.874022  0.106375  0.268349  1
  Si  Si20  1  0.893387  0.126203  0.732317  1
  Si  Si21  1  0.392196  0.625228  0.767998  1
  Si  Si22  1  0.376744  0.608955  0.231189  1
  Si  Si23  1  0.349017  0.116122  0.510973  1
  Si  Si24  1  0.884016  0.650817  0.489758  1
  Si  Si25  1  0.384003  0.151926  0.007643  1
  Si  Si26  1  0.849036  0.616328  0.989366  1
  Si  Si27  1  0.650817  0.884016  0.489758  1
  Si  Si28  1  0.116122  0.349017  0.510973  1
  Si  Si29  1  0.616328  0.849036  0.989366  1
  Si  Si30  1  0.151926  0.384003  0.007643  1
  Os  Os31  1  0.672035  0.327380  0.499416  1
  Os  Os32  1  0.172120  0.828510  0.000930  1
  Os  Os33  1  0.327380  0.672035  0.499416  1
  Os  Os34  1  0.828510  0.172120  0.000930  1
  Os  Os35  1  0.126753  0.126753  0.625594  1
  Os  Os36  1  0.872448  0.872448  0.375223  1
  Os  Os37  1  0.371200  0.371200  0.127325  1
