# generated using pymatgen
data_Er3In4AgOs
_symmetry_space_group_name_H-M   'P 1'
_cell_length_a   8.11049400
_cell_length_b   8.11049450
_cell_length_c   3.67760200
_cell_angle_alpha   90.00000000
_cell_angle_beta   90.00000000
_cell_angle_gamma   119.99998979
_symmetry_Int_Tables_number   1
_chemical_formula_structural   Er3In4AgOs
_chemical_formula_sum   'Er3 In4 Ag1 Os1'
_cell_volume   209.50290289
_cell_formula_units_Z   1
loop_
 _symmetry_equiv_pos_site_id
 _symmetry_equiv_pos_as_xyz
  1  'x, y, z'
loop_
 _atom_site_type_symbol
 _atom_site_label
 _atom_site_symmetry_multiplicity
 _atom_site_fract_x
 _atom_site_fract_y
 _atom_site_fract_z
 _atom_site_occupancy
  Er  Er0  1  0.707598  0.954486  0.500000  1
  Er  Er1  1  0.246888  0.292402  0.500000  1
  Er  Er2  1  0.045514  0.753112  0.500000  1
  In  In3  1  0.937987  0.333174  0.000000  1
  In  In4  1  0.395188  0.062013  0.000000  1
  In  In5  1  0.666826  0.604812  0.000000  1
  In  In6  1  0.333333  0.666667  0.000000  1
  Ag  Ag7  1  0.666667  0.333333  0.500000  1
  Os  Os8  1  0.000000  0.000000  0.000000  1
