# generated using pymatgen
data_Ca6Ga5N
_symmetry_space_group_name_H-M   'P 1'
_cell_length_a   13.54128436
_cell_length_b   13.54128433
_cell_length_c   13.54128430
_cell_angle_alpha   30.77336541
_cell_angle_beta   30.77336546
_cell_angle_gamma   30.77336556
_symmetry_Int_Tables_number   1
_chemical_formula_structural   Ca6Ga5N
_chemical_formula_sum   'Ca12 Ga10 N2'
_cell_volume   576.42823606
_cell_formula_units_Z   2
loop_
 _symmetry_equiv_pos_site_id
 _symmetry_equiv_pos_as_xyz
  1  'x, y, z'
loop_
 _atom_site_type_symbol
 _atom_site_label
 _atom_site_symmetry_multiplicity
 _atom_site_fract_x
 _atom_site_fract_y
 _atom_site_fract_z
 _atom_site_occupancy
  Ca  Ca0  1  0.781614  0.244534  0.367073  1
  Ca  Ca1  1  0.244534  0.367073  0.781614  1
  Ca  Ca2  1  0.367073  0.781614  0.244534  1
  Ca  Ca3  1  0.718386  0.132927  0.255466  1
  Ca  Ca4  1  0.132927  0.255466  0.718386  1
  Ca  Ca5  1  0.255466  0.718386  0.132927  1
  Ca  Ca6  1  0.218386  0.755466  0.632927  1
  Ca  Ca7  1  0.755466  0.632927  0.218386  1
  Ca  Ca8  1  0.632927  0.218386  0.755466  1
  Ca  Ca9  1  0.281614  0.867073  0.744534  1
  Ca  Ca10  1  0.867073  0.744534  0.281614  1
  Ca  Ca11  1  0.744534  0.281614  0.867073  1
  Ga  Ga12  1  0.250000  0.468649  0.031351  1
  Ga  Ga13  1  0.192238  0.192238  0.192238  1
  Ga  Ga14  1  0.692238  0.692238  0.692238  1
  Ga  Ga15  1  0.307762  0.307762  0.307762  1
  Ga  Ga16  1  0.807762  0.807762  0.807762  1
  Ga  Ga17  1  0.468649  0.031351  0.250000  1
  Ga  Ga18  1  0.031351  0.250000  0.468649  1
  Ga  Ga19  1  0.750000  0.531351  0.968649  1
  Ga  Ga20  1  0.531351  0.968649  0.750000  1
  Ga  Ga21  1  0.968649  0.750000  0.531351  1
  N  N22  1  0.500000  0.500000  0.500000  1
  N  N23  1  0.000000  0.000000  0.000000  1
