# generated using pymatgen
data_YbTiWO6
_symmetry_space_group_name_H-M   'P 1'
_cell_length_a   5.28464200
_cell_length_b   7.40462700
_cell_length_c   10.93874400
_cell_angle_alpha   90.00000000
_cell_angle_beta   90.00000000
_cell_angle_gamma   90.00000000
_symmetry_Int_Tables_number   1
_chemical_formula_structural   YbTiWO6
_chemical_formula_sum   'Yb4 Ti4 W4 O24'
_cell_volume   428.04183477
_cell_formula_units_Z   4
loop_
 _symmetry_equiv_pos_site_id
 _symmetry_equiv_pos_as_xyz
  1  'x, y, z'
loop_
 _atom_site_type_symbol
 _atom_site_label
 _atom_site_symmetry_multiplicity
 _atom_site_fract_x
 _atom_site_fract_y
 _atom_site_fract_z
 _atom_site_occupancy
  Yb  Yb0  1  0.044369  0.252768  0.045075  1
  Yb  Yb1  1  0.544368  0.752767  0.454924  1
  Yb  Yb2  1  0.455632  0.252768  0.545076  1
  Yb  Yb3  1  0.955631  0.752767  0.954924  1
  Ti  Ti4  1  0.534476  0.510513  0.139435  1
  Ti  Ti5  1  0.034475  0.010514  0.360566  1
  Ti  Ti6  1  0.965525  0.510513  0.639434  1
  Ti  Ti7  1  0.465524  0.010514  0.860567  1
  W  W8  1  0.540890  0.997099  0.141174  1
  W  W9  1  0.040889  0.497100  0.358825  1
  W  W10  1  0.959112  0.997099  0.641174  1
  W  W11  1  0.459111  0.497100  0.858826  1
  O  O12  1  0.265928  0.959816  0.029378  1
  O  O13  1  0.269172  0.542366  0.023351  1
  O  O14  1  0.666498  0.752845  0.121137  1
  O  O15  1  0.451756  0.250109  0.144571  1
  O  O16  1  0.872148  0.063021  0.213238  1
  O  O17  1  0.878357  0.441562  0.211911  1
  O  O18  1  0.378356  0.941560  0.288089  1
  O  O19  1  0.372147  0.563023  0.286762  1
  O  O20  1  0.951755  0.750109  0.355429  1
  O  O21  1  0.166497  0.252844  0.378863  1
  O  O22  1  0.769173  0.042368  0.476649  1
  O  O23  1  0.765929  0.459816  0.470623  1
  O  O24  1  0.234071  0.959816  0.529378  1
  O  O25  1  0.230827  0.542366  0.523351  1
  O  O26  1  0.833503  0.752845  0.621136  1
  O  O27  1  0.048245  0.250109  0.644572  1
  O  O28  1  0.627853  0.063021  0.713238  1
  O  O29  1  0.621644  0.441562  0.711911  1
  O  O30  1  0.121643  0.941560  0.788090  1
  O  O31  1  0.127852  0.563023  0.786762  1
  O  O32  1  0.548244  0.750109  0.855428  1
  O  O33  1  0.333502  0.252844  0.878863  1
  O  O34  1  0.730828  0.042368  0.976650  1
  O  O35  1  0.734073  0.459816  0.970622  1
