# generated using pymatgen
data_K2Rb2MnZnI8
_symmetry_space_group_name_H-M   'P 1'
_cell_length_a   8.08076009
_cell_length_b   8.40287390
_cell_length_c   10.15429242
_cell_angle_alpha   89.97920403
_cell_angle_beta   108.37116845
_cell_angle_gamma   89.90375515
_symmetry_Int_Tables_number   1
_chemical_formula_structural   K2Rb2MnZnI8
_chemical_formula_sum   'K2 Rb2 Mn1 Zn1 I8'
_cell_volume   654.35138405
_cell_formula_units_Z   1
loop_
 _symmetry_equiv_pos_site_id
 _symmetry_equiv_pos_as_xyz
  1  'x, y, z'
loop_
 _atom_site_type_symbol
 _atom_site_label
 _atom_site_symmetry_multiplicity
 _atom_site_fract_x
 _atom_site_fract_y
 _atom_site_fract_z
 _atom_site_occupancy
  K  K0  1  0.280717  0.738637  0.949775  1
  K  K1  1  0.719420  0.238637  0.050262  1
  Rb  Rb2  1  0.238717  0.739444  0.434523  1
  Rb  Rb3  1  0.760753  0.239355  0.565357  1
  Mn  Mn4  1  0.721231  0.756164  0.806881  1
  Zn  Zn5  1  0.279763  0.256465  0.193384  1
  I  I6  1  0.510304  0.498248  0.752749  1
  I  I7  1  0.485372  0.002700  0.246129  1
  I  I8  1  0.504102  0.497469  0.253619  1
  I  I9  1  0.491571  0.001504  0.745239  1
  I  I10  1  0.909166  0.774727  0.075645  1
  I  I11  1  0.094737  0.274338  0.930322  1
  I  I12  1  0.917100  0.765849  0.635967  1
  I  I13  1  0.087047  0.265663  0.360147  1
