# generated using pymatgen
data_Tb17Y3GaCo4Sb7
_symmetry_space_group_name_H-M   'P 1'
_cell_length_a   7.90150226
_cell_length_b   8.78298767
_cell_length_c   12.20530603
_cell_angle_alpha   90.07814621
_cell_angle_beta   89.97928647
_cell_angle_gamma   89.96566486
_symmetry_Int_Tables_number   1
_chemical_formula_structural   Tb17Y3GaCo4Sb7
_chemical_formula_sum   'Tb17 Y3 Ga1 Co4 Sb7'
_cell_volume   847.03255907
_cell_formula_units_Z   1
loop_
 _symmetry_equiv_pos_site_id
 _symmetry_equiv_pos_as_xyz
  1  'x, y, z'
loop_
 _atom_site_type_symbol
 _atom_site_label
 _atom_site_symmetry_multiplicity
 _atom_site_fract_x
 _atom_site_fract_y
 _atom_site_fract_z
 _atom_site_occupancy
  Tb  Tb0  1  0.345804  0.750511  0.701811  1
  Tb  Tb1  1  0.453370  0.749102  0.997771  1
  Tb  Tb2  1  0.952494  0.241453  0.497316  1
  Tb  Tb3  1  0.543310  0.251269  0.002594  1
  Tb  Tb4  1  0.038420  0.759013  0.492507  1
  Tb  Tb5  1  0.631771  0.754893  0.306342  1
  Tb  Tb6  1  0.116379  0.243890  0.197931  1
  Tb  Tb7  1  0.377823  0.249863  0.694006  1
  Tb  Tb8  1  0.878058  0.749818  0.805625  1
  Tb  Tb9  1  0.822827  0.966665  0.070971  1
  Tb  Tb10  1  0.317514  0.034761  0.432637  1
  Tb  Tb11  1  0.179055  0.463986  0.935503  1
  Tb  Tb12  1  0.682381  0.532200  0.565521  1
  Tb  Tb13  1  0.178930  0.033419  0.934981  1
  Tb  Tb14  1  0.678831  0.963178  0.565021  1
  Tb  Tb15  1  0.819724  0.535713  0.065324  1
  Tb  Tb16  1  0.320991  0.467879  0.433835  1
  Y  Y17  1  0.150339  0.755022  0.207330  1
  Y  Y18  1  0.660446  0.244623  0.293404  1
  Y  Y19  1  0.846942  0.251162  0.795925  1
  Ga  Ga20  1  0.928301  0.994859  0.329550  1
  Co  Co21  1  0.436768  0.749183  0.489845  1
  Co  Co22  1  0.932348  0.249510  0.011202  1
  Co  Co23  1  0.566461  0.249893  0.509653  1
  Co  Co24  1  0.067003  0.749181  0.990005  1
  Sb  Sb25  1  0.426395  0.007089  0.172335  1
  Sb  Sb26  1  0.073513  0.492065  0.669576  1
  Sb  Sb27  1  0.572433  0.508011  0.826666  1
  Sb  Sb28  1  0.073288  0.008626  0.673961  1
  Sb  Sb29  1  0.573320  0.992714  0.828317  1
  Sb  Sb30  1  0.927462  0.507180  0.327655  1
  Sb  Sb31  1  0.427301  0.493269  0.174882  1
