# generated using pymatgen
data_DyY3Tm8Co5Sn
_symmetry_space_group_name_H-M   'P 1'
_cell_length_a   8.23036903
_cell_length_b   8.21548329
_cell_length_c   8.21216801
_cell_angle_alpha   106.80170482
_cell_angle_beta   110.86913020
_cell_angle_gamma   110.70201338
_symmetry_Int_Tables_number   1
_chemical_formula_structural   DyY3Tm8Co5Sn
_chemical_formula_sum   'Dy1 Y3 Tm8 Co5 Sn1'
_cell_volume   427.15608236
_cell_formula_units_Z   1
loop_
 _symmetry_equiv_pos_site_id
 _symmetry_equiv_pos_as_xyz
  1  'x, y, z'
loop_
 _atom_site_type_symbol
 _atom_site_label
 _atom_site_symmetry_multiplicity
 _atom_site_fract_x
 _atom_site_fract_y
 _atom_site_fract_z
 _atom_site_occupancy
  Dy  Dy0  1  0.808246  0.206632  0.016225  1
  Y  Y1  1  0.478271  0.290662  0.188164  1
  Y  Y2  1  0.104220  0.291993  0.811531  1
  Y  Y3  1  0.896813  0.711252  0.186162  1
  Tm  Tm4  1  0.520669  0.707909  0.812075  1
  Tm  Tm5  1  0.309435  0.622160  0.316370  1
  Tm  Tm6  1  0.307375  0.992743  0.686323  1
  Tm  Tm7  1  0.691745  0.379476  0.685715  1
  Tm  Tm8  1  0.692360  0.005759  0.314086  1
  Tm  Tm9  1  0.195037  0.211095  0.405137  1
  Tm  Tm10  1  0.808023  0.791404  0.600778  1
  Tm  Tm11  1  0.194433  0.789995  0.983431  1
  Co  Co12  1  0.498831  0.614583  0.110829  1
  Co  Co13  1  0.496684  0.388723  0.882795  1
  Co  Co14  1  0.375269  0.000027  0.376185  1
  Co  Co15  1  0.620687  0.998275  0.621298  1
  Co  Co16  1  0.001890  0.996952  0.002514  1
  Sn  Sn17  1  0.000011  0.500358  0.500383  1
