# generated using pymatgen
data_Er6Co2Si5Ni
_symmetry_space_group_name_H-M   'P 1'
_cell_length_a   4.09484563
_cell_length_b   5.56301635
_cell_length_c   12.76380659
_cell_angle_alpha   94.75649222
_cell_angle_beta   99.23060261
_cell_angle_gamma   68.40509620
_symmetry_Int_Tables_number   1
_chemical_formula_structural   Er6Co2Si5Ni
_chemical_formula_sum   'Er6 Co2 Si5 Ni1'
_cell_volume   266.75606073
_cell_formula_units_Z   1
loop_
 _symmetry_equiv_pos_site_id
 _symmetry_equiv_pos_as_xyz
  1  'x, y, z'
loop_
 _atom_site_type_symbol
 _atom_site_label
 _atom_site_symmetry_multiplicity
 _atom_site_fract_x
 _atom_site_fract_y
 _atom_site_fract_z
 _atom_site_occupancy
  Er  Er0  1  0.396722  0.286550  0.079993  1
  Er  Er1  1  0.741163  0.742512  0.224837  1
  Er  Er2  1  0.525650  0.329944  0.381242  1
  Er  Er3  1  0.476656  0.664980  0.618291  1
  Er  Er4  1  0.255831  0.256593  0.768254  1
  Er  Er5  1  0.605707  0.714207  0.925620  1
  Co  Co6  1  0.249184  0.922182  0.420548  1
  Co  Co7  1  0.755417  0.071459  0.582292  1
  Si  Si8  1  0.051133  0.141010  0.243277  1
  Si  Si9  1  0.858377  0.736952  0.453703  1
  Si  Si10  1  0.139768  0.264560  0.544096  1
  Si  Si11  1  0.949976  0.856664  0.756614  1
  Si  Si12  1  0.892712  0.136703  0.922125  1
  Ni  Ni13  1  0.101710  0.875687  0.079106  1
