# generated using pymatgen
data_Sm10SnBi5C2
_symmetry_space_group_name_H-M   'P 1'
_cell_length_a   9.30661915
_cell_length_b   9.29304705
_cell_length_c   6.64230800
_cell_angle_alpha   90.00000000
_cell_angle_beta   90.00000000
_cell_angle_gamma   119.95177172
_symmetry_Int_Tables_number   1
_chemical_formula_structural   Sm10SnBi5C2
_chemical_formula_sum   'Sm10 Sn1 Bi5 C2'
_cell_volume   497.74920193
_cell_formula_units_Z   1
loop_
 _symmetry_equiv_pos_site_id
 _symmetry_equiv_pos_as_xyz
  1  'x, y, z'
loop_
 _atom_site_type_symbol
 _atom_site_label
 _atom_site_symmetry_multiplicity
 _atom_site_fract_x
 _atom_site_fract_y
 _atom_site_fract_z
 _atom_site_occupancy
  Sm  Sm0  1  0.670686  0.334092  0.501674  1
  Sm  Sm1  1  0.329314  0.663407  0.501674  1
  Sm  Sm2  1  0.329314  0.663407  0.998326  1
  Sm  Sm3  1  0.670686  0.334092  0.998326  1
  Sm  Sm4  1  0.789591  0.790021  0.250000  1
  Sm  Sm5  1  0.210409  0.000431  0.250000  1
  Sm  Sm6  1  0.000000  0.212870  0.250000  1
  Sm  Sm7  1  0.208913  0.212781  0.750000  1
  Sm  Sm8  1  0.791087  0.003867  0.750000  1
  Sm  Sm9  1  0.000000  0.788264  0.750000  1
  Sn  Sn10  1  0.000000  0.402734  0.750000  1
  Bi  Bi11  1  0.402223  0.401216  0.250000  1
  Bi  Bi12  1  0.597777  0.998993  0.250000  1
  Bi  Bi13  1  0.000000  0.597479  0.250000  1
  Bi  Bi14  1  0.598239  0.598447  0.750000  1
  Bi  Bi15  1  0.401761  0.000209  0.750000  1
  C  C16  1  0.000000  0.998845  0.499349  1
  C  C17  1  0.000000  0.998845  0.000651  1
