# generated using pymatgen
data_CaNd6PdBr12
_symmetry_space_group_name_H-M   'P 1'
_cell_length_a   9.52293000
_cell_length_b   9.67570527
_cell_length_c   9.54454400
_cell_angle_alpha   107.21034033
_cell_angle_beta   106.72628938
_cell_angle_gamma   107.18213832
_symmetry_Int_Tables_number   1
_chemical_formula_structural   CaNd6PdBr12
_chemical_formula_sum   'Ca1 Nd6 Pd1 Br12'
_cell_volume   731.60463239
_cell_formula_units_Z   1
loop_
 _symmetry_equiv_pos_site_id
 _symmetry_equiv_pos_as_xyz
  1  'x, y, z'
loop_
 _atom_site_type_symbol
 _atom_site_label
 _atom_site_symmetry_multiplicity
 _atom_site_fract_x
 _atom_site_fract_y
 _atom_site_fract_z
 _atom_site_occupancy
  Ca  Ca0  1  0.500000  0.500000  0.500000  1
  Nd  Nd1  1  0.320796  0.107665  0.026317  1
  Nd  Nd2  1  0.026454  0.318385  0.107580  1
  Nd  Nd3  1  0.108256  0.026631  0.320341  1
  Nd  Nd4  1  0.891744  0.973369  0.679660  1
  Nd  Nd5  1  0.973546  0.681616  0.892421  1
  Nd  Nd6  1  0.679205  0.892335  0.973684  1
  Pd  Pd7  1  0.000000  0.000000  0.000000  1
  Br  Br8  1  0.681936  0.217757  0.069193  1
  Br  Br9  1  0.379913  0.455320  0.165457  1
  Br  Br10  1  0.069063  0.683746  0.219669  1
  Br  Br11  1  0.779175  0.931036  0.318139  1
  Br  Br12  1  0.459545  0.169357  0.380155  1
  Br  Br13  1  0.165005  0.377137  0.457969  1
  Br  Br14  1  0.834995  0.622864  0.542031  1
  Br  Br15  1  0.540455  0.830644  0.619845  1
  Br  Br16  1  0.220826  0.068965  0.681861  1
  Br  Br17  1  0.930937  0.316254  0.780332  1
  Br  Br18  1  0.620088  0.544680  0.834543  1
  Br  Br19  1  0.318065  0.782243  0.930807  1
