# generated using pymatgen
data_EuW2F11
_symmetry_space_group_name_H-M   'P 1'
_cell_length_a   8.43467937
_cell_length_b   8.43467966
_cell_length_c   8.43467900
_cell_angle_alpha   125.13738665
_cell_angle_beta   107.12496976
_cell_angle_gamma   97.46983495
_symmetry_Int_Tables_number   1
_chemical_formula_structural   EuW2F11
_chemical_formula_sum   'Eu2 W4 F22'
_cell_volume   433.17162750
_cell_formula_units_Z   2
loop_
 _symmetry_equiv_pos_site_id
 _symmetry_equiv_pos_as_xyz
  1  'x, y, z'
loop_
 _atom_site_type_symbol
 _atom_site_label
 _atom_site_symmetry_multiplicity
 _atom_site_fract_x
 _atom_site_fract_y
 _atom_site_fract_z
 _atom_site_occupancy
  Eu  Eu0  1  0.750000  0.250000  0.500000  1
  Eu  Eu1  1  0.250000  0.750000  0.500000  1
  W  W2  1  0.680587  0.638023  0.318609  1
  W  W3  1  0.319413  0.361977  0.681391  1
  W  W4  1  0.180587  0.861977  0.042564  1
  W  W5  1  0.819413  0.138023  0.957436  1
  F  F6  1  0.702039  0.890207  0.335591  1
  F  F7  1  0.297961  0.109793  0.664409  1
  F  F8  1  0.554617  0.366449  0.664409  1
  F  F9  1  0.945383  0.609793  0.811831  1
  F  F10  1  0.445383  0.633551  0.335591  1
  F  F11  1  0.054617  0.390207  0.188169  1
  F  F12  1  0.797961  0.133551  0.188169  1
  F  F13  1  0.202039  0.866449  0.811831  1
  F  F14  1  0.500000  0.500000  0.000000  1
  F  F15  1  0.000000  0.000000  0.000000  1
  F  F16  1  0.783199  0.868193  0.651391  1
  F  F17  1  0.216801  0.131807  0.348609  1
  F  F18  1  0.283199  0.631807  0.915006  1
  F  F19  1  0.716801  0.368193  0.084994  1
  F  F20  1  0.948528  0.732989  0.410477  1
  F  F21  1  0.051472  0.267011  0.589523  1
  F  F22  1  0.322511  0.538052  0.589523  1
  F  F23  1  0.177489  0.767011  0.215540  1
  F  F24  1  0.677489  0.461948  0.410477  1
  F  F25  1  0.822511  0.232989  0.784460  1
  F  F26  1  0.551472  0.961948  0.784460  1
  F  F27  1  0.448528  0.038052  0.215540  1
