# generated using pymatgen
data_YbY7(BeSi3)4
_symmetry_space_group_name_H-M   'P 1'
_cell_length_a   7.83546300
_cell_length_b   7.83546274
_cell_length_c   8.18221000
_cell_angle_alpha   90.00000000
_cell_angle_beta   90.00000000
_cell_angle_gamma   119.99999686
_symmetry_Int_Tables_number   1
_chemical_formula_structural   YbY7(BeSi3)4
_chemical_formula_sum   'Yb1 Y7 Be4 Si12'
_cell_volume   435.04139329
_cell_formula_units_Z   1
loop_
 _symmetry_equiv_pos_site_id
 _symmetry_equiv_pos_as_xyz
  1  'x, y, z'
loop_
 _atom_site_type_symbol
 _atom_site_label
 _atom_site_symmetry_multiplicity
 _atom_site_fract_x
 _atom_site_fract_y
 _atom_site_fract_z
 _atom_site_occupancy
  Yb  Yb0  1  0.000000  0.000000  0.250000  1
  Y  Y1  1  0.000000  0.000000  0.750000  1
  Y  Y2  1  0.999714  0.499856  0.250000  1
  Y  Y3  1  0.500144  0.499856  0.250000  1
  Y  Y4  1  0.499837  0.999674  0.750000  1
  Y  Y5  1  0.500144  0.000286  0.250000  1
  Y  Y6  1  0.499837  0.500163  0.750000  1
  Y  Y7  1  0.000326  0.500163  0.750000  1
  Be  Be8  1  0.333333  0.666667  0.998568  1
  Be  Be9  1  0.333333  0.666667  0.501432  1
  Be  Be10  1  0.666667  0.333333  0.000147  1
  Be  Be11  1  0.666667  0.333333  0.499853  1
  Si  Si12  1  0.172682  0.345363  0.000220  1
  Si  Si13  1  0.654637  0.827318  0.000220  1
  Si  Si14  1  0.172682  0.345363  0.499780  1
  Si  Si15  1  0.345609  0.172805  0.000096  1
  Si  Si16  1  0.172682  0.827318  0.000220  1
  Si  Si17  1  0.654637  0.827318  0.499780  1
  Si  Si18  1  0.827195  0.654391  0.000096  1
  Si  Si19  1  0.345609  0.172805  0.499904  1
  Si  Si20  1  0.172682  0.827318  0.499780  1
  Si  Si21  1  0.827195  0.654391  0.499904  1
  Si  Si22  1  0.827195  0.172805  0.000096  1
  Si  Si23  1  0.827195  0.172805  0.499904  1
