# generated using pymatgen
data_SmPu3(WN3)4
_symmetry_space_group_name_H-M   'P 1'
_cell_length_a   7.35887522
_cell_length_b   7.35887590
_cell_length_c   6.30791148
_cell_angle_alpha   74.33609917
_cell_angle_beta   74.33610039
_cell_angle_gamma   83.34439069
_symmetry_Int_Tables_number   1
_chemical_formula_structural   SmPu3(WN3)4
_chemical_formula_sum   'Sm1 Pu3 W4 N12'
_cell_volume   316.35078613
_cell_formula_units_Z   1
loop_
 _symmetry_equiv_pos_site_id
 _symmetry_equiv_pos_as_xyz
  1  'x, y, z'
loop_
 _atom_site_type_symbol
 _atom_site_label
 _atom_site_symmetry_multiplicity
 _atom_site_fract_x
 _atom_site_fract_y
 _atom_site_fract_z
 _atom_site_occupancy
  Sm  Sm0  1  0.703873  0.296127  0.750000  1
  Pu  Pu1  1  0.087943  0.912057  0.750000  1
  Pu  Pu2  1  0.292422  0.707578  0.250000  1
  Pu  Pu3  1  0.909305  0.090695  0.250000  1
  W  W4  1  0.380561  0.202552  0.238833  1
  W  W5  1  0.618684  0.796326  0.761460  1
  W  W6  1  0.797448  0.619439  0.261167  1
  W  W7  1  0.203674  0.381316  0.738540  1
  N  N8  1  0.623024  0.111050  0.162558  1
  N  N9  1  0.356254  0.353897  0.453518  1
  N  N10  1  0.002939  0.215188  0.852745  1
  N  N11  1  0.373214  0.881738  0.843189  1
  N  N12  1  0.784812  0.997061  0.647255  1
  N  N13  1  0.118262  0.626786  0.656811  1
  N  N14  1  0.888950  0.376976  0.337442  1
  N  N15  1  0.645781  0.640792  0.550579  1
  N  N16  1  0.646103  0.643746  0.046482  1
  N  N17  1  0.359208  0.354219  0.949421  1
  N  N18  1  0.995908  0.788369  0.150315  1
  N  N19  1  0.211631  0.004092  0.349685  1
