# generated using pymatgen
data_Dy9Tm3Co3Si8Ni
_symmetry_space_group_name_H-M   'P 1'
_cell_length_a   4.09592400
_cell_length_b   11.10490135
_cell_length_c   11.31721739
_cell_angle_alpha   90.20552138
_cell_angle_beta   90.00000000
_cell_angle_gamma   90.00000000
_symmetry_Int_Tables_number   1
_chemical_formula_structural   Dy9Tm3Co3Si8Ni
_chemical_formula_sum   'Dy9 Tm3 Co3 Si8 Ni1'
_cell_volume   514.75841930
_cell_formula_units_Z   1
loop_
 _symmetry_equiv_pos_site_id
 _symmetry_equiv_pos_as_xyz
  1  'x, y, z'
loop_
 _atom_site_type_symbol
 _atom_site_label
 _atom_site_symmetry_multiplicity
 _atom_site_fract_x
 _atom_site_fract_y
 _atom_site_fract_z
 _atom_site_occupancy
  Dy  Dy0  1  0.250000  0.441081  0.381632  1
  Dy  Dy1  1  0.250000  0.125034  0.557884  1
  Dy  Dy2  1  0.250000  0.372462  0.056287  1
  Dy  Dy3  1  0.750000  0.872686  0.442539  1
  Dy  Dy4  1  0.750000  0.625219  0.943882  1
  Dy  Dy5  1  0.250000  0.802838  0.716319  1
  Dy  Dy6  1  0.250000  0.700760  0.219181  1
  Dy  Dy7  1  0.750000  0.198945  0.281545  1
  Dy  Dy8  1  0.750000  0.299477  0.782094  1
  Tm  Tm9  1  0.250000  0.058749  0.882472  1
  Tm  Tm10  1  0.750000  0.942859  0.117825  1
  Tm  Tm11  1  0.750000  0.557500  0.617833  1
  Co  Co12  1  0.250000  0.365574  0.630080  1
  Co  Co13  1  0.250000  0.133706  0.129058  1
  Co  Co14  1  0.750000  0.633242  0.371170  1
  Si  Si15  1  0.250000  0.816791  0.976487  1
  Si  Si16  1  0.250000  0.683372  0.476978  1
  Si  Si17  1  0.750000  0.181812  0.023220  1
  Si  Si18  1  0.750000  0.316307  0.525085  1
  Si  Si19  1  0.250000  0.496867  0.800028  1
  Si  Si20  1  0.250000  0.003271  0.300063  1
  Si  Si21  1  0.750000  0.505634  0.197248  1
  Si  Si22  1  0.750000  0.997561  0.698558  1
  Ni  Ni23  1  0.750000  0.868255  0.872527  1
