# generated using pymatgen
data_Dy5Si10Mo3(PIr8)2
_symmetry_space_group_name_H-M   'P 1'
_cell_length_a   12.86014704
_cell_length_b   12.81952130
_cell_length_c   3.99238700
_cell_angle_alpha   90.00000000
_cell_angle_beta   90.00000000
_cell_angle_gamma   119.89555036
_symmetry_Int_Tables_number   1
_chemical_formula_structural   Dy5Si10Mo3(PIr8)2
_chemical_formula_sum   'Dy5 Si10 Mo3 P2 Ir16'
_cell_volume   570.60706184
_cell_formula_units_Z   1
loop_
 _symmetry_equiv_pos_site_id
 _symmetry_equiv_pos_as_xyz
  1  'x, y, z'
loop_
 _atom_site_type_symbol
 _atom_site_label
 _atom_site_symmetry_multiplicity
 _atom_site_fract_x
 _atom_site_fract_y
 _atom_site_fract_z
 _atom_site_occupancy
  Dy  Dy0  1  0.333079  0.666652  0.500000  1
  Dy  Dy1  1  0.666921  0.333572  0.500000  1
  Dy  Dy2  1  0.000000  0.811099  0.000000  1
  Dy  Dy3  1  0.187295  0.187868  0.000000  1
  Dy  Dy4  1  0.812705  0.000573  0.000000  1
  Si  Si5  1  0.000000  0.628476  0.500000  1
  Si  Si6  1  0.371765  0.372187  0.500000  1
  Si  Si7  1  0.628235  0.000422  0.500000  1
  Si  Si8  1  0.520572  0.686324  0.000000  1
  Si  Si9  1  0.313316  0.833543  0.000000  1
  Si  Si10  1  0.166733  0.479363  0.000000  1
  Si  Si11  1  0.479428  0.165752  0.000000  1
  Si  Si12  1  0.686684  0.520227  0.000000  1
  Si  Si13  1  0.833267  0.312630  0.000000  1
  Si  Si14  1  0.000000  0.178386  0.500000  1
  Mo  Mo15  1  0.000000  0.437787  0.500000  1
  Mo  Mo16  1  0.562558  0.562025  0.500000  1
  Mo  Mo17  1  0.437442  0.999469  0.500000  1
  P  P18  1  0.819619  0.820755  0.500000  1
  P  P19  1  0.180381  0.001136  0.500000  1
  Ir  Ir20  1  0.512684  0.871361  0.000000  1
  Ir  Ir21  1  0.127843  0.641153  0.000000  1
  Ir  Ir22  1  0.359943  0.486836  0.000000  1
  Ir  Ir23  1  0.487316  0.358676  0.000000  1
  Ir  Ir24  1  0.872157  0.513309  0.000000  1
  Ir  Ir25  1  0.640057  0.126893  0.000000  1
  Ir  Ir26  1  0.000000  0.278519  0.000000  1
  Ir  Ir27  1  0.723927  0.724107  0.000000  1
  Ir  Ir28  1  0.276073  0.000180  0.000000  1
  Ir  Ir29  1  0.629055  0.809242  0.500000  1
  Ir  Ir30  1  0.190778  0.820292  0.500000  1
  Ir  Ir31  1  0.181967  0.373914  0.500000  1
  Ir  Ir32  1  0.370945  0.180187  0.500000  1
  Ir  Ir33  1  0.809222  0.629514  0.500000  1
  Ir  Ir34  1  0.818033  0.191948  0.500000  1
  Ir  Ir35  1  0.000000  0.995623  0.500000  1
