# generated using pymatgen
data_Er16InNi4Ag3
_symmetry_space_group_name_H-M   'P 1'
_cell_length_a   9.35036041
_cell_length_b   9.35000791
_cell_length_c   9.35000800
_cell_angle_alpha   59.99999970
_cell_angle_beta   60.00124674
_cell_angle_gamma   60.00125112
_symmetry_Int_Tables_number   1
_chemical_formula_structural   Er16InNi4Ag3
_chemical_formula_sum   'Er16 In1 Ni4 Ag3'
_cell_volume   578.02352122
_cell_formula_units_Z   1
loop_
 _symmetry_equiv_pos_site_id
 _symmetry_equiv_pos_as_xyz
  1  'x, y, z'
loop_
 _atom_site_type_symbol
 _atom_site_label
 _atom_site_symmetry_multiplicity
 _atom_site_fract_x
 _atom_site_fract_y
 _atom_site_fract_z
 _atom_site_occupancy
  Er  Er0  1  0.348970  0.349564  0.349564  1
  Er  Er1  1  0.348970  0.349564  0.951902  1
  Er  Er2  1  0.348970  0.951902  0.349564  1
  Er  Er3  1  0.948370  0.350543  0.350543  1
  Er  Er4  1  0.811566  0.188604  0.188604  1
  Er  Er5  1  0.189399  0.810182  0.810182  1
  Er  Er6  1  0.189399  0.810182  0.190237  1
  Er  Er7  1  0.811566  0.188604  0.811228  1
  Er  Er8  1  0.189399  0.190237  0.810182  1
  Er  Er9  1  0.811566  0.811228  0.188604  1
  Er  Er10  1  0.931960  0.564302  0.564302  1
  Er  Er11  1  0.562605  0.936853  0.936853  1
  Er  Er12  1  0.562605  0.936853  0.563689  1
  Er  Er13  1  0.931960  0.564302  0.939436  1
  Er  Er14  1  0.562605  0.563689  0.936853  1
  Er  Er15  1  0.931960  0.939436  0.564302  1
  In  In16  1  0.261938  0.579353  0.579353  1
  Ni  Ni17  1  0.142165  0.142897  0.142897  1
  Ni  Ni18  1  0.142165  0.142897  0.572040  1
  Ni  Ni19  1  0.142165  0.572040  0.142897  1
  Ni  Ni20  1  0.571426  0.142858  0.142858  1
  Ag  Ag21  1  0.586090  0.581600  0.581600  1
  Ag  Ag22  1  0.586090  0.581600  0.250708  1
  Ag  Ag23  1  0.586090  0.250708  0.581600  1
