# generated using pymatgen
data_Ti8Nb2CuSiSn6
_symmetry_space_group_name_H-M   'P 1'
_cell_length_a   8.23465300
_cell_length_b   8.23465402
_cell_length_c   5.53973000
_cell_angle_alpha   90.00000000
_cell_angle_beta   90.00000000
_cell_angle_gamma   120.00000796
_symmetry_Int_Tables_number   1
_chemical_formula_structural   Ti8Nb2CuSiSn6
_chemical_formula_sum   'Ti8 Nb2 Cu1 Si1 Sn6'
_cell_volume   325.31931949
_cell_formula_units_Z   1
loop_
 _symmetry_equiv_pos_site_id
 _symmetry_equiv_pos_as_xyz
  1  'x, y, z'
loop_
 _atom_site_type_symbol
 _atom_site_label
 _atom_site_symmetry_multiplicity
 _atom_site_fract_x
 _atom_site_fract_y
 _atom_site_fract_z
 _atom_site_occupancy
  Ti  Ti0  1  0.265196  0.000000  0.736116  1
  Ti  Ti1  1  0.734804  0.000000  0.263884  1
  Ti  Ti2  1  0.000000  0.265196  0.736116  1
  Ti  Ti3  1  0.000000  0.734804  0.263884  1
  Ti  Ti4  1  0.734804  0.734804  0.736116  1
  Ti  Ti5  1  0.265196  0.265196  0.263884  1
  Ti  Ti6  1  0.666667  0.333333  0.000000  1
  Ti  Ti7  1  0.333333  0.666667  0.000000  1
  Nb  Nb8  1  0.333333  0.666667  0.500000  1
  Nb  Nb9  1  0.666667  0.333333  0.500000  1
  Cu  Cu10  1  0.000000  0.000000  0.000000  1
  Si  Si11  1  0.000000  0.000000  0.500000  1
  Sn  Sn12  1  0.613818  0.000000  0.760954  1
  Sn  Sn13  1  0.386182  0.000000  0.239046  1
  Sn  Sn14  1  0.000000  0.613818  0.760954  1
  Sn  Sn15  1  0.000000  0.386182  0.239046  1
  Sn  Sn16  1  0.386182  0.386182  0.760954  1
  Sn  Sn17  1  0.613818  0.613818  0.239046  1
