# generated using pymatgen
data_Dy2Y5Th(CdNi)2
_symmetry_space_group_name_H-M   'P 1'
_cell_length_a   9.60439615
_cell_length_b   9.62028595
_cell_length_c   9.62218208
_cell_angle_alpha   59.88425489
_cell_angle_beta   60.04806541
_cell_angle_gamma   60.08173018
_symmetry_Int_Tables_number   1
_chemical_formula_structural   Dy2Y5Th(CdNi)2
_chemical_formula_sum   'Dy4 Y10 Th2 Cd4 Ni4'
_cell_volume   628.72362815
_cell_formula_units_Z   2
loop_
 _symmetry_equiv_pos_site_id
 _symmetry_equiv_pos_as_xyz
  1  'x, y, z'
loop_
 _atom_site_type_symbol
 _atom_site_label
 _atom_site_symmetry_multiplicity
 _atom_site_fract_x
 _atom_site_fract_y
 _atom_site_fract_z
 _atom_site_occupancy
  Dy  Dy0  1  0.598309  0.200945  0.600428  1
  Dy  Dy1  1  0.200945  0.598309  0.600317  1
  Dy  Dy2  1  0.062084  0.439727  0.437850  1
  Dy  Dy3  1  0.439727  0.062084  0.060340  1
  Y  Y4  1  0.440073  0.061694  0.438104  1
  Y  Y5  1  0.061694  0.440073  0.060130  1
  Y  Y6  1  0.438515  0.438515  0.061485  1
  Y  Y7  1  0.061769  0.061769  0.438231  1
  Y  Y8  1  0.186751  0.814041  0.815468  1
  Y  Y9  1  0.814041  0.186751  0.183740  1
  Y  Y10  1  0.813660  0.187044  0.815246  1
  Y  Y11  1  0.187044  0.813660  0.184050  1
  Y  Y12  1  0.814009  0.814009  0.185991  1
  Y  Y13  1  0.185636  0.185636  0.814364  1
  Th  Th14  1  0.594085  0.594084  0.600458  1
  Th  Th15  1  0.594084  0.594085  0.211372  1
  Cd  Cd16  1  0.832890  0.832668  0.829886  1
  Cd  Cd17  1  0.832668  0.832890  0.504554  1
  Cd  Cd18  1  0.833587  0.504669  0.830994  1
  Cd  Cd19  1  0.504669  0.833587  0.830749  1
  Ni  Ni20  1  0.392841  0.394778  0.392277  1
  Ni  Ni21  1  0.394778  0.392841  0.820105  1
  Ni  Ni22  1  0.397870  0.818269  0.391024  1
  Ni  Ni23  1  0.818269  0.397870  0.392838  1
