# generated using pymatgen
data_Li4ScMn3(P3Ir4)4
_symmetry_space_group_name_H-M   'P 1'
_cell_length_a   12.54990031
_cell_length_b   12.54989941
_cell_length_c   3.91106200
_cell_angle_alpha   90.00000000
_cell_angle_beta   90.00000000
_cell_angle_gamma   120.36468787
_symmetry_Int_Tables_number   1
_chemical_formula_structural   Li4ScMn3(P3Ir4)4
_chemical_formula_sum   'Li4 Sc1 Mn3 P12 Ir16'
_cell_volume   531.49371524
_cell_formula_units_Z   1
loop_
 _symmetry_equiv_pos_site_id
 _symmetry_equiv_pos_as_xyz
  1  'x, y, z'
loop_
 _atom_site_type_symbol
 _atom_site_label
 _atom_site_symmetry_multiplicity
 _atom_site_fract_x
 _atom_site_fract_y
 _atom_site_fract_z
 _atom_site_occupancy
  Li  Li0  1  0.332758  0.665018  0.000000  1
  Li  Li1  1  0.665018  0.332758  0.000000  1
  Li  Li2  1  0.821925  0.999946  0.500000  1
  Li  Li3  1  0.999946  0.821925  0.500000  1
  Sc  Sc4  1  0.175253  0.175253  0.500000  1
  Mn  Mn5  1  0.457581  0.003959  0.000000  1
  Mn  Mn6  1  0.003959  0.457581  0.000000  1
  Mn  Mn7  1  0.542290  0.542290  0.000000  1
  P  P8  1  0.177041  0.995401  0.000000  1
  P  P9  1  0.995401  0.177041  0.000000  1
  P  P10  1  0.820828  0.820828  0.000000  1
  P  P11  1  0.173203  0.485736  0.500000  1
  P  P12  1  0.515184  0.688013  0.500000  1
  P  P13  1  0.314953  0.828602  0.500000  1
  P  P14  1  0.688013  0.515184  0.500000  1
  P  P15  1  0.828602  0.314953  0.500000  1
  P  P16  1  0.485736  0.173203  0.500000  1
  P  P17  1  0.633917  0.000545  0.000000  1
  P  P18  1  0.000545  0.633917  0.000000  1
  P  P19  1  0.363733  0.363733  0.000000  1
  Ir  Ir20  1  0.360832  0.490780  0.500000  1
  Ir  Ir21  1  0.511988  0.872702  0.500000  1
  Ir  Ir22  1  0.132473  0.639365  0.500000  1
  Ir  Ir23  1  0.872702  0.511988  0.500000  1
  Ir  Ir24  1  0.639365  0.132473  0.500000  1
  Ir  Ir25  1  0.490780  0.360832  0.500000  1
  Ir  Ir26  1  0.180481  0.371433  0.000000  1
  Ir  Ir27  1  0.622822  0.804837  0.000000  1
  Ir  Ir28  1  0.195456  0.817494  0.000000  1
  Ir  Ir29  1  0.804837  0.622822  0.000000  1
  Ir  Ir30  1  0.817494  0.195456  0.000000  1
  Ir  Ir31  1  0.371433  0.180481  0.000000  1
  Ir  Ir32  1  0.283699  0.000146  0.500000  1
  Ir  Ir33  1  0.000146  0.283699  0.500000  1
  Ir  Ir34  1  0.716810  0.716810  0.500000  1
  Ir  Ir35  1  0.002800  0.002800  0.000000  1
