# generated using pymatgen
data_Tb3Eu(B4Ru)4
_symmetry_space_group_name_H-M   'P 1'
_cell_length_a   5.99847610
_cell_length_b   11.59921461
_cell_length_c   3.57790000
_cell_angle_alpha   90.00000000
_cell_angle_beta   90.00000000
_cell_angle_gamma   90.04893257
_symmetry_Int_Tables_number   1
_chemical_formula_structural   Tb3Eu(B4Ru)4
_chemical_formula_sum   'Tb3 Eu1 B16 Ru4'
_cell_volume   248.94164584
_cell_formula_units_Z   1
loop_
 _symmetry_equiv_pos_site_id
 _symmetry_equiv_pos_as_xyz
  1  'x, y, z'
loop_
 _atom_site_type_symbol
 _atom_site_label
 _atom_site_symmetry_multiplicity
 _atom_site_fract_x
 _atom_site_fract_y
 _atom_site_fract_z
 _atom_site_occupancy
  Tb  Tb0  1  0.627437  0.349908  0.000000  1
  Tb  Tb1  1  0.371774  0.650259  0.000000  1
  Tb  Tb2  1  0.128246  0.150227  0.000000  1
  Eu  Eu3  1  0.871289  0.850109  0.000000  1
  B  B4  1  0.788382  0.185607  0.500000  1
  B  B5  1  0.214114  0.814834  0.500000  1
  B  B6  1  0.287628  0.314658  0.500000  1
  B  B7  1  0.712613  0.684341  0.500000  1
  B  B8  1  0.862964  0.032270  0.500000  1
  B  B9  1  0.137560  0.969927  0.500000  1
  B  B10  1  0.362969  0.468654  0.500000  1
  B  B11  1  0.636435  0.530056  0.500000  1
  B  B12  1  0.887939  0.452952  0.500000  1
  B  B13  1  0.111586  0.545645  0.500000  1
  B  B14  1  0.388391  0.046894  0.500000  1
  B  B15  1  0.611868  0.954525  0.500000  1
  B  B16  1  0.975778  0.308525  0.500000  1
  B  B17  1  0.025028  0.690049  0.500000  1
  B  B18  1  0.475132  0.191580  0.500000  1
  B  B19  1  0.523009  0.809014  0.500000  1
  Ru  Ru20  1  0.638608  0.093367  0.000000  1
  Ru  Ru21  1  0.362078  0.909257  0.000000  1
  Ru  Ru22  1  0.139322  0.407450  0.000000  1
  Ru  Ru23  1  0.859848  0.589895  0.000000  1
