# generated using pymatgen
data_Yb6Er2Cu(Si4Au)3
_symmetry_space_group_name_H-M   'P 1'
_cell_length_a   8.24925800
_cell_length_b   8.24925801
_cell_length_c   8.14268100
_cell_angle_alpha   90.00000000
_cell_angle_beta   90.00000000
_cell_angle_gamma   119.99999997
_symmetry_Int_Tables_number   1
_chemical_formula_structural   Yb6Er2Cu(Si4Au)3
_chemical_formula_sum   'Yb6 Er2 Cu1 Si12 Au3'
_cell_volume   479.87467013
_cell_formula_units_Z   1
loop_
 _symmetry_equiv_pos_site_id
 _symmetry_equiv_pos_as_xyz
  1  'x, y, z'
loop_
 _atom_site_type_symbol
 _atom_site_label
 _atom_site_symmetry_multiplicity
 _atom_site_fract_x
 _atom_site_fract_y
 _atom_site_fract_z
 _atom_site_occupancy
  Yb  Yb0  1  0.501014  0.002031  0.248256  1
  Yb  Yb1  1  0.497012  0.994023  0.751510  1
  Yb  Yb2  1  0.997969  0.498986  0.248256  1
  Yb  Yb3  1  0.005977  0.502988  0.751510  1
  Yb  Yb4  1  0.501014  0.498986  0.248256  1
  Yb  Yb5  1  0.497012  0.502988  0.751510  1
  Er  Er6  1  0.000000  0.000000  0.247761  1
  Er  Er7  1  0.000000  0.000000  0.752168  1
  Cu  Cu8  1  0.333333  0.666667  0.009614  1
  Si  Si9  1  0.167062  0.334124  0.000634  1
  Si  Si10  1  0.839596  0.679190  0.999635  1
  Si  Si11  1  0.665876  0.832938  0.000634  1
  Si  Si12  1  0.838296  0.676594  0.500524  1
  Si  Si13  1  0.320810  0.160404  0.999635  1
  Si  Si14  1  0.161467  0.322933  0.499157  1
  Si  Si15  1  0.167062  0.832938  0.000634  1
  Si  Si16  1  0.323406  0.161704  0.500524  1
  Si  Si17  1  0.839596  0.160404  0.999635  1
  Si  Si18  1  0.677067  0.838533  0.499157  1
  Si  Si19  1  0.838296  0.161704  0.500524  1
  Si  Si20  1  0.161467  0.838533  0.499157  1
  Au  Au21  1  0.666667  0.333333  0.991832  1
  Au  Au22  1  0.666667  0.333333  0.507972  1
  Au  Au23  1  0.333333  0.666667  0.491505  1
