# generated using pymatgen
data_Tb12Co6Sn
_symmetry_space_group_name_H-M   'P 1'
_cell_length_a   8.36912737
_cell_length_b   8.36912767
_cell_length_c   8.36912800
_cell_angle_alpha   109.47121901
_cell_angle_beta   109.47121973
_cell_angle_gamma   109.47122423
_symmetry_Int_Tables_number   1
_chemical_formula_structural   Tb12Co6Sn
_chemical_formula_sum   'Tb12 Co6 Sn1'
_cell_volume   451.25152668
_cell_formula_units_Z   1
loop_
 _symmetry_equiv_pos_site_id
 _symmetry_equiv_pos_as_xyz
  1  'x, y, z'
loop_
 _atom_site_type_symbol
 _atom_site_label
 _atom_site_symmetry_multiplicity
 _atom_site_fract_x
 _atom_site_fract_y
 _atom_site_fract_z
 _atom_site_occupancy
  Tb  Tb0  1  0.805814  0.696906  0.502721  1
  Tb  Tb1  1  0.194186  0.303094  0.497279  1
  Tb  Tb2  1  0.194186  0.696906  0.891093  1
  Tb  Tb3  1  0.805814  0.303094  0.108907  1
  Tb  Tb4  1  0.696906  0.502721  0.805814  1
  Tb  Tb5  1  0.303094  0.497279  0.194186  1
  Tb  Tb6  1  0.696906  0.891093  0.194186  1
  Tb  Tb7  1  0.303094  0.108907  0.805814  1
  Tb  Tb8  1  0.502721  0.805814  0.696906  1
  Tb  Tb9  1  0.497279  0.194186  0.303094  1
  Tb  Tb10  1  0.108907  0.805814  0.303094  1
  Tb  Tb11  1  0.891093  0.194186  0.696906  1
  Co  Co12  1  0.886834  0.386834  0.500000  1
  Co  Co13  1  0.113166  0.613166  0.500000  1
  Co  Co14  1  0.386834  0.500000  0.886834  1
  Co  Co15  1  0.613166  0.500000  0.113166  1
  Co  Co16  1  0.500000  0.886834  0.386834  1
  Co  Co17  1  0.500000  0.113166  0.613166  1
  Sn  Sn18  1  0.000000  0.000000  0.000000  1
