# generated using pymatgen
data_Dy6TcPd
_symmetry_space_group_name_H-M   'P 1'
_cell_length_a   7.25675300
_cell_length_b   9.38449000
_cell_length_c   6.38213400
_cell_angle_alpha   90.00000000
_cell_angle_beta   90.00000000
_cell_angle_gamma   90.00000000
_symmetry_Int_Tables_number   1
_chemical_formula_structural   Dy6TcPd
_chemical_formula_sum   'Dy12 Tc2 Pd2'
_cell_volume   434.62923501
_cell_formula_units_Z   2
loop_
 _symmetry_equiv_pos_site_id
 _symmetry_equiv_pos_as_xyz
  1  'x, y, z'
loop_
 _atom_site_type_symbol
 _atom_site_label
 _atom_site_symmetry_multiplicity
 _atom_site_fract_x
 _atom_site_fract_y
 _atom_site_fract_z
 _atom_site_occupancy
  Dy  Dy0  1  0.184397  0.057317  0.172592  1
  Dy  Dy1  1  0.315604  0.942685  0.672592  1
  Dy  Dy2  1  0.676131  0.435336  0.329688  1
  Dy  Dy3  1  0.823868  0.564663  0.829688  1
  Dy  Dy4  1  0.823868  0.935337  0.829688  1
  Dy  Dy5  1  0.676131  0.064665  0.329688  1
  Dy  Dy6  1  0.315604  0.557315  0.672592  1
  Dy  Dy7  1  0.184397  0.442684  0.172592  1
  Dy  Dy8  1  0.041681  0.250000  0.626006  1
  Dy  Dy9  1  0.458320  0.749999  0.126006  1
  Dy  Dy10  1  0.530674  0.250000  0.866587  1
  Dy  Dy11  1  0.969327  0.749999  0.366588  1
  Tc  Tc12  1  0.391242  0.250000  0.454017  1
  Tc  Tc13  1  0.108757  0.749999  0.954017  1
  Pd  Pd14  1  0.890419  0.250000  0.048833  1
  Pd  Pd15  1  0.609582  0.749999  0.548833  1
