# generated using pymatgen
data_Tb8Pr9Er3Pb16
_symmetry_space_group_name_H-M   'P 1'
_cell_length_a   8.33628658
_cell_length_b   8.41332892
_cell_length_c   15.95704907
_cell_angle_alpha   90.03127114
_cell_angle_beta   90.14906972
_cell_angle_gamma   90.27620219
_symmetry_Int_Tables_number   1
_chemical_formula_structural   Tb8Pr9Er3Pb16
_chemical_formula_sum   'Tb8 Pr9 Er3 Pb16'
_cell_volume   1119.14536624
_cell_formula_units_Z   1
loop_
 _symmetry_equiv_pos_site_id
 _symmetry_equiv_pos_as_xyz
  1  'x, y, z'
loop_
 _atom_site_type_symbol
 _atom_site_label
 _atom_site_symmetry_multiplicity
 _atom_site_fract_x
 _atom_site_fract_y
 _atom_site_fract_z
 _atom_site_occupancy
  Tb  Tb0  1  0.631422  0.159174  0.622561  1
  Tb  Tb1  1  0.132689  0.341222  0.878880  1
  Tb  Tb2  1  0.367799  0.841617  0.122010  1
  Tb  Tb3  1  0.868369  0.657673  0.378152  1
  Tb  Tb4  1  0.370930  0.841675  0.376066  1
  Tb  Tb5  1  0.868149  0.659210  0.122224  1
  Tb  Tb6  1  0.630974  0.158610  0.879570  1
  Tb  Tb7  1  0.797840  0.495132  0.750949  1
  Pr  Pr8  1  0.129206  0.339257  0.619018  1
  Pr  Pr9  1  0.472114  0.678736  0.598492  1
  Pr  Pr10  1  0.974752  0.822715  0.903485  1
  Pr  Pr11  1  0.525747  0.322598  0.098072  1
  Pr  Pr12  1  0.027527  0.176627  0.399770  1
  Pr  Pr13  1  0.525470  0.322799  0.400799  1
  Pr  Pr14  1  0.025238  0.177447  0.098052  1
  Pr  Pr15  1  0.475258  0.678454  0.902778  1
  Pr  Pr16  1  0.973891  0.822994  0.598411  1
  Er  Er17  1  0.299174  0.004545  0.750605  1
  Er  Er18  1  0.202077  0.505849  0.248960  1
  Er  Er19  1  0.702240  0.995005  0.249967  1
  Pb  Pb20  1  0.709367  0.962365  0.455882  1
  Pb  Pb21  1  0.207381  0.538532  0.044072  1
  Pb  Pb22  1  0.292398  0.038660  0.956737  1
  Pb  Pb23  1  0.783325  0.464662  0.543138  1
  Pb  Pb24  1  0.295808  0.032284  0.542742  1
  Pb  Pb25  1  0.793663  0.461360  0.956977  1
  Pb  Pb26  1  0.707367  0.961050  0.044803  1
  Pb  Pb27  1  0.209320  0.541361  0.452392  1
  Pb  Pb28  1  0.436537  0.370413  0.751931  1
  Pb  Pb29  1  0.934826  0.125334  0.752161  1
  Pb  Pb30  1  0.564491  0.628875  0.249319  1
  Pb  Pb31  1  0.063185  0.870644  0.250053  1
  Pb  Pb32  1  0.663588  0.851336  0.750669  1
  Pb  Pb33  1  0.163396  0.651871  0.751601  1
  Pb  Pb34  1  0.336989  0.150287  0.249201  1
  Pb  Pb35  1  0.837491  0.349629  0.249502  1
