# generated using pymatgen
data_TbCe3(NbRu3)2
_symmetry_space_group_name_H-M   'P 1'
_cell_length_a   5.84420300
_cell_length_b   5.84420166
_cell_length_c   7.79466800
_cell_angle_alpha   90.00000000
_cell_angle_beta   90.00000000
_cell_angle_gamma   120.00000195
_symmetry_Int_Tables_number   1
_chemical_formula_structural   TbCe3(NbRu3)2
_chemical_formula_sum   'Tb1 Ce3 Nb2 Ru6'
_cell_volume   230.55722217
_cell_formula_units_Z   1
loop_
 _symmetry_equiv_pos_site_id
 _symmetry_equiv_pos_as_xyz
  1  'x, y, z'
loop_
 _atom_site_type_symbol
 _atom_site_label
 _atom_site_symmetry_multiplicity
 _atom_site_fract_x
 _atom_site_fract_y
 _atom_site_fract_z
 _atom_site_occupancy
  Tb  Tb0  1  0.333333  0.666667  0.067386  1
  Ce  Ce1  1  0.333333  0.666667  0.456412  1
  Ce  Ce2  1  0.666667  0.333333  0.561207  1
  Ce  Ce3  1  0.666667  0.333333  0.943042  1
  Nb  Nb4  1  0.000000  0.000000  0.494217  1
  Nb  Nb5  1  0.000000  0.000000  0.998193  1
  Ru  Ru6  1  0.828473  0.171527  0.246942  1
  Ru  Ru7  1  0.828473  0.656946  0.246942  1
  Ru  Ru8  1  0.343054  0.171527  0.246942  1
  Ru  Ru9  1  0.170078  0.829922  0.746239  1
  Ru  Ru10  1  0.170078  0.340156  0.746239  1
  Ru  Ru11  1  0.659844  0.829922  0.746239  1
