# generated using pymatgen
data_Mn3Nb4Os5
_symmetry_space_group_name_H-M   'P 1'
_cell_length_a   5.05732500
_cell_length_b   5.01077859
_cell_length_c   8.31010800
_cell_angle_alpha   90.00000000
_cell_angle_beta   90.00000000
_cell_angle_gamma   120.30777146
_symmetry_Int_Tables_number   1
_chemical_formula_structural   Mn3Nb4Os5
_chemical_formula_sum   'Mn3 Nb4 Os5'
_cell_volume   181.80596310
_cell_formula_units_Z   1
loop_
 _symmetry_equiv_pos_site_id
 _symmetry_equiv_pos_as_xyz
  1  'x, y, z'
loop_
 _atom_site_type_symbol
 _atom_site_label
 _atom_site_symmetry_multiplicity
 _atom_site_fract_x
 _atom_site_fract_y
 _atom_site_fract_z
 _atom_site_occupancy
  Mn  Mn0  1  0.652094  0.832941  0.750000  1
  Mn  Mn1  1  0.828192  0.656383  0.250000  1
  Mn  Mn2  1  0.180847  0.832941  0.750000  1
  Nb  Nb3  1  0.334154  0.668309  0.434676  1
  Nb  Nb4  1  0.669581  0.339161  0.931202  1
  Nb  Nb5  1  0.669581  0.339161  0.568798  1
  Nb  Nb6  1  0.334154  0.668309  0.065324  1
  Os  Os7  1  0.177567  0.355134  0.750000  1
  Os  Os8  1  0.831180  0.174084  0.250000  1
  Os  Os9  1  0.342904  0.174084  0.250000  1
  Os  Os10  1  0.989873  0.979746  0.994216  1
  Os  Os11  1  0.989873  0.979746  0.505784  1
