# generated using pymatgen
data_Re4Sb14MoW
_symmetry_space_group_name_H-M   'P 1'
_cell_length_a   8.28905087
_cell_length_b   8.28904751
_cell_length_c   8.28904719
_cell_angle_alpha   109.30450960
_cell_angle_beta   109.57305553
_cell_angle_gamma   109.53620426
_symmetry_Int_Tables_number   1
_chemical_formula_structural   Re4Sb14MoW
_chemical_formula_sum   'Re4 Sb14 Mo1 W1'
_cell_volume   438.41911153
_cell_formula_units_Z   1
loop_
 _symmetry_equiv_pos_site_id
 _symmetry_equiv_pos_as_xyz
  1  'x, y, z'
loop_
 _atom_site_type_symbol
 _atom_site_label
 _atom_site_symmetry_multiplicity
 _atom_site_fract_x
 _atom_site_fract_y
 _atom_site_fract_z
 _atom_site_occupancy
  Re  Re0  1  0.339172  0.339202  0.999970  1
  Re  Re1  1  0.000044  0.342047  0.342049  1
  Re  Re2  1  0.000044  0.657995  0.657997  1
  Re  Re3  1  0.660762  0.000069  0.660693  1
  Sb  Sb4  1  0.749630  0.250305  0.499325  1
  Sb  Sb5  1  0.500035  0.250684  0.749468  1
  Sb  Sb6  1  0.500035  0.750567  0.249351  1
  Sb  Sb7  1  0.250488  0.500711  0.749777  1
  Sb  Sb8  1  0.751346  0.500664  0.250682  1
  Sb  Sb9  1  0.248654  0.749284  0.499370  1
  Sb  Sb10  1  0.326856  0.326947  0.326768  1
  Sb  Sb11  1  0.999862  0.000031  0.326269  1
  Sb  Sb12  1  0.326856  0.000089  0.999909  1
  Sb  Sb13  1  0.999989  0.327352  0.999850  1
  Sb  Sb14  1  0.673149  0.999966  0.999918  1
  Sb  Sb15  1  0.999862  0.673593  0.999832  1
  Sb  Sb16  1  0.999989  0.000139  0.672637  1
  Sb  Sb17  1  0.673149  0.673230  0.673183  1
  Mo  Mo18  1  0.657232  0.657158  0.000074  1
  W  W19  1  0.342845  0.999969  0.342876  1
