# generated using pymatgen
data_La6Dy10Cd4Ir3Pt
_symmetry_space_group_name_H-M   'P 1'
_cell_length_a   9.84198884
_cell_length_b   9.84198907
_cell_length_c   9.84198830
_cell_angle_alpha   60.12150491
_cell_angle_beta   60.12150456
_cell_angle_gamma   60.12150170
_symmetry_Int_Tables_number   1
_chemical_formula_structural   La6Dy10Cd4Ir3Pt
_chemical_formula_sum   'La6 Dy10 Cd4 Ir3 Pt1'
_cell_volume   675.97000116
_cell_formula_units_Z   1
loop_
 _symmetry_equiv_pos_site_id
 _symmetry_equiv_pos_as_xyz
  1  'x, y, z'
loop_
 _atom_site_type_symbol
 _atom_site_label
 _atom_site_symmetry_multiplicity
 _atom_site_fract_x
 _atom_site_fract_y
 _atom_site_fract_z
 _atom_site_occupancy
  La  La0  1  0.192468  0.807921  0.807921  1
  La  La1  1  0.809394  0.192022  0.192022  1
  La  La2  1  0.807921  0.192468  0.807921  1
  La  La3  1  0.192022  0.809394  0.192022  1
  La  La4  1  0.807921  0.807921  0.192468  1
  La  La5  1  0.192022  0.192022  0.809394  1
  Dy  Dy6  1  0.596242  0.596242  0.596242  1
  Dy  Dy7  1  0.598980  0.598980  0.207692  1
  Dy  Dy8  1  0.598980  0.207692  0.598980  1
  Dy  Dy9  1  0.207692  0.598980  0.598980  1
  Dy  Dy10  1  0.058977  0.437104  0.437104  1
  Dy  Dy11  1  0.435400  0.063685  0.063685  1
  Dy  Dy12  1  0.437104  0.058977  0.437104  1
  Dy  Dy13  1  0.063685  0.435400  0.063685  1
  Dy  Dy14  1  0.437104  0.437104  0.058977  1
  Dy  Dy15  1  0.063685  0.063685  0.435400  1
  Cd  Cd16  1  0.828632  0.828632  0.828632  1
  Cd  Cd17  1  0.828867  0.828867  0.513684  1
  Cd  Cd18  1  0.828867  0.513684  0.828867  1
  Cd  Cd19  1  0.513684  0.828867  0.828867  1
  Ir  Ir20  1  0.391480  0.391480  0.825636  1
  Ir  Ir21  1  0.391480  0.825636  0.391480  1
  Ir  Ir22  1  0.825636  0.391480  0.391480  1
  Pt  Pt23  1  0.391753  0.391753  0.391753  1
