# generated using pymatgen
data_Ce2Ho5Tm(Si3Rh)4
_symmetry_space_group_name_H-M   'P 1'
_cell_length_a   8.16355802
_cell_length_b   8.16355794
_cell_length_c   7.94733400
_cell_angle_alpha   90.00000000
_cell_angle_beta   90.00000000
_cell_angle_gamma   119.99203464
_symmetry_Int_Tables_number   1
_chemical_formula_structural   Ce2Ho5Tm(Si3Rh)4
_chemical_formula_sum   'Ce2 Ho5 Tm1 Si12 Rh4'
_cell_volume   458.71813817
_cell_formula_units_Z   1
loop_
 _symmetry_equiv_pos_site_id
 _symmetry_equiv_pos_as_xyz
  1  'x, y, z'
loop_
 _atom_site_type_symbol
 _atom_site_label
 _atom_site_symmetry_multiplicity
 _atom_site_fract_x
 _atom_site_fract_y
 _atom_site_fract_z
 _atom_site_occupancy
  Ce  Ce0  1  0.000039  0.999961  0.250000  1
  Ce  Ce1  1  0.000034  0.999966  0.750000  1
  Ho  Ho2  1  0.508592  0.017505  0.250000  1
  Ho  Ho3  1  0.982495  0.491408  0.250000  1
  Ho  Ho4  1  0.491599  0.508401  0.750000  1
  Ho  Ho5  1  0.491657  0.983196  0.750000  1
  Ho  Ho6  1  0.016804  0.508343  0.750000  1
  Tm  Tm7  1  0.508236  0.491764  0.250000  1
  Si  Si8  1  0.167564  0.832436  0.500878  1
  Si  Si9  1  0.167579  0.334902  0.500717  1
  Si  Si10  1  0.665098  0.832421  0.500717  1
  Si  Si11  1  0.832674  0.167326  0.498569  1
  Si  Si12  1  0.832423  0.665250  0.497801  1
  Si  Si13  1  0.334750  0.167577  0.497801  1
  Si  Si14  1  0.832674  0.167326  0.001431  1
  Si  Si15  1  0.832423  0.665250  0.002199  1
  Si  Si16  1  0.334750  0.167577  0.002199  1
  Si  Si17  1  0.167564  0.832436  0.999122  1
  Si  Si18  1  0.167579  0.334902  0.999283  1
  Si  Si19  1  0.665098  0.832421  0.999283  1
  Rh  Rh20  1  0.333702  0.666298  0.465055  1
  Rh  Rh21  1  0.666482  0.333518  0.532142  1
  Rh  Rh22  1  0.666482  0.333518  0.967858  1
  Rh  Rh23  1  0.333702  0.666298  0.034945  1
