# generated using pymatgen
data_FeSbCl6
_symmetry_space_group_name_H-M   'P 1'
_cell_length_a   7.96267000
_cell_length_b   10.67954260
_cell_length_c   13.56536112
_cell_angle_alpha   78.55538855
_cell_angle_beta   90.00000000
_cell_angle_gamma   90.00000000
_symmetry_Int_Tables_number   1
_chemical_formula_structural   FeSbCl6
_chemical_formula_sum   'Fe4 Sb4 Cl24'
_cell_volume   1130.63035595
_cell_formula_units_Z   4
loop_
 _symmetry_equiv_pos_site_id
 _symmetry_equiv_pos_as_xyz
  1  'x, y, z'
loop_
 _atom_site_type_symbol
 _atom_site_label
 _atom_site_symmetry_multiplicity
 _atom_site_fract_x
 _atom_site_fract_y
 _atom_site_fract_z
 _atom_site_occupancy
  Fe  Fe0  1  0.763463  0.660562  0.920620  1
  Fe  Fe1  1  0.263463  0.339438  0.579380  1
  Fe  Fe2  1  0.236537  0.339438  0.079380  1
  Fe  Fe3  1  0.736537  0.660562  0.420620  1
  Sb  Sb4  1  0.233008  0.756829  0.373365  1
  Sb  Sb5  1  0.733008  0.243171  0.126635  1
  Sb  Sb6  1  0.766992  0.243171  0.626635  1
  Sb  Sb7  1  0.266992  0.756829  0.873365  1
  Cl  Cl8  1  0.661985  0.041637  0.094339  1
  Cl  Cl9  1  0.161985  0.958363  0.405661  1
  Cl  Cl10  1  0.338015  0.958363  0.905661  1
  Cl  Cl11  1  0.838015  0.041637  0.594339  1
  Cl  Cl12  1  0.815737  0.179892  0.295690  1
  Cl  Cl13  1  0.315737  0.820108  0.204310  1
  Cl  Cl14  1  0.184263  0.820108  0.704310  1
  Cl  Cl15  1  0.684263  0.179892  0.795690  1
  Cl  Cl16  1  0.419112  0.258737  0.204552  1
  Cl  Cl17  1  0.919112  0.741263  0.295448  1
  Cl  Cl18  1  0.580888  0.741263  0.795448  1
  Cl  Cl19  1  0.080888  0.258737  0.704552  1
  Cl  Cl20  1  0.381275  0.381856  0.941007  1
  Cl  Cl21  1  0.881275  0.618144  0.558993  1
  Cl  Cl22  1  0.618725  0.618144  0.058993  1
  Cl  Cl23  1  0.118725  0.381856  0.441007  1
  Cl  Cl24  1  0.896559  0.502838  0.877028  1
  Cl  Cl25  1  0.396559  0.497162  0.622972  1
  Cl  Cl26  1  0.103441  0.497162  0.122972  1
  Cl  Cl27  1  0.603441  0.502838  0.377028  1
  Cl  Cl28  1  0.050047  0.182681  0.069235  1
  Cl  Cl29  1  0.550047  0.817319  0.430765  1
  Cl  Cl30  1  0.949953  0.817319  0.930765  1
  Cl  Cl31  1  0.449953  0.182681  0.569235  1
