# generated using pymatgen
data_Tb5(ZnB4)2
_symmetry_space_group_name_H-M   'P 1'
_cell_length_a   7.22028900
_cell_length_b   7.22028900
_cell_length_c   8.47966200
_cell_angle_alpha   90.00000000
_cell_angle_beta   90.00000000
_cell_angle_gamma   90.00000000
_symmetry_Int_Tables_number   1
_chemical_formula_structural   Tb5(ZnB4)2
_chemical_formula_sum   'Tb10 Zn4 B16'
_cell_volume   442.06660030
_cell_formula_units_Z   2
loop_
 _symmetry_equiv_pos_site_id
 _symmetry_equiv_pos_as_xyz
  1  'x, y, z'
loop_
 _atom_site_type_symbol
 _atom_site_label
 _atom_site_symmetry_multiplicity
 _atom_site_fract_x
 _atom_site_fract_y
 _atom_site_fract_z
 _atom_site_occupancy
  Tb  Tb0  1  0.682031  0.182031  0.212237  1
  Tb  Tb1  1  0.317969  0.817969  0.787763  1
  Tb  Tb2  1  0.317969  0.817969  0.212237  1
  Tb  Tb3  1  0.817969  0.682031  0.212237  1
  Tb  Tb4  1  0.817969  0.682031  0.787763  1
  Tb  Tb5  1  0.682031  0.182031  0.787763  1
  Tb  Tb6  1  0.182031  0.317969  0.787763  1
  Tb  Tb7  1  0.182031  0.317969  0.212237  1
  Tb  Tb8  1  0.000000  0.000000  0.500000  1
  Tb  Tb9  1  0.500000  0.500000  0.500000  1
  Zn  Zn10  1  0.117871  0.617871  0.500000  1
  Zn  Zn11  1  0.882129  0.382129  0.500000  1
  Zn  Zn12  1  0.382129  0.117871  0.500000  1
  Zn  Zn13  1  0.617871  0.882129  0.500000  1
  B  B14  1  0.171675  0.040337  0.000000  1
  B  B15  1  0.828325  0.959663  0.000000  1
  B  B16  1  0.959663  0.171675  0.000000  1
  B  B17  1  0.328325  0.540337  0.000000  1
  B  B18  1  0.040337  0.828325  0.000000  1
  B  B19  1  0.671675  0.459663  0.000000  1
  B  B20  1  0.540337  0.671675  0.000000  1
  B  B21  1  0.459663  0.328325  0.000000  1
  B  B22  1  0.090835  0.590835  0.000000  1
  B  B23  1  0.909165  0.409165  0.000000  1
  B  B24  1  0.409165  0.090835  0.000000  1
  B  B25  1  0.590835  0.909165  0.000000  1
  B  B26  1  0.000000  0.000000  0.156146  1
  B  B27  1  0.000000  0.000000  0.843854  1
  B  B28  1  0.500000  0.500000  0.843854  1
  B  B29  1  0.500000  0.500000  0.156146  1
