# generated using pymatgen
data_Dy2Y3Tm(B7W)2
_symmetry_space_group_name_H-M   'P 1'
_cell_length_a   8.15370860
_cell_length_b   8.15370807
_cell_length_c   9.49513417
_cell_angle_alpha   89.84803703
_cell_angle_beta   90.15196985
_cell_angle_gamma   155.54552755
_symmetry_Int_Tables_number   1
_chemical_formula_structural   Dy2Y3Tm(B7W)2
_chemical_formula_sum   'Dy2 Y3 Tm1 B14 W2'
_cell_volume   261.32368552
_cell_formula_units_Z   1
loop_
 _symmetry_equiv_pos_site_id
 _symmetry_equiv_pos_as_xyz
  1  'x, y, z'
loop_
 _atom_site_type_symbol
 _atom_site_label
 _atom_site_symmetry_multiplicity
 _atom_site_fract_x
 _atom_site_fract_y
 _atom_site_fract_z
 _atom_site_occupancy
  Dy  Dy0  1  0.892474  0.107526  0.939620  1
  Dy  Dy1  1  0.107123  0.892877  0.059857  1
  Y  Y2  1  0.754809  0.245191  0.250313  1
  Y  Y3  1  0.246005  0.753995  0.749916  1
  Y  Y4  1  0.107515  0.892485  0.440161  1
  Tm  Tm5  1  0.893590  0.106410  0.558513  1
  B  B6  1  0.544570  0.455430  0.250054  1
  B  B7  1  0.454126  0.545874  0.748431  1
  B  B8  1  0.519022  0.480978  0.907255  1
  B  B9  1  0.480135  0.519865  0.091811  1
  B  B10  1  0.480043  0.519957  0.408640  1
  B  B11  1  0.518730  0.481270  0.591493  1
  B  B12  1  0.634996  0.365004  0.852002  1
  B  B13  1  0.364837  0.635163  0.147238  1
  B  B14  1  0.727319  0.272681  0.967136  1
  B  B15  1  0.272308  0.727692  0.033061  1
  B  B16  1  0.273602  0.726398  0.468430  1
  B  B17  1  0.728713  0.271287  0.533989  1
  B  B18  1  0.635276  0.364724  0.648186  1
  B  B19  1  0.365347  0.634653  0.354119  1
  W  W20  1  0.052700  0.947300  0.749449  1
  W  W21  1  0.946758  0.053242  0.250328  1
