# generated using pymatgen
data_LiNd8CdIr2
_symmetry_space_group_name_H-M   'P 1'
_cell_length_a   9.98833267
_cell_length_b   9.98833310
_cell_length_c   9.96179500
_cell_angle_alpha   60.08784772
_cell_angle_beta   60.08784630
_cell_angle_gamma   60.11818485
_symmetry_Int_Tables_number   1
_chemical_formula_structural   LiNd8CdIr2
_chemical_formula_sum   'Li2 Nd16 Cd2 Ir4'
_cell_volume   704.32229394
_cell_formula_units_Z   2
loop_
 _symmetry_equiv_pos_site_id
 _symmetry_equiv_pos_as_xyz
  1  'x, y, z'
loop_
 _atom_site_type_symbol
 _atom_site_label
 _atom_site_symmetry_multiplicity
 _atom_site_fract_x
 _atom_site_fract_y
 _atom_site_fract_z
 _atom_site_occupancy
  Li  Li0  1  0.570994  0.570994  0.575799  1
  Li  Li1  1  0.570994  0.570994  0.282213  1
  Nd  Nd2  1  0.348127  0.348127  0.349392  1
  Nd  Nd3  1  0.348127  0.348127  0.954355  1
  Nd  Nd4  1  0.346878  0.959279  0.346921  1
  Nd  Nd5  1  0.959279  0.346878  0.346921  1
  Nd  Nd6  1  0.811410  0.188905  0.189907  1
  Nd  Nd7  1  0.188905  0.811410  0.809778  1
  Nd  Nd8  1  0.188905  0.811410  0.189907  1
  Nd  Nd9  1  0.811410  0.188905  0.809778  1
  Nd  Nd10  1  0.191877  0.191877  0.808123  1
  Nd  Nd11  1  0.814809  0.814809  0.185191  1
  Nd  Nd12  1  0.939820  0.561232  0.561638  1
  Nd  Nd13  1  0.561232  0.939820  0.937309  1
  Nd  Nd14  1  0.561232  0.939820  0.561638  1
  Nd  Nd15  1  0.939820  0.561232  0.937309  1
  Nd  Nd16  1  0.561253  0.561253  0.938747  1
  Nd  Nd17  1  0.938789  0.938789  0.561211  1
  Cd  Cd18  1  0.582991  0.257829  0.579590  1
  Cd  Cd19  1  0.257829  0.582991  0.579590  1
  Ir  Ir20  1  0.142742  0.142742  0.139849  1
  Ir  Ir21  1  0.142742  0.142742  0.574666  1
  Ir  Ir22  1  0.144200  0.575633  0.140083  1
  Ir  Ir23  1  0.575633  0.144200  0.140083  1
