# generated using pymatgen
data_Zr5HgBi2Pb
_symmetry_space_group_name_H-M   'P 1'
_cell_length_a   8.95224791
_cell_length_b   8.95224811
_cell_length_c   6.03921900
_cell_angle_alpha   90.00000000
_cell_angle_beta   90.00000000
_cell_angle_gamma   119.94039110
_symmetry_Int_Tables_number   1
_chemical_formula_structural   Zr5HgBi2Pb
_chemical_formula_sum   'Zr10 Hg2 Bi4 Pb2'
_cell_volume   419.40747843
_cell_formula_units_Z   2
loop_
 _symmetry_equiv_pos_site_id
 _symmetry_equiv_pos_as_xyz
  1  'x, y, z'
loop_
 _atom_site_type_symbol
 _atom_site_label
 _atom_site_symmetry_multiplicity
 _atom_site_fract_x
 _atom_site_fract_y
 _atom_site_fract_z
 _atom_site_occupancy
  Zr  Zr0  1  0.666894  0.332928  0.001104  1
  Zr  Zr1  1  0.332928  0.666894  0.001104  1
  Zr  Zr2  1  0.332928  0.666894  0.498896  1
  Zr  Zr3  1  0.666894  0.332928  0.498896  1
  Zr  Zr4  1  0.721837  0.721837  0.750000  1
  Zr  Zr5  1  0.278107  0.000127  0.750000  1
  Zr  Zr6  1  0.000127  0.278107  0.750000  1
  Zr  Zr7  1  0.280204  0.280204  0.250000  1
  Zr  Zr8  1  0.719635  0.001038  0.250000  1
  Zr  Zr9  1  0.001038  0.719635  0.250000  1
  Hg  Hg10  1  0.000343  0.000343  0.002523  1
  Hg  Hg11  1  0.000343  0.000343  0.497477  1
  Bi  Bi12  1  0.382400  0.382400  0.750000  1
  Bi  Bi13  1  0.617332  0.000372  0.750000  1
  Bi  Bi14  1  0.000372  0.617332  0.750000  1
  Bi  Bi15  1  0.617448  0.617448  0.250000  1
  Pb  Pb16  1  0.380991  0.000181  0.250000  1
  Pb  Pb17  1  0.000181  0.380991  0.250000  1
