# generated using pymatgen
data_BiIr2Rh2Pb3O14
_symmetry_space_group_name_H-M   'P 1'
_cell_length_a   7.35172594
_cell_length_b   7.34554547
_cell_length_c   7.33814349
_cell_angle_alpha   59.96662219
_cell_angle_beta   60.00017746
_cell_angle_gamma   60.02781266
_symmetry_Int_Tables_number   1
_chemical_formula_structural   BiIr2Rh2Pb3O14
_chemical_formula_sum   'Bi1 Ir2 Rh2 Pb3 O14'
_cell_volume   280.19903166
_cell_formula_units_Z   1
loop_
 _symmetry_equiv_pos_site_id
 _symmetry_equiv_pos_as_xyz
  1  'x, y, z'
loop_
 _atom_site_type_symbol
 _atom_site_label
 _atom_site_symmetry_multiplicity
 _atom_site_fract_x
 _atom_site_fract_y
 _atom_site_fract_z
 _atom_site_occupancy
  Bi  Bi0  1  0.625000  0.125000  0.125000  1
  Ir  Ir1  1  0.125000  0.625000  0.625000  1
  Ir  Ir2  1  0.625000  0.625000  0.125000  1
  Rh  Rh3  1  0.625000  0.125000  0.625000  1
  Rh  Rh4  1  0.625000  0.625000  0.625000  1
  Pb  Pb5  1  0.125000  0.625000  0.125000  1
  Pb  Pb6  1  0.125000  0.125000  0.625000  1
  Pb  Pb7  1  0.125000  0.125000  0.125000  1
  O  O8  1  0.706159  0.704098  0.291898  1
  O  O9  1  0.291985  0.297842  0.706208  1
  O  O10  1  0.707088  0.292796  0.707320  1
  O  O11  1  0.296655  0.703459  0.296427  1
  O  O12  1  0.291985  0.703965  0.706208  1
  O  O13  1  0.706159  0.297844  0.291898  1
  O  O14  1  0.543841  0.545902  0.958102  1
  O  O15  1  0.958015  0.952158  0.543792  1
  O  O16  1  0.542912  0.957204  0.542680  1
  O  O17  1  0.953345  0.546541  0.953573  1
  O  O18  1  0.958015  0.546035  0.543792  1
  O  O19  1  0.543841  0.952156  0.958102  1
  O  O20  1  0.250357  0.249885  0.249873  1
  O  O21  1  0.999643  0.000115  0.000127  1
