# generated using pymatgen
data_Li2DyYB28
_symmetry_space_group_name_H-M   'P 1'
_cell_length_a   7.25819362
_cell_length_b   7.25819451
_cell_length_c   7.25819332
_cell_angle_alpha   132.24824208
_cell_angle_beta   110.89232889
_cell_angle_gamma   88.34065837
_symmetry_Int_Tables_number   1
_chemical_formula_structural   Li2DyYB28
_chemical_formula_sum   'Li2 Dy1 Y1 B28'
_cell_volume   251.85144403
_cell_formula_units_Z   1
loop_
 _symmetry_equiv_pos_site_id
 _symmetry_equiv_pos_as_xyz
  1  'x, y, z'
loop_
 _atom_site_type_symbol
 _atom_site_label
 _atom_site_symmetry_multiplicity
 _atom_site_fract_x
 _atom_site_fract_y
 _atom_site_fract_z
 _atom_site_occupancy
  Li  Li0  1  0.999988  0.999976  0.499964  1
  Li  Li1  1  0.999988  0.500024  0.000012  1
  Dy  Dy2  1  0.379605  0.750000  0.629605  1
  Y  Y3  1  0.620343  0.250000  0.370343  1
  B  B4  1  0.638553  0.665907  0.972647  1
  B  B5  1  0.361445  0.334065  0.027379  1
  B  B6  1  0.193314  0.165935  0.027379  1
  B  B7  1  0.806740  0.834093  0.972647  1
  B  B8  1  0.778005  0.149562  0.628443  1
  B  B9  1  0.221864  0.850309  0.371554  1
  B  B10  1  0.021245  0.649691  0.371554  1
  B  B11  1  0.978881  0.350438  0.628443  1
  B  B12  1  0.915740  0.089116  0.826625  1
  B  B13  1  0.084284  0.910919  0.173365  1
  B  B14  1  0.762446  0.589081  0.173365  1
  B  B15  1  0.237509  0.410884  0.826625  1
  B  B16  1  0.398559  0.400454  0.681516  1
  B  B17  1  0.601362  0.282757  0.001696  1
  B  B18  1  0.218939  0.900334  0.001696  1
  B  B19  1  0.781062  0.782957  0.681516  1
  B  B20  1  0.601362  0.599666  0.318605  1
  B  B21  1  0.398559  0.717043  0.998105  1
  B  B22  1  0.781062  0.099546  0.998105  1
  B  B23  1  0.218939  0.217243  0.318605  1
  B  B24  1  0.033563  0.829946  0.703271  1
  B  B25  1  0.966565  0.669890  0.796539  1
  B  B26  1  0.626649  0.329974  0.796539  1
  B  B27  1  0.373326  0.169709  0.703271  1
  B  B28  1  0.966565  0.170026  0.296677  1
  B  B29  1  0.033563  0.330291  0.203617  1
  B  B30  1  0.373326  0.670054  0.203617  1
  B  B31  1  0.626649  0.830110  0.296677  1
