# generated using pymatgen
data_HoEr3(IrRu3)2
_symmetry_space_group_name_H-M   'P 1'
_cell_length_a   5.24463700
_cell_length_b   5.24463599
_cell_length_c   8.94303300
_cell_angle_alpha   90.00000000
_cell_angle_beta   90.00000000
_cell_angle_gamma   120.00000005
_symmetry_Int_Tables_number   1
_chemical_formula_structural   HoEr3(IrRu3)2
_chemical_formula_sum   'Ho1 Er3 Ir2 Ru6'
_cell_volume   213.03268950
_cell_formula_units_Z   1
loop_
 _symmetry_equiv_pos_site_id
 _symmetry_equiv_pos_as_xyz
  1  'x, y, z'
loop_
 _atom_site_type_symbol
 _atom_site_label
 _atom_site_symmetry_multiplicity
 _atom_site_fract_x
 _atom_site_fract_y
 _atom_site_fract_z
 _atom_site_occupancy
  Ho  Ho0  1  0.333333  0.666667  0.430694  1
  Er  Er1  1  0.666667  0.333333  0.569352  1
  Er  Er2  1  0.666667  0.333333  0.930678  1
  Er  Er3  1  0.333333  0.666667  0.069311  1
  Ir  Ir4  1  0.000000  0.000000  0.000000  1
  Ir  Ir5  1  0.000000  0.000000  0.500035  1
  Ru  Ru6  1  0.170357  0.340714  0.750030  1
  Ru  Ru7  1  0.170357  0.829643  0.750030  1
  Ru  Ru8  1  0.340737  0.170368  0.249946  1
  Ru  Ru9  1  0.829632  0.659263  0.249946  1
  Ru  Ru10  1  0.659286  0.829643  0.750030  1
  Ru  Ru11  1  0.829632  0.170368  0.249946  1
