# generated using pymatgen
data_NaTb2Dy4RhI12
_symmetry_space_group_name_H-M   'P 1'
_cell_length_a   9.73521326
_cell_length_b   9.78548316
_cell_length_c   9.86896170
_cell_angle_alpha   107.64610437
_cell_angle_beta   106.84240017
_cell_angle_gamma   106.40451412
_symmetry_Int_Tables_number   1
_chemical_formula_structural   NaTb2Dy4RhI12
_chemical_formula_sum   'Na1 Tb2 Dy4 Rh1 I12'
_cell_volume   783.65663706
_cell_formula_units_Z   1
loop_
 _symmetry_equiv_pos_site_id
 _symmetry_equiv_pos_as_xyz
  1  'x, y, z'
loop_
 _atom_site_type_symbol
 _atom_site_label
 _atom_site_symmetry_multiplicity
 _atom_site_fract_x
 _atom_site_fract_y
 _atom_site_fract_z
 _atom_site_occupancy
  Na  Na0  1  0.499970  0.499967  0.499972  1
  Tb  Tb1  1  0.028318  0.301761  0.098010  1
  Tb  Tb2  1  0.300177  0.099649  0.027302  1
  Dy  Dy3  1  0.898854  0.972573  0.691791  1
  Dy  Dy4  1  0.971332  0.698981  0.902299  1
  Dy  Dy5  1  0.700612  0.900140  0.972482  1
  Dy  Dy6  1  0.100725  0.027087  0.307999  1
  Rh  Rh7  1  0.999880  0.999882  0.999906  1
  I  I8  1  0.549014  0.857988  0.628901  1
  I  I9  1  0.858526  0.628042  0.550262  1
  I  I10  1  0.627188  0.548672  0.857490  1
  I  I11  1  0.451036  0.142040  0.372003  1
  I  I12  1  0.141864  0.371923  0.450749  1
  I  I13  1  0.373648  0.452412  0.142892  1
  I  I14  1  0.680165  0.223073  0.073382  1
  I  I15  1  0.223945  0.073382  0.679563  1
  I  I16  1  0.073331  0.679687  0.222946  1
  I  I17  1  0.319381  0.775592  0.926184  1
  I  I18  1  0.775629  0.926432  0.319659  1
  I  I19  1  0.926404  0.320718  0.776207  1
