# generated using pymatgen
data_Nd3Y(GePd14)2
_symmetry_space_group_name_H-M   'P 1'
_cell_length_a   8.98138200
_cell_length_b   8.98138200
_cell_length_c   7.20173500
_cell_angle_alpha   90.00000000
_cell_angle_beta   90.00000000
_cell_angle_gamma   90.00000000
_symmetry_Int_Tables_number   1
_chemical_formula_structural   Nd3Y(GePd14)2
_chemical_formula_sum   'Nd3 Y1 Ge2 Pd28'
_cell_volume   580.92955710
_cell_formula_units_Z   1
loop_
 _symmetry_equiv_pos_site_id
 _symmetry_equiv_pos_as_xyz
  1  'x, y, z'
loop_
 _atom_site_type_symbol
 _atom_site_label
 _atom_site_symmetry_multiplicity
 _atom_site_fract_x
 _atom_site_fract_y
 _atom_site_fract_z
 _atom_site_occupancy
  Nd  Nd0  1  0.500000  0.000000  0.936313  1
  Nd  Nd1  1  0.000000  0.500000  0.063687  1
  Nd  Nd2  1  0.500000  0.500000  0.500000  1
  Y  Y3  1  0.000000  0.000000  0.500000  1
  Ge  Ge4  1  0.500000  0.000000  0.449485  1
  Ge  Ge5  1  0.000000  0.500000  0.550515  1
  Pd  Pd6  1  0.330235  0.830897  0.621146  1
  Pd  Pd7  1  0.330235  0.169103  0.621146  1
  Pd  Pd8  1  0.669765  0.830897  0.621146  1
  Pd  Pd9  1  0.669765  0.169103  0.621146  1
  Pd  Pd10  1  0.169103  0.669765  0.378854  1
  Pd  Pd11  1  0.169103  0.330235  0.378854  1
  Pd  Pd12  1  0.830897  0.669765  0.378854  1
  Pd  Pd13  1  0.830897  0.330235  0.378854  1
  Pd  Pd14  1  0.500000  0.766670  0.253220  1
  Pd  Pd15  1  0.500000  0.233330  0.253220  1
  Pd  Pd16  1  0.265543  0.000000  0.254412  1
  Pd  Pd17  1  0.734457  0.000000  0.254412  1
  Pd  Pd18  1  0.000000  0.734457  0.745588  1
  Pd  Pd19  1  0.000000  0.265543  0.745588  1
  Pd  Pd20  1  0.233330  0.500000  0.746780  1
  Pd  Pd21  1  0.766670  0.500000  0.746780  1
  Pd  Pd22  1  0.500000  0.348844  0.856839  1
  Pd  Pd23  1  0.500000  0.651156  0.856839  1
  Pd  Pd24  1  0.849532  0.000000  0.855468  1
  Pd  Pd25  1  0.150468  0.000000  0.855468  1
  Pd  Pd26  1  0.000000  0.150468  0.144532  1
  Pd  Pd27  1  0.000000  0.849532  0.144532  1
  Pd  Pd28  1  0.651156  0.500000  0.143161  1
  Pd  Pd29  1  0.348844  0.500000  0.143161  1
  Pd  Pd30  1  0.249797  0.750203  0.000000  1
  Pd  Pd31  1  0.249797  0.249797  0.000000  1
  Pd  Pd32  1  0.750203  0.750203  0.000000  1
  Pd  Pd33  1  0.750203  0.249797  0.000000  1
