# generated using pymatgen
data_Dy5Y5InPb5
_symmetry_space_group_name_H-M   'P 1'
_cell_length_a   9.06204925
_cell_length_b   9.06183863
_cell_length_c   6.69355100
_cell_angle_alpha   90.00000000
_cell_angle_beta   90.00000000
_cell_angle_gamma   120.02751915
_symmetry_Int_Tables_number   1
_chemical_formula_structural   Dy5Y5InPb5
_chemical_formula_sum   'Dy5 Y5 In1 Pb5'
_cell_volume   475.89315004
_cell_formula_units_Z   1
loop_
 _symmetry_equiv_pos_site_id
 _symmetry_equiv_pos_as_xyz
  1  'x, y, z'
loop_
 _atom_site_type_symbol
 _atom_site_label
 _atom_site_symmetry_multiplicity
 _atom_site_fract_x
 _atom_site_fract_y
 _atom_site_fract_z
 _atom_site_occupancy
  Dy  Dy0  1  0.333782  0.664030  0.001820  1
  Dy  Dy1  1  0.664006  0.333775  0.001825  1
  Dy  Dy2  1  0.761866  0.999766  0.750000  1
  Dy  Dy3  1  0.333782  0.664030  0.498180  1
  Dy  Dy4  1  0.664006  0.333775  0.498175  1
  Y  Y5  1  0.238113  0.238127  0.750000  1
  Y  Y6  1  0.239376  0.004283  0.250000  1
  Y  Y7  1  0.999724  0.762059  0.750000  1
  Y  Y8  1  0.760218  0.760323  0.250000  1
  Y  Y9  1  0.004194  0.239215  0.250000  1
  In  In10  1  0.396448  0.396404  0.250000  1
  Pb  Pb11  1  0.998943  0.394802  0.750000  1
  Pb  Pb12  1  0.605650  0.000239  0.250000  1
  Pb  Pb13  1  0.604519  0.604601  0.750000  1
  Pb  Pb14  1  0.395097  0.999006  0.750000  1
  Pb  Pb15  1  0.000276  0.605566  0.250000  1
