# generated using pymatgen
data_Tm2Zr7(In2Ir)7
_symmetry_space_group_name_H-M   'P 1'
_cell_length_a   9.73342001
_cell_length_b   9.71551492
_cell_length_c   9.73342000
_cell_angle_alpha   59.93901739
_cell_angle_beta   60.00000004
_cell_angle_gamma   59.93901935
_symmetry_Int_Tables_number   1
_chemical_formula_structural   Tm2Zr7(In2Ir)7
_chemical_formula_sum   'Tm2 Zr7 In14 Ir7'
_cell_volume   650.25070616
_cell_formula_units_Z   1
loop_
 _symmetry_equiv_pos_site_id
 _symmetry_equiv_pos_as_xyz
  1  'x, y, z'
loop_
 _atom_site_type_symbol
 _atom_site_label
 _atom_site_symmetry_multiplicity
 _atom_site_fract_x
 _atom_site_fract_y
 _atom_site_fract_z
 _atom_site_occupancy
  Tm  Tm0  1  0.127363  0.617913  0.127363  1
  Tm  Tm1  1  0.497038  0.508885  0.497038  1
  Zr  Zr2  1  0.369988  0.873624  0.878193  1
  Zr  Zr3  1  0.878193  0.873624  0.878193  1
  Zr  Zr4  1  0.629018  0.123835  0.123574  1
  Zr  Zr5  1  0.878193  0.873624  0.369988  1
  Zr  Zr6  1  0.123574  0.123835  0.123574  1
  Zr  Zr7  1  0.876225  0.371324  0.876225  1
  Zr  Zr8  1  0.123574  0.123835  0.629018  1
  In  In9  1  0.498846  0.851680  0.150626  1
  In  In10  1  0.498846  0.851680  0.498846  1
  In  In11  1  0.500926  0.156194  0.500926  1
  In  In12  1  0.502012  0.500446  0.843585  1
  In  In13  1  0.153957  0.500446  0.502012  1
  In  In14  1  0.841955  0.156194  0.500926  1
  In  In15  1  0.150626  0.851680  0.498846  1
  In  In16  1  0.500926  0.156194  0.841955  1
  In  In17  1  0.153957  0.500446  0.843585  1
  In  In18  1  0.502012  0.500446  0.153957  1
  In  In19  1  0.843585  0.500446  0.502012  1
  In  In20  1  0.843585  0.500446  0.153957  1
  In  In21  1  0.255077  0.234769  0.255077  1
  In  In22  1  0.749461  0.751617  0.749461  1
  Ir  Ir23  1  0.772552  0.782170  0.222639  1
  Ir  Ir24  1  0.001008  0.996973  0.001008  1
  Ir  Ir25  1  0.222639  0.782170  0.222639  1
  Ir  Ir26  1  0.222639  0.782170  0.772552  1
  Ir  Ir27  1  0.217861  0.217778  0.782181  1
  Ir  Ir28  1  0.782181  0.217778  0.782181  1
  Ir  Ir29  1  0.782181  0.217778  0.217861  1
