# generated using pymatgen
data_SrCa3(CdSb2)2
_symmetry_space_group_name_H-M   'P 1'
_cell_length_a   4.69214800
_cell_length_b   7.33081900
_cell_length_c   18.08087900
_cell_angle_alpha   90.00000000
_cell_angle_beta   90.00000000
_cell_angle_gamma   90.00000000
_symmetry_Int_Tables_number   1
_chemical_formula_structural   SrCa3(CdSb2)2
_chemical_formula_sum   'Sr2 Ca6 Cd4 Sb8'
_cell_volume   621.93319700
_cell_formula_units_Z   2
loop_
 _symmetry_equiv_pos_site_id
 _symmetry_equiv_pos_as_xyz
  1  'x, y, z'
loop_
 _atom_site_type_symbol
 _atom_site_label
 _atom_site_symmetry_multiplicity
 _atom_site_fract_x
 _atom_site_fract_y
 _atom_site_fract_z
 _atom_site_occupancy
  Sr  Sr0  1  0.750000  0.771222  0.446925  1
  Sr  Sr1  1  0.250000  0.728778  0.946925  1
  Ca  Ca2  1  0.250000  0.535681  0.727106  1
  Ca  Ca3  1  0.750000  0.964319  0.227106  1
  Ca  Ca4  1  0.750000  0.272857  0.053825  1
  Ca  Ca5  1  0.250000  0.227143  0.553825  1
  Ca  Ca6  1  0.750000  0.463001  0.271605  1
  Ca  Ca7  1  0.250000  0.036999  0.771605  1
  Cd  Cd8  1  0.250000  0.637362  0.151535  1
  Cd  Cd9  1  0.750000  0.862638  0.651535  1
  Cd  Cd10  1  0.750000  0.362919  0.849058  1
  Cd  Cd11  1  0.250000  0.137081  0.349058  1
  Sb  Sb12  1  0.750000  0.255807  0.684076  1
  Sb  Sb13  1  0.250000  0.744007  0.312125  1
  Sb  Sb14  1  0.250000  0.244193  0.184076  1
  Sb  Sb15  1  0.750000  0.757049  0.075321  1
  Sb  Sb16  1  0.750000  0.755993  0.812125  1
  Sb  Sb17  1  0.250000  0.239126  0.928424  1
  Sb  Sb18  1  0.750000  0.260874  0.428424  1
  Sb  Sb19  1  0.250000  0.742951  0.575321  1
