# generated using pymatgen
data_Li8Sm8PPb7
_symmetry_space_group_name_H-M   'P 1'
_cell_length_a   9.48050700
_cell_length_b   9.48050820
_cell_length_c   7.49960700
_cell_angle_alpha   90.00000000
_cell_angle_beta   90.00000000
_cell_angle_gamma   119.99999930
_symmetry_Int_Tables_number   1
_chemical_formula_structural   Li8Sm8PPb7
_chemical_formula_sum   'Li8 Sm8 P1 Pb7'
_cell_volume   583.75729651
_cell_formula_units_Z   1
loop_
 _symmetry_equiv_pos_site_id
 _symmetry_equiv_pos_as_xyz
  1  'x, y, z'
loop_
 _atom_site_type_symbol
 _atom_site_label
 _atom_site_symmetry_multiplicity
 _atom_site_fract_x
 _atom_site_fract_y
 _atom_site_fract_z
 _atom_site_occupancy
  Li  Li0  1  0.831575  0.168425  0.708613  1
  Li  Li1  1  0.831575  0.663151  0.708613  1
  Li  Li2  1  0.336849  0.168425  0.708613  1
  Li  Li3  1  0.175231  0.824769  0.211181  1
  Li  Li4  1  0.175231  0.350462  0.211181  1
  Li  Li5  1  0.649538  0.824769  0.211181  1
  Li  Li6  1  0.666667  0.333333  0.329848  1
  Li  Li7  1  0.333333  0.666667  0.842813  1
  Sm  Sm8  1  0.482959  0.517041  0.500177  1
  Sm  Sm9  1  0.482959  0.965920  0.500177  1
  Sm  Sm10  1  0.034080  0.517041  0.500177  1
  Sm  Sm11  1  0.511373  0.488627  0.004301  1
  Sm  Sm12  1  0.511373  0.022745  0.004301  1
  Sm  Sm13  1  0.977255  0.488627  0.004301  1
  Sm  Sm14  1  0.000000  0.000000  0.501685  1
  Sm  Sm15  1  0.000000  0.000000  0.003858  1
  P  P16  1  0.333333  0.666667  0.249334  1
  Pb  Pb17  1  0.833127  0.166873  0.269986  1
  Pb  Pb18  1  0.833127  0.666252  0.269986  1
  Pb  Pb19  1  0.333748  0.166873  0.269986  1
  Pb  Pb20  1  0.167216  0.832784  0.769742  1
  Pb  Pb21  1  0.167216  0.334433  0.769742  1
  Pb  Pb22  1  0.665567  0.832784  0.769742  1
  Pb  Pb23  1  0.666667  0.333333  0.738478  1
