# generated using pymatgen
data_Ho12Si12TcRh3
_symmetry_space_group_name_H-M   'P 1'
_cell_length_a   4.21009400
_cell_length_b   10.72295445
_cell_length_c   12.33866208
_cell_angle_alpha   90.08066289
_cell_angle_beta   90.00000000
_cell_angle_gamma   90.00000000
_symmetry_Int_Tables_number   1
_chemical_formula_structural   Ho12Si12TcRh3
_chemical_formula_sum   'Ho12 Si12 Tc1 Rh3'
_cell_volume   557.02398203
_cell_formula_units_Z   1
loop_
 _symmetry_equiv_pos_site_id
 _symmetry_equiv_pos_as_xyz
  1  'x, y, z'
loop_
 _atom_site_type_symbol
 _atom_site_label
 _atom_site_symmetry_multiplicity
 _atom_site_fract_x
 _atom_site_fract_y
 _atom_site_fract_z
 _atom_site_occupancy
  Ho  Ho0  1  0.250000  0.878163  0.020315  1
  Ho  Ho1  1  0.250000  0.620559  0.521372  1
  Ho  Ho2  1  0.750000  0.119758  0.980005  1
  Ho  Ho3  1  0.750000  0.378375  0.480425  1
  Ho  Ho4  1  0.250000  0.921901  0.603828  1
  Ho  Ho5  1  0.250000  0.579512  0.105556  1
  Ho  Ho6  1  0.750000  0.078941  0.394616  1
  Ho  Ho7  1  0.750000  0.421030  0.895465  1
  Ho  Ho8  1  0.250000  0.665176  0.798988  1
  Ho  Ho9  1  0.250000  0.838960  0.300173  1
  Ho  Ho10  1  0.750000  0.339765  0.198680  1
  Ho  Ho11  1  0.750000  0.159565  0.699908  1
  Si  Si12  1  0.250000  0.013232  0.822934  1
  Si  Si13  1  0.250000  0.485471  0.322856  1
  Si  Si14  1  0.750000  0.985917  0.177679  1
  Si  Si15  1  0.750000  0.511845  0.679585  1
  Si  Si16  1  0.250000  0.248456  0.841683  1
  Si  Si17  1  0.250000  0.251697  0.341434  1
  Si  Si18  1  0.750000  0.751787  0.158140  1
  Si  Si19  1  0.750000  0.751106  0.656829  1
  Si  Si20  1  0.250000  0.200568  0.542280  1
  Si  Si21  1  0.250000  0.298876  0.041979  1
  Si  Si22  1  0.750000  0.801144  0.457594  1
  Si  Si23  1  0.750000  0.697553  0.958003  1
  Tc  Tc24  1  0.250000  0.392318  0.680490  1
  Rh  Rh25  1  0.250000  0.108825  0.181602  1
  Rh  Rh26  1  0.750000  0.609951  0.318680  1
  Rh  Rh27  1  0.750000  0.889548  0.818899  1
