# generated using pymatgen
data_Rb4NpUI12
_symmetry_space_group_name_H-M   'P 1'
_cell_length_a   8.39398500
_cell_length_b   8.39398500
_cell_length_c   12.47406400
_cell_angle_alpha   90.00000000
_cell_angle_beta   90.00000000
_cell_angle_gamma   90.00000000
_symmetry_Int_Tables_number   1
_chemical_formula_structural   Rb4NpUI12
_chemical_formula_sum   'Rb4 Np1 U1 I12'
_cell_volume   878.90987804
_cell_formula_units_Z   1
loop_
 _symmetry_equiv_pos_site_id
 _symmetry_equiv_pos_as_xyz
  1  'x, y, z'
loop_
 _atom_site_type_symbol
 _atom_site_label
 _atom_site_symmetry_multiplicity
 _atom_site_fract_x
 _atom_site_fract_y
 _atom_site_fract_z
 _atom_site_occupancy
  Rb  Rb0  1  0.500000  0.000000  0.777810  1
  Rb  Rb1  1  0.500000  0.000000  0.222190  1
  Rb  Rb2  1  0.000000  0.500000  0.222190  1
  Rb  Rb3  1  0.000000  0.500000  0.777810  1
  Np  Np4  1  0.000000  0.000000  0.000000  1
  U  U5  1  0.500000  0.500000  0.500000  1
  I  I6  1  0.744650  0.255296  0.000000  1
  I  I7  1  0.255350  0.744704  0.000000  1
  I  I8  1  0.500000  0.500000  0.259026  1
  I  I9  1  0.322008  0.192878  0.500000  1
  I  I10  1  0.255296  0.255350  0.000000  1
  I  I11  1  0.807122  0.322008  0.500000  1
  I  I12  1  0.000000  0.000000  0.244106  1
  I  I13  1  0.677992  0.807122  0.500000  1
  I  I14  1  0.192878  0.677992  0.500000  1
  I  I15  1  0.500000  0.500000  0.740974  1
  I  I16  1  0.744704  0.744650  0.000000  1
  I  I17  1  0.000000  0.000000  0.755894  1
