# generated using pymatgen
data_Y3Er7(SiBi2)2
_symmetry_space_group_name_H-M   'P 1'
_cell_length_a   8.01361573
_cell_length_b   9.12241000
_cell_length_c   12.05286001
_cell_angle_alpha   90.00000000
_cell_angle_beta   90.05712669
_cell_angle_gamma   90.00000000
_symmetry_Int_Tables_number   1
_chemical_formula_structural   Y3Er7(SiBi2)2
_chemical_formula_sum   'Y6 Er14 Si4 Bi8'
_cell_volume   881.10567196
_cell_formula_units_Z   2
loop_
 _symmetry_equiv_pos_site_id
 _symmetry_equiv_pos_as_xyz
  1  'x, y, z'
loop_
 _atom_site_type_symbol
 _atom_site_label
 _atom_site_symmetry_multiplicity
 _atom_site_fract_x
 _atom_site_fract_y
 _atom_site_fract_z
 _atom_site_occupancy
  Y  Y0  1  0.659776  0.750000  0.711880  1
  Y  Y1  1  0.340224  0.250000  0.288120  1
  Y  Y2  1  0.160349  0.250000  0.787119  1
  Y  Y3  1  0.839651  0.750000  0.212881  1
  Y  Y4  1  0.135158  0.750000  0.794112  1
  Y  Y5  1  0.864842  0.250000  0.205888  1
  Er  Er6  1  0.636003  0.250000  0.705779  1
  Er  Er7  1  0.363997  0.750000  0.294221  1
  Er  Er8  1  0.540645  0.750000  0.000874  1
  Er  Er9  1  0.459355  0.250000  0.999126  1
  Er  Er10  1  0.041127  0.250000  0.499077  1
  Er  Er11  1  0.958873  0.750000  0.500923  1
  Er  Er12  1  0.820205  0.446783  0.935544  1
  Er  Er13  1  0.179795  0.553217  0.064456  1
  Er  Er14  1  0.320165  0.553043  0.563497  1
  Er  Er15  1  0.179795  0.946783  0.064456  1
  Er  Er16  1  0.679835  0.446957  0.436503  1
  Er  Er17  1  0.820205  0.053217  0.935544  1
  Er  Er18  1  0.679835  0.053043  0.436503  1
  Er  Er19  1  0.320165  0.946957  0.563497  1
  Si  Si20  1  0.914211  0.750000  0.979556  1
  Si  Si21  1  0.085789  0.250000  0.020444  1
  Si  Si22  1  0.415113  0.250000  0.521851  1
  Si  Si23  1  0.584887  0.750000  0.478149  1
  Bi  Bi24  1  0.927555  0.010633  0.671538  1
  Bi  Bi25  1  0.072445  0.989367  0.328462  1
  Bi  Bi26  1  0.429179  0.990445  0.827624  1
  Bi  Bi27  1  0.072445  0.510633  0.328462  1
  Bi  Bi28  1  0.570821  0.009555  0.172376  1
  Bi  Bi29  1  0.927555  0.489367  0.671538  1
  Bi  Bi30  1  0.570821  0.490445  0.172376  1
  Bi  Bi31  1  0.429179  0.509555  0.827624  1
