# generated using pymatgen
data_La10TcIr2Os
_symmetry_space_group_name_H-M   'P 1'
_cell_length_a   9.12810236
_cell_length_b   9.15775456
_cell_length_c   7.46245640
_cell_angle_alpha   84.73522077
_cell_angle_beta   84.82269106
_cell_angle_gamma   43.24949494
_symmetry_Int_Tables_number   1
_chemical_formula_structural   La10TcIr2Os
_chemical_formula_sum   'La10 Tc1 Ir2 Os1'
_cell_volume   425.36537036
_cell_formula_units_Z   1
loop_
 _symmetry_equiv_pos_site_id
 _symmetry_equiv_pos_as_xyz
  1  'x, y, z'
loop_
 _atom_site_type_symbol
 _atom_site_label
 _atom_site_symmetry_multiplicity
 _atom_site_fract_x
 _atom_site_fract_y
 _atom_site_fract_z
 _atom_site_occupancy
  La  La0  1  0.016544  0.801082  0.907555  1
  La  La1  1  0.201229  0.982294  0.594569  1
  La  La2  1  0.996390  0.190407  0.087530  1
  La  La3  1  0.807935  0.006978  0.410958  1
  La  La4  1  0.354136  0.213096  0.818262  1
  La  La5  1  0.786244  0.647236  0.681041  1
  La  La6  1  0.638398  0.786371  0.177942  1
  La  La7  1  0.211782  0.362195  0.322010  1
  La  La8  1  0.573576  0.426160  0.749192  1
  La  La9  1  0.431839  0.568235  0.250117  1
  Tc  Tc10  1  0.385496  0.831629  0.926108  1
  Ir  Ir11  1  0.824434  0.403097  0.420514  1
  Ir  Ir12  1  0.596067  0.176838  0.079611  1
  Os  Os13  1  0.175929  0.604384  0.574591  1
