# generated using pymatgen
data_Tm10GaSi3Bi4
_symmetry_space_group_name_H-M   'P 1'
_cell_length_a   8.55881797
_cell_length_b   8.55881880
_cell_length_c   7.86354532
_cell_angle_alpha   89.82776406
_cell_angle_beta   89.82776498
_cell_angle_gamma   125.42036719
_symmetry_Int_Tables_number   1
_chemical_formula_structural   Tm10GaSi3Bi4
_chemical_formula_sum   'Tm10 Ga1 Si3 Bi4'
_cell_volume   469.41031623
_cell_formula_units_Z   1
loop_
 _symmetry_equiv_pos_site_id
 _symmetry_equiv_pos_as_xyz
  1  'x, y, z'
loop_
 _atom_site_type_symbol
 _atom_site_label
 _atom_site_symmetry_multiplicity
 _atom_site_fract_x
 _atom_site_fract_y
 _atom_site_fract_z
 _atom_site_occupancy
  Tm  Tm0  1  0.544404  0.787577  0.166487  1
  Tm  Tm1  1  0.284816  0.044457  0.335133  1
  Tm  Tm2  1  0.212318  0.454822  0.834985  1
  Tm  Tm3  1  0.957573  0.714758  0.664087  1
  Tm  Tm4  1  0.714758  0.957573  0.664087  1
  Tm  Tm5  1  0.454822  0.212318  0.834985  1
  Tm  Tm6  1  0.787577  0.544404  0.166487  1
  Tm  Tm7  1  0.044457  0.284816  0.335133  1
  Tm  Tm8  1  0.498913  0.498913  0.498402  1
  Tm  Tm9  1  0.000959  0.000959  0.000969  1
  Ga  Ga10  1  0.632797  0.632797  0.867847  1
  Si  Si11  1  0.133731  0.133731  0.634346  1
  Si  Si12  1  0.864936  0.864936  0.366816  1
  Si  Si13  1  0.367917  0.367917  0.131392  1
  Bi  Bi14  1  0.291387  0.706835  0.499407  1
  Bi  Bi15  1  0.208704  0.793097  0.000017  1
  Bi  Bi16  1  0.706835  0.291387  0.499407  1
  Bi  Bi17  1  0.793097  0.208704  0.000017  1
