# generated using pymatgen
data_Tb13Tm2Th(InIr)4
_symmetry_space_group_name_H-M   'P 1'
_cell_length_a   9.70674754
_cell_length_b   9.69333801
_cell_length_c   9.69453605
_cell_angle_alpha   60.30869907
_cell_angle_beta   60.15618961
_cell_angle_gamma   60.24585427
_symmetry_Int_Tables_number   1
_chemical_formula_structural   Tb13Tm2Th(InIr)4
_chemical_formula_sum   'Tb13 Tm2 Th1 In4 Ir4'
_cell_volume   648.45618048
_cell_formula_units_Z   1
loop_
 _symmetry_equiv_pos_site_id
 _symmetry_equiv_pos_as_xyz
  1  'x, y, z'
loop_
 _atom_site_type_symbol
 _atom_site_label
 _atom_site_symmetry_multiplicity
 _atom_site_fract_x
 _atom_site_fract_y
 _atom_site_fract_z
 _atom_site_occupancy
  Tb  Tb0  1  0.310893  0.689252  0.312281  1
  Tb  Tb1  1  0.939414  0.559922  0.561774  1
  Tb  Tb2  1  0.310504  0.309667  0.691183  1
  Tb  Tb3  1  0.097988  0.099718  0.099525  1
  Tb  Tb4  1  0.561678  0.559050  0.939262  1
  Tb  Tb5  1  0.099257  0.101186  0.699758  1
  Tb  Tb6  1  0.691409  0.307779  0.690295  1
  Tb  Tb7  1  0.690100  0.688152  0.310992  1
  Tb  Tb8  1  0.691526  0.308944  0.311456  1
  Tb  Tb9  1  0.309721  0.688986  0.689993  1
  Tb  Tb10  1  0.559546  0.940072  0.558996  1
  Tb  Tb11  1  0.700373  0.101352  0.099324  1
  Tb  Tb12  1  0.560372  0.939897  0.940143  1
  Tm  Tm13  1  0.941289  0.939685  0.559509  1
  Tm  Tm14  1  0.939852  0.558360  0.938631  1
  Th  Th15  1  0.097109  0.709448  0.097372  1
  In  In16  1  0.332736  0.333089  0.332908  1
  In  In17  1  0.001101  0.333133  0.332408  1
  In  In18  1  0.332674  0.001200  0.333232  1
  In  In19  1  0.332175  0.333325  0.001158  1
  Ir  Ir20  1  0.892500  0.889494  0.890156  1
  Ir  Ir21  1  0.892320  0.891631  0.325285  1
  Ir  Ir22  1  0.323746  0.891134  0.892163  1
  Ir  Ir23  1  0.891718  0.325523  0.892199  1
