# generated using pymatgen
data_Y10Hg2Ru3Pt
_symmetry_space_group_name_H-M   'P 1'
_cell_length_a   8.72961622
_cell_length_b   8.72961658
_cell_length_c   8.70774846
_cell_angle_alpha   127.06790996
_cell_angle_beta   127.06790511
_cell_angle_gamma   78.31666452
_symmetry_Int_Tables_number   1
_chemical_formula_structural   Y10Hg2Ru3Pt
_chemical_formula_sum   'Y10 Hg2 Ru3 Pt1'
_cell_volume   408.79039254
_cell_formula_units_Z   1
loop_
 _symmetry_equiv_pos_site_id
 _symmetry_equiv_pos_as_xyz
  1  'x, y, z'
loop_
 _atom_site_type_symbol
 _atom_site_label
 _atom_site_symmetry_multiplicity
 _atom_site_fract_x
 _atom_site_fract_y
 _atom_site_fract_z
 _atom_site_occupancy
  Y  Y0  1  0.000146  0.998663  0.998810  1
  Y  Y1  1  0.501337  0.499854  0.001190  1
  Y  Y2  1  0.803482  0.294633  0.824927  1
  Y  Y3  1  0.205367  0.696518  0.175073  1
  Y  Y4  1  0.478555  0.969706  0.175073  1
  Y  Y5  1  0.286168  0.480701  0.500000  1
  Y  Y6  1  0.019299  0.213832  0.500000  1
  Y  Y7  1  0.530294  0.021445  0.824927  1
  Y  Y8  1  0.701810  0.528152  0.500000  1
  Y  Y9  1  0.971848  0.798190  0.500000  1
  Hg  Hg10  1  0.251672  0.248328  0.000000  1
  Hg  Hg11  1  0.751672  0.748328  0.000000  1
  Ru  Ru12  1  0.140126  0.642817  0.782944  1
  Ru  Ru13  1  0.857183  0.359874  0.217056  1
  Ru  Ru14  1  0.636872  0.863128  0.500000  1
  Pt  Pt15  1  0.364169  0.135831  0.500000  1
