# generated using pymatgen
data_Ho7Er11(LuPb8)2
_symmetry_space_group_name_H-M   'P 1'
_cell_length_a   8.15786275
_cell_length_b   15.53484277
_cell_length_c   8.22417132
_cell_angle_alpha   90.01185770
_cell_angle_beta   89.88941034
_cell_angle_gamma   90.11150991
_symmetry_Int_Tables_number   1
_chemical_formula_structural   Ho7Er11(LuPb8)2
_chemical_formula_sum   'Ho7 Er11 Lu2 Pb16'
_cell_volume   1042.25446591
_cell_formula_units_Z   1
loop_
 _symmetry_equiv_pos_site_id
 _symmetry_equiv_pos_as_xyz
  1  'x, y, z'
loop_
 _atom_site_type_symbol
 _atom_site_label
 _atom_site_symmetry_multiplicity
 _atom_site_fract_x
 _atom_site_fract_y
 _atom_site_fract_z
 _atom_site_occupancy
  Ho  Ho0  1  0.962967  0.900519  0.823495  1
  Ho  Ho1  1  0.537212  0.099100  0.323436  1
  Ho  Ho2  1  0.038324  0.400816  0.176091  1
  Ho  Ho3  1  0.537886  0.400742  0.324416  1
  Ho  Ho4  1  0.036827  0.098769  0.176347  1
  Ho  Ho5  1  0.463128  0.900778  0.676389  1
  Ho  Ho6  1  0.962307  0.599226  0.823850  1
  Er  Er7  1  0.623977  0.622077  0.157870  1
  Er  Er8  1  0.124807  0.878002  0.342797  1
  Er  Er9  1  0.375558  0.122002  0.842684  1
  Er  Er10  1  0.875808  0.378508  0.657651  1
  Er  Er11  1  0.376907  0.378475  0.842061  1
  Er  Er12  1  0.875452  0.121655  0.657011  1
  Er  Er13  1  0.624680  0.877585  0.157081  1
  Er  Er14  1  0.124044  0.621772  0.342530  1
  Er  Er15  1  0.459844  0.600347  0.674618  1
  Er  Er16  1  0.792468  0.749777  0.495367  1
  Er  Er17  1  0.292600  0.749800  0.004853  1
  Lu  Lu18  1  0.207763  0.250281  0.505126  1
  Lu  Lu19  1  0.707725  0.250059  0.995055  1
  Pb  Pb20  1  0.718368  0.456634  0.967232  1
  Pb  Pb21  1  0.217454  0.043105  0.534934  1
  Pb  Pb22  1  0.283018  0.957070  0.034702  1
  Pb  Pb23  1  0.780708  0.543086  0.466853  1
  Pb  Pb24  1  0.283193  0.542962  0.033814  1
  Pb  Pb25  1  0.782980  0.957126  0.464484  1
  Pb  Pb26  1  0.716944  0.042960  0.965005  1
  Pb  Pb27  1  0.217401  0.457243  0.534847  1
  Pb  Pb28  1  0.429467  0.750158  0.374746  1
  Pb  Pb29  1  0.929974  0.749779  0.125615  1
  Pb  Pb30  1  0.569976  0.250056  0.625444  1
  Pb  Pb31  1  0.069636  0.250046  0.873898  1
  Pb  Pb32  1  0.650885  0.749516  0.843753  1
  Pb  Pb33  1  0.151411  0.749948  0.655966  1
  Pb  Pb34  1  0.348826  0.250070  0.156703  1
  Pb  Pb35  1  0.849471  0.249952  0.343275  1
