# generated using pymatgen
data_Nd3DyFe8(PIr)12
_symmetry_space_group_name_H-M   'P 1'
_cell_length_a   3.87774400
_cell_length_b   10.52051260
_cell_length_c   12.35083702
_cell_angle_alpha   90.08035264
_cell_angle_beta   90.00000000
_cell_angle_gamma   90.00000000
_symmetry_Int_Tables_number   1
_chemical_formula_structural   Nd3DyFe8(PIr)12
_chemical_formula_sum   'Nd3 Dy1 Fe8 P12 Ir12'
_cell_volume   503.86245593
_cell_formula_units_Z   1
loop_
 _symmetry_equiv_pos_site_id
 _symmetry_equiv_pos_as_xyz
  1  'x, y, z'
loop_
 _atom_site_type_symbol
 _atom_site_label
 _atom_site_symmetry_multiplicity
 _atom_site_fract_x
 _atom_site_fract_y
 _atom_site_fract_z
 _atom_site_occupancy
  Nd  Nd0  1  0.250000  0.579561  0.712313  1
  Nd  Nd1  1  0.250000  0.920558  0.212440  1
  Nd  Nd2  1  0.750000  0.420315  0.287799  1
  Dy  Dy3  1  0.750000  0.079543  0.787860  1
  Fe  Fe4  1  0.250000  0.876662  0.697698  1
  Fe  Fe5  1  0.250000  0.625053  0.196401  1
  Fe  Fe6  1  0.750000  0.125012  0.304030  1
  Fe  Fe7  1  0.750000  0.373665  0.802674  1
  Fe  Fe8  1  0.250000  0.456965  0.936005  1
  Fe  Fe9  1  0.250000  0.042046  0.438343  1
  Fe  Fe10  1  0.750000  0.541849  0.063087  1
  Fe  Fe11  1  0.750000  0.959040  0.565166  1
  P  P12  1  0.250000  0.441066  0.109982  1
  P  P13  1  0.250000  0.058708  0.613087  1
  P  P14  1  0.750000  0.558390  0.889315  1
  P  P15  1  0.750000  0.941440  0.390860  1
  P  P16  1  0.250000  0.272123  0.862387  1
  P  P17  1  0.250000  0.225502  0.363634  1
  P  P18  1  0.750000  0.726183  0.135998  1
  P  P19  1  0.750000  0.774352  0.636550  1
  P  P20  1  0.250000  0.602572  0.379470  1
  P  P21  1  0.250000  0.899875  0.877396  1
  P  P22  1  0.750000  0.397642  0.620408  1
  P  P23  1  0.750000  0.102471  0.121257  1
  Ir  Ir24  1  0.250000  0.718154  0.989324  1
  Ir  Ir25  1  0.250000  0.783418  0.490487  1
  Ir  Ir26  1  0.750000  0.282166  0.009112  1
  Ir  Ir27  1  0.750000  0.216987  0.510571  1
  Ir  Ir28  1  0.250000  0.408317  0.478518  1
  Ir  Ir29  1  0.250000  0.091572  0.973921  1
  Ir  Ir30  1  0.750000  0.591833  0.521985  1
  Ir  Ir31  1  0.750000  0.909657  0.021632  1
  Ir  Ir32  1  0.250000  0.229284  0.171999  1
  Ir  Ir33  1  0.250000  0.266869  0.673774  1
  Ir  Ir34  1  0.750000  0.770582  0.827215  1
  Ir  Ir35  1  0.750000  0.730571  0.327304  1
