# generated using pymatgen
data_Ho3Lu3Co16(P6Ru)2
_symmetry_space_group_name_H-M   'P 1'
_cell_length_a   3.68038300
_cell_length_b   10.48390104
_cell_length_c   12.18534304
_cell_angle_alpha   89.99036642
_cell_angle_beta   90.00000000
_cell_angle_gamma   90.00000000
_symmetry_Int_Tables_number   1
_chemical_formula_structural   Ho3Lu3Co16(P6Ru)2
_chemical_formula_sum   'Ho3 Lu3 Co16 P12 Ru2'
_cell_volume   470.16866606
_cell_formula_units_Z   1
loop_
 _symmetry_equiv_pos_site_id
 _symmetry_equiv_pos_as_xyz
  1  'x, y, z'
loop_
 _atom_site_type_symbol
 _atom_site_label
 _atom_site_symmetry_multiplicity
 _atom_site_fract_x
 _atom_site_fract_y
 _atom_site_fract_z
 _atom_site_occupancy
  Ho  Ho0  1  0.000000  0.499980  0.525419  1
  Ho  Ho1  1  0.500000  0.000064  0.474862  1
  Ho  Ho2  1  0.500000  0.818295  0.206706  1
  Lu  Lu3  1  0.500000  0.181807  0.206773  1
  Lu  Lu4  1  0.000000  0.681637  0.793078  1
  Lu  Lu5  1  0.000000  0.318343  0.793089  1
  Co  Co6  1  0.500000  0.499967  0.704789  1
  Co  Co7  1  0.000000  0.001013  0.295647  1
  Co  Co8  1  0.000000  0.499641  0.986543  1
  Co  Co9  1  0.500000  0.000389  0.012896  1
  Co  Co10  1  0.500000  0.332341  0.990418  1
  Co  Co11  1  0.500000  0.667382  0.990077  1
  Co  Co12  1  0.000000  0.167942  0.009419  1
  Co  Co13  1  0.000000  0.832405  0.008734  1
  Co  Co14  1  0.500000  0.296842  0.431071  1
  Co  Co15  1  0.500000  0.702990  0.431557  1
  Co  Co16  1  0.000000  0.203249  0.568981  1
  Co  Co17  1  0.000000  0.796836  0.569223  1
  Co  Co18  1  0.500000  0.877478  0.707822  1
  Co  Co19  1  0.500000  0.122534  0.707755  1
  Co  Co20  1  0.000000  0.621518  0.292794  1
  Co  Co21  1  0.000000  0.377380  0.292235  1
  P  P22  1  0.500000  0.499900  0.881262  1
  P  P23  1  0.000000  0.000857  0.118232  1
  P  P24  1  0.500000  0.500109  0.351379  1
  P  P25  1  0.000000  0.999989  0.648726  1
  P  P26  1  0.500000  0.312444  0.617255  1
  P  P27  1  0.500000  0.687446  0.617384  1
  P  P28  1  0.000000  0.187745  0.382849  1
  P  P29  1  0.000000  0.812362  0.383890  1
  P  P30  1  0.500000  0.845295  0.891985  1
  P  P31  1  0.500000  0.154748  0.891831  1
  P  P32  1  0.000000  0.653777  0.107341  1
  P  P33  1  0.000000  0.345351  0.108025  1
  Ru  Ru34  1  0.500000  0.499871  0.160008  1
  Ru  Ru35  1  0.000000  0.000075  0.839943  1
