# generated using pymatgen
data_TbDyAl3Cu7
_symmetry_space_group_name_H-M   'P 1'
_cell_length_a   4.17850800
_cell_length_b   5.09141148
_cell_length_c   8.84722520
_cell_angle_alpha   90.63470927
_cell_angle_beta   90.00000000
_cell_angle_gamma   90.00000000
_symmetry_Int_Tables_number   1
_chemical_formula_structural   TbDyAl3Cu7
_chemical_formula_sum   'Tb1 Dy1 Al3 Cu7'
_cell_volume   188.20877574
_cell_formula_units_Z   1
loop_
 _symmetry_equiv_pos_site_id
 _symmetry_equiv_pos_as_xyz
  1  'x, y, z'
loop_
 _atom_site_type_symbol
 _atom_site_label
 _atom_site_symmetry_multiplicity
 _atom_site_fract_x
 _atom_site_fract_y
 _atom_site_fract_z
 _atom_site_occupancy
  Tb  Tb0  1  0.000000  0.001775  0.999475  1
  Dy  Dy1  1  0.000000  0.498176  0.500217  1
  Al  Al2  1  0.500000  0.514074  0.994983  1
  Al  Al3  1  0.500000  0.985554  0.505183  1
  Al  Al4  1  0.500000  0.250167  0.250207  1
  Cu  Cu5  1  0.000000  0.998681  0.335201  1
  Cu  Cu6  1  0.000000  0.499523  0.832097  1
  Cu  Cu7  1  0.000000  0.501478  0.165813  1
  Cu  Cu8  1  0.000000  0.000372  0.666701  1
  Cu  Cu9  1  0.500000  0.750030  0.750023  1
  Cu  Cu10  1  0.500000  0.749855  0.250268  1
  Cu  Cu11  1  0.500000  0.250115  0.749829  1
