# generated using pymatgen
data_Nd8Y2Sn5Pb3
_symmetry_space_group_name_H-M   'P 1'
_cell_length_a   8.26232800
_cell_length_b   8.42152835
_cell_length_c   16.02754600
_cell_angle_alpha   90.00000000
_cell_angle_beta   90.00000000
_cell_angle_gamma   90.01645764
_symmetry_Int_Tables_number   1
_chemical_formula_structural   Nd8Y2Sn5Pb3
_chemical_formula_sum   'Nd16 Y4 Sn10 Pb6'
_cell_volume   1115.21951553
_cell_formula_units_Z   2
loop_
 _symmetry_equiv_pos_site_id
 _symmetry_equiv_pos_as_xyz
  1  'x, y, z'
loop_
 _atom_site_type_symbol
 _atom_site_label
 _atom_site_symmetry_multiplicity
 _atom_site_fract_x
 _atom_site_fract_y
 _atom_site_fract_z
 _atom_site_occupancy
  Nd  Nd0  1  0.021207  0.179566  0.400068  1
  Nd  Nd1  1  0.368409  0.838673  0.122255  1
  Nd  Nd2  1  0.134110  0.336335  0.622438  1
  Nd  Nd3  1  0.480883  0.681658  0.899591  1
  Nd  Nd4  1  0.865890  0.663665  0.122438  1
  Nd  Nd5  1  0.133559  0.338369  0.877082  1
  Nd  Nd6  1  0.479171  0.682452  0.600515  1
  Nd  Nd7  1  0.631591  0.161327  0.622255  1
  Nd  Nd8  1  0.866441  0.661631  0.377082  1
  Nd  Nd9  1  0.017656  0.178981  0.100256  1
  Nd  Nd10  1  0.978793  0.820434  0.900068  1
  Nd  Nd11  1  0.633568  0.160322  0.878349  1
  Nd  Nd12  1  0.520829  0.317548  0.100515  1
  Nd  Nd13  1  0.366432  0.839678  0.378349  1
  Nd  Nd14  1  0.982344  0.821019  0.600256  1
  Nd  Nd15  1  0.519117  0.318342  0.399591  1
  Y  Y16  1  0.197779  0.501922  0.249906  1
  Y  Y17  1  0.698316  0.998156  0.248547  1
  Y  Y18  1  0.301684  0.001844  0.748547  1
  Y  Y19  1  0.802221  0.498078  0.749906  1
  Sn  Sn20  1  0.675177  0.852595  0.749890  1
  Sn  Sn21  1  0.825416  0.352471  0.250101  1
  Sn  Sn22  1  0.562642  0.617392  0.250257  1
  Sn  Sn23  1  0.437358  0.382608  0.750257  1
  Sn  Sn24  1  0.174584  0.647529  0.750101  1
  Sn  Sn25  1  0.936271  0.117606  0.750155  1
  Sn  Sn26  1  0.291902  0.034911  0.543744  1
  Sn  Sn27  1  0.708098  0.965089  0.043744  1
  Sn  Sn28  1  0.324823  0.147405  0.249890  1
  Sn  Sn29  1  0.063729  0.882394  0.250155  1
  Pb  Pb30  1  0.791299  0.465252  0.543218  1
  Pb  Pb31  1  0.708694  0.964822  0.456794  1
  Pb  Pb32  1  0.208398  0.534996  0.456836  1
  Pb  Pb33  1  0.291306  0.035178  0.956794  1
  Pb  Pb34  1  0.791602  0.465004  0.956836  1
  Pb  Pb35  1  0.208701  0.534748  0.043218  1
