# generated using pymatgen
data_Nd2Tm4Al17Si7Os8
_symmetry_space_group_name_H-M   'P 1'
_cell_length_a   8.72100227
_cell_length_b   8.70581481
_cell_length_c   9.50903000
_cell_angle_alpha   90.00000000
_cell_angle_beta   90.00000000
_cell_angle_gamma   120.19471249
_symmetry_Int_Tables_number   1
_chemical_formula_structural   Nd2Tm4Al17Si7Os8
_chemical_formula_sum   'Nd2 Tm4 Al17 Si7 Os8'
_cell_volume   624.00377468
_cell_formula_units_Z   1
loop_
 _symmetry_equiv_pos_site_id
 _symmetry_equiv_pos_as_xyz
  1  'x, y, z'
loop_
 _atom_site_type_symbol
 _atom_site_label
 _atom_site_symmetry_multiplicity
 _atom_site_fract_x
 _atom_site_fract_y
 _atom_site_fract_z
 _atom_site_occupancy
  Nd  Nd0  1  0.810726  0.620376  0.750000  1
  Nd  Nd1  1  0.381116  0.188054  0.750000  1
  Tm  Tm2  1  0.194375  0.389872  0.250000  1
  Tm  Tm3  1  0.609043  0.805339  0.250000  1
  Tm  Tm4  1  0.197614  0.803026  0.250000  1
  Tm  Tm5  1  0.799540  0.193482  0.750000  1
  Al  Al6  1  0.163663  0.330658  0.575283  1
  Al  Al7  1  0.834695  0.671498  0.418630  1
  Al  Al8  1  0.670602  0.835674  0.574662  1
  Al  Al9  1  0.834695  0.671498  0.081370  1
  Al  Al10  1  0.329290  0.165431  0.419689  1
  Al  Al11  1  0.163663  0.330658  0.924717  1
  Al  Al12  1  0.164872  0.833143  0.572429  1
  Al  Al13  1  0.329290  0.165431  0.080311  1
  Al  Al14  1  0.836151  0.163599  0.421197  1
  Al  Al15  1  0.670602  0.835674  0.925338  1
  Al  Al16  1  0.836151  0.163599  0.078803  1
  Al  Al17  1  0.164872  0.833143  0.927571  1
  Al  Al18  1  0.126849  0.565184  0.750000  1
  Al  Al19  1  0.564611  0.434821  0.250000  1
  Al  Al20  1  0.437759  0.568253  0.750000  1
  Al  Al21  1  0.999996  0.998776  0.250000  1
  Al  Al22  1  0.994417  0.006342  0.750000  1
  Si  Si23  1  0.333915  0.664232  0.041989  1
  Si  Si24  1  0.667243  0.334908  0.964564  1
  Si  Si25  1  0.667243  0.334908  0.535436  1
  Si  Si26  1  0.333915  0.664232  0.458011  1
  Si  Si27  1  0.565813  0.123389  0.250000  1
  Si  Si28  1  0.437508  0.871948  0.750000  1
  Si  Si29  1  0.875326  0.433509  0.250000  1
  Os  Os30  1  0.501463  0.999353  0.003812  1
  Os  Os31  1  0.000111  0.499079  0.009090  1
  Os  Os32  1  0.501463  0.999353  0.496188  1
  Os  Os33  1  0.499949  0.500836  0.003546  1
  Os  Os34  1  0.000111  0.499079  0.490910  1
  Os  Os35  1  0.499949  0.500836  0.496454  1
  Os  Os36  1  0.000700  0.000403  0.000470  1
  Os  Os37  1  0.000700  0.000403  0.499530  1
