# generated using pymatgen
data_CuBi3Pt3RhO14
_symmetry_space_group_name_H-M   'P 1'
_cell_length_a   7.22611949
_cell_length_b   7.40968589
_cell_length_c   7.40968585
_cell_angle_alpha   60.04474088
_cell_angle_beta   59.08725484
_cell_angle_gamma   59.08726131
_symmetry_Int_Tables_number   1
_chemical_formula_structural   CuBi3Pt3RhO14
_chemical_formula_sum   'Cu1 Bi3 Pt3 Rh1 O14'
_cell_volume   276.69464153
_cell_formula_units_Z   1
loop_
 _symmetry_equiv_pos_site_id
 _symmetry_equiv_pos_as_xyz
  1  'x, y, z'
loop_
 _atom_site_type_symbol
 _atom_site_label
 _atom_site_symmetry_multiplicity
 _atom_site_fract_x
 _atom_site_fract_y
 _atom_site_fract_z
 _atom_site_occupancy
  Cu  Cu0  1  0.625000  0.125000  0.125000  1
  Bi  Bi1  1  0.125000  0.125000  0.125000  1
  Bi  Bi2  1  0.125000  0.625000  0.125000  1
  Bi  Bi3  1  0.125000  0.125000  0.625000  1
  Pt  Pt4  1  0.625000  0.625000  0.125000  1
  Pt  Pt5  1  0.125000  0.625000  0.625000  1
  Pt  Pt6  1  0.625000  0.125000  0.625000  1
  Rh  Rh7  1  0.625000  0.625000  0.625000  1
  O  O8  1  0.294622  0.235960  0.235960  1
  O  O9  1  0.285049  0.711820  0.291307  1
  O  O10  1  0.964951  0.958693  0.538180  1
  O  O11  1  0.544009  0.953694  0.547168  1
  O  O12  1  0.705991  0.702832  0.296306  1
  O  O13  1  0.963780  0.538542  0.538542  1
  O  O14  1  0.705991  0.296306  0.702832  1
  O  O15  1  0.285049  0.291307  0.711820  1
  O  O16  1  0.706197  0.294268  0.294268  1
  O  O17  1  0.286220  0.711458  0.711458  1
  O  O18  1  0.964951  0.538180  0.958693  1
  O  O19  1  0.544009  0.547168  0.953694  1
  O  O20  1  0.955378  0.014040  0.014040  1
  O  O21  1  0.543803  0.955732  0.955732  1
