# generated using pymatgen
data_YHo15(InIr)4
_symmetry_space_group_name_H-M   'P 1'
_cell_length_a   9.63521907
_cell_length_b   9.63521829
_cell_length_c   9.63935400
_cell_angle_alpha   59.98580022
_cell_angle_beta   59.98580290
_cell_angle_gamma   59.95839562
_symmetry_Int_Tables_number   1
_chemical_formula_structural   YHo15(InIr)4
_chemical_formula_sum   'Y1 Ho15 In4 Ir4'
_cell_volume   632.44995511
_cell_formula_units_Z   1
loop_
 _symmetry_equiv_pos_site_id
 _symmetry_equiv_pos_as_xyz
  1  'x, y, z'
loop_
 _atom_site_type_symbol
 _atom_site_label
 _atom_site_symmetry_multiplicity
 _atom_site_fract_x
 _atom_site_fract_y
 _atom_site_fract_z
 _atom_site_occupancy
  Y  Y0  1  0.439627  0.439627  0.060373  1
  Ho  Ho1  1  0.651004  0.651004  0.046623  1
  Ho  Ho2  1  0.191114  0.809564  0.190613  1
  Ho  Ho3  1  0.059989  0.439501  0.060254  1
  Ho  Ho4  1  0.191114  0.809564  0.808709  1
  Ho  Ho5  1  0.059989  0.439501  0.440256  1
  Ho  Ho6  1  0.809564  0.191114  0.190613  1
  Ho  Ho7  1  0.651004  0.651004  0.651371  1
  Ho  Ho8  1  0.809564  0.191114  0.808709  1
  Ho  Ho9  1  0.190961  0.190961  0.809039  1
  Ho  Ho10  1  0.047285  0.650397  0.651159  1
  Ho  Ho11  1  0.439501  0.059989  0.060254  1
  Ho  Ho12  1  0.060125  0.060125  0.439875  1
  Ho  Ho13  1  0.650397  0.047285  0.651159  1
  Ho  Ho14  1  0.809178  0.809178  0.190822  1
  Ho  Ho15  1  0.439501  0.059989  0.440256  1
  In  In16  1  0.416763  0.416763  0.416843  1
  In  In17  1  0.416763  0.416763  0.749632  1
  In  In18  1  0.416873  0.749564  0.416782  1
  In  In19  1  0.749564  0.416873  0.416782  1
  Ir  Ir20  1  0.423845  0.858858  0.858648  1
  Ir  Ir21  1  0.858709  0.858709  0.858784  1
  Ir  Ir22  1  0.858858  0.423845  0.858648  1
  Ir  Ir23  1  0.858709  0.858709  0.423797  1
