# generated using pymatgen
data_Lu2As4O9
_symmetry_space_group_name_H-M   'P 1'
_cell_length_a   6.61994422
_cell_length_b   7.44279413
_cell_length_c   9.73191738
_cell_angle_alpha   94.69867519
_cell_angle_beta   104.12492017
_cell_angle_gamma   104.72288822
_symmetry_Int_Tables_number   1
_chemical_formula_structural   Lu2As4O9
_chemical_formula_sum   'Lu4 As8 O18'
_cell_volume   444.40783499
_cell_formula_units_Z   2
loop_
 _symmetry_equiv_pos_site_id
 _symmetry_equiv_pos_as_xyz
  1  'x, y, z'
loop_
 _atom_site_type_symbol
 _atom_site_label
 _atom_site_symmetry_multiplicity
 _atom_site_fract_x
 _atom_site_fract_y
 _atom_site_fract_z
 _atom_site_occupancy
  Lu  Lu0  1  0.241103  0.938206  0.614066  1
  Lu  Lu1  1  0.758897  0.061794  0.385934  1
  Lu  Lu2  1  0.721952  0.528579  0.410778  1
  Lu  Lu3  1  0.278048  0.471421  0.589222  1
  As  As4  1  0.685244  0.772520  0.081266  1
  As  As5  1  0.314756  0.227480  0.918734  1
  As  As6  1  0.167697  0.750927  0.911859  1
  As  As7  1  0.832303  0.249073  0.088141  1
  As  As8  1  0.741920  0.913580  0.709594  1
  As  As9  1  0.258080  0.086420  0.290406  1
  As  As10  1  0.810280  0.351960  0.701723  1
  As  As11  1  0.189720  0.648040  0.298277  1
  O  O12  1  0.723974  0.746963  0.263102  1
  O  O13  1  0.276026  0.253037  0.736898  1
  O  O14  1  0.315833  0.978075  0.865834  1
  O  O15  1  0.684167  0.021925  0.134166  1
  O  O16  1  0.609536  0.329204  0.984976  1
  O  O17  1  0.390464  0.670796  0.015024  1
  O  O18  1  0.123208  0.642030  0.736083  1
  O  O19  1  0.876792  0.357970  0.263917  1
  O  O20  1  0.849439  0.878264  0.558501  1
  O  O21  1  0.150561  0.121736  0.441499  1
  O  O22  1  0.476162  0.765764  0.664973  1
  O  O23  1  0.523838  0.234236  0.335027  1
  O  O24  1  0.373845  0.530391  0.381832  1
  O  O25  1  0.626155  0.469609  0.618168  1
  O  O26  1  0.088606  0.670615  0.455728  1
  O  O27  1  0.911394  0.329385  0.544272  1
  O  O28  1  0.383299  0.900128  0.359088  1
  O  O29  1  0.616701  0.099872  0.640912  1
