# generated using pymatgen
data_Yb2ZnP2Pd
_symmetry_space_group_name_H-M   'P 1'
_cell_length_a   4.15875900
_cell_length_b   7.75204428
_cell_length_c   7.19894287
_cell_angle_alpha   90.08849479
_cell_angle_beta   90.00000000
_cell_angle_gamma   90.00000000
_symmetry_Int_Tables_number   1
_chemical_formula_structural   Yb2ZnP2Pd
_chemical_formula_sum   'Yb4 Zn2 P4 Pd2'
_cell_volume   232.08560659
_cell_formula_units_Z   2
loop_
 _symmetry_equiv_pos_site_id
 _symmetry_equiv_pos_as_xyz
  1  'x, y, z'
loop_
 _atom_site_type_symbol
 _atom_site_label
 _atom_site_symmetry_multiplicity
 _atom_site_fract_x
 _atom_site_fract_y
 _atom_site_fract_z
 _atom_site_occupancy
  Yb  Yb0  1  0.250000  0.504855  0.228904  1
  Yb  Yb1  1  0.750000  0.495145  0.771096  1
  Yb  Yb2  1  0.750000  0.004012  0.768109  1
  Yb  Yb3  1  0.250000  0.995988  0.231891  1
  Zn  Zn4  1  0.250000  0.747307  0.586132  1
  Zn  Zn5  1  0.750000  0.252693  0.413868  1
  P  P6  1  0.250000  0.751343  0.907647  1
  P  P7  1  0.750000  0.248657  0.092353  1
  P  P8  1  0.750000  0.748831  0.420171  1
  P  P9  1  0.250000  0.251169  0.579829  1
  Pd  Pd10  1  0.750000  0.750072  0.084179  1
  Pd  Pd11  1  0.250000  0.249928  0.915821  1
