# generated using pymatgen
data_Tb2HoMg3Si2Pd
_symmetry_space_group_name_H-M   'P 1'
_cell_length_a   7.24404928
_cell_length_b   7.24404985
_cell_length_c   4.26893000
_cell_angle_alpha   90.00000000
_cell_angle_beta   90.00000000
_cell_angle_gamma   119.89102267
_symmetry_Int_Tables_number   1
_chemical_formula_structural   Tb2HoMg3Si2Pd
_chemical_formula_sum   'Tb2 Ho1 Mg3 Si2 Pd1'
_cell_volume   194.21749828
_cell_formula_units_Z   1
loop_
 _symmetry_equiv_pos_site_id
 _symmetry_equiv_pos_as_xyz
  1  'x, y, z'
loop_
 _atom_site_type_symbol
 _atom_site_label
 _atom_site_symmetry_multiplicity
 _atom_site_fract_x
 _atom_site_fract_y
 _atom_site_fract_z
 _atom_site_occupancy
  Tb  Tb0  1  0.582367  0.000251  0.000000  1
  Tb  Tb1  1  0.000251  0.582367  0.000000  1
  Ho  Ho2  1  0.417631  0.417631  0.000000  1
  Mg  Mg3  1  0.244442  0.000335  0.500000  1
  Mg  Mg4  1  0.000335  0.244442  0.500000  1
  Mg  Mg5  1  0.755228  0.755228  0.500000  1
  Si  Si6  1  0.333365  0.666018  0.500000  1
  Si  Si7  1  0.666018  0.333365  0.500000  1
  Pd  Pd8  1  0.000363  0.000363  0.000000  1
