# generated using pymatgen
data_Yb3Y2Sc(Si3Ru)8
_symmetry_space_group_name_H-M   'P 1'
_cell_length_a   10.13086842
_cell_length_b   10.13084718
_cell_length_c   8.13040119
_cell_angle_alpha   89.95844693
_cell_angle_beta   90.05748011
_cell_angle_gamma   132.65556289
_symmetry_Int_Tables_number   1
_chemical_formula_structural   Yb3Y2Sc(Si3Ru)8
_chemical_formula_sum   'Yb3 Y2 Sc1 Si24 Ru8'
_cell_volume   613.69366725
_cell_formula_units_Z   1
loop_
 _symmetry_equiv_pos_site_id
 _symmetry_equiv_pos_as_xyz
  1  'x, y, z'
loop_
 _atom_site_type_symbol
 _atom_site_label
 _atom_site_symmetry_multiplicity
 _atom_site_fract_x
 _atom_site_fract_y
 _atom_site_fract_z
 _atom_site_occupancy
  Yb  Yb0  1  0.000960  0.501097  0.249985  1
  Yb  Yb1  1  0.499031  0.999188  0.750140  1
  Yb  Yb2  1  0.998196  0.498074  0.750110  1
  Y  Y3  1  0.499586  0.499603  0.500356  1
  Y  Y4  1  0.500574  0.000436  0.249939  1
  Sc  Sc5  1  0.999646  0.999538  0.999612  1
  Si  Si6  1  0.292102  0.704844  0.998450  1
  Si  Si7  1  0.794755  0.207015  0.500883  1
  Si  Si8  1  0.707425  0.294403  0.999302  1
  Si  Si9  1  0.204517  0.792566  0.501780  1
  Si  Si10  1  0.833298  0.834869  0.331588  1
  Si  Si11  1  0.163642  0.166737  0.668779  1
  Si  Si12  1  0.669683  0.666742  0.834228  1
  Si  Si13  1  0.331789  0.330242  0.165509  1
  Si  Si14  1  0.622815  0.388776  0.226750  1
  Si  Si15  1  0.612214  0.377210  0.772555  1
  Si  Si16  1  0.109974  0.877041  0.729698  1
  Si  Si17  1  0.122799  0.890970  0.270991  1
  Si  Si18  1  0.376968  0.612170  0.772545  1
  Si  Si19  1  0.389114  0.623120  0.226597  1
  Si  Si20  1  0.890856  0.122753  0.270979  1
  Si  Si21  1  0.877507  0.110276  0.729715  1
  Si  Si22  1  0.845893  0.612542  0.003873  1
  Si  Si23  1  0.387598  0.155634  0.995334  1
  Si  Si24  1  0.890005  0.655121  0.504901  1
  Si  Si25  1  0.344088  0.109721  0.494441  1
  Si  Si26  1  0.154467  0.387336  0.995166  1
  Si  Si27  1  0.612676  0.844870  0.005127  1
  Si  Si28  1  0.109859  0.345194  0.495938  1
  Si  Si29  1  0.656457  0.890463  0.504789  1
  Ru  Ru30  1  0.169440  0.833353  0.001238  1
  Ru  Ru31  1  0.668132  0.330436  0.498791  1
  Ru  Ru32  1  0.831646  0.167025  0.001141  1
  Ru  Ru33  1  0.332362  0.670749  0.498640  1
  Ru  Ru34  1  0.627389  0.627520  0.125978  1
  Ru  Ru35  1  0.372067  0.372946  0.873563  1
  Ru  Ru36  1  0.874050  0.873202  0.627487  1
  Ru  Ru37  1  0.126419  0.126219  0.373100  1
