# generated using pymatgen
data_ErSc(BeB14)2
_symmetry_space_group_name_H-M   'P 1'
_cell_length_a   7.16000225
_cell_length_b   7.16000182
_cell_length_c   7.16000231
_cell_angle_alpha   132.54273458
_cell_angle_beta   110.51452376
_cell_angle_gamma   88.47663070
_symmetry_Int_Tables_number   1
_chemical_formula_structural   ErSc(BeB14)2
_chemical_formula_sum   'Er1 Sc1 Be2 B28'
_cell_volume   241.23403296
_cell_formula_units_Z   1
loop_
 _symmetry_equiv_pos_site_id
 _symmetry_equiv_pos_as_xyz
  1  'x, y, z'
loop_
 _atom_site_type_symbol
 _atom_site_label
 _atom_site_symmetry_multiplicity
 _atom_site_fract_x
 _atom_site_fract_y
 _atom_site_fract_z
 _atom_site_occupancy
  Er  Er0  1  0.894670  0.250000  0.644670  1
  Sc  Sc1  1  0.109031  0.750000  0.359031  1
  Be  Be2  1  0.499715  0.500067  0.499782  1
  Be  Be3  1  0.499715  0.999933  0.999648  1
  B  B4  1  0.132502  0.166490  0.966012  1
  B  B5  1  0.868492  0.833276  0.035216  1
  B  B6  1  0.701941  0.666724  0.035216  1
  B  B7  1  0.299521  0.333510  0.966012  1
  B  B8  1  0.287729  0.657244  0.630485  1
  B  B9  1  0.710164  0.343769  0.366394  1
  B  B10  1  0.522625  0.156231  0.366394  1
  B  B11  1  0.473241  0.842756  0.630485  1
  B  B12  1  0.423525  0.592491  0.831033  1
  B  B13  1  0.575807  0.407798  0.168010  1
  B  B14  1  0.260211  0.092202  0.168010  1
  B  B15  1  0.738543  0.907509  0.831033  1
  B  B16  1  0.899271  0.896137  0.675618  1
  B  B17  1  0.101936  0.778073  0.000390  1
  B  B18  1  0.722317  0.398454  0.000390  1
  B  B19  1  0.279480  0.276346  0.675618  1
  B  B20  1  0.101936  0.101546  0.323862  1
  B  B21  1  0.899271  0.223654  0.003134  1
  B  B22  1  0.279480  0.603863  0.003134  1
  B  B23  1  0.722317  0.721927  0.323862  1
  B  B24  1  0.533734  0.328921  0.699623  1
  B  B25  1  0.464969  0.164657  0.793532  1
  B  B26  1  0.128876  0.828562  0.793532  1
  B  B27  1  0.870701  0.665890  0.699623  1
  B  B28  1  0.464969  0.671438  0.300313  1
  B  B29  1  0.533734  0.834110  0.204812  1
  B  B30  1  0.870701  0.171079  0.204812  1
  B  B31  1  0.128876  0.335343  0.300313  1
