# generated using pymatgen
data_Tb2Cr2Mo3(PRh)7
_symmetry_space_group_name_H-M   'P 1'
_cell_length_a   3.87549965
_cell_length_b   9.55411652
_cell_length_c   9.53983996
_cell_angle_alpha   119.96938073
_cell_angle_beta   90.00053828
_cell_angle_gamma   89.99936317
_symmetry_Int_Tables_number   1
_chemical_formula_structural   Tb2Cr2Mo3(PRh)7
_chemical_formula_sum   'Tb2 Cr2 Mo3 P7 Rh7'
_cell_volume   306.00172222
_cell_formula_units_Z   1
loop_
 _symmetry_equiv_pos_site_id
 _symmetry_equiv_pos_as_xyz
  1  'x, y, z'
loop_
 _atom_site_type_symbol
 _atom_site_label
 _atom_site_symmetry_multiplicity
 _atom_site_fract_x
 _atom_site_fract_y
 _atom_site_fract_z
 _atom_site_occupancy
  Tb  Tb0  1  0.261878  0.666103  0.331827  1
  Tb  Tb1  1  0.761881  0.333281  0.667452  1
  Cr  Cr2  1  0.262048  0.882724  0.160014  1
  Cr  Cr3  1  0.261892  0.841135  0.722843  1
  Mo  Mo4  1  0.761880  0.089467  0.875316  1
  Mo  Mo5  1  0.761901  0.121036  0.215141  1
  Mo  Mo6  1  0.761921  0.792974  0.910766  1
  P  P7  1  0.261900  0.995581  0.998733  1
  P  P8  1  0.761889  0.880149  0.595016  1
  P  P9  1  0.761867  0.402995  0.289246  1
  P  P10  1  0.761984  0.715310  0.119343  1
  P  P11  1  0.261896  0.114664  0.407342  1
  P  P12  1  0.261872  0.591724  0.706580  1
  P  P13  1  0.261879  0.294865  0.881293  1
  Rh  Rh14  1  0.261907  0.274310  0.114749  1
  Rh  Rh15  1  0.761856  0.615796  0.561083  1
  Rh  Rh16  1  0.761934  0.441961  0.054729  1
  Rh  Rh17  1  0.761923  0.943302  0.384595  1
  Rh  Rh18  1  0.261860  0.369775  0.437560  1
  Rh  Rh19  1  0.261938  0.567259  0.934978  1
  Rh  Rh20  1  0.261894  0.065587  0.631396  1
