# generated using pymatgen
data_Dy3TmAl2(ZnPt2)2
_symmetry_space_group_name_H-M   'P 1'
_cell_length_a   4.38028600
_cell_length_b   6.81936087
_cell_length_c   7.87861991
_cell_angle_alpha   89.73192244
_cell_angle_beta   90.00000000
_cell_angle_gamma   90.00000000
_symmetry_Int_Tables_number   1
_chemical_formula_structural   Dy3TmAl2(ZnPt2)2
_chemical_formula_sum   'Dy3 Tm1 Al2 Zn2 Pt4'
_cell_volume   235.33771724
_cell_formula_units_Z   1
loop_
 _symmetry_equiv_pos_site_id
 _symmetry_equiv_pos_as_xyz
  1  'x, y, z'
loop_
 _atom_site_type_symbol
 _atom_site_label
 _atom_site_symmetry_multiplicity
 _atom_site_fract_x
 _atom_site_fract_y
 _atom_site_fract_z
 _atom_site_occupancy
  Dy  Dy0  1  0.750000  0.530889  0.819859  1
  Dy  Dy1  1  0.750000  0.027670  0.687844  1
  Dy  Dy2  1  0.250000  0.972284  0.311524  1
  Tm  Tm3  1  0.250000  0.468930  0.180896  1
  Al  Al4  1  0.750000  0.645365  0.439272  1
  Al  Al5  1  0.250000  0.354565  0.559503  1
  Zn  Zn6  1  0.250000  0.850435  0.933512  1
  Zn  Zn7  1  0.750000  0.149616  0.067244  1
  Pt  Pt8  1  0.250000  0.728792  0.608119  1
  Pt  Pt9  1  0.750000  0.272494  0.390436  1
  Pt  Pt10  1  0.750000  0.758249  0.125093  1
  Pt  Pt11  1  0.250000  0.240712  0.876698  1
