# generated using pymatgen
data_Th8ReMo3C8
_symmetry_space_group_name_H-M   'P 1'
_cell_length_a   5.35270200
_cell_length_b   6.76097884
_cell_length_c   10.24196386
_cell_angle_alpha   90.12236026
_cell_angle_beta   90.00000000
_cell_angle_gamma   90.00000000
_symmetry_Int_Tables_number   1
_chemical_formula_structural   Th8ReMo3C8
_chemical_formula_sum   'Th8 Re1 Mo3 C8'
_cell_volume   370.65075670
_cell_formula_units_Z   1
loop_
 _symmetry_equiv_pos_site_id
 _symmetry_equiv_pos_as_xyz
  1  'x, y, z'
loop_
 _atom_site_type_symbol
 _atom_site_label
 _atom_site_symmetry_multiplicity
 _atom_site_fract_x
 _atom_site_fract_y
 _atom_site_fract_z
 _atom_site_occupancy
  Th  Th0  1  0.250000  0.470269  0.778902  1
  Th  Th1  1  0.750000  0.031533  0.275707  1
  Th  Th2  1  0.250000  0.966474  0.723065  1
  Th  Th3  1  0.750000  0.531015  0.222161  1
  Th  Th4  1  0.250000  0.812237  0.051835  1
  Th  Th5  1  0.750000  0.685691  0.552230  1
  Th  Th6  1  0.250000  0.313318  0.447328  1
  Th  Th7  1  0.750000  0.186835  0.947560  1
  Re  Re8  1  0.750000  0.723484  0.865180  1
  Mo  Mo9  1  0.250000  0.277875  0.133826  1
  Mo  Mo10  1  0.750000  0.222386  0.635819  1
  Mo  Mo11  1  0.250000  0.778492  0.366384  1
  C  C12  1  0.250000  0.165340  0.943989  1
  C  C13  1  0.750000  0.833037  0.050925  1
  C  C14  1  0.250000  0.665892  0.556163  1
  C  C15  1  0.750000  0.333449  0.446285  1
  C  C16  1  0.250000  0.039305  0.256033  1
  C  C17  1  0.750000  0.464800  0.757846  1
  C  C18  1  0.250000  0.540304  0.243330  1
  C  C19  1  0.750000  0.958263  0.745431  1
