# generated using pymatgen
data_Pa2VB8W
_symmetry_space_group_name_H-M   'P 1'
_cell_length_a   3.65334600
_cell_length_b   5.95251130
_cell_length_c   5.95251100
_cell_angle_alpha   104.13552139
_cell_angle_beta   90.00000000
_cell_angle_gamma   90.00000000
_symmetry_Int_Tables_number   1
_chemical_formula_structural   Pa2VB8W
_chemical_formula_sum   'Pa2 V1 B8 W1'
_cell_volume   125.52723132
_cell_formula_units_Z   1
loop_
 _symmetry_equiv_pos_site_id
 _symmetry_equiv_pos_as_xyz
  1  'x, y, z'
loop_
 _atom_site_type_symbol
 _atom_site_label
 _atom_site_symmetry_multiplicity
 _atom_site_fract_x
 _atom_site_fract_y
 _atom_site_fract_z
 _atom_site_occupancy
  Pa  Pa0  1  0.000000  0.303780  0.698785  1
  Pa  Pa1  1  0.000000  0.698785  0.303780  1
  V  V2  1  0.000000  0.826289  0.826289  1
  B  B3  1  0.500000  0.934098  0.619122  1
  B  B4  1  0.500000  0.063753  0.381985  1
  B  B5  1  0.500000  0.619122  0.934098  1
  B  B6  1  0.500000  0.381985  0.063753  1
  B  B7  1  0.500000  0.624677  0.624677  1
  B  B8  1  0.500000  0.378829  0.378829  1
  B  B9  1  0.500000  0.090423  0.906344  1
  B  B10  1  0.500000  0.906344  0.090423  1
  W  W11  1  0.000000  0.171914  0.171914  1
