# generated using pymatgen
data_BeAl7(IrRh)4
_symmetry_space_group_name_H-M   'P 1'
_cell_length_a   5.97822284
_cell_length_b   5.97695386
_cell_length_c   5.98055600
_cell_angle_alpha   90.00138022
_cell_angle_beta   89.99963500
_cell_angle_gamma   90.14596196
_symmetry_Int_Tables_number   1
_chemical_formula_structural   BeAl7(IrRh)4
_chemical_formula_sum   'Be1 Al7 Ir4 Rh4'
_cell_volume   213.69391447
_cell_formula_units_Z   1
loop_
 _symmetry_equiv_pos_site_id
 _symmetry_equiv_pos_as_xyz
  1  'x, y, z'
loop_
 _atom_site_type_symbol
 _atom_site_label
 _atom_site_symmetry_multiplicity
 _atom_site_fract_x
 _atom_site_fract_y
 _atom_site_fract_z
 _atom_site_occupancy
  Be  Be0  1  0.499982  0.999996  0.249807  1
  Al  Al1  1  0.500000  0.500018  0.249936  1
  Al  Al2  1  0.999983  0.000001  0.250069  1
  Al  Al3  1  0.000003  0.499996  0.250078  1
  Al  Al4  1  0.999999  0.000014  0.749937  1
  Al  Al5  1  0.000019  0.499979  0.749933  1
  Al  Al6  1  0.500006  0.999992  0.750106  1
  Al  Al7  1  0.499986  0.500003  0.750075  1
  Ir  Ir8  1  0.746976  0.246942  0.002764  1
  Ir  Ir9  1  0.253047  0.753059  0.002763  1
  Ir  Ir10  1  0.746950  0.246922  0.497244  1
  Ir  Ir11  1  0.253088  0.753036  0.497291  1
  Rh  Rh12  1  0.747775  0.752278  0.002584  1
  Rh  Rh13  1  0.252308  0.247734  0.497448  1
  Rh  Rh14  1  0.747682  0.752271  0.497490  1
  Rh  Rh15  1  0.252193  0.247754  0.002476  1
