# generated using pymatgen
data_Lu8Sc12Si15Sn
_symmetry_space_group_name_H-M   'P 1'
_cell_length_a   7.06155944
_cell_length_b   7.34984535
_cell_length_c   13.93727562
_cell_angle_alpha   90.03341595
_cell_angle_beta   89.53534146
_cell_angle_gamma   89.98674051
_symmetry_Int_Tables_number   1
_chemical_formula_structural   Lu8Sc12Si15Sn
_chemical_formula_sum   'Lu8 Sc12 Si15 Sn1'
_cell_volume   723.33976469
_cell_formula_units_Z   1
loop_
 _symmetry_equiv_pos_site_id
 _symmetry_equiv_pos_as_xyz
  1  'x, y, z'
loop_
 _atom_site_type_symbol
 _atom_site_label
 _atom_site_symmetry_multiplicity
 _atom_site_fract_x
 _atom_site_fract_y
 _atom_site_fract_z
 _atom_site_occupancy
  Lu  Lu0  1  0.012222  0.176935  0.096316  1
  Lu  Lu1  1  0.987665  0.823616  0.904634  1
  Lu  Lu2  1  0.488477  0.677223  0.904564  1
  Lu  Lu3  1  0.988422  0.829905  0.597982  1
  Lu  Lu4  1  0.511449  0.322773  0.096577  1
  Lu  Lu5  1  0.005745  0.170196  0.399350  1
  Lu  Lu6  1  0.513592  0.319069  0.399872  1
  Lu  Lu7  1  0.501278  0.685908  0.599598  1
  Sc  Sc8  1  0.162230  0.503349  0.755066  1
  Sc  Sc9  1  0.837091  0.496310  0.249364  1
  Sc  Sc10  1  0.337365  0.004013  0.249443  1
  Sc  Sc11  1  0.664044  0.996012  0.751577  1
  Sc  Sc12  1  0.342682  0.162112  0.630788  1
  Sc  Sc13  1  0.664492  0.825266  0.372761  1
  Sc  Sc14  1  0.163276  0.684137  0.369236  1
  Sc  Sc15  1  0.668052  0.822830  0.124096  1
  Sc  Sc16  1  0.823400  0.323100  0.626481  1
  Sc  Sc17  1  0.330608  0.176106  0.875690  1
  Sc  Sc18  1  0.830815  0.322993  0.875687  1
  Sc  Sc19  1  0.169102  0.677112  0.124996  1
  Si  Si20  1  0.034321  0.115901  0.751223  1
  Si  Si21  1  0.964042  0.887868  0.246823  1
  Si  Si22  1  0.466451  0.612833  0.248630  1
  Si  Si23  1  0.531966  0.388119  0.752082  1
  Si  Si24  1  0.286037  0.867467  0.752374  1
  Si  Si25  1  0.712938  0.129561  0.247532  1
  Si  Si26  1  0.212618  0.369956  0.249246  1
  Si  Si27  1  0.788708  0.630683  0.751387  1
  Si  Si28  1  0.828527  0.538160  0.458743  1
  Si  Si29  1  0.336451  0.964887  0.460179  1
  Si  Si30  1  0.840895  0.533969  0.039413  1
  Si  Si31  1  0.663892  0.036315  0.537982  1
  Si  Si32  1  0.158270  0.465361  0.961690  1
  Si  Si33  1  0.658688  0.034495  0.960672  1
  Si  Si34  1  0.340243  0.966041  0.039941  1
  Sn  Sn35  1  0.173944  0.459413  0.538005  1
