# generated using pymatgen
data_Yb(Zn2Ir)4
_symmetry_space_group_name_H-M   'P 1'
_cell_length_a   6.72151101
_cell_length_b   6.72151130
_cell_length_c   6.72151124
_cell_angle_alpha   100.14070275
_cell_angle_beta   100.14070514
_cell_angle_gamma   130.38102585
_symmetry_Int_Tables_number   1
_chemical_formula_structural   Yb(Zn2Ir)4
_chemical_formula_sum   'Yb1 Zn8 Ir4'
_cell_volume   209.97186208
_cell_formula_units_Z   1
loop_
 _symmetry_equiv_pos_site_id
 _symmetry_equiv_pos_as_xyz
  1  'x, y, z'
loop_
 _atom_site_type_symbol
 _atom_site_label
 _atom_site_symmetry_multiplicity
 _atom_site_fract_x
 _atom_site_fract_y
 _atom_site_fract_z
 _atom_site_occupancy
  Yb  Yb0  1  0.000000  0.000000  0.000000  1
  Zn  Zn1  1  0.729765  0.500000  0.229765  1
  Zn  Zn2  1  0.500000  0.729765  0.229765  1
  Zn  Zn3  1  0.000000  0.325090  0.325090  1
  Zn  Zn4  1  0.325090  0.000000  0.325090  1
  Zn  Zn5  1  0.000000  0.674910  0.674910  1
  Zn  Zn6  1  0.674910  0.000000  0.674910  1
  Zn  Zn7  1  0.500000  0.270235  0.770235  1
  Zn  Zn8  1  0.270235  0.500000  0.770235  1
  Ir  Ir9  1  0.500000  0.000000  0.000000  1
  Ir  Ir10  1  0.000000  0.500000  0.000000  1
  Ir  Ir11  1  0.000000  0.000000  0.500000  1
  Ir  Ir12  1  0.500000  0.500000  0.500000  1
