# generated using pymatgen
data_Ba6ScMo3O14
_symmetry_space_group_name_H-M   'P 1'
_cell_length_a   11.27720518
_cell_length_b   11.27720559
_cell_length_c   5.85895400
_cell_angle_alpha   90.00000000
_cell_angle_beta   90.00000000
_cell_angle_gamma   149.58014655
_symmetry_Int_Tables_number   1
_chemical_formula_structural   Ba6ScMo3O14
_chemical_formula_sum   'Ba6 Sc1 Mo3 O14'
_cell_volume   377.27580998
_cell_formula_units_Z   1
loop_
 _symmetry_equiv_pos_site_id
 _symmetry_equiv_pos_as_xyz
  1  'x, y, z'
loop_
 _atom_site_type_symbol
 _atom_site_label
 _atom_site_symmetry_multiplicity
 _atom_site_fract_x
 _atom_site_fract_y
 _atom_site_fract_z
 _atom_site_occupancy
  Ba  Ba0  1  0.497885  0.502115  0.000000  1
  Ba  Ba1  1  0.998054  0.001946  0.500000  1
  Ba  Ba2  1  0.684420  0.315580  0.000000  1
  Ba  Ba3  1  0.185962  0.814038  0.500000  1
  Ba  Ba4  1  0.816232  0.183768  0.500000  1
  Ba  Ba5  1  0.317320  0.682680  0.000000  1
  Sc  Sc6  1  0.403734  0.596266  0.500000  1
  Mo  Mo7  1  0.903842  0.096158  0.000000  1
  Mo  Mo8  1  0.096526  0.903474  0.000000  1
  Mo  Mo9  1  0.595631  0.404369  0.500000  1
  O  O10  1  0.661081  0.851873  0.757635  1
  O  O11  1  0.148127  0.338919  0.242365  1
  O  O12  1  0.148127  0.338919  0.757635  1
  O  O13  1  0.661081  0.851873  0.242365  1
  O  O14  1  0.840424  0.649846  0.751710  1
  O  O15  1  0.350154  0.159576  0.248290  1
  O  O16  1  0.350154  0.159576  0.751710  1
  O  O17  1  0.840424  0.649846  0.248290  1
  O  O18  1  0.813850  0.186150  0.000000  1
  O  O19  1  0.306601  0.693399  0.500000  1
  O  O20  1  0.694390  0.305610  0.500000  1
  O  O21  1  0.189131  0.810869  0.000000  1
  O  O22  1  0.499435  0.500565  0.500000  1
  O  O23  1  0.997416  0.002584  0.000000  1
