# generated using pymatgen
data_CeNd5CuSb8Pd5
_symmetry_space_group_name_H-M   'P 1'
_cell_length_a   8.58032374
_cell_length_b   8.58032506
_cell_length_c   8.58032388
_cell_angle_alpha   109.26191313
_cell_angle_beta   109.26192414
_cell_angle_gamma   109.89064360
_symmetry_Int_Tables_number   1
_chemical_formula_structural   CeNd5CuSb8Pd5
_chemical_formula_sum   'Ce1 Nd5 Cu1 Sb8 Pd5'
_cell_volume   486.26355396
_cell_formula_units_Z   1
loop_
 _symmetry_equiv_pos_site_id
 _symmetry_equiv_pos_as_xyz
  1  'x, y, z'
loop_
 _atom_site_type_symbol
 _atom_site_label
 _atom_site_symmetry_multiplicity
 _atom_site_fract_x
 _atom_site_fract_y
 _atom_site_fract_z
 _atom_site_occupancy
  Ce  Ce0  1  0.875000  0.125000  0.750000  1
  Nd  Nd1  1  0.128724  0.751207  0.876851  1
  Nd  Nd2  1  0.748127  0.871276  0.122483  1
  Nd  Nd3  1  0.248793  0.625645  0.377517  1
  Nd  Nd4  1  0.625000  0.375000  0.250000  1
  Nd  Nd5  1  0.374355  0.251873  0.623149  1
  Cu  Cu6  1  0.375000  0.625000  0.750000  1
  Sb  Sb7  1  0.499373  0.999635  0.338160  1
  Sb  Sb8  1  0.005326  0.341526  0.503105  1
  Sb  Sb9  1  0.338421  0.502221  0.996895  1
  Sb  Sb10  1  0.000365  0.838525  0.499737  1
  Sb  Sb11  1  0.658474  0.661579  0.663800  1
  Sb  Sb12  1  0.838787  0.500627  0.000263  1
  Sb  Sb13  1  0.161475  0.161213  0.161840  1
  Sb  Sb14  1  0.497779  0.994674  0.836200  1
  Pd  Pd15  1  0.125000  0.875000  0.250000  1
  Pd  Pd16  1  0.247552  0.125920  0.873816  1
  Pd  Pd17  1  0.752104  0.373736  0.626184  1
  Pd  Pd18  1  0.626264  0.752448  0.378367  1
  Pd  Pd19  1  0.874080  0.247896  0.121633  1
