# generated using pymatgen
data_Sm7Y(Er3Pt4)4
_symmetry_space_group_name_H-M   'P 1'
_cell_length_a   7.51587301
_cell_length_b   7.58592305
_cell_length_c   14.75264908
_cell_angle_alpha   90.01204704
_cell_angle_beta   89.99934620
_cell_angle_gamma   89.99548522
_symmetry_Int_Tables_number   1
_chemical_formula_structural   Sm7Y(Er3Pt4)4
_chemical_formula_sum   'Sm7 Y1 Er12 Pt16'
_cell_volume   841.11982104
_cell_formula_units_Z   1
loop_
 _symmetry_equiv_pos_site_id
 _symmetry_equiv_pos_as_xyz
  1  'x, y, z'
loop_
 _atom_site_type_symbol
 _atom_site_label
 _atom_site_symmetry_multiplicity
 _atom_site_fract_x
 _atom_site_fract_y
 _atom_site_fract_z
 _atom_site_occupancy
  Sm  Sm0  1  0.999094  0.821169  0.406545  1
  Sm  Sm1  1  0.498679  0.679380  0.093196  1
  Sm  Sm2  1  0.501278  0.321153  0.593394  1
  Sm  Sm3  1  0.001137  0.178141  0.907084  1
  Sm  Sm4  1  0.001087  0.178845  0.593313  1
  Sm  Sm5  1  0.501290  0.321179  0.906655  1
  Sm  Sm6  1  0.498790  0.678790  0.406529  1
  Y  Y7  1  0.997874  0.820372  0.093667  1
  Er  Er8  1  0.681091  0.989895  0.249475  1
  Er  Er9  1  0.180256  0.510258  0.249640  1
  Er  Er10  1  0.819459  0.490059  0.750130  1
  Er  Er11  1  0.319524  0.009895  0.750141  1
  Er  Er12  1  0.656217  0.832293  0.623041  1
  Er  Er13  1  0.155575  0.668185  0.877449  1
  Er  Er14  1  0.843942  0.332050  0.376834  1
  Er  Er15  1  0.342846  0.166985  0.122785  1
  Er  Er16  1  0.343752  0.167549  0.376803  1
  Er  Er17  1  0.844032  0.332301  0.122875  1
  Er  Er18  1  0.156270  0.667676  0.623103  1
  Er  Er19  1  0.656584  0.832510  0.877215  1
  Pt  Pt20  1  0.816686  0.640852  0.249217  1
  Pt  Pt21  1  0.315146  0.859899  0.249591  1
  Pt  Pt22  1  0.684140  0.140063  0.749974  1
  Pt  Pt23  1  0.184072  0.359969  0.749984  1
  Pt  Pt24  1  0.546599  0.382349  0.249967  1
  Pt  Pt25  1  0.046090  0.117274  0.249587  1
  Pt  Pt26  1  0.953699  0.881929  0.749999  1
  Pt  Pt27  1  0.453667  0.617992  0.750027  1
  Pt  Pt28  1  0.818959  0.535022  0.542383  1
  Pt  Pt29  1  0.318797  0.964428  0.958163  1
  Pt  Pt30  1  0.680892  0.035055  0.457591  1
  Pt  Pt31  1  0.180293  0.466824  0.042932  1
  Pt  Pt32  1  0.180654  0.465053  0.457631  1
  Pt  Pt33  1  0.683023  0.033605  0.042730  1
  Pt  Pt34  1  0.319094  0.965118  0.542418  1
  Pt  Pt35  1  0.819408  0.535886  0.957932  1
