# generated using pymatgen
data_Dy6Y2Tc(B8Ru)3
_symmetry_space_group_name_H-M   'P 1'
_cell_length_a   3.67418800
_cell_length_b   9.15177362
_cell_length_c   11.53653602
_cell_angle_alpha   89.89415430
_cell_angle_beta   90.00000000
_cell_angle_gamma   90.00000000
_symmetry_Int_Tables_number   1
_chemical_formula_structural   Dy6Y2Tc(B8Ru)3
_chemical_formula_sum   'Dy6 Y2 Tc1 B24 Ru3'
_cell_volume   387.91924754
_cell_formula_units_Z   1
loop_
 _symmetry_equiv_pos_site_id
 _symmetry_equiv_pos_as_xyz
  1  'x, y, z'
loop_
 _atom_site_type_symbol
 _atom_site_label
 _atom_site_symmetry_multiplicity
 _atom_site_fract_x
 _atom_site_fract_y
 _atom_site_fract_z
 _atom_site_occupancy
  Dy  Dy0  1  0.000000  0.821258  0.088026  1
  Dy  Dy1  1  0.000000  0.176392  0.914981  1
  Dy  Dy2  1  0.000000  0.943578  0.372266  1
  Dy  Dy3  1  0.000000  0.057007  0.628426  1
  Dy  Dy4  1  0.000000  0.444261  0.128119  1
  Dy  Dy5  1  0.000000  0.556615  0.871281  1
  Y  Y6  1  0.000000  0.324632  0.413263  1
  Y  Y7  1  0.000000  0.676444  0.583556  1
  Tc  Tc8  1  0.000000  0.638046  0.321061  1
  B  B9  1  0.500000  0.553153  0.432972  1
  B  B10  1  0.500000  0.446105  0.567624  1
  B  B11  1  0.500000  0.053914  0.067281  1
  B  B12  1  0.500000  0.945937  0.932975  1
  B  B13  1  0.500000  0.748128  0.419378  1
  B  B14  1  0.500000  0.252167  0.580647  1
  B  B15  1  0.500000  0.247854  0.080275  1
  B  B16  1  0.500000  0.751979  0.919607  1
  B  B17  1  0.500000  0.791609  0.266194  1
  B  B18  1  0.500000  0.209061  0.733788  1
  B  B19  1  0.500000  0.290975  0.232893  1
  B  B20  1  0.500000  0.709501  0.766369  1
  B  B21  1  0.500000  0.632190  0.185689  1
  B  B22  1  0.500000  0.367476  0.814655  1
  B  B23  1  0.500000  0.132153  0.314006  1
  B  B24  1  0.500000  0.868278  0.685607  1
  B  B25  1  0.500000  0.983892  0.212586  1
  B  B26  1  0.500000  0.016060  0.787869  1
  B  B27  1  0.500000  0.483171  0.287276  1
  B  B28  1  0.500000  0.515696  0.712671  1
  B  B29  1  0.500000  0.608389  0.029353  1
  B  B30  1  0.500000  0.391097  0.969581  1
  B  B31  1  0.500000  0.109027  0.470241  1
  B  B32  1  0.500000  0.892422  0.530401  1
  Ru  Ru33  1  0.000000  0.361510  0.679503  1
  Ru  Ru34  1  0.000000  0.137893  0.178236  1
  Ru  Ru35  1  0.000000  0.862130  0.821346  1
