# generated using pymatgen
data_DyY3LuSn3
_symmetry_space_group_name_H-M   'P 1'
_cell_length_a   8.94906400
_cell_length_b   8.94906470
_cell_length_c   6.51426700
_cell_angle_alpha   90.00000000
_cell_angle_beta   90.00000000
_cell_angle_gamma   120.00000479
_symmetry_Int_Tables_number   1
_chemical_formula_structural   DyY3LuSn3
_chemical_formula_sum   'Dy2 Y6 Lu2 Sn6'
_cell_volume   451.80541100
_cell_formula_units_Z   2
loop_
 _symmetry_equiv_pos_site_id
 _symmetry_equiv_pos_as_xyz
  1  'x, y, z'
loop_
 _atom_site_type_symbol
 _atom_site_label
 _atom_site_symmetry_multiplicity
 _atom_site_fract_x
 _atom_site_fract_y
 _atom_site_fract_z
 _atom_site_occupancy
  Dy  Dy0  1  0.666667  0.333333  0.000000  1
  Dy  Dy1  1  0.333333  0.666667  0.000000  1
  Y  Y2  1  0.760121  0.760121  0.749439  1
  Y  Y3  1  0.239879  0.000000  0.749439  1
  Y  Y4  1  0.000000  0.239879  0.749439  1
  Y  Y5  1  0.239879  0.239879  0.250561  1
  Y  Y6  1  0.760121  0.000000  0.250561  1
  Y  Y7  1  0.000000  0.760121  0.250561  1
  Lu  Lu8  1  0.333333  0.666667  0.500000  1
  Lu  Lu9  1  0.666667  0.333333  0.500000  1
  Sn  Sn10  1  0.395687  0.395687  0.747202  1
  Sn  Sn11  1  0.604313  0.000000  0.747202  1
  Sn  Sn12  1  0.000000  0.604313  0.747202  1
  Sn  Sn13  1  0.604313  0.604313  0.252798  1
  Sn  Sn14  1  0.395687  0.000000  0.252798  1
  Sn  Sn15  1  0.000000  0.395687  0.252798  1
