# generated using pymatgen
data_LiDy9S10
_symmetry_space_group_name_H-M   'P 1'
_cell_length_a   6.72468655
_cell_length_b   7.77339192
_cell_length_c   8.73965175
_cell_angle_alpha   103.20917072
_cell_angle_beta   97.20707767
_cell_angle_gamma   106.90447490
_symmetry_Int_Tables_number   1
_chemical_formula_structural   LiDy9S10
_chemical_formula_sum   'Li1 Dy9 S10'
_cell_volume   416.41934503
_cell_formula_units_Z   1
loop_
 _symmetry_equiv_pos_site_id
 _symmetry_equiv_pos_as_xyz
  1  'x, y, z'
loop_
 _atom_site_type_symbol
 _atom_site_label
 _atom_site_symmetry_multiplicity
 _atom_site_fract_x
 _atom_site_fract_y
 _atom_site_fract_z
 _atom_site_occupancy
  Li  Li0  1  0.000000  0.500000  0.000000  1
  Dy  Dy1  1  0.799700  0.600430  0.599758  1
  Dy  Dy2  1  0.601280  0.200784  0.203893  1
  Dy  Dy3  1  0.398720  0.799216  0.796107  1
  Dy  Dy4  1  0.600357  0.702553  0.203546  1
  Dy  Dy5  1  0.200300  0.399570  0.400242  1
  Dy  Dy6  1  0.399643  0.297447  0.796454  1
  Dy  Dy7  1  0.000000  0.000000  0.000000  1
  Dy  Dy8  1  0.201161  0.901172  0.403192  1
  Dy  Dy9  1  0.798839  0.098828  0.596808  1
  S  S10  1  0.704413  0.647038  0.903474  1
  S  S11  1  0.500690  0.251142  0.499927  1
  S  S12  1  0.705079  0.156948  0.903539  1
  S  S13  1  0.294921  0.843052  0.096461  1
  S  S14  1  0.499310  0.748858  0.500073  1
  S  S15  1  0.096753  0.450968  0.706748  1
  S  S16  1  0.295587  0.352962  0.096526  1
  S  S17  1  0.902446  0.050179  0.298783  1
  S  S18  1  0.097554  0.949821  0.701217  1
  S  S19  1  0.903247  0.549032  0.293252  1
