# generated using pymatgen
data_YHo2Sc3FeBi2
_symmetry_space_group_name_H-M   'P 1'
_cell_length_a   7.96613978
_cell_length_b   7.97957195
_cell_length_c   4.16910300
_cell_angle_alpha   90.00000000
_cell_angle_beta   90.00000000
_cell_angle_gamma   120.05579899
_symmetry_Int_Tables_number   1
_chemical_formula_structural   YHo2Sc3FeBi2
_chemical_formula_sum   'Y1 Ho2 Sc3 Fe1 Bi2'
_cell_volume   229.38040185
_cell_formula_units_Z   1
loop_
 _symmetry_equiv_pos_site_id
 _symmetry_equiv_pos_as_xyz
  1  'x, y, z'
loop_
 _atom_site_type_symbol
 _atom_site_label
 _atom_site_symmetry_multiplicity
 _atom_site_fract_x
 _atom_site_fract_y
 _atom_site_fract_z
 _atom_site_occupancy
  Y  Y0  1  0.000000  0.613057  0.500000  1
  Ho  Ho1  1  0.385865  0.385893  0.500000  1
  Ho  Ho2  1  0.614135  0.000028  0.500000  1
  Sc  Sc3  1  0.221819  0.000545  0.000000  1
  Sc  Sc4  1  0.778181  0.778726  0.000000  1
  Sc  Sc5  1  0.000000  0.221347  0.000000  1
  Fe  Fe6  1  0.000000  0.000832  0.500000  1
  Bi  Bi7  1  0.333733  0.666653  0.000000  1
  Bi  Bi8  1  0.666267  0.332919  0.000000  1
