# generated using pymatgen
data_As(S8F)3
_symmetry_space_group_name_H-M   'P 1'
_cell_length_a   14.65481516
_cell_length_b   14.65481550
_cell_length_c   14.65481410
_cell_angle_alpha   118.77508350
_cell_angle_beta   118.77508502
_cell_angle_gamma   118.77508778
_symmetry_Int_Tables_number   1
_chemical_formula_structural   As(S8F)3
_chemical_formula_sum   'As1 S24 F3'
_cell_volume   899.90513763
_cell_formula_units_Z   1
loop_
 _symmetry_equiv_pos_site_id
 _symmetry_equiv_pos_as_xyz
  1  'x, y, z'
loop_
 _atom_site_type_symbol
 _atom_site_label
 _atom_site_symmetry_multiplicity
 _atom_site_fract_x
 _atom_site_fract_y
 _atom_site_fract_z
 _atom_site_occupancy
  As  As0  1  0.791830  0.791830  0.791830  1
  S  S1  1  0.806991  0.529875  0.529875  1
  S  S2  1  0.529875  0.529875  0.806991  1
  S  S3  1  0.529875  0.806991  0.529875  1
  S  S4  1  0.240842  0.374065  0.628053  1
  S  S5  1  0.357824  0.961884  0.357824  1
  S  S6  1  0.357824  0.357824  0.961884  1
  S  S7  1  0.961884  0.357824  0.357824  1
  S  S8  1  0.119833  0.736919  0.252148  1
  S  S9  1  0.252148  0.119833  0.736919  1
  S  S10  1  0.736919  0.252148  0.119833  1
  S  S11  1  0.736919  0.119833  0.252148  1
  S  S12  1  0.252148  0.736919  0.119833  1
  S  S13  1  0.119833  0.252148  0.736919  1
  S  S14  1  0.350640  0.884764  0.538177  1
  S  S15  1  0.538177  0.350640  0.884764  1
  S  S16  1  0.884764  0.538177  0.350640  1
  S  S17  1  0.884764  0.350640  0.538177  1
  S  S18  1  0.538177  0.884764  0.350640  1
  S  S19  1  0.350640  0.538177  0.884764  1
  S  S20  1  0.240842  0.628053  0.374065  1
  S  S21  1  0.374065  0.240842  0.628053  1
  S  S22  1  0.628053  0.374065  0.240842  1
  S  S23  1  0.628053  0.240842  0.374065  1
  S  S24  1  0.374065  0.628053  0.240842  1
  F  F25  1  0.910451  0.013930  0.013930  1
  F  F26  1  0.013930  0.013930  0.910451  1
  F  F27  1  0.013930  0.910451  0.013930  1
