# generated using pymatgen
data_LaPa(Al3Ir)3
_symmetry_space_group_name_H-M   'P 1'
_cell_length_a   7.65695226
_cell_length_b   7.64699260
_cell_length_c   9.45835700
_cell_angle_alpha   90.00000000
_cell_angle_beta   90.00000000
_cell_angle_gamma   119.59835360
_symmetry_Int_Tables_number   1
_chemical_formula_structural   LaPa(Al3Ir)3
_chemical_formula_sum   'La2 Pa2 Al18 Ir6'
_cell_volume   481.54453010
_cell_formula_units_Z   2
loop_
 _symmetry_equiv_pos_site_id
 _symmetry_equiv_pos_as_xyz
  1  'x, y, z'
loop_
 _atom_site_type_symbol
 _atom_site_label
 _atom_site_symmetry_multiplicity
 _atom_site_fract_x
 _atom_site_fract_y
 _atom_site_fract_z
 _atom_site_occupancy
  La  La0  1  0.669291  0.994297  0.250000  1
  La  La1  1  0.330709  0.005703  0.750000  1
  Pa  Pa2  1  0.997175  0.671176  0.250000  1
  Pa  Pa3  1  0.002825  0.328824  0.750000  1
  Al  Al4  1  0.132454  0.128678  0.250000  1
  Al  Al5  1  0.867546  0.871322  0.750000  1
  Al  Al6  1  0.002931  0.334873  0.075287  1
  Al  Al7  1  0.997069  0.665127  0.924713  1
  Al  Al8  1  0.997069  0.665127  0.575287  1
  Al  Al9  1  0.335459  0.003543  0.424402  1
  Al  Al10  1  0.002931  0.334873  0.424713  1
  Al  Al11  1  0.664541  0.996457  0.575598  1
  Al  Al12  1  0.664541  0.996457  0.924402  1
  Al  Al13  1  0.335459  0.003543  0.075598  1
  Al  Al14  1  0.334833  0.335270  0.550241  1
  Al  Al15  1  0.665167  0.664730  0.449759  1
  Al  Al16  1  0.665167  0.664730  0.050241  1
  Al  Al17  1  0.334833  0.335270  0.949759  1
  Al  Al18  1  0.337190  0.544955  0.250000  1
  Al  Al19  1  0.662810  0.455045  0.750000  1
  Al  Al20  1  0.550038  0.346586  0.250000  1
  Al  Al21  1  0.449962  0.653414  0.750000  1
  Ir  Ir22  1  0.676000  0.331113  0.999682  1
  Ir  Ir23  1  0.324000  0.668887  0.000318  1
  Ir  Ir24  1  0.324000  0.668887  0.499682  1
  Ir  Ir25  1  0.676000  0.331113  0.500318  1
  Ir  Ir26  1  0.000000  0.000000  0.000000  1
  Ir  Ir27  1  0.000000  0.000000  0.500000  1
