# generated using pymatgen
data_Li4B4Ir3Rh
_symmetry_space_group_name_H-M   'P 1'
_cell_length_a   6.98289586
_cell_length_b   6.09238227
_cell_length_c   5.53926500
_cell_angle_alpha   73.61485851
_cell_angle_beta   56.82870309
_cell_angle_gamma   49.70194769
_symmetry_Int_Tables_number   1
_chemical_formula_structural   Li4B4Ir3Rh
_chemical_formula_sum   'Li4 B4 Ir3 Rh1'
_cell_volume   149.48781976
_cell_formula_units_Z   1
loop_
 _symmetry_equiv_pos_site_id
 _symmetry_equiv_pos_as_xyz
  1  'x, y, z'
loop_
 _atom_site_type_symbol
 _atom_site_label
 _atom_site_symmetry_multiplicity
 _atom_site_fract_x
 _atom_site_fract_y
 _atom_site_fract_z
 _atom_site_occupancy
  Li  Li0  1  0.125025  0.624104  0.623628  1
  Li  Li1  1  0.625763  0.624618  0.624852  1
  Li  Li2  1  0.624618  0.625763  0.124768  1
  Li  Li3  1  0.624104  0.125025  0.627244  1
  B  B4  1  0.430059  0.068022  0.425578  1
  B  B5  1  0.174638  0.825782  0.176008  1
  B  B6  1  0.068022  0.430059  0.076341  1
  B  B7  1  0.825782  0.174638  0.823572  1
  Ir  Ir8  1  0.867623  0.867623  0.132377  1
  Ir  Ir9  1  0.133913  0.133913  0.866087  1
  Ir  Ir10  1  0.117450  0.117450  0.382550  1
  Rh  Rh11  1  0.383004  0.383004  0.116996  1
