# generated using pymatgen
data_Tb3Y3Zr2(Co4P3)4
_symmetry_space_group_name_H-M   'P 1'
_cell_length_a   3.72638600
_cell_length_b   10.70582601
_cell_length_c   12.43832801
_cell_angle_alpha   89.99552423
_cell_angle_beta   90.00000000
_cell_angle_gamma   90.00000000
_symmetry_Int_Tables_number   1
_chemical_formula_structural   Tb3Y3Zr2(Co4P3)4
_chemical_formula_sum   'Tb3 Y3 Zr2 Co16 P12'
_cell_volume   496.21515556
_cell_formula_units_Z   1
loop_
 _symmetry_equiv_pos_site_id
 _symmetry_equiv_pos_as_xyz
  1  'x, y, z'
loop_
 _atom_site_type_symbol
 _atom_site_label
 _atom_site_symmetry_multiplicity
 _atom_site_fract_x
 _atom_site_fract_y
 _atom_site_fract_z
 _atom_site_occupancy
  Tb  Tb0  1  0.000000  0.500000  0.529212  1
  Tb  Tb1  1  0.500000  0.000004  0.470758  1
  Tb  Tb2  1  0.000000  0.321555  0.795086  1
  Y  Y3  1  0.500000  0.821529  0.204893  1
  Y  Y4  1  0.500000  0.178475  0.204899  1
  Y  Y5  1  0.000000  0.678467  0.795123  1
  Zr  Zr6  1  0.500000  0.500001  0.158010  1
  Zr  Zr7  1  0.000000  0.999995  0.841996  1
  Co  Co8  1  0.500000  0.500005  0.703506  1
  Co  Co9  1  0.000000  0.999997  0.296494  1
  Co  Co10  1  0.000000  0.500014  0.985970  1
  Co  Co11  1  0.500000  0.999998  0.014037  1
  Co  Co12  1  0.500000  0.332075  0.992843  1
  Co  Co13  1  0.500000  0.667931  0.992829  1
  Co  Co14  1  0.000000  0.167930  0.007177  1
  Co  Co15  1  0.000000  0.832055  0.007175  1
  Co  Co16  1  0.500000  0.295175  0.433390  1
  Co  Co17  1  0.500000  0.704830  0.433396  1
  Co  Co18  1  0.000000  0.204835  0.566588  1
  Co  Co19  1  0.000000  0.795163  0.566589  1
  Co  Co20  1  0.500000  0.877911  0.701098  1
  Co  Co21  1  0.500000  0.122079  0.701089  1
  Co  Co22  1  0.000000  0.622090  0.298911  1
  Co  Co23  1  0.000000  0.377904  0.298909  1
  P  P24  1  0.500000  0.500016  0.883863  1
  P  P25  1  0.000000  0.000002  0.116161  1
  P  P26  1  0.500000  0.499999  0.362646  1
  P  P27  1  0.000000  0.000007  0.637366  1
  P  P28  1  0.500000  0.309361  0.615256  1
  P  P29  1  0.500000  0.690617  0.615278  1
  P  P30  1  0.000000  0.190625  0.384722  1
  P  P31  1  0.000000  0.809378  0.384724  1
  P  P32  1  0.500000  0.838475  0.894622  1
  P  P33  1  0.500000  0.161504  0.894645  1
  P  P34  1  0.000000  0.661530  0.105375  1
  P  P35  1  0.000000  0.338468  0.105364  1
