# generated using pymatgen
data_Ho9Tm(SiB4)4
_symmetry_space_group_name_H-M   'P 1'
_cell_length_a   7.19979900
_cell_length_b   7.19979900
_cell_length_c   8.04167700
_cell_angle_alpha   90.00000000
_cell_angle_beta   90.00000000
_cell_angle_gamma   90.00000000
_symmetry_Int_Tables_number   1
_chemical_formula_structural   Ho9Tm(SiB4)4
_chemical_formula_sum   'Ho9 Tm1 Si4 B16'
_cell_volume   416.85726017
_cell_formula_units_Z   1
loop_
 _symmetry_equiv_pos_site_id
 _symmetry_equiv_pos_as_xyz
  1  'x, y, z'
loop_
 _atom_site_type_symbol
 _atom_site_label
 _atom_site_symmetry_multiplicity
 _atom_site_fract_x
 _atom_site_fract_y
 _atom_site_fract_z
 _atom_site_occupancy
  Ho  Ho0  1  0.680403  0.180132  0.224097  1
  Ho  Ho1  1  0.319597  0.819868  0.775903  1
  Ho  Ho2  1  0.319597  0.819868  0.224097  1
  Ho  Ho3  1  0.819868  0.680403  0.224097  1
  Ho  Ho4  1  0.819868  0.680403  0.775903  1
  Ho  Ho5  1  0.680403  0.180132  0.775903  1
  Ho  Ho6  1  0.180132  0.319597  0.775903  1
  Ho  Ho7  1  0.180132  0.319597  0.224097  1
  Ho  Ho8  1  0.500000  0.500000  0.500000  1
  Tm  Tm9  1  0.000000  0.000000  0.500000  1
  Si  Si10  1  0.114875  0.616377  0.500000  1
  Si  Si11  1  0.885125  0.383623  0.500000  1
  Si  Si12  1  0.383623  0.114875  0.500000  1
  Si  Si13  1  0.616377  0.885125  0.500000  1
  B  B14  1  0.172601  0.039082  0.000000  1
  B  B15  1  0.827399  0.960918  0.000000  1
  B  B16  1  0.960918  0.172601  0.000000  1
  B  B17  1  0.327393  0.539128  0.000000  1
  B  B18  1  0.039082  0.827399  0.000000  1
  B  B19  1  0.672607  0.460872  0.000000  1
  B  B20  1  0.539128  0.672607  0.000000  1
  B  B21  1  0.460872  0.327393  0.000000  1
  B  B22  1  0.089813  0.589760  0.000000  1
  B  B23  1  0.910187  0.410240  0.000000  1
  B  B24  1  0.410240  0.089813  0.000000  1
  B  B25  1  0.589760  0.910187  0.000000  1
  B  B26  1  0.000000  0.000000  0.163791  1
  B  B27  1  0.000000  0.000000  0.836209  1
  B  B28  1  0.500000  0.500000  0.836613  1
  B  B29  1  0.500000  0.500000  0.163387  1
