# generated using pymatgen
data_La12Ni5HgRu
_symmetry_space_group_name_H-M   'P 1'
_cell_length_a   8.91850856
_cell_length_b   8.91850818
_cell_length_c   8.91850836
_cell_angle_alpha   110.21897425
_cell_angle_beta   109.02426033
_cell_angle_gamma   109.17305510
_symmetry_Int_Tables_number   1
_chemical_formula_structural   La12Ni5HgRu
_chemical_formula_sum   'La12 Ni5 Hg1 Ru1'
_cell_volume   546.00737920
_cell_formula_units_Z   1
loop_
 _symmetry_equiv_pos_site_id
 _symmetry_equiv_pos_as_xyz
  1  'x, y, z'
loop_
 _atom_site_type_symbol
 _atom_site_label
 _atom_site_symmetry_multiplicity
 _atom_site_fract_x
 _atom_site_fract_y
 _atom_site_fract_z
 _atom_site_occupancy
  La  La0  1  0.818982  0.686828  0.506771  1
  La  La1  1  0.180056  0.312209  0.493229  1
  La  La2  1  0.180056  0.686828  0.867847  1
  La  La3  1  0.818982  0.312209  0.132153  1
  La  La4  1  0.694305  0.508927  0.814623  1
  La  La5  1  0.311954  0.496440  0.184486  1
  La  La6  1  0.694305  0.879682  0.185377  1
  La  La7  1  0.311954  0.127468  0.815514  1
  La  La8  1  0.507104  0.817735  0.689369  1
  La  La9  1  0.489080  0.183150  0.305928  1
  La  La10  1  0.128366  0.817735  0.310631  1
  La  La11  1  0.877222  0.183150  0.694072  1
  Ni  Ni12  1  0.129660  0.629660  0.500000  1
  Ni  Ni13  1  0.381641  0.504644  0.876997  1
  Ni  Ni14  1  0.627647  0.504644  0.123003  1
  Ni  Ni15  1  0.498374  0.871749  0.373375  1
  Ni  Ni16  1  0.498374  0.125000  0.626625  1
  Hg  Hg17  1  0.999022  0.999022  0.000000  1
  Ru  Ru18  1  0.852916  0.352916  0.500000  1
