# generated using pymatgen
data_TbHo3(TcB2)4
_symmetry_space_group_name_H-M   'P 1'
_cell_length_a   5.28745600
_cell_length_b   5.95065041
_cell_length_c   6.44210431
_cell_angle_alpha   90.05721952
_cell_angle_beta   90.00000000
_cell_angle_gamma   90.00000000
_symmetry_Int_Tables_number   1
_chemical_formula_structural   TbHo3(TcB2)4
_chemical_formula_sum   'Tb1 Ho3 Tc4 B8'
_cell_volume   202.69299481
_cell_formula_units_Z   1
loop_
 _symmetry_equiv_pos_site_id
 _symmetry_equiv_pos_as_xyz
  1  'x, y, z'
loop_
 _atom_site_type_symbol
 _atom_site_label
 _atom_site_symmetry_multiplicity
 _atom_site_fract_x
 _atom_site_fract_y
 _atom_site_fract_z
 _atom_site_occupancy
  Tb  Tb0  1  0.750000  0.486860  0.840447  1
  Ho  Ho1  1  0.250000  0.014598  0.338592  1
  Ho  Ho2  1  0.250000  0.514605  0.161619  1
  Ho  Ho3  1  0.750000  0.986647  0.660268  1
  Tc  Tc4  1  0.250000  0.181010  0.814872  1
  Tc  Tc5  1  0.250000  0.682179  0.684369  1
  Tc  Tc6  1  0.750000  0.818898  0.185923  1
  Tc  Tc7  1  0.750000  0.318254  0.315153  1
  B  B8  1  0.078425  0.370337  0.535692  1
  B  B9  1  0.421679  0.870307  0.963780  1
  B  B10  1  0.577977  0.629437  0.463908  1
  B  B11  1  0.921676  0.128394  0.035998  1
  B  B12  1  0.922023  0.629437  0.463908  1
  B  B13  1  0.578324  0.128394  0.035998  1
  B  B14  1  0.421575  0.370337  0.535692  1
  B  B15  1  0.078321  0.870307  0.963780  1
