# generated using pymatgen
data_Er9Lu(SiBi)4
_symmetry_space_group_name_H-M   'P 1'
_cell_length_a   8.57915537
_cell_length_b   8.57915608
_cell_length_c   7.84817500
_cell_angle_alpha   89.99987899
_cell_angle_beta   89.99988158
_cell_angle_gamma   125.68101752
_symmetry_Int_Tables_number   1
_chemical_formula_structural   Er9Lu(SiBi)4
_chemical_formula_sum   'Er9 Lu1 Si4 Bi4'
_cell_volume   469.20414158
_cell_formula_units_Z   1
loop_
 _symmetry_equiv_pos_site_id
 _symmetry_equiv_pos_as_xyz
  1  'x, y, z'
loop_
 _atom_site_type_symbol
 _atom_site_label
 _atom_site_symmetry_multiplicity
 _atom_site_fract_x
 _atom_site_fract_y
 _atom_site_fract_z
 _atom_site_occupancy
  Er  Er0  1  0.042464  0.285502  0.336025  1
  Er  Er1  1  0.957536  0.714498  0.663975  1
  Er  Er2  1  0.457176  0.214083  0.836355  1
  Er  Er3  1  0.785917  0.542824  0.163645  1
  Er  Er4  1  0.542824  0.785917  0.163645  1
  Er  Er5  1  0.214083  0.457176  0.836355  1
  Er  Er6  1  0.714498  0.957536  0.663975  1
  Er  Er7  1  0.285502  0.042464  0.336025  1
  Er  Er8  1  0.500000  0.500000  0.500000  1
  Lu  Lu9  1  0.000000  0.000000  0.000000  1
  Si  Si10  1  0.364353  0.364353  0.133887  1
  Si  Si11  1  0.635647  0.635647  0.866113  1
  Si  Si12  1  0.135142  0.135142  0.634504  1
  Si  Si13  1  0.864858  0.864858  0.365496  1
  Bi  Bi14  1  0.792909  0.207091  0.000000  1
  Bi  Bi15  1  0.207092  0.792909  0.000000  1
  Bi  Bi16  1  0.707436  0.292564  0.500000  1
  Bi  Bi17  1  0.292564  0.707436  0.500000  1
