# generated using pymatgen
data_Tb9Y7Cd3AgIr4
_symmetry_space_group_name_H-M   'P 1'
_cell_length_a   9.67089363
_cell_length_b   9.67089326
_cell_length_c   9.67374988
_cell_angle_alpha   59.93106891
_cell_angle_beta   59.93107265
_cell_angle_gamma   59.96963450
_symmetry_Int_Tables_number   1
_chemical_formula_structural   Tb9Y7Cd3AgIr4
_chemical_formula_sum   'Tb9 Y7 Cd3 Ag1 Ir4'
_cell_volume   638.94023101
_cell_formula_units_Z   1
loop_
 _symmetry_equiv_pos_site_id
 _symmetry_equiv_pos_as_xyz
  1  'x, y, z'
loop_
 _atom_site_type_symbol
 _atom_site_label
 _atom_site_symmetry_multiplicity
 _atom_site_fract_x
 _atom_site_fract_y
 _atom_site_fract_z
 _atom_site_occupancy
  Tb  Tb0  1  0.348747  0.348747  0.349167  1
  Tb  Tb1  1  0.349368  0.349368  0.953002  1
  Tb  Tb2  1  0.349949  0.953111  0.349384  1
  Tb  Tb3  1  0.953111  0.349949  0.349384  1
  Tb  Tb4  1  0.809362  0.189667  0.189595  1
  Tb  Tb5  1  0.187887  0.809212  0.809731  1
  Tb  Tb6  1  0.189667  0.809362  0.189595  1
  Tb  Tb7  1  0.809212  0.187887  0.809731  1
  Tb  Tb8  1  0.189542  0.189542  0.809718  1
  Y  Y9  1  0.809602  0.809602  0.187786  1
  Y  Y10  1  0.936930  0.561417  0.561497  1
  Y  Y11  1  0.561697  0.936440  0.936777  1
  Y  Y12  1  0.561417  0.936930  0.561497  1
  Y  Y13  1  0.936440  0.561697  0.936777  1
  Y  Y14  1  0.561213  0.561213  0.937057  1
  Y  Y15  1  0.936782  0.936782  0.561584  1
  Cd  Cd16  1  0.581671  0.581671  0.258602  1
  Cd  Cd17  1  0.581598  0.258381  0.581413  1
  Cd  Cd18  1  0.258381  0.581598  0.581413  1
  Ag  Ag19  1  0.583187  0.583187  0.582629  1
  Ir  Ir20  1  0.141341  0.141341  0.141905  1
  Ir  Ir21  1  0.143130  0.143130  0.576001  1
  Ir  Ir22  1  0.144299  0.575473  0.142878  1
  Ir  Ir23  1  0.575473  0.144299  0.142878  1
