# generated using pymatgen
data_Dy3Er13(In3Co)2
_symmetry_space_group_name_H-M   'P 1'
_cell_length_a   10.30026900
_cell_length_b   10.30026908
_cell_length_c   6.93974200
_cell_angle_alpha   90.00000000
_cell_angle_beta   90.00000000
_cell_angle_gamma   119.99999653
_symmetry_Int_Tables_number   1
_chemical_formula_structural   Dy3Er13(In3Co)2
_chemical_formula_sum   'Dy3 Er13 In6 Co2'
_cell_volume   637.63347472
_cell_formula_units_Z   1
loop_
 _symmetry_equiv_pos_site_id
 _symmetry_equiv_pos_as_xyz
  1  'x, y, z'
loop_
 _atom_site_type_symbol
 _atom_site_label
 _atom_site_symmetry_multiplicity
 _atom_site_fract_x
 _atom_site_fract_y
 _atom_site_fract_z
 _atom_site_occupancy
  Dy  Dy0  1  0.534108  0.068216  0.791345  1
  Dy  Dy1  1  0.931784  0.465892  0.791345  1
  Dy  Dy2  1  0.534108  0.465892  0.791345  1
  Er  Er3  1  0.465486  0.930971  0.291512  1
  Er  Er4  1  0.069029  0.534514  0.291512  1
  Er  Er5  1  0.465486  0.534514  0.291512  1
  Er  Er6  1  0.821796  0.643591  0.499629  1
  Er  Er7  1  0.356409  0.178204  0.499629  1
  Er  Er8  1  0.821796  0.178204  0.499629  1
  Er  Er9  1  0.178218  0.356436  0.000425  1
  Er  Er10  1  0.643564  0.821782  0.000425  1
  Er  Er11  1  0.178218  0.821782  0.000425  1
  Er  Er12  1  0.666667  0.333333  0.182783  1
  Er  Er13  1  0.333333  0.666667  0.681970  1
  Er  Er14  1  0.000000  0.000000  0.779210  1
  Er  Er15  1  0.000000  0.000000  0.279444  1
  In  In16  1  0.837090  0.674181  0.037904  1
  In  In17  1  0.325819  0.162910  0.037904  1
  In  In18  1  0.837090  0.162910  0.037904  1
  In  In19  1  0.163061  0.326122  0.537431  1
  In  In20  1  0.673878  0.836939  0.537431  1
  In  In21  1  0.163061  0.836939  0.537431  1
  Co  Co22  1  0.666667  0.333333  0.568615  1
  Co  Co23  1  0.333333  0.666667  0.069148  1
