# generated using pymatgen
data_TbHo2Th(AlRh)4
_symmetry_space_group_name_H-M   'P 1'
_cell_length_a   4.21746700
_cell_length_b   6.92405818
_cell_length_c   8.02471229
_cell_angle_alpha   90.08538572
_cell_angle_beta   90.00000000
_cell_angle_gamma   90.00000000
_symmetry_Int_Tables_number   1
_chemical_formula_structural   TbHo2Th(AlRh)4
_chemical_formula_sum   'Tb1 Ho2 Th1 Al4 Rh4'
_cell_volume   234.33728260
_cell_formula_units_Z   1
loop_
 _symmetry_equiv_pos_site_id
 _symmetry_equiv_pos_as_xyz
  1  'x, y, z'
loop_
 _atom_site_type_symbol
 _atom_site_label
 _atom_site_symmetry_multiplicity
 _atom_site_fract_x
 _atom_site_fract_y
 _atom_site_fract_z
 _atom_site_occupancy
  Tb  Tb0  1  0.250000  0.040263  0.322937  1
  Ho  Ho1  1  0.750000  0.457809  0.813867  1
  Ho  Ho2  1  0.750000  0.958505  0.680353  1
  Th  Th3  1  0.250000  0.539262  0.176057  1
  Al  Al4  1  0.250000  0.632974  0.565153  1
  Al  Al5  1  0.750000  0.360903  0.444570  1
  Al  Al6  1  0.750000  0.876815  0.057561  1
  Al  Al7  1  0.250000  0.131792  0.936450  1
  Rh  Rh8  1  0.250000  0.760489  0.882134  1
  Rh  Rh9  1  0.750000  0.245531  0.122488  1
  Rh  Rh10  1  0.750000  0.735284  0.376509  1
  Rh  Rh11  1  0.250000  0.260375  0.621919  1
