# generated using pymatgen
data_Y2HoTm3FeBi2
_symmetry_space_group_name_H-M   'P 1'
_cell_length_a   8.24072200
_cell_length_b   8.26857636
_cell_length_c   4.17256100
_cell_angle_alpha   90.00000000
_cell_angle_beta   90.00000000
_cell_angle_gamma   119.88862671
_symmetry_Int_Tables_number   1
_chemical_formula_structural   Y2HoTm3FeBi2
_chemical_formula_sum   'Y2 Ho1 Tm3 Fe1 Bi2'
_cell_volume   246.49926799
_cell_formula_units_Z   1
loop_
 _symmetry_equiv_pos_site_id
 _symmetry_equiv_pos_as_xyz
  1  'x, y, z'
loop_
 _atom_site_type_symbol
 _atom_site_label
 _atom_site_symmetry_multiplicity
 _atom_site_fract_x
 _atom_site_fract_y
 _atom_site_fract_z
 _atom_site_occupancy
  Y  Y0  1  0.999979  0.609021  0.000000  1
  Y  Y1  1  0.390958  0.390979  0.000000  1
  Ho  Ho2  1  0.609904  0.000000  0.000000  1
  Tm  Tm3  1  0.228951  0.000000  0.500000  1
  Tm  Tm4  1  0.999274  0.228152  0.500000  1
  Tm  Tm5  1  0.771122  0.771848  0.500000  1
  Fe  Fe6  1  0.999295  0.000000  0.000000  1
  Bi  Bi7  1  0.333768  0.667021  0.500000  1
  Bi  Bi8  1  0.666749  0.332979  0.500000  1
