# generated using pymatgen
data_Dy16Tm4Bi3Pb13
_symmetry_space_group_name_H-M   'P 1'
_cell_length_a   8.26443246
_cell_length_b   15.59732585
_cell_length_c   8.29130300
_cell_angle_alpha   90.11906350
_cell_angle_beta   89.94046791
_cell_angle_gamma   89.74127797
_symmetry_Int_Tables_number   1
_chemical_formula_structural   Dy16Tm4Bi3Pb13
_chemical_formula_sum   'Dy16 Tm4 Bi3 Pb13'
_cell_volume   1068.76042096
_cell_formula_units_Z   1
loop_
 _symmetry_equiv_pos_site_id
 _symmetry_equiv_pos_as_xyz
  1  'x, y, z'
loop_
 _atom_site_type_symbol
 _atom_site_label
 _atom_site_symmetry_multiplicity
 _atom_site_fract_x
 _atom_site_fract_y
 _atom_site_fract_z
 _atom_site_occupancy
  Dy  Dy0  1  0.618152  0.621427  0.160705  1
  Dy  Dy1  1  0.115009  0.878278  0.341782  1
  Dy  Dy2  1  0.383903  0.122052  0.842601  1
  Dy  Dy3  1  0.881111  0.378792  0.657002  1
  Dy  Dy4  1  0.377153  0.379049  0.841621  1
  Dy  Dy5  1  0.879131  0.120774  0.660024  1
  Dy  Dy6  1  0.620745  0.879396  0.159121  1
  Dy  Dy7  1  0.120784  0.621382  0.341442  1
  Dy  Dy8  1  0.451991  0.604277  0.666823  1
  Dy  Dy9  1  0.943912  0.892962  0.830783  1
  Dy  Dy10  1  0.555535  0.106820  0.331185  1
  Dy  Dy11  1  0.049092  0.396318  0.174502  1
  Dy  Dy12  1  0.542144  0.397699  0.331585  1
  Dy  Dy13  1  0.041091  0.104357  0.169421  1
  Dy  Dy14  1  0.459425  0.895792  0.670222  1
  Dy  Dy15  1  0.960710  0.602988  0.823626  1
  Tm  Tm16  1  0.787255  0.749370  0.497794  1
  Tm  Tm17  1  0.287035  0.746761  0.001003  1
  Tm  Tm18  1  0.213416  0.252579  0.501988  1
  Tm  Tm19  1  0.712985  0.248523  0.998979  1
  Bi  Bi20  1  0.724732  0.454504  0.974315  1
  Bi  Bi21  1  0.228040  0.045828  0.523249  1
  Bi  Bi22  1  0.271723  0.954087  0.022864  1
  Pb  Pb23  1  0.777226  0.544167  0.471768  1
  Pb  Pb24  1  0.277760  0.543869  0.029394  1
  Pb  Pb25  1  0.777605  0.955643  0.472039  1
  Pb  Pb26  1  0.721697  0.044130  0.972087  1
  Pb  Pb27  1  0.219861  0.456241  0.530997  1
  Pb  Pb28  1  0.424741  0.752344  0.370495  1
  Pb  Pb29  1  0.924615  0.748911  0.128188  1
  Pb  Pb30  1  0.574779  0.250919  0.629730  1
  Pb  Pb31  1  0.074595  0.249208  0.871455  1
  Pb  Pb32  1  0.643358  0.748553  0.847150  1
  Pb  Pb33  1  0.145139  0.751506  0.652440  1
  Pb  Pb34  1  0.356519  0.249762  0.153852  1
  Pb  Pb35  1  0.857029  0.250732  0.347768  1
