# generated using pymatgen
data_CaTb(Si7Ir3)2
_symmetry_space_group_name_H-M   'P 1'
_cell_length_a   8.02865480
_cell_length_b   8.02865546
_cell_length_c   8.02865464
_cell_angle_alpha   56.76149815
_cell_angle_beta   56.76149029
_cell_angle_gamma   56.76149676
_symmetry_Int_Tables_number   1
_chemical_formula_structural   CaTb(Si7Ir3)2
_chemical_formula_sum   'Ca1 Tb1 Si14 Ir6'
_cell_volume   338.58514990
_cell_formula_units_Z   1
loop_
 _symmetry_equiv_pos_site_id
 _symmetry_equiv_pos_as_xyz
  1  'x, y, z'
loop_
 _atom_site_type_symbol
 _atom_site_label
 _atom_site_symmetry_multiplicity
 _atom_site_fract_x
 _atom_site_fract_y
 _atom_site_fract_z
 _atom_site_occupancy
  Ca  Ca0  1  0.000000  0.000000  0.000000  1
  Tb  Tb1  1  0.500000  0.500000  0.500000  1
  Si  Si2  1  0.064985  0.851210  0.673424  1
  Si  Si3  1  0.673424  0.064985  0.851210  1
  Si  Si4  1  0.851210  0.673424  0.064985  1
  Si  Si5  1  0.172260  0.349496  0.566016  1
  Si  Si6  1  0.566016  0.172260  0.349496  1
  Si  Si7  1  0.349496  0.566016  0.172260  1
  Si  Si8  1  0.935015  0.148790  0.326576  1
  Si  Si9  1  0.326576  0.935015  0.148790  1
  Si  Si10  1  0.148790  0.326576  0.935015  1
  Si  Si11  1  0.827740  0.650504  0.433984  1
  Si  Si12  1  0.433984  0.827740  0.650504  1
  Si  Si13  1  0.650504  0.433984  0.827740  1
  Si  Si14  1  0.749874  0.749874  0.749874  1
  Si  Si15  1  0.250126  0.250126  0.250126  1
  Ir  Ir16  1  0.071704  0.748545  0.431209  1
  Ir  Ir17  1  0.431209  0.071704  0.748545  1
  Ir  Ir18  1  0.748545  0.431209  0.071704  1
  Ir  Ir19  1  0.928296  0.251455  0.568791  1
  Ir  Ir20  1  0.568791  0.928296  0.251455  1
  Ir  Ir21  1  0.251455  0.568791  0.928296  1
