# generated using pymatgen
data_Lu3Pa(SiRu)4
_symmetry_space_group_name_H-M   'P 1'
_cell_length_a   4.32150600
_cell_length_b   6.84984553
_cell_length_c   7.12316771
_cell_angle_alpha   90.14534906
_cell_angle_beta   90.00000000
_cell_angle_gamma   90.00000000
_symmetry_Int_Tables_number   1
_chemical_formula_structural   Lu3Pa(SiRu)4
_chemical_formula_sum   'Lu3 Pa1 Si4 Ru4'
_cell_volume   210.85682867
_cell_formula_units_Z   1
loop_
 _symmetry_equiv_pos_site_id
 _symmetry_equiv_pos_as_xyz
  1  'x, y, z'
loop_
 _atom_site_type_symbol
 _atom_site_label
 _atom_site_symmetry_multiplicity
 _atom_site_fract_x
 _atom_site_fract_y
 _atom_site_fract_z
 _atom_site_occupancy
  Lu  Lu0  1  0.250000  0.485346  0.309311  1
  Lu  Lu1  1  0.750000  0.510803  0.686821  1
  Lu  Lu2  1  0.250000  0.989451  0.192287  1
  Pa  Pa3  1  0.750000  0.013590  0.807873  1
  Si  Si4  1  0.750000  0.203570  0.387807  1
  Si  Si5  1  0.250000  0.308245  0.890747  1
  Si  Si6  1  0.750000  0.698881  0.110594  1
  Si  Si7  1  0.250000  0.788241  0.601980  1
  Ru  Ru8  1  0.250000  0.151002  0.571338  1
  Ru  Ru9  1  0.750000  0.338808  0.059236  1
  Ru  Ru10  1  0.250000  0.662112  0.938482  1
  Ru  Ru11  1  0.750000  0.849953  0.443525  1
