# generated using pymatgen
data_Lu5Th3(Si3Pt)4
_symmetry_space_group_name_H-M   'P 1'
_cell_length_a   8.15993100
_cell_length_b   8.15993127
_cell_length_c   8.34559300
_cell_angle_alpha   90.00000000
_cell_angle_beta   90.00000000
_cell_angle_gamma   120.01240872
_symmetry_Int_Tables_number   1
_chemical_formula_structural   Lu5Th3(Si3Pt)4
_chemical_formula_sum   'Lu5 Th3 Si12 Pt4'
_cell_volume   481.17882029
_cell_formula_units_Z   1
loop_
 _symmetry_equiv_pos_site_id
 _symmetry_equiv_pos_as_xyz
  1  'x, y, z'
loop_
 _atom_site_type_symbol
 _atom_site_label
 _atom_site_symmetry_multiplicity
 _atom_site_fract_x
 _atom_site_fract_y
 _atom_site_fract_z
 _atom_site_occupancy
  Lu  Lu0  1  0.501380  0.002819  0.250000  1
  Lu  Lu1  1  0.997181  0.498620  0.250000  1
  Lu  Lu2  1  0.497987  0.502013  0.750000  1
  Lu  Lu3  1  0.497652  0.995954  0.750000  1
  Lu  Lu4  1  0.004046  0.502348  0.750000  1
  Th  Th5  1  0.000009  0.999991  0.250000  1
  Th  Th6  1  0.999763  0.000237  0.750000  1
  Th  Th7  1  0.502222  0.497778  0.250000  1
  Si  Si8  1  0.166709  0.833291  0.498505  1
  Si  Si9  1  0.165894  0.333310  0.502611  1
  Si  Si10  1  0.666690  0.834106  0.502611  1
  Si  Si11  1  0.833126  0.166874  0.497952  1
  Si  Si12  1  0.834261  0.666720  0.502820  1
  Si  Si13  1  0.333280  0.165739  0.502820  1
  Si  Si14  1  0.833126  0.166874  0.002048  1
  Si  Si15  1  0.834261  0.666720  0.997180  1
  Si  Si16  1  0.333280  0.165739  0.997180  1
  Si  Si17  1  0.166709  0.833291  0.001495  1
  Si  Si18  1  0.165894  0.333310  0.997389  1
  Si  Si19  1  0.666690  0.834106  0.997389  1
  Pt  Pt20  1  0.332250  0.667750  0.502322  1
  Pt  Pt21  1  0.667669  0.332331  0.512230  1
  Pt  Pt22  1  0.667669  0.332331  0.987770  1
  Pt  Pt23  1  0.332250  0.667750  0.997678  1
