# generated using pymatgen
data_NdSm(Ni3Pt2)2
_symmetry_space_group_name_H-M   'P 1'
_cell_length_a   4.07406200
_cell_length_b   5.38024400
_cell_length_c   8.65507800
_cell_angle_alpha   90.00000000
_cell_angle_beta   90.00000000
_cell_angle_gamma   90.00000000
_symmetry_Int_Tables_number   1
_chemical_formula_structural   NdSm(Ni3Pt2)2
_chemical_formula_sum   'Nd1 Sm1 Ni6 Pt4'
_cell_volume   189.71452896
_cell_formula_units_Z   1
loop_
 _symmetry_equiv_pos_site_id
 _symmetry_equiv_pos_as_xyz
  1  'x, y, z'
loop_
 _atom_site_type_symbol
 _atom_site_label
 _atom_site_symmetry_multiplicity
 _atom_site_fract_x
 _atom_site_fract_y
 _atom_site_fract_z
 _atom_site_occupancy
  Nd  Nd0  1  0.000000  0.000000  0.000000  1
  Sm  Sm1  1  0.000000  0.500000  0.500000  1
  Ni  Ni2  1  0.000000  0.000000  0.347961  1
  Ni  Ni3  1  0.000000  0.500000  0.847299  1
  Ni  Ni4  1  0.000000  0.500000  0.152701  1
  Ni  Ni5  1  0.000000  0.000000  0.652039  1
  Ni  Ni6  1  0.500000  0.000000  0.500000  1
  Ni  Ni7  1  0.500000  0.500000  0.000000  1
  Pt  Pt8  1  0.500000  0.250709  0.251189  1
  Pt  Pt9  1  0.500000  0.749291  0.748811  1
  Pt  Pt10  1  0.500000  0.749291  0.251189  1
  Pt  Pt11  1  0.500000  0.250709  0.748811  1
