# generated using pymatgen
data_TbCo(Sn2Ru)3
_symmetry_space_group_name_H-M   'P 1'
_cell_length_a   6.87749177
_cell_length_b   6.96211715
_cell_length_c   6.86749346
_cell_angle_alpha   120.47887181
_cell_angle_beta   120.07036940
_cell_angle_gamma   89.96208486
_symmetry_Int_Tables_number   1
_chemical_formula_structural   TbCo(Sn2Ru)3
_chemical_formula_sum   'Tb1 Co1 Sn6 Ru3'
_cell_volume   230.64905801
_cell_formula_units_Z   1
loop_
 _symmetry_equiv_pos_site_id
 _symmetry_equiv_pos_as_xyz
  1  'x, y, z'
loop_
 _atom_site_type_symbol
 _atom_site_label
 _atom_site_symmetry_multiplicity
 _atom_site_fract_x
 _atom_site_fract_y
 _atom_site_fract_z
 _atom_site_occupancy
  Tb  Tb0  1  0.985518  0.010537  0.000000  1
  Co  Co1  1  0.253002  0.592375  0.000000  1
  Sn  Sn2  1  0.892938  0.532176  0.000000  1
  Sn  Sn3  1  0.529677  0.879914  0.000000  1
  Sn  Sn4  1  0.120280  0.121269  0.654651  1
  Sn  Sn5  1  0.004796  0.507566  0.514426  1
  Sn  Sn6  1  0.465629  0.466618  0.345349  1
  Sn  Sn7  1  0.490371  0.993141  0.485574  1
  Ru  Ru8  1  0.407422  0.405874  0.660778  1
  Ru  Ru9  1  0.603720  0.245435  0.000000  1
  Ru  Ru10  1  0.746645  0.745096  0.339222  1
