# generated using pymatgen
data_Tb19MgIr12
_symmetry_space_group_name_H-M   'P 1'
_cell_length_a   10.92661500
_cell_length_b   10.92661500
_cell_length_c   6.34274700
_cell_angle_alpha   90.00000000
_cell_angle_beta   90.00000000
_cell_angle_gamma   90.00000000
_symmetry_Int_Tables_number   1
_chemical_formula_structural   Tb19MgIr12
_chemical_formula_sum   'Tb19 Mg1 Ir12'
_cell_volume   757.26637022
_cell_formula_units_Z   1
loop_
 _symmetry_equiv_pos_site_id
 _symmetry_equiv_pos_as_xyz
  1  'x, y, z'
loop_
 _atom_site_type_symbol
 _atom_site_label
 _atom_site_symmetry_multiplicity
 _atom_site_fract_x
 _atom_site_fract_y
 _atom_site_fract_z
 _atom_site_occupancy
  Tb  Tb0  1  0.283881  0.084818  0.380114  1
  Tb  Tb1  1  0.290443  0.911765  0.880133  1
  Tb  Tb2  1  0.709557  0.088235  0.880133  1
  Tb  Tb3  1  0.716119  0.915182  0.380114  1
  Tb  Tb4  1  0.589137  0.792042  0.880875  1
  Tb  Tb5  1  0.587868  0.207864  0.378824  1
  Tb  Tb6  1  0.412132  0.792136  0.378824  1
  Tb  Tb7  1  0.410863  0.207958  0.880875  1
  Tb  Tb8  1  0.207864  0.412132  0.621176  1
  Tb  Tb9  1  0.207958  0.589137  0.119125  1
  Tb  Tb10  1  0.792042  0.410863  0.119125  1
  Tb  Tb11  1  0.792136  0.587868  0.621176  1
  Tb  Tb12  1  0.911765  0.709557  0.119867  1
  Tb  Tb13  1  0.915182  0.283881  0.619886  1
  Tb  Tb14  1  0.084818  0.716119  0.619886  1
  Tb  Tb15  1  0.088235  0.290443  0.119867  1
  Tb  Tb16  1  0.000000  0.000000  0.000000  1
  Tb  Tb17  1  0.500000  0.500000  0.000000  1
  Tb  Tb18  1  0.500000  0.500000  0.500000  1
  Mg  Mg19  1  0.000000  0.000000  0.500000  1
  Ir  Ir20  1  0.846713  0.153971  0.247985  1
  Ir  Ir21  1  0.846029  0.846713  0.752015  1
  Ir  Ir22  1  0.153971  0.153287  0.752015  1
  Ir  Ir23  1  0.153287  0.846029  0.247985  1
  Ir  Ir24  1  0.654638  0.345914  0.748100  1
  Ir  Ir25  1  0.654086  0.654638  0.251900  1
  Ir  Ir26  1  0.345914  0.345362  0.251900  1
  Ir  Ir27  1  0.345362  0.654086  0.748100  1
  Ir  Ir28  1  0.500000  0.000000  0.125054  1
  Ir  Ir29  1  0.500000  0.000000  0.621128  1
  Ir  Ir30  1  0.000000  0.500000  0.874946  1
  Ir  Ir31  1  0.000000  0.500000  0.378872  1
