# generated using pymatgen
data_Ba3TiFeIrO9
_symmetry_space_group_name_H-M   'P 1'
_cell_length_a   5.81597800
_cell_length_b   5.81597740
_cell_length_c   14.23942800
_cell_angle_alpha   90.00000000
_cell_angle_beta   90.00000000
_cell_angle_gamma   120.00000343
_symmetry_Int_Tables_number   1
_chemical_formula_structural   Ba3TiFeIrO9
_chemical_formula_sum   'Ba6 Ti2 Fe2 Ir2 O18'
_cell_volume   417.12731100
_cell_formula_units_Z   2
loop_
 _symmetry_equiv_pos_site_id
 _symmetry_equiv_pos_as_xyz
  1  'x, y, z'
loop_
 _atom_site_type_symbol
 _atom_site_label
 _atom_site_symmetry_multiplicity
 _atom_site_fract_x
 _atom_site_fract_y
 _atom_site_fract_z
 _atom_site_occupancy
  Ba  Ba0  1  0.333333  0.666667  0.595785  1
  Ba  Ba1  1  0.666667  0.333333  0.404215  1
  Ba  Ba2  1  0.666667  0.333333  0.091677  1
  Ba  Ba3  1  0.333333  0.666667  0.908323  1
  Ba  Ba4  1  0.000000  0.000000  0.249202  1
  Ba  Ba5  1  0.000000  0.000000  0.750798  1
  Ti  Ti6  1  0.333333  0.666667  0.353842  1
  Ti  Ti7  1  0.666667  0.333333  0.646158  1
  Fe  Fe8  1  0.000000  0.000000  0.500000  1
  Fe  Fe9  1  0.000000  0.000000  0.000000  1
  Ir  Ir10  1  0.666667  0.333333  0.842371  1
  Ir  Ir11  1  0.333333  0.666667  0.157629  1
  O  O12  1  0.484311  0.515689  0.248920  1
  O  O13  1  0.484311  0.968621  0.248920  1
  O  O14  1  0.031379  0.515689  0.248920  1
  O  O15  1  0.515689  0.484311  0.751080  1
  O  O16  1  0.515689  0.031379  0.751080  1
  O  O17  1  0.968621  0.484311  0.751080  1
  O  O18  1  0.168147  0.831853  0.080861  1
  O  O19  1  0.168147  0.336293  0.080861  1
  O  O20  1  0.663707  0.831853  0.080861  1
  O  O21  1  0.831853  0.168147  0.919139  1
  O  O22  1  0.831853  0.663707  0.919139  1
  O  O23  1  0.336293  0.168147  0.919139  1
  O  O24  1  0.830943  0.169057  0.582156  1
  O  O25  1  0.830943  0.661888  0.582156  1
  O  O26  1  0.338112  0.169057  0.582156  1
  O  O27  1  0.169057  0.830943  0.417844  1
  O  O28  1  0.169057  0.338112  0.417844  1
  O  O29  1  0.661888  0.830943  0.417844  1
