# generated using pymatgen
data_Ti10Ge4As2C
_symmetry_space_group_name_H-M   'P 1'
_cell_length_a   7.55173025
_cell_length_b   7.55697530
_cell_length_c   5.20658712
_cell_angle_alpha   90.09450453
_cell_angle_beta   89.81085941
_cell_angle_gamma   119.97704310
_symmetry_Int_Tables_number   1
_chemical_formula_structural   Ti10Ge4As2C
_chemical_formula_sum   'Ti10 Ge4 As2 C1'
_cell_volume   257.38088770
_cell_formula_units_Z   1
loop_
 _symmetry_equiv_pos_site_id
 _symmetry_equiv_pos_as_xyz
  1  'x, y, z'
loop_
 _atom_site_type_symbol
 _atom_site_label
 _atom_site_symmetry_multiplicity
 _atom_site_fract_x
 _atom_site_fract_y
 _atom_site_fract_z
 _atom_site_occupancy
  Ti  Ti0  1  0.000196  0.762595  0.260180  1
  Ti  Ti1  1  0.237601  0.237405  0.260180  1
  Ti  Ti2  1  0.763099  0.000000  0.258524  1
  Ti  Ti3  1  0.999470  0.238172  0.739805  1
  Ti  Ti4  1  0.761297  0.761828  0.739805  1
  Ti  Ti5  1  0.236896  0.000000  0.741629  1
  Ti  Ti6  1  0.332761  0.664661  0.999293  1
  Ti  Ti7  1  0.668101  0.335339  0.999293  1
  Ti  Ti8  1  0.668063  0.334875  0.500656  1
  Ti  Ti9  1  0.333187  0.665125  0.500656  1
  Ge  Ge10  1  0.398149  0.000000  0.246253  1
  Ge  Ge11  1  0.001130  0.606066  0.753594  1
  Ge  Ge12  1  0.395065  0.393934  0.753594  1
  Ge  Ge13  1  0.601471  0.000000  0.754672  1
  As  As14  1  0.999579  0.395550  0.245686  1
  As  As15  1  0.604029  0.604450  0.245686  1
  C  C16  1  0.999906  0.000000  0.500497  1
