# generated using pymatgen
data_Pr2VN3
_symmetry_space_group_name_H-M   'P 1'
_cell_length_a   6.14048517
_cell_length_b   6.14048444
_cell_length_c   12.00185428
_cell_angle_alpha   88.31197043
_cell_angle_beta   88.31196876
_cell_angle_gamma   127.39927606
_symmetry_Int_Tables_number   1
_chemical_formula_structural   Pr2VN3
_chemical_formula_sum   'Pr8 V4 N12'
_cell_volume   358.70972988
_cell_formula_units_Z   4
loop_
 _symmetry_equiv_pos_site_id
 _symmetry_equiv_pos_as_xyz
  1  'x, y, z'
loop_
 _atom_site_type_symbol
 _atom_site_label
 _atom_site_symmetry_multiplicity
 _atom_site_fract_x
 _atom_site_fract_y
 _atom_site_fract_z
 _atom_site_occupancy
  Pr  Pr0  1  0.622554  0.844208  0.074781  1
  Pr  Pr1  1  0.473833  0.073078  0.351239  1
  Pr  Pr2  1  0.073078  0.473833  0.851239  1
  Pr  Pr3  1  0.526167  0.926922  0.648761  1
  Pr  Pr4  1  0.377446  0.155792  0.925219  1
  Pr  Pr5  1  0.844208  0.622554  0.574781  1
  Pr  Pr6  1  0.155792  0.377446  0.425219  1
  Pr  Pr7  1  0.926922  0.526167  0.148761  1
  V  V8  1  0.786845  0.788105  0.828283  1
  V  V9  1  0.211895  0.213155  0.671717  1
  V  V10  1  0.213155  0.211895  0.171717  1
  V  V11  1  0.788105  0.786845  0.328283  1
  N  N12  1  0.123919  0.876081  0.750000  1
  N  N13  1  0.876081  0.123919  0.250000  1
  N  N14  1  0.497513  0.502487  0.750000  1
  N  N15  1  0.502487  0.497513  0.250000  1
  N  N16  1  0.362020  0.026577  0.130292  1
  N  N17  1  0.973423  0.637980  0.369708  1
  N  N18  1  0.637980  0.973423  0.869708  1
  N  N19  1  0.026577  0.362020  0.630292  1
  N  N20  1  0.828741  0.644765  0.956575  1
  N  N21  1  0.644765  0.828741  0.456575  1
  N  N22  1  0.171259  0.355235  0.043425  1
  N  N23  1  0.355235  0.171259  0.543425  1
