# generated using pymatgen
data_Ac(CdP)3
_symmetry_space_group_name_H-M   'P 1'
_cell_length_a   4.38675200
_cell_length_b   4.38675278
_cell_length_c   21.62789400
_cell_angle_alpha   90.00000000
_cell_angle_beta   90.00000000
_cell_angle_gamma   120.00000917
_symmetry_Int_Tables_number   1
_chemical_formula_structural   Ac(CdP)3
_chemical_formula_sum   'Ac2 Cd6 P6'
_cell_volume   360.43841155
_cell_formula_units_Z   2
loop_
 _symmetry_equiv_pos_site_id
 _symmetry_equiv_pos_as_xyz
  1  'x, y, z'
loop_
 _atom_site_type_symbol
 _atom_site_label
 _atom_site_symmetry_multiplicity
 _atom_site_fract_x
 _atom_site_fract_y
 _atom_site_fract_z
 _atom_site_occupancy
  Ac  Ac0  1  0.000000  0.000000  0.500000  1
  Ac  Ac1  1  0.000000  0.000000  0.000000  1
  Cd  Cd2  1  0.333333  0.666667  0.750000  1
  Cd  Cd3  1  0.666667  0.333333  0.250000  1
  Cd  Cd4  1  0.666667  0.333333  0.628775  1
  Cd  Cd5  1  0.333333  0.666667  0.128775  1
  Cd  Cd6  1  0.333333  0.666667  0.371225  1
  Cd  Cd7  1  0.666667  0.333333  0.871225  1
  P  P8  1  0.666667  0.333333  0.750000  1
  P  P9  1  0.333333  0.666667  0.250000  1
  P  P10  1  0.666667  0.333333  0.081570  1
  P  P11  1  0.333333  0.666667  0.581570  1
  P  P12  1  0.333333  0.666667  0.918430  1
  P  P13  1  0.666667  0.333333  0.418430  1
