# generated using pymatgen
data_Cs6Na4ZrVAs6
_symmetry_space_group_name_H-M   'P 1'
_cell_length_a   10.96561756
_cell_length_b   10.96561837
_cell_length_c   16.87342400
_cell_angle_alpha   90.00000000
_cell_angle_beta   90.00000000
_cell_angle_gamma   142.59862182
_symmetry_Int_Tables_number   1
_chemical_formula_structural   Cs6Na4ZrVAs6
_chemical_formula_sum   'Cs12 Na8 Zr2 V2 As12'
_cell_volume   1232.36858136
_cell_formula_units_Z   2
loop_
 _symmetry_equiv_pos_site_id
 _symmetry_equiv_pos_as_xyz
  1  'x, y, z'
loop_
 _atom_site_type_symbol
 _atom_site_label
 _atom_site_symmetry_multiplicity
 _atom_site_fract_x
 _atom_site_fract_y
 _atom_site_fract_z
 _atom_site_occupancy
  Cs  Cs0  1  0.609467  0.943964  0.828375  1
  Cs  Cs1  1  0.283430  0.283004  0.316395  1
  Cs  Cs2  1  0.216570  0.216996  0.816395  1
  Cs  Cs3  1  0.716996  0.716570  0.683605  1
  Cs  Cs4  1  0.443964  0.109467  0.671625  1
  Cs  Cs5  1  0.890533  0.556036  0.328375  1
  Cs  Cs6  1  0.056036  0.390533  0.171625  1
  Cs  Cs7  1  0.390962  0.054823  0.174228  1
  Cs  Cs8  1  0.554823  0.890962  0.325772  1
  Cs  Cs9  1  0.109038  0.445177  0.674228  1
  Cs  Cs10  1  0.945177  0.609038  0.825772  1
  Cs  Cs11  1  0.783004  0.783430  0.183605  1
  Na  Na12  1  0.079504  0.920496  0.000000  1
  Na  Na13  1  0.578432  0.421568  0.500000  1
  Na  Na14  1  0.921568  0.078432  0.000000  1
  Na  Na15  1  0.753858  0.246142  0.000000  1
  Na  Na16  1  0.746142  0.253858  0.500000  1
  Na  Na17  1  0.244617  0.755383  0.000000  1
  Na  Na18  1  0.255383  0.744617  0.500000  1
  Na  Na19  1  0.420496  0.579504  0.500000  1
  Zr  Zr20  1  0.917798  0.082202  0.500000  1
  Zr  Zr21  1  0.582202  0.417798  0.000000  1
  V  V22  1  0.084766  0.915234  0.500000  1
  V  V23  1  0.415234  0.584766  0.000000  1
  As  As24  1  0.060066  0.372219  0.407540  1
  As  As25  1  0.872219  0.560066  0.092460  1
  As  As26  1  0.439934  0.127781  0.907540  1
  As  As27  1  0.627781  0.939934  0.592460  1
  As  As28  1  0.950317  0.649380  0.583898  1
  As  As29  1  0.149380  0.450317  0.916102  1
  As  As30  1  0.549683  0.850620  0.083898  1
  As  As31  1  0.350620  0.049683  0.416102  1
  As  As32  1  0.199126  0.189290  0.583157  1
  As  As33  1  0.689290  0.699126  0.916843  1
  As  As34  1  0.300874  0.310710  0.083157  1
  As  As35  1  0.810710  0.800874  0.416843  1
