# generated using pymatgen
data_CePr3Zn4Si3Ge
_symmetry_space_group_name_H-M   'P 1'
_cell_length_a   4.20084200
_cell_length_b   4.20084196
_cell_length_c   16.89159700
_cell_angle_alpha   90.00000000
_cell_angle_beta   90.00000000
_cell_angle_gamma   119.99996880
_symmetry_Int_Tables_number   1
_chemical_formula_structural   CePr3Zn4Si3Ge
_chemical_formula_sum   'Ce1 Pr3 Zn4 Si3 Ge1'
_cell_volume   258.15121327
_cell_formula_units_Z   1
loop_
 _symmetry_equiv_pos_site_id
 _symmetry_equiv_pos_as_xyz
  1  'x, y, z'
loop_
 _atom_site_type_symbol
 _atom_site_label
 _atom_site_symmetry_multiplicity
 _atom_site_fract_x
 _atom_site_fract_y
 _atom_site_fract_z
 _atom_site_occupancy
  Ce  Ce0  1  0.000000  0.000000  0.250530  1
  Pr  Pr1  1  0.000000  0.000000  0.748345  1
  Pr  Pr2  1  0.000000  0.000000  0.003003  1
  Pr  Pr3  1  0.000000  0.000000  0.498481  1
  Zn  Zn4  1  0.333333  0.666667  0.134952  1
  Zn  Zn5  1  0.666667  0.333333  0.868437  1
  Zn  Zn6  1  0.666667  0.333333  0.627671  1
  Zn  Zn7  1  0.333333  0.666667  0.366123  1
  Si  Si8  1  0.333333  0.666667  0.621101  1
  Si  Si9  1  0.666667  0.333333  0.373916  1
  Si  Si10  1  0.666667  0.333333  0.126793  1
  Ge  Ge11  1  0.333333  0.666667  0.880646  1
