# generated using pymatgen
data_La4Ga14NiIr
_symmetry_space_group_name_H-M   'P 1'
_cell_length_a   6.19197566
_cell_length_b   6.17465562
_cell_length_c   11.47218127
_cell_angle_alpha   74.38842705
_cell_angle_beta   74.34351353
_cell_angle_gamma   89.99999796
_symmetry_Int_Tables_number   1
_chemical_formula_structural   La4Ga14NiIr
_chemical_formula_sum   'La4 Ga14 Ni1 Ir1'
_cell_volume   405.51511142
_cell_formula_units_Z   1
loop_
 _symmetry_equiv_pos_site_id
 _symmetry_equiv_pos_as_xyz
  1  'x, y, z'
loop_
 _atom_site_type_symbol
 _atom_site_label
 _atom_site_symmetry_multiplicity
 _atom_site_fract_x
 _atom_site_fract_y
 _atom_site_fract_z
 _atom_site_occupancy
  La  La0  1  0.995885  0.995885  0.008231  1
  La  La1  1  0.497041  0.497041  0.005917  1
  La  La2  1  0.749915  0.249915  0.500170  1
  La  La3  1  0.245917  0.745917  0.508168  1
  Ga  Ga4  1  0.199576  0.199576  0.600848  1
  Ga  Ga5  1  0.810469  0.810469  0.379062  1
  Ga  Ga6  1  0.613778  0.123365  0.251388  1
  Ga  Ga7  1  0.134833  0.625246  0.251388  1
  Ga  Ga8  1  0.613778  0.625246  0.251388  1
  Ga  Ga9  1  0.134833  0.123365  0.251388  1
  Ga  Ga10  1  0.863081  0.354650  0.756164  1
  Ga  Ga11  1  0.380755  0.889185  0.756164  1
  Ga  Ga12  1  0.863081  0.889185  0.756164  1
  Ga  Ga13  1  0.380755  0.354650  0.756164  1
  Ga  Ga14  1  0.691964  0.691964  0.616072  1
  Ga  Ga15  1  0.062266  0.562266  0.875469  1
  Ga  Ga16  1  0.453740  0.953740  0.092520  1
  Ga  Ga17  1  0.943932  0.443932  0.112138  1
  Ni  Ni18  1  0.564617  0.064617  0.870767  1
  Ir  Ir19  1  0.314619  0.314619  0.370763  1
