# generated using pymatgen
data_BaGa4Au3
_symmetry_space_group_name_H-M   'P 1'
_cell_length_a   4.52255700
_cell_length_b   4.52255700
_cell_length_c   8.79510700
_cell_angle_alpha   90.00000000
_cell_angle_beta   90.00000000
_cell_angle_gamma   90.00000000
_symmetry_Int_Tables_number   1
_chemical_formula_structural   BaGa4Au3
_chemical_formula_sum   'Ba1 Ga4 Au3'
_cell_volume   179.89091292
_cell_formula_units_Z   1
loop_
 _symmetry_equiv_pos_site_id
 _symmetry_equiv_pos_as_xyz
  1  'x, y, z'
loop_
 _atom_site_type_symbol
 _atom_site_label
 _atom_site_symmetry_multiplicity
 _atom_site_fract_x
 _atom_site_fract_y
 _atom_site_fract_z
 _atom_site_occupancy
  Ba  Ba0  1  0.000000  0.000000  0.500000  1
  Ga  Ga1  1  0.000000  0.500000  0.169652  1
  Ga  Ga2  1  0.000000  0.500000  0.830348  1
  Ga  Ga3  1  0.500000  0.000000  0.169652  1
  Ga  Ga4  1  0.500000  0.000000  0.830348  1
  Au  Au5  1  0.500000  0.500000  0.335808  1
  Au  Au6  1  0.500000  0.500000  0.664192  1
  Au  Au7  1  0.000000  0.000000  0.000000  1
