# generated using pymatgen
data_Tb3Hf2Zr(GaPt)6
_symmetry_space_group_name_H-M   'P 1'
_cell_length_a   7.28207700
_cell_length_b   7.29628010
_cell_length_c   7.39998000
_cell_angle_alpha   90.00000000
_cell_angle_beta   90.00000000
_cell_angle_gamma   119.93607850
_symmetry_Int_Tables_number   1
_chemical_formula_structural   Tb3Hf2Zr(GaPt)6
_chemical_formula_sum   'Tb3 Hf2 Zr1 Ga6 Pt6'
_cell_volume   340.71975752
_cell_formula_units_Z   1
loop_
 _symmetry_equiv_pos_site_id
 _symmetry_equiv_pos_as_xyz
  1  'x, y, z'
loop_
 _atom_site_type_symbol
 _atom_site_label
 _atom_site_symmetry_multiplicity
 _atom_site_fract_x
 _atom_site_fract_y
 _atom_site_fract_z
 _atom_site_occupancy
  Tb  Tb0  1  0.409000  0.408537  0.250000  1
  Tb  Tb1  1  0.999655  0.591070  0.250000  1
  Tb  Tb2  1  0.591605  0.000408  0.250000  1
  Hf  Hf3  1  0.389939  0.391025  0.750000  1
  Hf  Hf4  1  0.000523  0.609760  0.750000  1
  Zr  Zr5  1  0.609125  0.999162  0.750000  1
  Ga  Ga6  1  0.263237  0.000682  0.991573  1
  Ga  Ga7  1  0.263237  0.000682  0.508427  1
  Ga  Ga8  1  0.999218  0.262096  0.509146  1
  Ga  Ga9  1  0.999218  0.262096  0.990854  1
  Ga  Ga10  1  0.737800  0.737225  0.990871  1
  Ga  Ga11  1  0.737800  0.737225  0.509129  1
  Pt  Pt12  1  0.667153  0.336019  0.530686  1
  Pt  Pt13  1  0.002543  0.999980  0.750000  1
  Pt  Pt14  1  0.667153  0.336019  0.969314  1
  Pt  Pt15  1  0.331159  0.663995  0.971100  1
  Pt  Pt16  1  0.331159  0.663995  0.528900  1
  Pt  Pt17  1  0.000477  0.000023  0.250000  1
