# generated using pymatgen
data_Er6ScCrO12
_symmetry_space_group_name_H-M   'P 1'
_cell_length_a   6.50473285
_cell_length_b   6.50473334
_cell_length_c   6.50473358
_cell_angle_alpha   92.61797858
_cell_angle_beta   92.61797711
_cell_angle_gamma   92.61798371
_symmetry_Int_Tables_number   1
_chemical_formula_structural   Er6ScCrO12
_chemical_formula_sum   'Er6 Sc1 Cr1 O12'
_cell_volume   274.33639297
_cell_formula_units_Z   1
loop_
 _symmetry_equiv_pos_site_id
 _symmetry_equiv_pos_as_xyz
  1  'x, y, z'
loop_
 _atom_site_type_symbol
 _atom_site_label
 _atom_site_symmetry_multiplicity
 _atom_site_fract_x
 _atom_site_fract_y
 _atom_site_fract_z
 _atom_site_occupancy
  Er  Er0  1  0.743223  0.927252  0.436501  1
  Er  Er1  1  0.927252  0.436501  0.743223  1
  Er  Er2  1  0.436501  0.743223  0.927252  1
  Er  Er3  1  0.256777  0.072748  0.563499  1
  Er  Er4  1  0.072748  0.563499  0.256777  1
  Er  Er5  1  0.563499  0.256777  0.072748  1
  Sc  Sc6  1  0.000000  0.000000  0.000000  1
  Cr  Cr7  1  0.500000  0.500000  0.500000  1
  O  O8  1  0.589027  0.461228  0.800645  1
  O  O9  1  0.461228  0.800645  0.589027  1
  O  O10  1  0.800645  0.589027  0.461228  1
  O  O11  1  0.410973  0.538772  0.199355  1
  O  O12  1  0.538772  0.199355  0.410973  1
  O  O13  1  0.199355  0.410973  0.538772  1
  O  O14  1  0.068965  0.913781  0.309380  1
  O  O15  1  0.913781  0.309380  0.068965  1
  O  O16  1  0.690620  0.931035  0.086219  1
  O  O17  1  0.086219  0.690620  0.931035  1
  O  O18  1  0.931035  0.086219  0.690620  1
  O  O19  1  0.309380  0.068965  0.913781  1
