# generated using pymatgen
data_Ho5HPd15
_symmetry_space_group_name_H-M   'P 1'
_cell_length_a   4.12531100
_cell_length_b   4.12531100
_cell_length_c   20.56256600
_cell_angle_alpha   90.00000000
_cell_angle_beta   90.00000000
_cell_angle_gamma   90.00000000
_symmetry_Int_Tables_number   1
_chemical_formula_structural   Ho5HPd15
_chemical_formula_sum   'Ho5 H1 Pd15'
_cell_volume   349.93767249
_cell_formula_units_Z   1
loop_
 _symmetry_equiv_pos_site_id
 _symmetry_equiv_pos_as_xyz
  1  'x, y, z'
loop_
 _atom_site_type_symbol
 _atom_site_label
 _atom_site_symmetry_multiplicity
 _atom_site_fract_x
 _atom_site_fract_y
 _atom_site_fract_z
 _atom_site_occupancy
  Ho  Ho0  1  0.000000  0.000000  0.995655  1
  Ho  Ho1  1  0.000000  0.000000  0.204345  1
  Ho  Ho2  1  0.000000  0.000000  0.402563  1
  Ho  Ho3  1  0.000000  0.000000  0.600000  1
  Ho  Ho4  1  0.000000  0.000000  0.797437  1
  H  H5  1  0.500000  0.500000  0.100000  1
  Pd  Pd6  1  0.000000  0.500000  0.100000  1
  Pd  Pd7  1  0.000000  0.500000  0.302626  1
  Pd  Pd8  1  0.000000  0.500000  0.501449  1
  Pd  Pd9  1  0.000000  0.500000  0.698551  1
  Pd  Pd10  1  0.000000  0.500000  0.897374  1
  Pd  Pd11  1  0.500000  0.500000  0.997653  1
  Pd  Pd12  1  0.500000  0.500000  0.202347  1
  Pd  Pd13  1  0.500000  0.500000  0.402825  1
  Pd  Pd14  1  0.500000  0.500000  0.600000  1
  Pd  Pd15  1  0.500000  0.500000  0.797175  1
  Pd  Pd16  1  0.500000  0.000000  0.100000  1
  Pd  Pd17  1  0.500000  0.000000  0.302626  1
  Pd  Pd18  1  0.500000  0.000000  0.501449  1
  Pd  Pd19  1  0.500000  0.000000  0.698551  1
  Pd  Pd20  1  0.500000  0.000000  0.897374  1
