# generated using pymatgen
data_Li3Pr8In5Rh8
_symmetry_space_group_name_H-M   'P 1'
_cell_length_a   4.15707800
_cell_length_b   7.66108627
_cell_length_c   16.85046983
_cell_angle_alpha   89.93436142
_cell_angle_beta   90.00000000
_cell_angle_gamma   90.00000000
_symmetry_Int_Tables_number   1
_chemical_formula_structural   Li3Pr8In5Rh8
_chemical_formula_sum   'Li3 Pr8 In5 Rh8'
_cell_volume   536.64891528
_cell_formula_units_Z   1
loop_
 _symmetry_equiv_pos_site_id
 _symmetry_equiv_pos_as_xyz
  1  'x, y, z'
loop_
 _atom_site_type_symbol
 _atom_site_label
 _atom_site_symmetry_multiplicity
 _atom_site_fract_x
 _atom_site_fract_y
 _atom_site_fract_z
 _atom_site_occupancy
  Li  Li0  1  0.250000  0.991155  0.440430  1
  Li  Li1  1  0.750000  0.508367  0.936699  1
  Li  Li2  1  0.750000  0.007930  0.561005  1
  Pr  Pr3  1  0.750000  0.450647  0.216999  1
  Pr  Pr4  1  0.750000  0.950595  0.288219  1
  Pr  Pr5  1  0.750000  0.834007  0.061079  1
  Pr  Pr6  1  0.250000  0.050227  0.713491  1
  Pr  Pr7  1  0.250000  0.166649  0.937377  1
  Pr  Pr8  1  0.250000  0.548752  0.784139  1
  Pr  Pr9  1  0.750000  0.330179  0.439314  1
  Pr  Pr10  1  0.250000  0.669098  0.561681  1
  In  In11  1  0.250000  0.627232  0.352343  1
  In  In12  1  0.750000  0.373271  0.648364  1
  In  In13  1  0.750000  0.875666  0.847196  1
  In  In14  1  0.250000  0.501320  0.058952  1
  In  In15  1  0.250000  0.118970  0.153585  1
  Rh  Rh16  1  0.250000  0.246931  0.558157  1
  Rh  Rh17  1  0.750000  0.250487  0.061109  1
  Rh  Rh18  1  0.250000  0.256656  0.314922  1
  Rh  Rh19  1  0.750000  0.244720  0.809861  1
  Rh  Rh20  1  0.250000  0.751671  0.935840  1
  Rh  Rh21  1  0.750000  0.740614  0.687824  1
  Rh  Rh22  1  0.750000  0.755092  0.442241  1
  Rh  Rh23  1  0.250000  0.749764  0.189174  1
