# generated using pymatgen
data_Ba2SrU3S10
_symmetry_space_group_name_H-M   'P 1'
_cell_length_a   7.58356000
_cell_length_b   8.36921220
_cell_length_c   11.85207300
_cell_angle_alpha   89.58061602
_cell_angle_beta   90.00000000
_cell_angle_gamma   90.00000000
_symmetry_Int_Tables_number   1
_chemical_formula_structural   Ba2SrU3S10
_chemical_formula_sum   'Ba4 Sr2 U6 S20'
_cell_volume   752.21222977
_cell_formula_units_Z   2
loop_
 _symmetry_equiv_pos_site_id
 _symmetry_equiv_pos_as_xyz
  1  'x, y, z'
loop_
 _atom_site_type_symbol
 _atom_site_label
 _atom_site_symmetry_multiplicity
 _atom_site_fract_x
 _atom_site_fract_y
 _atom_site_fract_z
 _atom_site_occupancy
  Ba  Ba0  1  0.054437  0.492418  0.333632  1
  Ba  Ba1  1  0.554437  0.507582  0.166368  1
  Ba  Ba2  1  0.940070  0.507368  0.671468  1
  Ba  Ba3  1  0.440070  0.492632  0.828532  1
  Sr  Sr4  1  0.046575  0.002999  0.320369  1
  Sr  Sr5  1  0.546575  0.997001  0.179631  1
  U  U6  1  0.963666  0.999830  0.672109  1
  U  U7  1  0.463666  0.000170  0.827891  1
  U  U8  1  0.055041  0.751968  0.002218  1
  U  U9  1  0.555041  0.248032  0.497782  1
  U  U10  1  0.936994  0.240927  0.990634  1
  U  U11  1  0.436994  0.759073  0.509366  1
  S  S12  1  0.664207  0.962021  0.428557  1
  S  S13  1  0.164207  0.037979  0.071443  1
  S  S14  1  0.329705  0.043456  0.600392  1
  S  S15  1  0.829705  0.956544  0.899608  1
  S  S16  1  0.439503  0.781409  0.991477  1
  S  S17  1  0.939503  0.218591  0.508523  1
  S  S18  1  0.556541  0.216134  0.982289  1
  S  S19  1  0.056541  0.783866  0.517711  1
  S  S20  1  0.860872  0.758876  0.181370  1
  S  S21  1  0.360872  0.241124  0.318630  1
  S  S22  1  0.144706  0.216492  0.804887  1
  S  S23  1  0.644706  0.783508  0.695113  1
  S  S24  1  0.333562  0.757311  0.300354  1
  S  S25  1  0.833562  0.242689  0.199646  1
  S  S26  1  0.674620  0.216197  0.712104  1
  S  S27  1  0.174620  0.783803  0.787896  1
  S  S28  1  0.174914  0.462700  0.062367  1
  S  S29  1  0.674914  0.537300  0.437633  1
  S  S30  1  0.824588  0.535339  0.924024  1
  S  S31  1  0.324588  0.464661  0.575976  1
