# generated using pymatgen
data_NdSm3Th2(Co3P2)6
_symmetry_space_group_name_H-M   'P 1'
_cell_length_a   3.77156000
_cell_length_b   10.64021723
_cell_length_c   12.34021727
_cell_angle_alpha   89.97611071
_cell_angle_beta   90.00000000
_cell_angle_gamma   90.00000000
_symmetry_Int_Tables_number   1
_chemical_formula_structural   NdSm3Th2(Co3P2)6
_chemical_formula_sum   'Nd1 Sm3 Th2 Co18 P12'
_cell_volume   495.21556240
_cell_formula_units_Z   1
loop_
 _symmetry_equiv_pos_site_id
 _symmetry_equiv_pos_as_xyz
  1  'x, y, z'
loop_
 _atom_site_type_symbol
 _atom_site_label
 _atom_site_symmetry_multiplicity
 _atom_site_fract_x
 _atom_site_fract_y
 _atom_site_fract_z
 _atom_site_occupancy
  Nd  Nd0  1  0.000000  0.315862  0.795495  1
  Sm  Sm1  1  0.500000  0.815386  0.204514  1
  Sm  Sm2  1  0.500000  0.184473  0.204232  1
  Sm  Sm3  1  0.000000  0.684870  0.795675  1
  Th  Th4  1  0.000000  0.500378  0.524004  1
  Th  Th5  1  0.500000  0.999859  0.475740  1
  Co  Co6  1  0.500000  0.500167  0.156686  1
  Co  Co7  1  0.000000  0.999713  0.843338  1
  Co  Co8  1  0.500000  0.501018  0.700736  1
  Co  Co9  1  0.000000  0.999850  0.298767  1
  Co  Co10  1  0.000000  0.500591  0.986669  1
  Co  Co11  1  0.500000  0.999478  0.014556  1
  Co  Co12  1  0.500000  0.333977  0.996378  1
  Co  Co13  1  0.500000  0.666649  0.995938  1
  Co  Co14  1  0.000000  0.165615  0.004992  1
  Co  Co15  1  0.000000  0.833909  0.004610  1
  Co  Co16  1  0.500000  0.298654  0.429926  1
  Co  Co17  1  0.500000  0.701309  0.430418  1
  Co  Co18  1  0.000000  0.200976  0.568637  1
  Co  Co19  1  0.000000  0.798767  0.569429  1
  Co  Co20  1  0.500000  0.881045  0.711832  1
  Co  Co21  1  0.500000  0.117823  0.711039  1
  Co  Co22  1  0.000000  0.618675  0.288314  1
  Co  Co23  1  0.000000  0.381324  0.288100  1
  P  P24  1  0.500000  0.501154  0.884610  1
  P  P25  1  0.000000  0.999729  0.116451  1
  P  P26  1  0.500000  0.499926  0.337841  1
  P  P27  1  0.000000  0.999878  0.661956  1
  P  P28  1  0.500000  0.304455  0.614831  1
  P  P29  1  0.500000  0.695459  0.616270  1
  P  P30  1  0.000000  0.195045  0.383238  1
  P  P31  1  0.000000  0.804704  0.383641  1
  P  P32  1  0.500000  0.848068  0.896255  1
  P  P33  1  0.500000  0.150971  0.896919  1
  P  P34  1  0.000000  0.652366  0.104135  1
  P  P35  1  0.000000  0.347876  0.103831  1
