# generated using pymatgen
data_Li3Pr4MgRh4
_symmetry_space_group_name_H-M   'P 1'
_cell_length_a   4.08472100
_cell_length_b   7.17111811
_cell_length_c   8.73630739
_cell_angle_alpha   89.93582309
_cell_angle_beta   90.00000000
_cell_angle_gamma   90.00000000
_symmetry_Int_Tables_number   1
_chemical_formula_structural   Li3Pr4MgRh4
_chemical_formula_sum   'Li3 Pr4 Mg1 Rh4'
_cell_volume   255.90390170
_cell_formula_units_Z   1
loop_
 _symmetry_equiv_pos_site_id
 _symmetry_equiv_pos_as_xyz
  1  'x, y, z'
loop_
 _atom_site_type_symbol
 _atom_site_label
 _atom_site_symmetry_multiplicity
 _atom_site_fract_x
 _atom_site_fract_y
 _atom_site_fract_z
 _atom_site_occupancy
  Li  Li0  1  0.250000  0.125415  0.948140  1
  Li  Li1  1  0.750000  0.875180  0.050279  1
  Li  Li2  1  0.250000  0.630692  0.555335  1
  Pr  Pr3  1  0.250000  0.039541  0.317095  1
  Pr  Pr4  1  0.750000  0.952372  0.679214  1
  Pr  Pr5  1  0.250000  0.547205  0.174993  1
  Pr  Pr6  1  0.750000  0.455528  0.823233  1
  Mg  Mg7  1  0.750000  0.375272  0.445816  1
  Rh  Rh8  1  0.750000  0.257231  0.134554  1
  Rh  Rh9  1  0.250000  0.744539  0.871668  1
  Rh  Rh10  1  0.750000  0.752545  0.371928  1
  Rh  Rh11  1  0.250000  0.244481  0.627745  1
