# generated using pymatgen
data_NaSc(Se2O5)2
_symmetry_space_group_name_H-M   'P 1'
_cell_length_a   6.48904500
_cell_length_b   6.99742900
_cell_length_c   10.87372400
_cell_angle_alpha   90.00000000
_cell_angle_beta   90.00000000
_cell_angle_gamma   90.00000000
_symmetry_Int_Tables_number   1
_chemical_formula_structural   NaSc(Se2O5)2
_chemical_formula_sum   'Na2 Sc2 Se8 O20'
_cell_volume   493.73918050
_cell_formula_units_Z   2
loop_
 _symmetry_equiv_pos_site_id
 _symmetry_equiv_pos_as_xyz
  1  'x, y, z'
loop_
 _atom_site_type_symbol
 _atom_site_label
 _atom_site_symmetry_multiplicity
 _atom_site_fract_x
 _atom_site_fract_y
 _atom_site_fract_z
 _atom_site_occupancy
  Na  Na0  1  0.500000  0.500000  0.286819  1
  Na  Na1  1  0.500000  0.000000  0.786819  1
  Sc  Sc2  1  0.000000  0.500000  0.401693  1
  Sc  Sc3  1  0.000000  0.000000  0.901693  1
  Se  Se4  1  0.708490  0.371298  0.002510  1
  Se  Se5  1  0.291509  0.628701  0.002510  1
  Se  Se6  1  0.208818  0.135959  0.188939  1
  Se  Se7  1  0.791183  0.864040  0.188939  1
  Se  Se8  1  0.708490  0.128702  0.502510  1
  Se  Se9  1  0.291509  0.871298  0.502510  1
  Se  Se10  1  0.208818  0.364041  0.688939  1
  Se  Se11  1  0.791183  0.635958  0.688939  1
  O  O12  1  0.103081  0.181505  0.048301  1
  O  O13  1  0.896919  0.818495  0.048301  1
  O  O14  1  0.581068  0.285907  0.124123  1
  O  O15  1  0.418932  0.714092  0.124123  1
  O  O16  1  0.169952  0.344597  0.266969  1
  O  O17  1  0.830048  0.655402  0.266969  1
  O  O18  1  0.000000  0.000000  0.265965  1
  O  O19  1  0.733408  0.324534  0.407101  1
  O  O20  1  0.266592  0.675467  0.407101  1
  O  O21  1  0.500000  0.000000  0.412957  1
  O  O22  1  0.103081  0.318495  0.548301  1
  O  O23  1  0.896919  0.681504  0.548301  1
  O  O24  1  0.581068  0.214092  0.624124  1
  O  O25  1  0.418932  0.785907  0.624124  1
  O  O26  1  0.169952  0.155403  0.766968  1
  O  O27  1  0.830048  0.844596  0.766968  1
  O  O28  1  0.000000  0.500000  0.765965  1
  O  O29  1  0.733408  0.175466  0.907101  1
  O  O30  1  0.266592  0.824533  0.907101  1
  O  O31  1  0.500000  0.500000  0.912957  1
