# generated using pymatgen
data_La4ZnNi13
_symmetry_space_group_name_H-M   'P 1'
_cell_length_a   5.02879631
_cell_length_b   5.02879584
_cell_length_c   12.71736606
_cell_angle_alpha   78.63221925
_cell_angle_beta   78.63223290
_cell_angle_gamma   60.07955381
_symmetry_Int_Tables_number   1
_chemical_formula_structural   La4ZnNi13
_chemical_formula_sum   'La4 Zn1 Ni13'
_cell_volume   271.42113672
_cell_formula_units_Z   1
loop_
 _symmetry_equiv_pos_site_id
 _symmetry_equiv_pos_as_xyz
  1  'x, y, z'
loop_
 _atom_site_type_symbol
 _atom_site_label
 _atom_site_symmetry_multiplicity
 _atom_site_fract_x
 _atom_site_fract_y
 _atom_site_fract_z
 _atom_site_occupancy
  La  La0  1  0.947423  0.947423  0.159752  1
  La  La1  1  0.052577  0.052577  0.840248  1
  La  La2  1  0.853076  0.853076  0.440976  1
  La  La3  1  0.146924  0.146924  0.559024  1
  Zn  Zn4  1  0.500000  0.500000  0.000000  1
  Ni  Ni5  1  0.500000  0.500000  0.500000  1
  Ni  Ni6  1  0.727479  0.727479  0.834769  1
  Ni  Ni7  1  0.272521  0.272521  0.165231  1
  Ni  Ni8  1  0.618767  0.618767  0.163754  1
  Ni  Ni9  1  0.381233  0.381233  0.836246  1
  Ni  Ni10  1  0.000000  0.500000  0.000000  1
  Ni  Ni11  1  0.500000  0.000000  0.000000  1
  Ni  Ni12  1  0.392135  0.392135  0.324996  1
  Ni  Ni13  1  0.889922  0.391676  0.327018  1
  Ni  Ni14  1  0.391676  0.889922  0.327018  1
  Ni  Ni15  1  0.607865  0.607865  0.675004  1
  Ni  Ni16  1  0.110078  0.608324  0.672982  1
  Ni  Ni17  1  0.608324  0.110078  0.672982  1
