# generated using pymatgen
data_Tb4Ho9Lu7Bi12
_symmetry_space_group_name_H-M   'P 1'
_cell_length_a   8.20072639
_cell_length_b   9.46044203
_cell_length_c   11.98889801
_cell_angle_alpha   90.00691143
_cell_angle_beta   89.93384971
_cell_angle_gamma   89.99293031
_symmetry_Int_Tables_number   1
_chemical_formula_structural   Tb4Ho9Lu7Bi12
_chemical_formula_sum   'Tb4 Ho9 Lu7 Bi12'
_cell_volume   930.12800586
_cell_formula_units_Z   1
loop_
 _symmetry_equiv_pos_site_id
 _symmetry_equiv_pos_as_xyz
  1  'x, y, z'
loop_
 _atom_site_type_symbol
 _atom_site_label
 _atom_site_symmetry_multiplicity
 _atom_site_fract_x
 _atom_site_fract_y
 _atom_site_fract_z
 _atom_site_occupancy
  Tb  Tb0  1  0.314071  0.249793  0.218447  1
  Tb  Tb1  1  0.814162  0.249546  0.282000  1
  Tb  Tb2  1  0.685661  0.750323  0.781769  1
  Tb  Tb3  1  0.185958  0.749633  0.718165  1
  Ho  Ho4  1  0.352767  0.749544  0.217210  1
  Ho  Ho5  1  0.853160  0.749797  0.282832  1
  Ho  Ho6  1  0.647417  0.249446  0.782504  1
  Ho  Ho7  1  0.145960  0.249172  0.716871  1
  Ho  Ho8  1  0.691681  0.564440  0.059371  1
  Ho  Ho9  1  0.192221  0.935643  0.440614  1
  Ho  Ho10  1  0.307928  0.064532  0.940295  1
  Ho  Ho11  1  0.807888  0.435671  0.559409  1
  Ho  Ho12  1  0.308842  0.435121  0.940860  1
  Lu  Lu13  1  0.808272  0.067246  0.558999  1
  Lu  Lu14  1  0.692157  0.932888  0.059422  1
  Lu  Lu15  1  0.191587  0.567414  0.440846  1
  Lu  Lu16  1  0.477350  0.249784  0.488893  1
  Lu  Lu17  1  0.976657  0.249770  0.011266  1
  Lu  Lu18  1  0.522593  0.749577  0.510970  1
  Lu  Lu19  1  0.022349  0.750114  0.988906  1
  Bi  Bi20  1  0.404396  0.750632  0.958859  1
  Bi  Bi21  1  0.903518  0.752230  0.541657  1
  Bi  Bi22  1  0.596557  0.247194  0.041779  1
  Bi  Bi23  1  0.096458  0.252354  0.458225  1
  Bi  Bi24  1  0.565863  0.994753  0.327858  1
  Bi  Bi25  1  0.065979  0.504606  0.172393  1
  Bi  Bi26  1  0.434464  0.494758  0.671998  1
  Bi  Bi27  1  0.934209  0.004606  0.827632  1
  Bi  Bi28  1  0.434663  0.004471  0.672171  1
  Bi  Bi29  1  0.934221  0.495241  0.827472  1
  Bi  Bi30  1  0.565714  0.504512  0.327857  1
  Bi  Bi31  1  0.065275  0.995190  0.172451  1
