# generated using pymatgen
data_HfZr3Mn3Si4W
_symmetry_space_group_name_H-M   'P 1'
_cell_length_a   3.61014800
_cell_length_b   6.71373340
_cell_length_c   7.84728447
_cell_angle_alpha   89.38875822
_cell_angle_beta   90.00000000
_cell_angle_gamma   90.00000000
_symmetry_Int_Tables_number   1
_chemical_formula_structural   HfZr3Mn3Si4W
_chemical_formula_sum   'Hf1 Zr3 Mn3 Si4 W1'
_cell_volume   190.18829309
_cell_formula_units_Z   1
loop_
 _symmetry_equiv_pos_site_id
 _symmetry_equiv_pos_as_xyz
  1  'x, y, z'
loop_
 _atom_site_type_symbol
 _atom_site_label
 _atom_site_symmetry_multiplicity
 _atom_site_fract_x
 _atom_site_fract_y
 _atom_site_fract_z
 _atom_site_occupancy
  Hf  Hf0  1  0.250000  0.035101  0.330459  1
  Zr  Zr1  1  0.250000  0.535730  0.178965  1
  Zr  Zr2  1  0.750000  0.463112  0.823556  1
  Zr  Zr3  1  0.750000  0.969633  0.668893  1
  Mn  Mn4  1  0.250000  0.632930  0.563328  1
  Mn  Mn5  1  0.250000  0.134503  0.938702  1
  Mn  Mn6  1  0.750000  0.362993  0.439309  1
  Si  Si7  1  0.250000  0.764417  0.857813  1
  Si  Si8  1  0.250000  0.269595  0.624980  1
  Si  Si9  1  0.750000  0.237501  0.130936  1
  Si  Si10  1  0.750000  0.728427  0.380697  1
  W  W11  1  0.750000  0.866057  0.062362  1
