# generated using pymatgen
data_Pr2CoB10
_symmetry_space_group_name_H-M   'P 1'
_cell_length_a   4.20581400
_cell_length_b   5.64988000
_cell_length_c   11.24593800
_cell_angle_alpha   90.00000000
_cell_angle_beta   90.00000000
_cell_angle_gamma   90.00000000
_symmetry_Int_Tables_number   1
_chemical_formula_structural   Pr2CoB10
_chemical_formula_sum   'Pr4 Co2 B20'
_cell_volume   267.22985188
_cell_formula_units_Z   2
loop_
 _symmetry_equiv_pos_site_id
 _symmetry_equiv_pos_as_xyz
  1  'x, y, z'
loop_
 _atom_site_type_symbol
 _atom_site_label
 _atom_site_symmetry_multiplicity
 _atom_site_fract_x
 _atom_site_fract_y
 _atom_site_fract_z
 _atom_site_occupancy
  Pr  Pr0  1  0.500000  0.198995  0.365527  1
  Pr  Pr1  1  0.500000  0.801005  0.634473  1
  Pr  Pr2  1  0.500000  0.301005  0.865527  1
  Pr  Pr3  1  0.500000  0.698995  0.134473  1
  Co  Co4  1  0.000000  0.000000  0.000000  1
  Co  Co5  1  0.000000  0.500000  0.500000  1
  B  B6  1  0.000000  0.372363  0.040729  1
  B  B7  1  0.000000  0.627637  0.959271  1
  B  B8  1  0.000000  0.127637  0.540729  1
  B  B9  1  0.000000  0.872363  0.459271  1
  B  B10  1  0.000000  0.343756  0.197287  1
  B  B11  1  0.000000  0.656244  0.802713  1
  B  B12  1  0.000000  0.156244  0.697287  1
  B  B13  1  0.000000  0.843756  0.302713  1
  B  B14  1  0.000000  0.034797  0.186923  1
  B  B15  1  0.000000  0.965203  0.813077  1
  B  B16  1  0.000000  0.465203  0.686923  1
  B  B17  1  0.000000  0.534797  0.313077  1
  B  B18  1  0.298391  0.200927  0.112751  1
  B  B19  1  0.701609  0.799073  0.887249  1
  B  B20  1  0.298391  0.799073  0.887249  1
  B  B21  1  0.701609  0.299073  0.612751  1
  B  B22  1  0.701609  0.200927  0.112751  1
  B  B23  1  0.298391  0.700927  0.387249  1
  B  B24  1  0.701609  0.700927  0.387249  1
  B  B25  1  0.298391  0.299073  0.612751  1
