# generated using pymatgen
data_Sc4Ti4V12Si15As
_symmetry_space_group_name_H-M   'P 1'
_cell_length_a   6.55427898
_cell_length_b   6.55357518
_cell_length_c   12.11914209
_cell_angle_alpha   90.05926568
_cell_angle_beta   89.96977737
_cell_angle_gamma   89.93131757
_symmetry_Int_Tables_number   1
_chemical_formula_structural   Sc4Ti4V12Si15As
_chemical_formula_sum   'Sc4 Ti4 V12 Si15 As1'
_cell_volume   520.56442018
_cell_formula_units_Z   1
loop_
 _symmetry_equiv_pos_site_id
 _symmetry_equiv_pos_as_xyz
  1  'x, y, z'
loop_
 _atom_site_type_symbol
 _atom_site_label
 _atom_site_symmetry_multiplicity
 _atom_site_fract_x
 _atom_site_fract_y
 _atom_site_fract_z
 _atom_site_occupancy
  Sc  Sc0  1  0.502162  0.166573  0.221010  1
  Sc  Sc1  1  0.999847  0.337295  0.530861  1
  Sc  Sc2  1  0.664936  0.999718  0.970265  1
  Sc  Sc3  1  0.337498  0.999117  0.469536  1
  Ti  Ti4  1  0.006695  0.658975  0.028468  1
  Ti  Ti5  1  0.840049  0.507175  0.281017  1
  Ti  Ti6  1  0.160869  0.493278  0.778757  1
  Ti  Ti7  1  0.506092  0.838131  0.720690  1
  V  V8  1  0.330442  0.338749  0.998901  1
  V  V9  1  0.164095  0.829426  0.249825  1
  V  V10  1  0.833942  0.166093  0.750865  1
  V  V11  1  0.667590  0.667194  0.501254  1
  V  V12  1  0.998788  0.159169  0.126619  1
  V  V13  1  0.341160  0.505717  0.376703  1
  V  V14  1  0.656713  0.495889  0.876457  1
  V  V15  1  0.507170  0.344884  0.625284  1
  V  V16  1  0.490027  0.655018  0.121608  1
  V  V17  1  0.994863  0.842173  0.629341  1
  V  V18  1  0.154577  0.005677  0.872598  1
  V  V19  1  0.841173  0.990844  0.372918  1
  Si  Si20  1  0.540333  0.790803  0.314026  1
  Si  Si21  1  0.460841  0.203916  0.814324  1
  Si  Si22  1  0.796587  0.540266  0.686441  1
  Si  Si23  1  0.198707  0.461947  0.185094  1
  Si  Si24  1  0.704466  0.037963  0.565822  1
  Si  Si25  1  0.961355  0.300907  0.934107  1
  Si  Si26  1  0.038915  0.704014  0.435993  1
  Si  Si27  1  0.709254  0.376883  0.072920  1
  Si  Si28  1  0.124977  0.206926  0.320570  1
  Si  Si29  1  0.871902  0.790224  0.823211  1
  Si  Si30  1  0.208234  0.129241  0.679484  1
  Si  Si31  1  0.797820  0.860978  0.177284  1
  Si  Si32  1  0.297297  0.633198  0.576116  1
  Si  Si33  1  0.364695  0.699161  0.919290  1
  Si  Si34  1  0.633670  0.299123  0.427484  1
  As  As35  1  0.292259  0.963356  0.064856  1
