# generated using pymatgen
data_Tb3Tm5Tc3B24Rh
_symmetry_space_group_name_H-M   'P 1'
_cell_length_a   3.65912000
_cell_length_b   9.11730531
_cell_length_c   11.50815100
_cell_angle_alpha   90.13058760
_cell_angle_beta   90.00000000
_cell_angle_gamma   90.00000000
_symmetry_Int_Tables_number   1
_chemical_formula_structural   Tb3Tm5Tc3B24Rh
_chemical_formula_sum   'Tb3 Tm5 Tc3 B24 Rh1'
_cell_volume   383.92604425
_cell_formula_units_Z   1
loop_
 _symmetry_equiv_pos_site_id
 _symmetry_equiv_pos_as_xyz
  1  'x, y, z'
loop_
 _atom_site_type_symbol
 _atom_site_label
 _atom_site_symmetry_multiplicity
 _atom_site_fract_x
 _atom_site_fract_y
 _atom_site_fract_z
 _atom_site_occupancy
  Tb  Tb0  1  0.500000  0.318620  0.415734  1
  Tb  Tb1  1  0.500000  0.678100  0.590736  1
  Tb  Tb2  1  0.500000  0.177501  0.913008  1
  Tm  Tm3  1  0.500000  0.827203  0.080795  1
  Tm  Tm4  1  0.500000  0.440686  0.128798  1
  Tm  Tm5  1  0.500000  0.557339  0.871356  1
  Tm  Tm6  1  0.500000  0.056092  0.629912  1
  Tm  Tm7  1  0.500000  0.943764  0.369426  1
  Tc  Tc8  1  0.500000  0.138057  0.180439  1
  Tc  Tc9  1  0.500000  0.861164  0.820771  1
  Tc  Tc10  1  0.500000  0.362044  0.678740  1
  B  B11  1  0.000000  0.099469  0.471879  1
  B  B12  1  0.000000  0.897341  0.527471  1
  B  B13  1  0.000000  0.399018  0.972599  1
  B  B14  1  0.000000  0.603498  0.029149  1
  B  B15  1  0.000000  0.129717  0.314998  1
  B  B16  1  0.000000  0.869142  0.685355  1
  B  B17  1  0.000000  0.370110  0.814618  1
  B  B18  1  0.000000  0.631660  0.183164  1
  B  B19  1  0.000000  0.053038  0.066958  1
  B  B20  1  0.000000  0.946536  0.932946  1
  B  B21  1  0.000000  0.446052  0.567068  1
  B  B22  1  0.000000  0.554451  0.433232  1
  B  B23  1  0.000000  0.483269  0.287161  1
  B  B24  1  0.000000  0.518200  0.713008  1
  B  B25  1  0.000000  0.017393  0.786938  1
  B  B26  1  0.000000  0.981676  0.211845  1
  B  B27  1  0.000000  0.249713  0.081816  1
  B  B28  1  0.000000  0.751136  0.919540  1
  B  B29  1  0.000000  0.249412  0.581442  1
  B  B30  1  0.000000  0.749933  0.419369  1
  B  B31  1  0.000000  0.291764  0.235152  1
  B  B32  1  0.000000  0.708118  0.766303  1
  B  B33  1  0.000000  0.208236  0.734304  1
  B  B34  1  0.000000  0.791751  0.264162  1
  Rh  Rh35  1  0.500000  0.638794  0.319805  1
