# generated using pymatgen
data_Tb3Ho5Tc3B24Rh
_symmetry_space_group_name_H-M   'P 1'
_cell_length_a   3.68391100
_cell_length_b   9.16608159
_cell_length_c   11.55634301
_cell_angle_alpha   90.14576689
_cell_angle_beta   90.00000000
_cell_angle_gamma   90.00000000
_symmetry_Int_Tables_number   1
_chemical_formula_structural   Tb3Ho5Tc3B24Rh
_chemical_formula_sum   'Tb3 Ho5 Tc3 B24 Rh1'
_cell_volume   390.22210426
_cell_formula_units_Z   1
loop_
 _symmetry_equiv_pos_site_id
 _symmetry_equiv_pos_as_xyz
  1  'x, y, z'
loop_
 _atom_site_type_symbol
 _atom_site_label
 _atom_site_symmetry_multiplicity
 _atom_site_fract_x
 _atom_site_fract_y
 _atom_site_fract_z
 _atom_site_occupancy
  Tb  Tb0  1  0.500000  0.319180  0.415682  1
  Tb  Tb1  1  0.500000  0.677689  0.590781  1
  Tb  Tb2  1  0.500000  0.176955  0.912855  1
  Ho  Ho3  1  0.500000  0.827401  0.081235  1
  Ho  Ho4  1  0.500000  0.440839  0.129143  1
  Ho  Ho5  1  0.500000  0.557050  0.871256  1
  Ho  Ho6  1  0.500000  0.056103  0.629595  1
  Ho  Ho7  1  0.500000  0.943679  0.369504  1
  Tc  Tc8  1  0.500000  0.138328  0.180194  1
  Tc  Tc9  1  0.500000  0.861401  0.820832  1
  Tc  Tc10  1  0.500000  0.362290  0.678128  1
  B  B11  1  0.000000  0.101695  0.471198  1
  B  B12  1  0.000000  0.895276  0.528119  1
  B  B13  1  0.000000  0.397090  0.972042  1
  B  B14  1  0.000000  0.604516  0.029517  1
  B  B15  1  0.000000  0.130656  0.314768  1
  B  B16  1  0.000000  0.868471  0.685590  1
  B  B17  1  0.000000  0.369388  0.814127  1
  B  B18  1  0.000000  0.631912  0.183969  1
  B  B19  1  0.000000  0.053426  0.066787  1
  B  B20  1  0.000000  0.946894  0.932650  1
  B  B21  1  0.000000  0.446265  0.566975  1
  B  B22  1  0.000000  0.554143  0.433415  1
  B  B23  1  0.000000  0.483529  0.287730  1
  B  B24  1  0.000000  0.517670  0.712607  1
  B  B25  1  0.000000  0.017037  0.787031  1
  B  B26  1  0.000000  0.982837  0.211771  1
  B  B27  1  0.000000  0.249051  0.081513  1
  B  B28  1  0.000000  0.751820  0.919155  1
  B  B29  1  0.000000  0.250443  0.581218  1
  B  B30  1  0.000000  0.749120  0.419821  1
  B  B31  1  0.000000  0.291608  0.235023  1
  B  B32  1  0.000000  0.708247  0.766165  1
  B  B33  1  0.000000  0.208498  0.734019  1
  B  B34  1  0.000000  0.791283  0.264855  1
  Rh  Rh35  1  0.500000  0.638218  0.320732  1
