# generated using pymatgen
data_In5Hg13
_symmetry_space_group_name_H-M   'P 1'
_cell_length_a   16.70755654
_cell_length_b   16.70755588
_cell_length_c   7.48569800
_cell_angle_alpha   95.06599326
_cell_angle_beta   95.06599306
_cell_angle_gamma   14.34502674
_symmetry_Int_Tables_number   1
_chemical_formula_structural   In5Hg13
_chemical_formula_sum   'In5 Hg13'
_cell_volume   515.65982162
_cell_formula_units_Z   1
loop_
 _symmetry_equiv_pos_site_id
 _symmetry_equiv_pos_as_xyz
  1  'x, y, z'
loop_
 _atom_site_type_symbol
 _atom_site_label
 _atom_site_symmetry_multiplicity
 _atom_site_fract_x
 _atom_site_fract_y
 _atom_site_fract_z
 _atom_site_occupancy
  In  In0  1  0.000000  0.000000  0.000000  1
  In  In1  1  0.668293  0.668293  0.333961  1
  In  In2  1  0.892036  0.892036  0.417196  1
  In  In3  1  0.107964  0.107964  0.582805  1
  In  In4  1  0.331707  0.331707  0.666039  1
  Hg  Hg5  1  0.112856  0.112856  0.080101  1
  Hg  Hg6  1  0.223201  0.223201  0.109192  1
  Hg  Hg7  1  0.334579  0.334579  0.160425  1
  Hg  Hg8  1  0.443057  0.443057  0.197280  1
  Hg  Hg9  1  0.555280  0.555280  0.296768  1
  Hg  Hg10  1  0.778782  0.778782  0.391636  1
  Hg  Hg11  1  0.000000  0.000000  0.500000  1
  Hg  Hg12  1  0.221218  0.221218  0.608365  1
  Hg  Hg13  1  0.444720  0.444720  0.703232  1
  Hg  Hg14  1  0.556943  0.556943  0.802719  1
  Hg  Hg15  1  0.665420  0.665420  0.839575  1
  Hg  Hg16  1  0.776798  0.776798  0.890807  1
  Hg  Hg17  1  0.887145  0.887145  0.919900  1
