# generated using pymatgen
data_HoEr7Cd2RuPt
_symmetry_space_group_name_H-M   'P 1'
_cell_length_a   9.57913488
_cell_length_b   9.57913525
_cell_length_c   9.60907300
_cell_angle_alpha   59.89656514
_cell_angle_beta   59.89656384
_cell_angle_gamma   59.77657568
_symmetry_Int_Tables_number   1
_chemical_formula_structural   HoEr7Cd2RuPt
_chemical_formula_sum   'Ho2 Er14 Cd4 Ru2 Pt2'
_cell_volume   621.44390456
_cell_formula_units_Z   2
loop_
 _symmetry_equiv_pos_site_id
 _symmetry_equiv_pos_as_xyz
  1  'x, y, z'
loop_
 _atom_site_type_symbol
 _atom_site_label
 _atom_site_symmetry_multiplicity
 _atom_site_fract_x
 _atom_site_fract_y
 _atom_site_fract_z
 _atom_site_occupancy
  Ho  Ho0  1  0.814272  0.814272  0.185728  1
  Ho  Ho1  1  0.188242  0.188242  0.811758  1
  Er  Er2  1  0.599189  0.599189  0.602562  1
  Er  Er3  1  0.599189  0.599189  0.199062  1
  Er  Er4  1  0.597107  0.202895  0.599999  1
  Er  Er5  1  0.202895  0.597107  0.599999  1
  Er  Er6  1  0.065483  0.438183  0.439203  1
  Er  Er7  1  0.438183  0.065483  0.057131  1
  Er  Er8  1  0.438183  0.065483  0.439203  1
  Er  Er9  1  0.065483  0.438183  0.057131  1
  Er  Er10  1  0.437661  0.437661  0.062339  1
  Er  Er11  1  0.059198  0.059198  0.440802  1
  Er  Er12  1  0.187098  0.809591  0.816535  1
  Er  Er13  1  0.809591  0.187098  0.186777  1
  Er  Er14  1  0.809591  0.187098  0.816535  1
  Er  Er15  1  0.187098  0.809591  0.186777  1
  Cd  Cd16  1  0.830149  0.830149  0.831469  1
  Cd  Cd17  1  0.830149  0.830149  0.508235  1
  Cd  Cd18  1  0.830967  0.505192  0.831920  1
  Cd  Cd19  1  0.505192  0.830967  0.831920  1
  Ru  Ru20  1  0.393768  0.393768  0.389270  1
  Ru  Ru21  1  0.393768  0.393768  0.823195  1
  Pt  Pt22  1  0.393937  0.823611  0.391226  1
  Pt  Pt23  1  0.823611  0.393937  0.391226  1
