# generated using pymatgen
data_Tm2Pa2Ga6Ir7
_symmetry_space_group_name_H-M   'P 1'
_cell_length_a   7.23577478
_cell_length_b   7.33576651
_cell_length_c   7.23573054
_cell_angle_alpha   109.53182500
_cell_angle_beta   108.84469406
_cell_angle_gamma   109.53255551
_symmetry_Int_Tables_number   1
_chemical_formula_structural   Tm2Pa2Ga6Ir7
_chemical_formula_sum   'Tm2 Pa2 Ga6 Ir7'
_cell_volume   297.47515039
_cell_formula_units_Z   1
loop_
 _symmetry_equiv_pos_site_id
 _symmetry_equiv_pos_as_xyz
  1  'x, y, z'
loop_
 _atom_site_type_symbol
 _atom_site_label
 _atom_site_symmetry_multiplicity
 _atom_site_fract_x
 _atom_site_fract_y
 _atom_site_fract_z
 _atom_site_occupancy
  Tm  Tm0  1  0.000000  0.000000  0.500000  1
  Tm  Tm1  1  0.500000  0.000000  0.000000  1
  Pa  Pa2  1  0.000000  0.500000  0.000000  1
  Pa  Pa3  1  0.500000  0.500000  0.500000  1
  Ga  Ga4  1  0.689764  0.696817  0.007051  1
  Ga  Ga5  1  0.315682  0.000022  0.315679  1
  Ga  Ga6  1  0.992942  0.303179  0.310229  1
  Ga  Ga7  1  0.310236  0.303183  0.992949  1
  Ga  Ga8  1  0.684318  0.999978  0.684321  1
  Ga  Ga9  1  0.007058  0.696821  0.689771  1
  Ir  Ir10  1  0.753163  0.261654  0.508535  1
  Ir  Ir11  1  0.749995  0.500004  0.250011  1
  Ir  Ir12  1  0.508534  0.261653  0.753164  1
  Ir  Ir13  1  0.250005  0.499996  0.749989  1
  Ir  Ir14  1  0.246837  0.738346  0.491465  1
  Ir  Ir15  1  0.491466  0.738347  0.246836  1
  Ir  Ir16  1  0.000000  0.000000  0.000000  1
