# generated using pymatgen
data_Tb3Co2P6Ir7
_symmetry_space_group_name_H-M   'P 1'
_cell_length_a   3.90043600
_cell_length_b   11.05904500
_cell_length_c   12.74979500
_cell_angle_alpha   90.00000000
_cell_angle_beta   90.00000000
_cell_angle_gamma   90.00000000
_symmetry_Int_Tables_number   1
_chemical_formula_structural   Tb3Co2P6Ir7
_chemical_formula_sum   'Tb6 Co4 P12 Ir14'
_cell_volume   549.96364716
_cell_formula_units_Z   2
loop_
 _symmetry_equiv_pos_site_id
 _symmetry_equiv_pos_as_xyz
  1  'x, y, z'
loop_
 _atom_site_type_symbol
 _atom_site_label
 _atom_site_symmetry_multiplicity
 _atom_site_fract_x
 _atom_site_fract_y
 _atom_site_fract_z
 _atom_site_occupancy
  Tb  Tb0  1  0.000000  0.500000  0.522394  1
  Tb  Tb1  1  0.500000  0.000000  0.477518  1
  Tb  Tb2  1  0.500000  0.820856  0.198813  1
  Tb  Tb3  1  0.500000  0.179144  0.198813  1
  Tb  Tb4  1  0.000000  0.685069  0.801431  1
  Tb  Tb5  1  0.000000  0.314931  0.801431  1
  Co  Co6  1  0.000000  0.500000  0.986861  1
  Co  Co7  1  0.500000  0.000000  0.015715  1
  Co  Co8  1  0.000000  0.159037  0.003065  1
  Co  Co9  1  0.000000  0.840963  0.003065  1
  P  P10  1  0.500000  0.315712  0.620100  1
  P  P11  1  0.500000  0.684288  0.620100  1
  P  P12  1  0.000000  0.183978  0.379647  1
  P  P13  1  0.000000  0.816022  0.379647  1
  P  P14  1  0.500000  0.500000  0.883728  1
  P  P15  1  0.000000  0.000000  0.110769  1
  P  P16  1  0.500000  0.851201  0.900688  1
  P  P17  1  0.500000  0.148799  0.900688  1
  P  P18  1  0.000000  0.659551  0.101473  1
  P  P19  1  0.000000  0.340449  0.101473  1
  P  P20  1  0.500000  0.500000  0.353894  1
  P  P21  1  0.000000  0.000000  0.646667  1
  Ir  Ir22  1  0.500000  0.293552  0.428574  1
  Ir  Ir23  1  0.500000  0.706448  0.428574  1
  Ir  Ir24  1  0.000000  0.204858  0.570711  1
  Ir  Ir25  1  0.000000  0.795142  0.570711  1
  Ir  Ir26  1  0.500000  0.871832  0.716561  1
  Ir  Ir27  1  0.500000  0.128168  0.716561  1
  Ir  Ir28  1  0.000000  0.628980  0.283233  1
  Ir  Ir29  1  0.000000  0.371020  0.283233  1
  Ir  Ir30  1  0.500000  0.332978  0.996280  1
  Ir  Ir31  1  0.500000  0.667022  0.996280  1
  Ir  Ir32  1  0.500000  0.500000  0.171561  1
  Ir  Ir33  1  0.000000  0.000000  0.830805  1
  Ir  Ir34  1  0.500000  0.500000  0.704946  1
  Ir  Ir35  1  0.000000  0.000000  0.293995  1
