# generated using pymatgen
data_Tc7As12
_symmetry_space_group_name_H-M   'P 1'
_cell_length_a   3.12172700
_cell_length_b   13.20558100
_cell_length_c   16.03934400
_cell_angle_alpha   90.00000000
_cell_angle_beta   90.00000000
_cell_angle_gamma   90.00000000
_symmetry_Int_Tables_number   1
_chemical_formula_structural   Tc7As12
_chemical_formula_sum   'Tc14 As24'
_cell_volume   661.20942580
_cell_formula_units_Z   2
loop_
 _symmetry_equiv_pos_site_id
 _symmetry_equiv_pos_as_xyz
  1  'x, y, z'
loop_
 _atom_site_type_symbol
 _atom_site_label
 _atom_site_symmetry_multiplicity
 _atom_site_fract_x
 _atom_site_fract_y
 _atom_site_fract_z
 _atom_site_occupancy
  Tc  Tc0  1  0.000000  0.198218  0.608410  1
  Tc  Tc1  1  0.000000  0.801782  0.391590  1
  Tc  Tc2  1  0.500000  0.698218  0.891590  1
  Tc  Tc3  1  0.500000  0.301782  0.108410  1
  Tc  Tc4  1  0.000000  0.591249  0.758532  1
  Tc  Tc5  1  0.000000  0.408751  0.241468  1
  Tc  Tc6  1  0.500000  0.091249  0.741468  1
  Tc  Tc7  1  0.500000  0.908751  0.258532  1
  Tc  Tc8  1  0.000000  0.000000  0.000000  1
  Tc  Tc9  1  0.500000  0.500000  0.500000  1
  Tc  Tc10  1  0.000000  0.380765  0.852928  1
  Tc  Tc11  1  0.000000  0.619235  0.147072  1
  Tc  Tc12  1  0.500000  0.880765  0.647072  1
  Tc  Tc13  1  0.500000  0.119235  0.352928  1
  As  As14  1  0.000000  0.593842  0.595813  1
  As  As15  1  0.000000  0.406158  0.404187  1
  As  As16  1  0.500000  0.093842  0.904187  1
  As  As17  1  0.500000  0.906158  0.095813  1
  As  As18  1  0.000000  0.940996  0.760786  1
  As  As19  1  0.000000  0.059004  0.239214  1
  As  As20  1  0.500000  0.440996  0.739214  1
  As  As21  1  0.500000  0.559004  0.260786  1
  As  As22  1  0.000000  0.766211  0.239197  1
  As  As23  1  0.000000  0.233789  0.760803  1
  As  As24  1  0.500000  0.266211  0.260803  1
  As  As25  1  0.500000  0.733789  0.739197  1
  As  As26  1  0.000000  0.853667  0.902920  1
  As  As27  1  0.000000  0.146333  0.097080  1
  As  As28  1  0.500000  0.353667  0.597080  1
  As  As29  1  0.500000  0.646333  0.402920  1
  As  As30  1  0.000000  0.553641  0.914186  1
  As  As31  1  0.000000  0.446359  0.085814  1
  As  As32  1  0.500000  0.053641  0.585814  1
  As  As33  1  0.500000  0.946359  0.414186  1
  As  As34  1  0.000000  0.783315  0.553771  1
  As  As35  1  0.000000  0.216685  0.446229  1
  As  As36  1  0.500000  0.283315  0.946229  1
  As  As37  1  0.500000  0.716685  0.053771  1
