# generated using pymatgen
data_Dy3Er(GaRu)4
_symmetry_space_group_name_H-M   'P 1'
_cell_length_a   4.50624300
_cell_length_b   7.17573004
_cell_length_c   7.11997300
_cell_angle_alpha   89.96833450
_cell_angle_beta   90.00000000
_cell_angle_gamma   90.00000000
_symmetry_Int_Tables_number   1
_chemical_formula_structural   Dy3Er(GaRu)4
_chemical_formula_sum   'Dy3 Er1 Ga4 Ru4'
_cell_volume   230.22844464
_cell_formula_units_Z   1
loop_
 _symmetry_equiv_pos_site_id
 _symmetry_equiv_pos_as_xyz
  1  'x, y, z'
loop_
 _atom_site_type_symbol
 _atom_site_label
 _atom_site_symmetry_multiplicity
 _atom_site_fract_x
 _atom_site_fract_y
 _atom_site_fract_z
 _atom_site_occupancy
  Dy  Dy0  1  0.250000  0.982348  0.803115  1
  Dy  Dy1  1  0.750000  0.017615  0.197159  1
  Dy  Dy2  1  0.250000  0.482704  0.696340  1
  Er  Er3  1  0.750000  0.517960  0.301545  1
  Ga  Ga4  1  0.250000  0.302631  0.106501  1
  Ga  Ga5  1  0.750000  0.697873  0.894629  1
  Ga  Ga6  1  0.250000  0.800688  0.394573  1
  Ga  Ga7  1  0.750000  0.199059  0.605063  1
  Ru  Ru8  1  0.750000  0.840633  0.562506  1
  Ru  Ru9  1  0.250000  0.158635  0.437058  1
  Ru  Ru10  1  0.750000  0.341149  0.937756  1
  Ru  Ru11  1  0.250000  0.658704  0.063755  1
