# generated using pymatgen
data_Li3CeEr3Si8Rh
_symmetry_space_group_name_H-M   'P 1'
_cell_length_a   3.81996100
_cell_length_b   7.43216997
_cell_length_c   10.12025433
_cell_angle_alpha   90.22456046
_cell_angle_beta   90.00000000
_cell_angle_gamma   90.00000000
_symmetry_Int_Tables_number   1
_chemical_formula_structural   Li3CeEr3Si8Rh
_chemical_formula_sum   'Li3 Ce1 Er3 Si8 Rh1'
_cell_volume   287.31788018
_cell_formula_units_Z   1
loop_
 _symmetry_equiv_pos_site_id
 _symmetry_equiv_pos_as_xyz
  1  'x, y, z'
loop_
 _atom_site_type_symbol
 _atom_site_label
 _atom_site_symmetry_multiplicity
 _atom_site_fract_x
 _atom_site_fract_y
 _atom_site_fract_z
 _atom_site_occupancy
  Li  Li0  1  0.250000  0.491320  0.108584  1
  Li  Li1  1  0.750000  0.007688  0.605080  1
  Li  Li2  1  0.750000  0.504520  0.893440  1
  Ce  Ce3  1  0.250000  0.645155  0.630274  1
  Er  Er4  1  0.250000  0.137815  0.867541  1
  Er  Er5  1  0.750000  0.861736  0.135098  1
  Er  Er6  1  0.750000  0.368828  0.367218  1
  Si  Si7  1  0.250000  0.215549  0.563832  1
  Si  Si8  1  0.250000  0.734468  0.931475  1
  Si  Si9  1  0.750000  0.783010  0.430242  1
  Si  Si10  1  0.750000  0.262200  0.072671  1
  Si  Si11  1  0.250000  0.662670  0.318541  1
  Si  Si12  1  0.250000  0.155534  0.190501  1
  Si  Si13  1  0.750000  0.336708  0.676453  1
  Si  Si14  1  0.750000  0.844373  0.819170  1
  Rh  Rh15  1  0.250000  0.988427  0.389880  1
