# generated using pymatgen
data_Tb3Dy3Ga3CuNi12
_symmetry_space_group_name_H-M   'P 1'
_cell_length_a   7.70461888
_cell_length_b   7.63100818
_cell_length_c   7.70429725
_cell_angle_alpha   109.27790301
_cell_angle_beta   109.66263107
_cell_angle_gamma   109.27816977
_symmetry_Int_Tables_number   1
_chemical_formula_structural   Tb3Dy3Ga3CuNi12
_chemical_formula_sum   'Tb3 Dy3 Ga3 Cu1 Ni12'
_cell_volume   349.52630583
_cell_formula_units_Z   1
loop_
 _symmetry_equiv_pos_site_id
 _symmetry_equiv_pos_as_xyz
  1  'x, y, z'
loop_
 _atom_site_type_symbol
 _atom_site_label
 _atom_site_symmetry_multiplicity
 _atom_site_fract_x
 _atom_site_fract_y
 _atom_site_fract_z
 _atom_site_occupancy
  Tb  Tb0  1  0.290487  0.293350  0.000075  1
  Tb  Tb1  1  0.709513  0.002862  0.709588  1
  Tb  Tb2  1  0.000000  0.706591  0.709579  1
  Dy  Dy3  1  0.709340  0.706521  0.000051  1
  Dy  Dy4  1  0.290660  0.997182  0.290711  1
  Dy  Dy5  1  0.000000  0.293443  0.290743  1
  Ga  Ga6  1  0.000000  0.000040  0.499826  1
  Ga  Ga7  1  0.500070  0.999991  0.000097  1
  Ga  Ga8  1  0.499930  0.499921  0.500027  1
  Cu  Cu9  1  0.000000  0.500106  0.000095  1
  Ni  Ni10  1  0.337643  0.337606  0.675070  1
  Ni  Ni11  1  0.662357  0.999963  0.337427  1
  Ni  Ni12  1  0.000000  0.661354  0.337142  1
  Ni  Ni13  1  0.662836  0.338761  0.000071  1
  Ni  Ni14  1  0.337164  0.675925  0.337235  1
  Ni  Ni15  1  0.000000  0.338550  0.662473  1
  Ni  Ni16  1  0.337428  0.661553  0.000125  1
  Ni  Ni17  1  0.337573  0.000037  0.662290  1
  Ni  Ni18  1  0.675190  0.337422  0.337575  1
  Ni  Ni19  1  0.662427  0.662464  0.324717  1
  Ni  Ni20  1  0.662572  0.324125  0.662697  1
  Ni  Ni21  1  0.324810  0.662232  0.662386  1
