# generated using pymatgen
data_Ac3Nd(Si3Ir)2
_symmetry_space_group_name_H-M   'P 1'
_cell_length_a   8.36490900
_cell_length_b   8.36490705
_cell_length_c   8.97030400
_cell_angle_alpha   90.00000000
_cell_angle_beta   90.00000000
_cell_angle_gamma   120.00004803
_symmetry_Int_Tables_number   1
_chemical_formula_structural   Ac3Nd(Si3Ir)2
_chemical_formula_sum   'Ac6 Nd2 Si12 Ir4'
_cell_volume   543.57556146
_cell_formula_units_Z   2
loop_
 _symmetry_equiv_pos_site_id
 _symmetry_equiv_pos_as_xyz
  1  'x, y, z'
loop_
 _atom_site_type_symbol
 _atom_site_label
 _atom_site_symmetry_multiplicity
 _atom_site_fract_x
 _atom_site_fract_y
 _atom_site_fract_z
 _atom_site_occupancy
  Ac  Ac0  1  0.499819  0.500182  0.750000  1
  Ac  Ac1  1  0.500181  0.499818  0.250000  1
  Ac  Ac2  1  0.000364  0.500183  0.750000  1
  Ac  Ac3  1  0.999636  0.499817  0.250000  1
  Ac  Ac4  1  0.499818  0.999636  0.750000  1
  Ac  Ac5  1  0.500182  0.000364  0.250000  1
  Nd  Nd6  1  0.000000  0.000000  0.750000  1
  Nd  Nd7  1  0.000000  0.000000  0.250000  1
  Si  Si8  1  0.834874  0.165126  0.999812  1
  Si  Si9  1  0.165126  0.834874  0.000188  1
  Si  Si10  1  0.330253  0.165126  0.999812  1
  Si  Si11  1  0.165126  0.834874  0.499812  1
  Si  Si12  1  0.669747  0.834874  0.000188  1
  Si  Si13  1  0.834874  0.165126  0.500188  1
  Si  Si14  1  0.834874  0.669747  0.999812  1
  Si  Si15  1  0.669747  0.834874  0.499812  1
  Si  Si16  1  0.165126  0.330253  0.000188  1
  Si  Si17  1  0.330253  0.165126  0.500188  1
  Si  Si18  1  0.165126  0.330253  0.499812  1
  Si  Si19  1  0.834874  0.669747  0.500188  1
  Ir  Ir20  1  0.666667  0.333334  0.999391  1
  Ir  Ir21  1  0.333333  0.666666  0.000609  1
  Ir  Ir22  1  0.333333  0.666666  0.499391  1
  Ir  Ir23  1  0.666667  0.333334  0.500609  1
