# generated using pymatgen
data_Dy2Y3SiBi2
_symmetry_space_group_name_H-M   'P 1'
_cell_length_a   8.07447500
_cell_length_b   9.15552000
_cell_length_c   12.20686101
_cell_angle_alpha   90.00000000
_cell_angle_beta   89.99613576
_cell_angle_gamma   90.00000000
_symmetry_Int_Tables_number   1
_chemical_formula_structural   Dy2Y3SiBi2
_chemical_formula_sum   'Dy8 Y12 Si4 Bi8'
_cell_volume   902.40461707
_cell_formula_units_Z   4
loop_
 _symmetry_equiv_pos_site_id
 _symmetry_equiv_pos_as_xyz
  1  'x, y, z'
loop_
 _atom_site_type_symbol
 _atom_site_label
 _atom_site_symmetry_multiplicity
 _atom_site_fract_x
 _atom_site_fract_y
 _atom_site_fract_z
 _atom_site_occupancy
  Dy  Dy0  1  0.681456  0.051076  0.564560  1
  Dy  Dy1  1  0.318544  0.948924  0.435440  1
  Dy  Dy2  1  0.181455  0.948919  0.935472  1
  Dy  Dy3  1  0.318544  0.551076  0.435440  1
  Dy  Dy4  1  0.818545  0.051081  0.064528  1
  Dy  Dy5  1  0.681456  0.448924  0.564560  1
  Dy  Dy6  1  0.818545  0.448919  0.064528  1
  Dy  Dy7  1  0.181455  0.551081  0.935472  1
  Y  Y8  1  0.843054  0.750000  0.790102  1
  Y  Y9  1  0.156946  0.250000  0.209898  1
  Y  Y10  1  0.343016  0.250000  0.709910  1
  Y  Y11  1  0.656984  0.750000  0.290090  1
  Y  Y12  1  0.369280  0.750000  0.704764  1
  Y  Y13  1  0.630720  0.250000  0.295236  1
  Y  Y14  1  0.869263  0.250000  0.795215  1
  Y  Y15  1  0.130737  0.750000  0.204785  1
  Y  Y16  1  0.957919  0.750000  0.500172  1
  Y  Y17  1  0.042081  0.250000  0.499828  1
  Y  Y18  1  0.457930  0.250000  0.999816  1
  Y  Y19  1  0.542070  0.750000  0.000184  1
  Si  Si20  1  0.581277  0.750000  0.518371  1
  Si  Si21  1  0.418723  0.250000  0.481629  1
  Si  Si22  1  0.081348  0.250000  0.981557  1
  Si  Si23  1  0.918652  0.750000  0.018443  1
  Bi  Bi24  1  0.572874  0.489733  0.827258  1
  Bi  Bi25  1  0.427126  0.510267  0.172742  1
  Bi  Bi26  1  0.072868  0.510278  0.672721  1
  Bi  Bi27  1  0.427126  0.989733  0.172742  1
  Bi  Bi28  1  0.927132  0.489722  0.327279  1
  Bi  Bi29  1  0.572874  0.010267  0.827258  1
  Bi  Bi30  1  0.927132  0.010278  0.327279  1
  Bi  Bi31  1  0.072868  0.989722  0.672721  1
