# generated using pymatgen
data_Sr2TmSi5AsPd20
_symmetry_space_group_name_H-M   'P 1'
_cell_length_a   8.77544550
_cell_length_b   8.81695909
_cell_length_c   8.81696029
_cell_angle_alpha   59.68873691
_cell_angle_beta   60.15563881
_cell_angle_gamma   60.15563829
_symmetry_Int_Tables_number   1
_chemical_formula_structural   Sr2TmSi5AsPd20
_chemical_formula_sum   'Sr2 Tm1 Si5 As1 Pd20'
_cell_volume   482.36164261
_cell_formula_units_Z   1
loop_
 _symmetry_equiv_pos_site_id
 _symmetry_equiv_pos_as_xyz
  1  'x, y, z'
loop_
 _atom_site_type_symbol
 _atom_site_label
 _atom_site_symmetry_multiplicity
 _atom_site_fract_x
 _atom_site_fract_y
 _atom_site_fract_z
 _atom_site_occupancy
  Sr  Sr0  1  0.250318  0.249682  0.249682  1
  Sr  Sr1  1  0.750318  0.749682  0.749682  1
  Tm  Tm2  1  0.001360  0.998640  0.998640  1
  Si  Si3  1  0.267859  0.732141  0.732141  1
  Si  Si4  1  0.267477  0.732523  0.267412  1
  Si  Si5  1  0.732588  0.267412  0.732523  1
  Si  Si6  1  0.267477  0.267412  0.732523  1
  Si  Si7  1  0.732588  0.732523  0.267412  1
  As  As8  1  0.734265  0.265735  0.265735  1
  Pd  Pd9  1  0.343757  0.999434  0.999434  1
  Pd  Pd10  1  0.657374  0.999434  0.999434  1
  Pd  Pd11  1  0.000566  0.342626  0.656243  1
  Pd  Pd12  1  0.000566  0.656243  0.342626  1
  Pd  Pd13  1  0.006721  0.344957  0.993279  1
  Pd  Pd14  1  0.655043  0.993279  0.344957  1
  Pd  Pd15  1  0.999597  0.658039  0.000403  1
  Pd  Pd16  1  0.341961  0.000403  0.658039  1
  Pd  Pd17  1  0.006721  0.993279  0.344957  1
  Pd  Pd18  1  0.999597  0.000403  0.658039  1
  Pd  Pd19  1  0.655043  0.344957  0.993279  1
  Pd  Pd20  1  0.341961  0.658039  0.000403  1
  Pd  Pd21  1  0.380503  0.389228  0.389228  1
  Pd  Pd22  1  0.612787  0.614060  0.614060  1
  Pd  Pd23  1  0.385940  0.387213  0.840909  1
  Pd  Pd24  1  0.385940  0.840909  0.387213  1
  Pd  Pd25  1  0.610772  0.619497  0.158956  1
  Pd  Pd26  1  0.610772  0.158956  0.619497  1
  Pd  Pd27  1  0.841044  0.389228  0.389228  1
  Pd  Pd28  1  0.159091  0.614060  0.614060  1
