# generated using pymatgen
data_YSi4(PdRh)3
_symmetry_space_group_name_H-M   'P 1'
_cell_length_a   7.13663000
_cell_length_b   7.13663011
_cell_length_c   3.78603600
_cell_angle_alpha   90.00000000
_cell_angle_beta   90.00000000
_cell_angle_gamma   119.99999951
_symmetry_Int_Tables_number   1
_chemical_formula_structural   YSi4(PdRh)3
_chemical_formula_sum   'Y1 Si4 Pd3 Rh3'
_cell_volume   166.99433628
_cell_formula_units_Z   1
loop_
 _symmetry_equiv_pos_site_id
 _symmetry_equiv_pos_as_xyz
  1  'x, y, z'
loop_
 _atom_site_type_symbol
 _atom_site_label
 _atom_site_symmetry_multiplicity
 _atom_site_fract_x
 _atom_site_fract_y
 _atom_site_fract_z
 _atom_site_occupancy
  Y  Y0  1  0.000000  0.000000  0.000000  1
  Si  Si1  1  0.798274  0.201726  0.500000  1
  Si  Si2  1  0.798274  0.596547  0.500000  1
  Si  Si3  1  0.403453  0.201726  0.500000  1
  Si  Si4  1  0.333333  0.666667  0.000000  1
  Pd  Pd5  1  0.196063  0.803937  0.500000  1
  Pd  Pd6  1  0.196063  0.392127  0.500000  1
  Pd  Pd7  1  0.607873  0.803937  0.500000  1
  Rh  Rh8  1  0.533858  0.466142  0.000000  1
  Rh  Rh9  1  0.533858  0.067715  0.000000  1
  Rh  Rh10  1  0.932285  0.466142  0.000000  1
