# generated using pymatgen
data_Dy2Er4Al24Ru7Pt
_symmetry_space_group_name_H-M   'P 1'
_cell_length_a   8.81318484
_cell_length_b   8.80705705
_cell_length_c   9.54297737
_cell_angle_alpha   89.81897225
_cell_angle_beta   90.16831369
_cell_angle_gamma   119.88489203
_symmetry_Int_Tables_number   1
_chemical_formula_structural   Dy2Er4Al24Ru7Pt
_chemical_formula_sum   'Dy2 Er4 Al24 Ru7 Pt1'
_cell_volume   642.21150567
_cell_formula_units_Z   1
loop_
 _symmetry_equiv_pos_site_id
 _symmetry_equiv_pos_as_xyz
  1  'x, y, z'
loop_
 _atom_site_type_symbol
 _atom_site_label
 _atom_site_symmetry_multiplicity
 _atom_site_fract_x
 _atom_site_fract_y
 _atom_site_fract_z
 _atom_site_occupancy
  Dy  Dy0  1  0.192294  0.387045  0.250322  1
  Dy  Dy1  1  0.807706  0.612955  0.749678  1
  Er  Er2  1  0.612506  0.807690  0.250206  1
  Er  Er3  1  0.387494  0.192310  0.749794  1
  Er  Er4  1  0.194774  0.805307  0.250105  1
  Er  Er5  1  0.805226  0.194693  0.749895  1
  Al  Al6  1  0.330907  0.669463  0.020350  1
  Al  Al7  1  0.669093  0.330537  0.979650  1
  Al  Al8  1  0.666715  0.332916  0.516997  1
  Al  Al9  1  0.333285  0.667084  0.483003  1
  Al  Al10  1  0.162658  0.323855  0.579154  1
  Al  Al11  1  0.837342  0.676145  0.420846  1
  Al  Al12  1  0.676107  0.837518  0.578941  1
  Al  Al13  1  0.842464  0.676580  0.078402  1
  Al  Al14  1  0.323893  0.162482  0.421059  1
  Al  Al15  1  0.157536  0.323420  0.921598  1
  Al  Al16  1  0.162711  0.837627  0.578667  1
  Al  Al17  1  0.323454  0.157440  0.078192  1
  Al  Al18  1  0.837289  0.162373  0.421333  1
  Al  Al19  1  0.676546  0.842560  0.921808  1
  Al  Al20  1  0.837392  0.162280  0.078146  1
  Al  Al21  1  0.162608  0.837720  0.921854  1
  Al  Al22  1  0.560378  0.121296  0.248710  1
  Al  Al23  1  0.439622  0.878704  0.751290  1
  Al  Al24  1  0.878403  0.439692  0.248708  1
  Al  Al25  1  0.121597  0.560308  0.751292  1
  Al  Al26  1  0.562091  0.438299  0.252028  1
  Al  Al27  1  0.437909  0.561701  0.747972  1
  Al  Al28  1  0.999445  0.000098  0.249986  1
  Al  Al29  1  0.000555  0.999902  0.750014  1
  Ru  Ru30  1  0.500000  0.000000  0.000000  1
  Ru  Ru31  1  0.000000  0.500000  0.000000  1
  Ru  Ru32  1  0.500000  0.000000  0.500000  1
  Ru  Ru33  1  0.000000  0.500000  0.500000  1
  Ru  Ru34  1  0.500000  0.500000  0.500000  1
  Ru  Ru35  1  0.000000  0.000000  0.000000  1
  Ru  Ru36  1  0.000000  0.000000  0.500000  1
  Pt  Pt37  1  0.500000  0.500000  0.000000  1
