# generated using pymatgen
data_NaLa(NdTe2)2
_symmetry_space_group_name_H-M   'P 1'
_cell_length_a   9.06664497
_cell_length_b   9.06664461
_cell_length_c   9.13643200
_cell_angle_alpha   59.74504443
_cell_angle_beta   59.74504577
_cell_angle_gamma   59.71225242
_symmetry_Int_Tables_number   1
_chemical_formula_structural   NaLa(NdTe2)2
_chemical_formula_sum   'Na2 La2 Nd4 Te8'
_cell_volume   527.86684701
_cell_formula_units_Z   2
loop_
 _symmetry_equiv_pos_site_id
 _symmetry_equiv_pos_as_xyz
  1  'x, y, z'
loop_
 _atom_site_type_symbol
 _atom_site_label
 _atom_site_symmetry_multiplicity
 _atom_site_fract_x
 _atom_site_fract_y
 _atom_site_fract_z
 _atom_site_occupancy
  Na  Na0  1  0.125000  0.625000  0.125000  1
  Na  Na1  1  0.625000  0.125000  0.125000  1
  La  La2  1  0.125000  0.125000  0.625000  1
  La  La3  1  0.125000  0.125000  0.125000  1
  Nd  Nd4  1  0.625000  0.125000  0.625000  1
  Nd  Nd5  1  0.625000  0.625000  0.625000  1
  Nd  Nd6  1  0.125000  0.625000  0.625000  1
  Nd  Nd7  1  0.625000  0.625000  0.125000  1
  Te  Te8  1  0.379652  0.873783  0.373282  1
  Te  Te9  1  0.870348  0.376217  0.876718  1
  Te  Te10  1  0.873444  0.873444  0.376485  1
  Te  Te11  1  0.873444  0.873444  0.876627  1
  Te  Te12  1  0.873783  0.379652  0.373282  1
  Te  Te13  1  0.376556  0.376556  0.873515  1
  Te  Te14  1  0.376556  0.376556  0.373373  1
  Te  Te15  1  0.376217  0.870348  0.876718  1
