# generated using pymatgen
data_Ta3Co(PO4)6
_symmetry_space_group_name_H-M   'P 1'
_cell_length_a   8.91658299
_cell_length_b   8.66422284
_cell_length_c   8.66422202
_cell_angle_alpha   59.99999770
_cell_angle_beta   60.93188893
_cell_angle_gamma   60.93189845
_symmetry_Int_Tables_number   1
_chemical_formula_structural   Ta3Co(PO4)6
_chemical_formula_sum   'Ta3 Co1 P6 O24'
_cell_volume   479.86427565
_cell_formula_units_Z   1
loop_
 _symmetry_equiv_pos_site_id
 _symmetry_equiv_pos_as_xyz
  1  'x, y, z'
loop_
 _atom_site_type_symbol
 _atom_site_label
 _atom_site_symmetry_multiplicity
 _atom_site_fract_x
 _atom_site_fract_y
 _atom_site_fract_z
 _atom_site_occupancy
  Ta  Ta0  1  0.072105  0.642632  0.642632  1
  Ta  Ta1  1  0.422865  0.859044  0.859044  1
  Ta  Ta2  1  0.916584  0.361139  0.361139  1
  Co  Co3  1  0.566523  0.144493  0.144493  1
  P  P4  1  0.257350  0.252641  0.520220  1
  P  P5  1  0.257350  0.969792  0.252641  1
  P  P6  1  0.257350  0.520220  0.969792  1
  P  P7  1  0.745129  0.454842  0.033451  1
  P  P8  1  0.745129  0.033451  0.766578  1
  P  P9  1  0.745129  0.766578  0.454842  1
  O  O10  1  0.081881  0.136906  0.282176  1
  O  O11  1  0.081881  0.499035  0.136906  1
  O  O12  1  0.081881  0.282176  0.499035  1
  O  O13  1  0.278660  0.076677  0.700798  1
  O  O14  1  0.224077  0.421773  0.564461  1
  O  O15  1  0.423447  0.241338  0.348834  1
  O  O16  1  0.278660  0.943865  0.076677  1
  O  O17  1  0.224077  0.789688  0.421773  1
  O  O18  1  0.224077  0.564461  0.789688  1
  O  O19  1  0.580366  0.635960  0.004478  1
  O  O20  1  0.729834  0.284381  0.044115  1
  O  O21  1  0.580366  0.004478  0.779195  1
  O  O22  1  0.423447  0.986381  0.241338  1
  O  O23  1  0.278660  0.700798  0.943865  1
  O  O24  1  0.423447  0.348834  0.986381  1
  O  O25  1  0.771055  0.427044  0.212803  1
  O  O26  1  0.771055  0.212803  0.589096  1
  O  O27  1  0.729834  0.044115  0.941671  1
  O  O28  1  0.580366  0.779195  0.635960  1
  O  O29  1  0.771055  0.589096  0.427044  1
  O  O30  1  0.729834  0.941671  0.284381  1
  O  O31  1  0.915509  0.721015  0.497544  1
  O  O32  1  0.915509  0.497544  0.865929  1
  O  O33  1  0.915509  0.865929  0.721015  1
