# generated using pymatgen
data_Ca2Cu7P4Pd
_symmetry_space_group_name_H-M   'P 1'
_cell_length_a   7.32915252
_cell_length_b   7.37369021
_cell_length_c   3.79122100
_cell_angle_alpha   90.00000000
_cell_angle_beta   90.00000000
_cell_angle_gamma   90.38902627
_symmetry_Int_Tables_number   1
_chemical_formula_structural   Ca2Cu7P4Pd
_chemical_formula_sum   'Ca2 Cu7 P4 Pd1'
_cell_volume   204.88385519
_cell_formula_units_Z   1
loop_
 _symmetry_equiv_pos_site_id
 _symmetry_equiv_pos_as_xyz
  1  'x, y, z'
loop_
 _atom_site_type_symbol
 _atom_site_label
 _atom_site_symmetry_multiplicity
 _atom_site_fract_x
 _atom_site_fract_y
 _atom_site_fract_z
 _atom_site_occupancy
  Ca  Ca0  1  0.998408  0.000788  0.000000  1
  Ca  Ca1  1  0.498377  0.499714  0.500000  1
  Cu  Cu2  1  0.162966  0.583359  0.000000  1
  Cu  Cu3  1  0.409385  0.835789  0.000000  1
  Cu  Cu4  1  0.922194  0.657014  0.500000  1
  Cu  Cu5  1  0.836187  0.416558  0.000000  1
  Cu  Cu6  1  0.583844  0.168187  0.000000  1
  Cu  Cu7  1  0.085076  0.334972  0.500000  1
  Cu  Cu8  1  0.331478  0.085981  0.500000  1
  P  P9  1  0.281366  0.282849  0.000000  1
  P  P10  1  0.724258  0.712321  0.000000  1
  P  P11  1  0.781909  0.227700  0.500000  1
  P  P12  1  0.221243  0.782377  0.500000  1
  Pd  Pd13  1  0.663310  0.912391  0.500000  1
