# generated using pymatgen
data_DyPd2Au3
_symmetry_space_group_name_H-M   'P 1'
_cell_length_a   5.43441786
_cell_length_b   5.43441817
_cell_length_c   5.43441879
_cell_angle_alpha   119.99205777
_cell_angle_beta   119.54694518
_cell_angle_gamma   90.40012440
_symmetry_Int_Tables_number   1
_chemical_formula_structural   DyPd2Au3
_chemical_formula_sum   'Dy1 Pd2 Au3'
_cell_volume   113.87675040
_cell_formula_units_Z   1
loop_
 _symmetry_equiv_pos_site_id
 _symmetry_equiv_pos_as_xyz
  1  'x, y, z'
loop_
 _atom_site_type_symbol
 _atom_site_label
 _atom_site_symmetry_multiplicity
 _atom_site_fract_x
 _atom_site_fract_y
 _atom_site_fract_z
 _atom_site_occupancy
  Dy  Dy0  1  0.004359  0.004359  0.000000  1
  Pd  Pd1  1  0.623698  0.374156  0.249543  1
  Pd  Pd2  1  0.124613  0.374156  0.750457  1
  Au  Au3  1  0.623867  0.374166  0.750298  1
  Au  Au4  1  0.623867  0.873569  0.249702  1
  Au  Au5  1  0.249594  0.749594  0.500000  1
