# generated using pymatgen
data_ScU2(MoO4)3
_symmetry_space_group_name_H-M   'P 1'
_cell_length_a   4.92923558
_cell_length_b   4.92923558
_cell_length_c   9.93340900
_cell_angle_alpha   90.00000000
_cell_angle_beta   90.00000000
_cell_angle_gamma   89.88283344
_symmetry_Int_Tables_number   1
_chemical_formula_structural   ScU2(MoO4)3
_chemical_formula_sum   'Sc1 U2 Mo3 O12'
_cell_volume   241.35514333
_cell_formula_units_Z   1
loop_
 _symmetry_equiv_pos_site_id
 _symmetry_equiv_pos_as_xyz
  1  'x, y, z'
loop_
 _atom_site_type_symbol
 _atom_site_label
 _atom_site_symmetry_multiplicity
 _atom_site_fract_x
 _atom_site_fract_y
 _atom_site_fract_z
 _atom_site_occupancy
  Sc  Sc0  1  0.000000  0.000000  0.334723  1
  U  U1  1  0.000000  0.000000  0.000341  1
  U  U2  1  0.500000  0.500000  0.499781  1
  Mo  Mo3  1  0.500000  0.500000  0.832920  1
  Mo  Mo4  1  0.000000  0.000000  0.664987  1
  Mo  Mo5  1  0.500000  0.500000  0.167782  1
  O  O6  1  0.692552  0.692552  0.662636  1
  O  O7  1  0.307448  0.307448  0.662636  1
  O  O8  1  0.693366  0.693366  0.337929  1
  O  O9  1  0.189184  0.810816  0.164890  1
  O  O10  1  0.810816  0.189184  0.164890  1
  O  O11  1  0.808425  0.191575  0.836148  1
  O  O12  1  0.304697  0.304697  0.000233  1
  O  O13  1  0.196821  0.803179  0.497897  1
  O  O14  1  0.803179  0.196821  0.497897  1
  O  O15  1  0.695303  0.695303  0.000233  1
  O  O16  1  0.306634  0.306634  0.337929  1
  O  O17  1  0.191575  0.808425  0.836148  1
