# generated using pymatgen
data_TmZr(Co5P3)2
_symmetry_space_group_name_H-M   'P 1'
_cell_length_a   3.61860200
_cell_length_b   10.19647700
_cell_length_c   11.66922900
_cell_angle_alpha   90.00000000
_cell_angle_beta   90.00000000
_cell_angle_gamma   90.00000000
_symmetry_Int_Tables_number   1
_chemical_formula_structural   TmZr(Co5P3)2
_chemical_formula_sum   'Tm2 Zr2 Co20 P12'
_cell_volume   430.55944982
_cell_formula_units_Z   2
loop_
 _symmetry_equiv_pos_site_id
 _symmetry_equiv_pos_as_xyz
  1  'x, y, z'
loop_
 _atom_site_type_symbol
 _atom_site_label
 _atom_site_symmetry_multiplicity
 _atom_site_fract_x
 _atom_site_fract_y
 _atom_site_fract_z
 _atom_site_occupancy
  Tm  Tm0  1  0.750000  0.417456  0.296942  1
  Tm  Tm1  1  0.750000  0.082544  0.796942  1
  Zr  Zr2  1  0.250000  0.581994  0.701796  1
  Zr  Zr3  1  0.250000  0.918006  0.201796  1
  Co  Co4  1  0.250000  0.718649  0.992887  1
  Co  Co5  1  0.250000  0.781351  0.492887  1
  Co  Co6  1  0.750000  0.281699  0.008460  1
  Co  Co7  1  0.750000  0.218301  0.508460  1
  Co  Co8  1  0.250000  0.409543  0.489152  1
  Co  Co9  1  0.250000  0.090457  0.989152  1
  Co  Co10  1  0.750000  0.593188  0.514522  1
  Co  Co11  1  0.750000  0.906812  0.014522  1
  Co  Co12  1  0.250000  0.221580  0.177837  1
  Co  Co13  1  0.250000  0.278420  0.677837  1
  Co  Co14  1  0.750000  0.776532  0.822558  1
  Co  Co15  1  0.750000  0.723468  0.322558  1
  Co  Co16  1  0.250000  0.881628  0.699062  1
  Co  Co17  1  0.250000  0.618372  0.199062  1
  Co  Co18  1  0.750000  0.114300  0.299611  1
  Co  Co19  1  0.750000  0.385700  0.799611  1
  Co  Co20  1  0.250000  0.469029  0.929759  1
  Co  Co21  1  0.250000  0.030971  0.429759  1
  Co  Co22  1  0.750000  0.534306  0.067757  1
  Co  Co23  1  0.750000  0.965694  0.567757  1
  P  P24  1  0.250000  0.418821  0.111734  1
  P  P25  1  0.250000  0.081179  0.611734  1
  P  P26  1  0.750000  0.581419  0.885542  1
  P  P27  1  0.750000  0.918581  0.385542  1
  P  P28  1  0.250000  0.269176  0.871141  1
  P  P29  1  0.250000  0.230824  0.371141  1
  P  P30  1  0.750000  0.732488  0.130805  1
  P  P31  1  0.750000  0.767512  0.630805  1
  P  P32  1  0.250000  0.601134  0.390328  1
  P  P33  1  0.250000  0.898866  0.890328  1
  P  P34  1  0.750000  0.400571  0.610107  1
  P  P35  1  0.750000  0.099429  0.110107  1
