# generated using pymatgen
data_Tb9Er7MgNi4Ag3
_symmetry_space_group_name_H-M   'P 1'
_cell_length_a   9.43496488
_cell_length_b   9.44006970
_cell_length_c   9.44006900
_cell_angle_alpha   59.99999894
_cell_angle_beta   59.98209942
_cell_angle_gamma   59.98210128
_symmetry_Int_Tables_number   1
_chemical_formula_structural   Tb9Er7MgNi4Ag3
_chemical_formula_sum   'Tb9 Er7 Mg1 Ni4 Ag3'
_cell_volume   594.37167295
_cell_formula_units_Z   1
loop_
 _symmetry_equiv_pos_site_id
 _symmetry_equiv_pos_as_xyz
  1  'x, y, z'
loop_
 _atom_site_type_symbol
 _atom_site_label
 _atom_site_symmetry_multiplicity
 _atom_site_fract_x
 _atom_site_fract_y
 _atom_site_fract_z
 _atom_site_occupancy
  Tb  Tb0  1  0.184604  0.814655  0.814655  1
  Tb  Tb1  1  0.814761  0.185388  0.185388  1
  Tb  Tb2  1  0.814761  0.185388  0.814463  1
  Tb  Tb3  1  0.184604  0.814655  0.186088  1
  Tb  Tb4  1  0.814761  0.814463  0.185388  1
  Tb  Tb5  1  0.184604  0.186088  0.814655  1
  Tb  Tb6  1  0.599592  0.598790  0.598790  1
  Tb  Tb7  1  0.599592  0.598790  0.202829  1
  Tb  Tb8  1  0.599592  0.202829  0.598790  1
  Er  Er9  1  0.191103  0.602965  0.602965  1
  Er  Er10  1  0.060802  0.438297  0.438297  1
  Er  Er11  1  0.434221  0.065146  0.065146  1
  Er  Er12  1  0.434221  0.065146  0.435486  1
  Er  Er13  1  0.060802  0.438297  0.062605  1
  Er  Er14  1  0.434221  0.435486  0.065146  1
  Er  Er15  1  0.060802  0.062605  0.438297  1
  Mg  Mg16  1  0.536597  0.821134  0.821134  1
  Ni  Ni17  1  0.387978  0.394399  0.394399  1
  Ni  Ni18  1  0.387978  0.394399  0.823225  1
  Ni  Ni19  1  0.387978  0.823225  0.394399  1
  Ni  Ni20  1  0.824102  0.391965  0.391965  1
  Ag  Ag21  1  0.834108  0.832697  0.832697  1
  Ag  Ag22  1  0.834108  0.832697  0.500498  1
  Ag  Ag23  1  0.834108  0.500498  0.832697  1
