# generated using pymatgen
data_Pr7Dy3In5BiBr2
_symmetry_space_group_name_H-M   'P 1'
_cell_length_a   9.54577515
_cell_length_b   9.53880996
_cell_length_c   6.86922812
_cell_angle_alpha   90.01098232
_cell_angle_beta   89.97813407
_cell_angle_gamma   120.13088415
_symmetry_Int_Tables_number   1
_chemical_formula_structural   Pr7Dy3In5BiBr2
_chemical_formula_sum   'Pr7 Dy3 In5 Bi1 Br2'
_cell_volume   540.96559265
_cell_formula_units_Z   1
loop_
 _symmetry_equiv_pos_site_id
 _symmetry_equiv_pos_as_xyz
  1  'x, y, z'
loop_
 _atom_site_type_symbol
 _atom_site_label
 _atom_site_symmetry_multiplicity
 _atom_site_fract_x
 _atom_site_fract_y
 _atom_site_fract_z
 _atom_site_occupancy
  Pr  Pr0  1  0.270587  0.004098  0.748459  1
  Pr  Pr1  1  0.735118  0.005661  0.251282  1
  Pr  Pr2  1  0.001087  0.269233  0.749055  1
  Pr  Pr3  1  0.004358  0.734500  0.250923  1
  Pr  Pr4  1  0.733593  0.732041  0.749278  1
  Pr  Pr5  1  0.263377  0.262333  0.250785  1
  Pr  Pr6  1  0.329710  0.666798  0.998625  1
  Dy  Dy7  1  0.330732  0.666971  0.501481  1
  Dy  Dy8  1  0.666517  0.330579  0.501988  1
  Dy  Dy9  1  0.667056  0.329303  0.997320  1
  In  In10  1  0.607419  0.002590  0.747991  1
  In  In11  1  0.397618  0.004808  0.253081  1
  In  In12  1  0.996035  0.604273  0.747138  1
  In  In13  1  0.996848  0.394022  0.252788  1
  In  In14  1  0.393075  0.389694  0.746859  1
  Bi  Bi15  1  0.609987  0.606129  0.252944  1
  Br  Br16  1  0.998611  0.998659  0.499742  1
  Br  Br17  1  0.998272  0.998306  0.000260  1
