# generated using pymatgen
data_LaYb5(HoSi2)4
_symmetry_space_group_name_H-M   'P 1'
_cell_length_a   7.43058400
_cell_length_b   7.84351695
_cell_length_c   15.11123700
_cell_angle_alpha   90.14451947
_cell_angle_beta   90.00000000
_cell_angle_gamma   90.00000000
_symmetry_Int_Tables_number   1
_chemical_formula_structural   LaYb5(HoSi2)4
_chemical_formula_sum   'La2 Yb10 Ho8 Si16'
_cell_volume   880.70897676
_cell_formula_units_Z   2
loop_
 _symmetry_equiv_pos_site_id
 _symmetry_equiv_pos_as_xyz
  1  'x, y, z'
loop_
 _atom_site_type_symbol
 _atom_site_label
 _atom_site_symmetry_multiplicity
 _atom_site_fract_x
 _atom_site_fract_y
 _atom_site_fract_z
 _atom_site_occupancy
  La  La0  1  0.971418  0.817839  0.403203  1
  La  La1  1  0.471418  0.682161  0.096797  1
  Yb  Yb2  1  0.527973  0.315475  0.596712  1
  Yb  Yb3  1  0.027973  0.184525  0.903288  1
  Yb  Yb4  1  0.028952  0.184132  0.596708  1
  Yb  Yb5  1  0.528952  0.315868  0.903292  1
  Yb  Yb6  1  0.471572  0.682082  0.402983  1
  Yb  Yb7  1  0.971572  0.817918  0.097017  1
  Yb  Yb8  1  0.353532  0.020798  0.749857  1
  Yb  Yb9  1  0.853532  0.479202  0.750143  1
  Yb  Yb10  1  0.145764  0.515725  0.250224  1
  Yb  Yb11  1  0.645764  0.984275  0.249776  1
  Ho  Ho12  1  0.315352  0.178570  0.121344  1
  Ho  Ho13  1  0.815352  0.321430  0.378656  1
  Ho  Ho14  1  0.185427  0.677825  0.878072  1
  Ho  Ho15  1  0.685427  0.822175  0.621928  1
  Ho  Ho16  1  0.314638  0.179256  0.378535  1
  Ho  Ho17  1  0.814638  0.320744  0.121465  1
  Ho  Ho18  1  0.186520  0.676356  0.622395  1
  Ho  Ho19  1  0.686520  0.823644  0.877605  1
  Si  Si20  1  0.856350  0.532429  0.537711  1
  Si  Si21  1  0.356350  0.967571  0.962289  1
  Si  Si22  1  0.641873  0.030418  0.461513  1
  Si  Si23  1  0.141873  0.469582  0.038487  1
  Si  Si24  1  0.141808  0.469291  0.461716  1
  Si  Si25  1  0.641808  0.030709  0.038284  1
  Si  Si26  1  0.355332  0.965899  0.537517  1
  Si  Si27  1  0.855332  0.534101  0.962483  1
  Si  Si28  1  0.978713  0.885173  0.750059  1
  Si  Si29  1  0.478713  0.614827  0.749941  1
  Si  Si30  1  0.523124  0.385450  0.250090  1
  Si  Si31  1  0.023124  0.114550  0.249910  1
  Si  Si32  1  0.249172  0.394498  0.750337  1
  Si  Si33  1  0.749172  0.105502  0.749663  1
  Si  Si34  1  0.252477  0.892101  0.248763  1
  Si  Si35  1  0.752477  0.607899  0.251237  1
