# generated using pymatgen
data_Sm12Lu3Re12W5N48
_symmetry_space_group_name_H-M   'P 1'
_cell_length_a   11.26206796
_cell_length_b   11.18303896
_cell_length_c   11.26206763
_cell_angle_alpha   109.32913328
_cell_angle_beta   109.61293782
_cell_angle_gamma   109.32913132
_symmetry_Int_Tables_number   1
_chemical_formula_structural   Sm12Lu3Re12W5N48
_chemical_formula_sum   'Sm12 Lu3 Re12 W5 N48'
_cell_volume   1093.78701272
_cell_formula_units_Z   1
loop_
 _symmetry_equiv_pos_site_id
 _symmetry_equiv_pos_as_xyz
  1  'x, y, z'
loop_
 _atom_site_type_symbol
 _atom_site_label
 _atom_site_symmetry_multiplicity
 _atom_site_fract_x
 _atom_site_fract_y
 _atom_site_fract_z
 _atom_site_occupancy
  Sm  Sm0  1  0.249683  0.373238  0.123629  1
  Sm  Sm1  1  0.376371  0.749609  0.126055  1
  Sm  Sm2  1  0.373945  0.123555  0.250317  1
  Sm  Sm3  1  0.873796  0.628166  0.253641  1
  Sm  Sm4  1  0.753641  0.125476  0.379845  1
  Sm  Sm5  1  0.120155  0.245630  0.373796  1
  Sm  Sm6  1  0.879845  0.754370  0.626205  1
  Sm  Sm7  1  0.246359  0.874524  0.620155  1
  Sm  Sm8  1  0.126204  0.371834  0.746359  1
  Sm  Sm9  1  0.626056  0.876445  0.749683  1
  Sm  Sm10  1  0.623629  0.250391  0.873945  1
  Sm  Sm11  1  0.750317  0.626763  0.876371  1
  Lu  Lu12  1  0.500000  0.000000  0.000000  1
  Lu  Lu13  1  0.000000  0.500000  0.000000  1
  Lu  Lu14  1  0.500000  0.500000  0.500000  1
  Re  Re15  1  0.873959  0.249592  0.124363  1
  Re  Re16  1  0.751393  0.875580  0.126786  1
  Re  Re17  1  0.624364  0.374770  0.250403  1
  Re  Re18  1  0.124607  0.875813  0.251392  1
  Re  Re19  1  0.249597  0.624367  0.373959  1
  Re  Re20  1  0.626786  0.751206  0.375393  1
  Re  Re21  1  0.373214  0.248794  0.624608  1
  Re  Re22  1  0.750403  0.375634  0.626041  1
  Re  Re23  1  0.875393  0.124187  0.748607  1
  Re  Re24  1  0.375637  0.625230  0.749597  1
  Re  Re25  1  0.248606  0.124420  0.873214  1
  Re  Re26  1  0.126041  0.750407  0.875637  1
  W  W27  1  0.000000  0.000000  0.000000  1
  W  W28  1  0.500000  0.500000  0.000000  1
  W  W29  1  0.000000  0.000000  0.500000  1
  W  W30  1  0.500000  0.000000  0.500000  1
  W  W31  1  0.000000  0.500000  0.500000  1
  N  N32  1  0.193943  0.111189  0.011127  1
  N  N33  1  0.306560  0.899304  0.023691  1
  N  N34  1  0.875574  0.399661  0.093475  1
  N  N35  1  0.693232  0.683331  0.080474  1
  N  N36  1  0.614264  0.416479  0.100565  1
  N  N37  1  0.975872  0.693591  0.103873  1
  N  N38  1  0.013698  0.197784  0.114264  1
  N  N39  1  0.603873  0.910282  0.128002  1
  N  N40  1  0.217132  0.592744  0.193440  1
  N  N41  1  0.488873  0.600062  0.182816  1
  N  N42  1  0.112758  0.009902  0.193232  1
  N  N43  1  0.593476  0.193814  0.217902  1
  N  N44  1  0.476309  0.375612  0.282869  1
  N  N45  1  0.317184  0.917246  0.306057  1
  N  N46  1  0.900124  0.011358  0.317460  1
  N  N47  1  0.916063  0.301555  0.316450  1
  N  N48  1  0.282099  0.475912  0.375574  1
  N  N49  1  0.580474  0.897143  0.387242  1
  N  N50  1  0.816450  0.514895  0.400386  1
  N  N51  1  0.082662  0.888765  0.400123  1
  N  N52  1  0.099613  0.614508  0.416063  1
  N  N53  1  0.817460  0.806102  0.417337  1
  N  N54  1  0.600565  0.184086  0.486302  1
  N  N55  1  0.371998  0.282281  0.475871  1
  N  N56  1  0.628001  0.717719  0.524129  1
  N  N57  1  0.399434  0.815914  0.513698  1
  N  N58  1  0.182540  0.193899  0.582663  1
  N  N59  1  0.900386  0.385492  0.583937  1
  N  N60  1  0.917337  0.111235  0.599877  1
  N  N61  1  0.183550  0.485105  0.599613  1
  N  N62  1  0.419526  0.102856  0.612758  1
  N  N63  1  0.717901  0.524088  0.624425  1
  N  N64  1  0.099877  0.988643  0.682541  1
  N  N65  1  0.083937  0.698445  0.683551  1
  N  N66  1  0.682817  0.082754  0.693943  1
  N  N67  1  0.523691  0.624387  0.717131  1
  N  N68  1  0.406524  0.806186  0.782099  1
  N  N69  1  0.887241  0.990098  0.806767  1
  N  N70  1  0.511127  0.399937  0.817184  1
  N  N71  1  0.782869  0.407256  0.806560  1
  N  N72  1  0.986302  0.802215  0.885735  1
  N  N73  1  0.396127  0.089717  0.871998  1
  N  N74  1  0.024129  0.306410  0.896128  1
  N  N75  1  0.385736  0.583521  0.899434  1
  N  N76  1  0.306768  0.316670  0.919526  1
  N  N77  1  0.124426  0.600339  0.906524  1
  N  N78  1  0.693441  0.100697  0.976310  1
  N  N79  1  0.806056  0.888810  0.988873  1
