# generated using pymatgen
data_MnCrFe4(P2Ru)2
_symmetry_space_group_name_H-M   'P 1'
_cell_length_a   3.62174200
_cell_length_b   5.88107315
_cell_length_c   6.61077300
_cell_angle_alpha   89.86162853
_cell_angle_beta   90.00000000
_cell_angle_gamma   90.00000000
_symmetry_Int_Tables_number   1
_chemical_formula_structural   MnCrFe4(P2Ru)2
_chemical_formula_sum   'Mn1 Cr1 Fe4 P4 Ru2'
_cell_volume   140.80726695
_cell_formula_units_Z   1
loop_
 _symmetry_equiv_pos_site_id
 _symmetry_equiv_pos_as_xyz
  1  'x, y, z'
loop_
 _atom_site_type_symbol
 _atom_site_label
 _atom_site_symmetry_multiplicity
 _atom_site_fract_x
 _atom_site_fract_y
 _atom_site_fract_z
 _atom_site_occupancy
  Mn  Mn0  1  0.750000  0.972794  0.171367  1
  Cr  Cr1  1  0.250000  0.521733  0.672530  1
  Fe  Fe2  1  0.250000  0.644507  0.060960  1
  Fe  Fe3  1  0.750000  0.364614  0.933988  1
  Fe  Fe4  1  0.250000  0.139611  0.432157  1
  Fe  Fe5  1  0.750000  0.851761  0.562805  1
  P  P6  1  0.250000  0.272294  0.122137  1
  P  P7  1  0.750000  0.731376  0.873978  1
  P  P8  1  0.250000  0.767543  0.378538  1
  P  P9  1  0.750000  0.226245  0.621812  1
  Ru  Ru10  1  0.250000  0.035350  0.833934  1
  Ru  Ru11  1  0.750000  0.472177  0.335792  1
