# generated using pymatgen
data_HoPu7(B6Mo)4
_symmetry_space_group_name_H-M   'P 1'
_cell_length_a   3.71082300
_cell_length_b   9.29023551
_cell_length_c   11.39831971
_cell_angle_alpha   90.05840205
_cell_angle_beta   90.00000000
_cell_angle_gamma   90.00000000
_symmetry_Int_Tables_number   1
_chemical_formula_structural   HoPu7(B6Mo)4
_chemical_formula_sum   'Ho1 Pu7 B24 Mo4'
_cell_volume   392.95025205
_cell_formula_units_Z   1
loop_
 _symmetry_equiv_pos_site_id
 _symmetry_equiv_pos_as_xyz
  1  'x, y, z'
loop_
 _atom_site_type_symbol
 _atom_site_label
 _atom_site_symmetry_multiplicity
 _atom_site_fract_x
 _atom_site_fract_y
 _atom_site_fract_z
 _atom_site_occupancy
  Ho  Ho0  1  0.000000  0.335922  0.408939  1
  Pu  Pu1  1  0.000000  0.664782  0.591383  1
  Pu  Pu2  1  0.000000  0.835366  0.091250  1
  Pu  Pu3  1  0.000000  0.164763  0.908451  1
  Pu  Pu4  1  0.000000  0.954189  0.388570  1
  Pu  Pu5  1  0.000000  0.046725  0.611438  1
  Pu  Pu6  1  0.000000  0.453052  0.112821  1
  Pu  Pu7  1  0.000000  0.546857  0.887440  1
  B  B8  1  0.500000  0.553118  0.433218  1
  B  B9  1  0.500000  0.447992  0.567235  1
  B  B10  1  0.500000  0.052685  0.067086  1
  B  B11  1  0.500000  0.947379  0.933048  1
  B  B12  1  0.500000  0.746016  0.423168  1
  B  B13  1  0.500000  0.252996  0.577244  1
  B  B14  1  0.500000  0.246797  0.077145  1
  B  B15  1  0.500000  0.753570  0.922938  1
  B  B16  1  0.500000  0.802627  0.271168  1
  B  B17  1  0.500000  0.197128  0.728754  1
  B  B18  1  0.500000  0.302792  0.228595  1
  B  B19  1  0.500000  0.697552  0.770702  1
  B  B20  1  0.500000  0.641689  0.186674  1
  B  B21  1  0.500000  0.357950  0.813126  1
  B  B22  1  0.500000  0.141328  0.313313  1
  B  B23  1  0.500000  0.858046  0.686662  1
  B  B24  1  0.500000  0.986723  0.217723  1
  B  B25  1  0.500000  0.013142  0.782206  1
  B  B26  1  0.500000  0.487139  0.282270  1
  B  B27  1  0.500000  0.513395  0.716977  1
  B  B28  1  0.500000  0.634992  0.037369  1
  B  B29  1  0.500000  0.365008  0.962674  1
  B  B30  1  0.500000  0.133283  0.463065  1
  B  B31  1  0.500000  0.864246  0.537546  1
  Mo  Mo32  1  0.000000  0.647069  0.318960  1
  Mo  Mo33  1  0.000000  0.354362  0.681602  1
  Mo  Mo34  1  0.000000  0.144709  0.179834  1
  Mo  Mo35  1  0.000000  0.854609  0.819413  1
