# generated using pymatgen
data_K8Sc6BBr20
_symmetry_space_group_name_H-M   'P 1'
_cell_length_a   11.70228005
_cell_length_b   11.70228066
_cell_length_c   11.70231300
_cell_angle_alpha   59.99990576
_cell_angle_beta   59.99990402
_cell_angle_gamma   60.00018480
_symmetry_Int_Tables_number   1
_chemical_formula_structural   K8Sc6BBr20
_chemical_formula_sum   'K8 Sc6 B1 Br20'
_cell_volume   1133.17684344
_cell_formula_units_Z   1
loop_
 _symmetry_equiv_pos_site_id
 _symmetry_equiv_pos_as_xyz
  1  'x, y, z'
loop_
 _atom_site_type_symbol
 _atom_site_label
 _atom_site_symmetry_multiplicity
 _atom_site_fract_x
 _atom_site_fract_y
 _atom_site_fract_z
 _atom_site_occupancy
  K  K0  1  0.079527  0.640147  0.640163  1
  K  K1  1  0.640147  0.079527  0.640163  1
  K  K2  1  0.640163  0.640163  0.079527  1
  K  K3  1  0.640163  0.640163  0.640147  1
  K  K4  1  0.359853  0.920473  0.359837  1
  K  K5  1  0.920473  0.359853  0.359837  1
  K  K6  1  0.359837  0.359837  0.920473  1
  K  K7  1  0.359837  0.359837  0.359853  1
  Sc  Sc8  1  0.851329  0.851329  0.148671  1
  Sc  Sc9  1  0.851328  0.148672  0.851328  1
  Sc  Sc10  1  0.148671  0.148671  0.851329  1
  Sc  Sc11  1  0.148672  0.851328  0.148672  1
  Sc  Sc12  1  0.148672  0.851328  0.851328  1
  Sc  Sc13  1  0.851328  0.148672  0.148672  1
  B  B14  1  0.000000  0.000000  0.000000  1
  Br  Br15  1  0.673434  0.326566  0.000000  1
  Br  Br16  1  0.000001  0.673431  0.999999  1
  Br  Br17  1  0.000000  0.000000  0.673434  1
  Br  Br18  1  0.673431  0.000001  0.326569  1
  Br  Br19  1  0.326566  0.673434  0.000000  1
  Br  Br20  1  0.326569  0.999999  0.673431  1
  Br  Br21  1  0.000000  0.000000  0.326566  1
  Br  Br22  1  0.999999  0.326569  0.000001  1
  Br  Br23  1  0.000001  0.673431  0.326569  1
  Br  Br24  1  0.673431  0.000001  0.999999  1
  Br  Br25  1  0.999999  0.326569  0.673431  1
  Br  Br26  1  0.326569  0.999999  0.000001  1
  Br  Br27  1  0.682912  0.682912  0.317088  1
  Br  Br28  1  0.682918  0.317082  0.682918  1
  Br  Br29  1  0.317088  0.317088  0.682912  1
  Br  Br30  1  0.317082  0.682918  0.317082  1
  Br  Br31  1  0.317082  0.682918  0.682918  1
  Br  Br32  1  0.682918  0.317082  0.317082  1
  Br  Br33  1  0.750000  0.750000  0.750000  1
  Br  Br34  1  0.250000  0.250000  0.250000  1
