# generated using pymatgen
data_TbEr6Sn23Ru6
_symmetry_space_group_name_H-M   'P 1'
_cell_length_a   9.83194500
_cell_length_b   9.83194513
_cell_length_c   10.06622200
_cell_angle_alpha   90.00000000
_cell_angle_beta   90.00000000
_cell_angle_gamma   120.00000293
_symmetry_Int_Tables_number   1
_chemical_formula_structural   TbEr6Sn23Ru6
_chemical_formula_sum   'Tb1 Er6 Sn23 Ru6'
_cell_volume   842.70585157
_cell_formula_units_Z   1
loop_
 _symmetry_equiv_pos_site_id
 _symmetry_equiv_pos_as_xyz
  1  'x, y, z'
loop_
 _atom_site_type_symbol
 _atom_site_label
 _atom_site_symmetry_multiplicity
 _atom_site_fract_x
 _atom_site_fract_y
 _atom_site_fract_z
 _atom_site_occupancy
  Tb  Tb0  1  0.000000  0.000000  0.000000  1
  Er  Er1  1  0.484927  0.515073  0.302726  1
  Er  Er2  1  0.515073  0.484927  0.697274  1
  Er  Er3  1  0.484927  0.969856  0.302726  1
  Er  Er4  1  0.515073  0.030144  0.697274  1
  Er  Er5  1  0.030144  0.515073  0.302726  1
  Er  Er6  1  0.969856  0.484927  0.697274  1
  Sn  Sn7  1  0.118833  0.881167  0.274202  1
  Sn  Sn8  1  0.881167  0.118833  0.725798  1
  Sn  Sn9  1  0.118833  0.237668  0.274202  1
  Sn  Sn10  1  0.881167  0.762332  0.725798  1
  Sn  Sn11  1  0.762332  0.881167  0.274202  1
  Sn  Sn12  1  0.237668  0.118833  0.725798  1
  Sn  Sn13  1  0.779806  0.220194  0.462652  1
  Sn  Sn14  1  0.220194  0.779806  0.537348  1
  Sn  Sn15  1  0.779806  0.559613  0.462652  1
  Sn  Sn16  1  0.220194  0.440387  0.537348  1
  Sn  Sn17  1  0.440387  0.220194  0.462652  1
  Sn  Sn18  1  0.559613  0.779806  0.537348  1
  Sn  Sn19  1  0.349084  0.000000  0.000000  1
  Sn  Sn20  1  0.650916  0.000000  0.000000  1
  Sn  Sn21  1  0.000000  0.349084  0.000000  1
  Sn  Sn22  1  0.000000  0.650916  0.000000  1
  Sn  Sn23  1  0.650916  0.650916  0.000000  1
  Sn  Sn24  1  0.349084  0.349084  0.000000  1
  Sn  Sn25  1  0.333333  0.666667  0.129050  1
  Sn  Sn26  1  0.666667  0.333333  0.870950  1
  Sn  Sn27  1  0.333333  0.666667  0.822288  1
  Sn  Sn28  1  0.666667  0.333333  0.177712  1
  Sn  Sn29  1  0.000000  0.000000  0.500000  1
  Ru  Ru30  1  0.829716  0.170284  0.202582  1
  Ru  Ru31  1  0.170284  0.829716  0.797418  1
  Ru  Ru32  1  0.829716  0.659433  0.202582  1
  Ru  Ru33  1  0.170284  0.340567  0.797418  1
  Ru  Ru34  1  0.340567  0.170284  0.202582  1
  Ru  Ru35  1  0.659433  0.829716  0.797418  1
