# generated using pymatgen
data_Nd5Ta2BiO14
_symmetry_space_group_name_H-M   'P 1'
_cell_length_a   6.68115548
_cell_length_b   6.77997942
_cell_length_c   7.71276300
_cell_angle_alpha   90.00000000
_cell_angle_beta   90.00000000
_cell_angle_gamma   109.23531757
_symmetry_Int_Tables_number   1
_chemical_formula_structural   Nd5Ta2BiO14
_chemical_formula_sum   'Nd5 Ta2 Bi1 O14'
_cell_volume   329.86917630
_cell_formula_units_Z   1
loop_
 _symmetry_equiv_pos_site_id
 _symmetry_equiv_pos_as_xyz
  1  'x, y, z'
loop_
 _atom_site_type_symbol
 _atom_site_label
 _atom_site_symmetry_multiplicity
 _atom_site_fract_x
 _atom_site_fract_y
 _atom_site_fract_z
 _atom_site_occupancy
  Nd  Nd0  1  0.540888  0.530592  0.501164  1
  Nd  Nd1  1  0.540888  0.530592  0.998836  1
  Nd  Nd2  1  0.010152  0.463783  0.750000  1
  Nd  Nd3  1  0.530721  0.002795  0.750000  1
  Nd  Nd4  1  0.450118  0.000001  0.250000  1
  Ta  Ta5  1  0.994870  0.995337  0.501288  1
  Ta  Ta6  1  0.994870  0.995337  0.998712  1
  Bi  Bi7  1  0.014476  0.503567  0.250000  1
  O  O8  1  0.938782  0.068612  0.750000  1
  O  O9  1  0.047753  0.962289  0.250000  1
  O  O10  1  0.370768  0.631059  0.250000  1
  O  O11  1  0.641889  0.363347  0.750000  1
  O  O12  1  0.380051  0.630834  0.750000  1
  O  O13  1  0.629549  0.359616  0.250000  1
  O  O14  1  0.300529  0.055025  0.967961  1
  O  O15  1  0.677155  0.923803  0.471198  1
  O  O16  1  0.300529  0.055025  0.532039  1
  O  O17  1  0.677155  0.923803  0.028802  1
  O  O18  1  0.054040  0.309375  0.468454  1
  O  O19  1  0.925388  0.692915  0.959203  1
  O  O20  1  0.925388  0.692915  0.540797  1
  O  O21  1  0.054040  0.309375  0.031546  1
