# generated using pymatgen
data_Sc4Al4IrRh3
_symmetry_space_group_name_H-M   'P 1'
_cell_length_a   4.20602100
_cell_length_b   6.43630806
_cell_length_c   7.66685381
_cell_angle_alpha   90.22638451
_cell_angle_beta   90.00000000
_cell_angle_gamma   90.00000000
_symmetry_Int_Tables_number   1
_chemical_formula_structural   Sc4Al4IrRh3
_chemical_formula_sum   'Sc4 Al4 Ir1 Rh3'
_cell_volume   207.54967211
_cell_formula_units_Z   1
loop_
 _symmetry_equiv_pos_site_id
 _symmetry_equiv_pos_as_xyz
  1  'x, y, z'
loop_
 _atom_site_type_symbol
 _atom_site_label
 _atom_site_symmetry_multiplicity
 _atom_site_fract_x
 _atom_site_fract_y
 _atom_site_fract_z
 _atom_site_occupancy
  Sc  Sc0  1  0.250000  0.967008  0.318888  1
  Sc  Sc1  1  0.750000  0.532070  0.821791  1
  Sc  Sc2  1  0.250000  0.472995  0.179550  1
  Sc  Sc3  1  0.750000  0.030483  0.679674  1
  Al  Al4  1  0.750000  0.642013  0.439251  1
  Al  Al5  1  0.750000  0.145862  0.059855  1
  Al  Al6  1  0.250000  0.355980  0.560028  1
  Al  Al7  1  0.250000  0.856079  0.939027  1
  Ir  Ir8  1  0.750000  0.758210  0.120610  1
  Rh  Rh9  1  0.750000  0.252687  0.382794  1
  Rh  Rh10  1  0.250000  0.243365  0.879961  1
  Rh  Rh11  1  0.250000  0.743249  0.618570  1
