# generated using pymatgen
data_TbHo6Co4Sn23Ir2
_symmetry_space_group_name_H-M   'P 1'
_cell_length_a   9.74753355
_cell_length_b   9.74753303
_cell_length_c   10.02866406
_cell_angle_alpha   90.18660051
_cell_angle_beta   89.81339957
_cell_angle_gamma   120.05574484
_symmetry_Int_Tables_number   1
_chemical_formula_structural   TbHo6Co4Sn23Ir2
_chemical_formula_sum   'Tb1 Ho6 Co4 Sn23 Ir2'
_cell_volume   824.73774988
_cell_formula_units_Z   1
loop_
 _symmetry_equiv_pos_site_id
 _symmetry_equiv_pos_as_xyz
  1  'x, y, z'
loop_
 _atom_site_type_symbol
 _atom_site_label
 _atom_site_symmetry_multiplicity
 _atom_site_fract_x
 _atom_site_fract_y
 _atom_site_fract_z
 _atom_site_occupancy
  Tb  Tb0  1  0.000000  0.000000  0.000000  1
  Ho  Ho1  1  0.478763  0.521237  0.306334  1
  Ho  Ho2  1  0.521237  0.478763  0.693666  1
  Ho  Ho3  1  0.478806  0.957258  0.306187  1
  Ho  Ho4  1  0.521194  0.042742  0.693813  1
  Ho  Ho5  1  0.042742  0.521194  0.306187  1
  Ho  Ho6  1  0.957258  0.478806  0.693813  1
  Co  Co7  1  0.831180  0.664017  0.197589  1
  Co  Co8  1  0.168820  0.335983  0.802411  1
  Co  Co9  1  0.335983  0.168820  0.197589  1
  Co  Co10  1  0.664017  0.831180  0.802411  1
  Sn  Sn11  1  0.351056  0.004429  0.005729  1
  Sn  Sn12  1  0.648944  0.995571  0.994271  1
  Sn  Sn13  1  0.004429  0.351056  0.994271  1
  Sn  Sn14  1  0.995571  0.648944  0.005729  1
  Sn  Sn15  1  0.654130  0.654130  0.000000  1
  Sn  Sn16  1  0.345870  0.345870  0.000000  1
  Sn  Sn17  1  0.335840  0.664160  0.819173  1
  Sn  Sn18  1  0.664160  0.335840  0.180827  1
  Sn  Sn19  1  0.000000  0.000000  0.500000  1
  Sn  Sn20  1  0.779471  0.220529  0.457166  1
  Sn  Sn21  1  0.220529  0.779471  0.542834  1
  Sn  Sn22  1  0.781035  0.561790  0.451253  1
  Sn  Sn23  1  0.218965  0.438210  0.548747  1
  Sn  Sn24  1  0.438210  0.218965  0.451253  1
  Sn  Sn25  1  0.561790  0.781035  0.548747  1
  Sn  Sn26  1  0.333713  0.666287  0.117294  1
  Sn  Sn27  1  0.666287  0.333713  0.882706  1
  Sn  Sn28  1  0.117403  0.882597  0.274149  1
  Sn  Sn29  1  0.882597  0.117403  0.725851  1
  Sn  Sn30  1  0.124415  0.237513  0.278459  1
  Sn  Sn31  1  0.875585  0.762487  0.721541  1
  Sn  Sn32  1  0.762487  0.875585  0.278459  1
  Sn  Sn33  1  0.237513  0.124415  0.721541  1
  Ir  Ir34  1  0.831782  0.168218  0.197138  1
  Ir  Ir35  1  0.168218  0.831782  0.802862  1
