# generated using pymatgen
data_YbZn2Ag3
_symmetry_space_group_name_H-M   'P 1'
_cell_length_a   5.61787135
_cell_length_b   5.39995201
_cell_length_c   5.39995120
_cell_angle_alpha   58.40846994
_cell_angle_beta   58.65581127
_cell_angle_gamma   58.65582487
_symmetry_Int_Tables_number   1
_chemical_formula_structural   YbZn2Ag3
_chemical_formula_sum   'Yb1 Zn2 Ag3'
_cell_volume   112.05394005
_cell_formula_units_Z   1
loop_
 _symmetry_equiv_pos_site_id
 _symmetry_equiv_pos_as_xyz
  1  'x, y, z'
loop_
 _atom_site_type_symbol
 _atom_site_label
 _atom_site_symmetry_multiplicity
 _atom_site_fract_x
 _atom_site_fract_y
 _atom_site_fract_z
 _atom_site_occupancy
  Yb  Yb0  1  0.003239  0.996761  0.996761  1
  Zn  Zn1  1  0.621808  0.625483  0.130900  1
  Zn  Zn2  1  0.621808  0.130900  0.625483  1
  Ag  Ag3  1  0.124953  0.625179  0.625179  1
  Ag  Ag4  1  0.624689  0.625179  0.625179  1
  Ag  Ag5  1  0.253503  0.246497  0.246497  1
