# generated using pymatgen
data_Yb3Co3IrPbO14
_symmetry_space_group_name_H-M   'P 1'
_cell_length_a   7.03513692
_cell_length_b   7.02254647
_cell_length_c   7.02254800
_cell_angle_alpha   59.99999278
_cell_angle_beta   60.05917642
_cell_angle_gamma   60.05917809
_symmetry_Int_Tables_number   1
_chemical_formula_structural   Yb3Co3IrPbO14
_chemical_formula_sum   'Yb3 Co3 Ir1 Pb1 O14'
_cell_volume   245.54706818
_cell_formula_units_Z   1
loop_
 _symmetry_equiv_pos_site_id
 _symmetry_equiv_pos_as_xyz
  1  'x, y, z'
loop_
 _atom_site_type_symbol
 _atom_site_label
 _atom_site_symmetry_multiplicity
 _atom_site_fract_x
 _atom_site_fract_y
 _atom_site_fract_z
 _atom_site_occupancy
  Yb  Yb0  1  0.125000  0.625000  0.125000  1
  Yb  Yb1  1  0.125000  0.125000  0.625000  1
  Yb  Yb2  1  0.125000  0.125000  0.125000  1
  Co  Co3  1  0.625000  0.125000  0.625000  1
  Co  Co4  1  0.625000  0.625000  0.125000  1
  Co  Co5  1  0.625000  0.625000  0.625000  1
  Ir  Ir6  1  0.125000  0.625000  0.625000  1
  Pb  Pb7  1  0.625000  0.125000  0.125000  1
  O  O8  1  0.691135  0.703899  0.302483  1
  O  O9  1  0.301995  0.292595  0.702706  1
  O  O10  1  0.691135  0.302483  0.703899  1
  O  O11  1  0.301995  0.702706  0.292595  1
  O  O12  1  0.301995  0.702706  0.702706  1
  O  O13  1  0.691135  0.302483  0.302483  1
  O  O14  1  0.558865  0.546101  0.947517  1
  O  O15  1  0.948005  0.957405  0.547294  1
  O  O16  1  0.558865  0.947517  0.546101  1
  O  O17  1  0.948005  0.547294  0.957405  1
  O  O18  1  0.948005  0.547294  0.547294  1
  O  O19  1  0.558865  0.947517  0.947517  1
  O  O20  1  0.269456  0.243515  0.243515  1
  O  O21  1  0.980544  0.006485  0.006485  1
