# generated using pymatgen
data_Y7Er(RuI4)2
_symmetry_space_group_name_H-M   'P 1'
_cell_length_a   11.42072383
_cell_length_b   11.43254841
_cell_length_c   6.19494300
_cell_angle_alpha   90.02603545
_cell_angle_beta   90.04035535
_cell_angle_gamma   88.31622571
_symmetry_Int_Tables_number   1
_chemical_formula_structural   Y7Er(RuI4)2
_chemical_formula_sum   'Y7 Er1 Ru2 I8'
_cell_volume   808.51165601
_cell_formula_units_Z   1
loop_
 _symmetry_equiv_pos_site_id
 _symmetry_equiv_pos_as_xyz
  1  'x, y, z'
loop_
 _atom_site_type_symbol
 _atom_site_label
 _atom_site_symmetry_multiplicity
 _atom_site_fract_x
 _atom_site_fract_y
 _atom_site_fract_z
 _atom_site_occupancy
  Y  Y0  1  0.083675  0.802382  0.499113  1
  Y  Y1  1  0.078235  0.195343  0.000322  1
  Y  Y2  1  0.195129  0.078608  0.500327  1
  Y  Y3  1  0.921414  0.804813  0.999662  1
  Y  Y4  1  0.915241  0.197885  0.500811  1
  Y  Y5  1  0.197620  0.916080  0.000897  1
  Y  Y6  1  0.803971  0.922028  0.499616  1
  Er  Er7  1  0.806344  0.082287  0.999016  1
  Ru  Ru8  1  0.999361  0.000325  0.249720  1
  Ru  Ru9  1  0.999589  0.000114  0.750234  1
  I  I10  1  0.644527  0.152260  0.509872  1
  I  I11  1  0.858229  0.648802  0.505437  1
  I  I12  1  0.351154  0.141679  0.994558  1
  I  I13  1  0.141764  0.351216  0.494559  1
  I  I14  1  0.648967  0.859108  0.005400  1
  I  I15  1  0.355185  0.847838  0.490418  1
  I  I16  1  0.152219  0.644843  0.009625  1
  I  I17  1  0.847376  0.354389  0.990413  1
