# generated using pymatgen
data_Yb3HoPt2(RhO7)2
_symmetry_space_group_name_H-M   'P 1'
_cell_length_a   7.21491519
_cell_length_b   7.23937729
_cell_length_c   7.20747610
_cell_angle_alpha   60.01220205
_cell_angle_beta   59.96584706
_cell_angle_gamma   60.11171396
_symmetry_Int_Tables_number   1
_chemical_formula_structural   Yb3HoPt2(RhO7)2
_chemical_formula_sum   'Yb3 Ho1 Pt2 Rh2 O14'
_cell_volume   266.37511424
_cell_formula_units_Z   1
loop_
 _symmetry_equiv_pos_site_id
 _symmetry_equiv_pos_as_xyz
  1  'x, y, z'
loop_
 _atom_site_type_symbol
 _atom_site_label
 _atom_site_symmetry_multiplicity
 _atom_site_fract_x
 _atom_site_fract_y
 _atom_site_fract_z
 _atom_site_occupancy
  Yb  Yb0  1  0.625000  0.625000  0.625000  1
  Yb  Yb1  1  0.625000  0.125000  0.625000  1
  Yb  Yb2  1  0.125000  0.625000  0.625000  1
  Ho  Ho3  1  0.625000  0.625000  0.125000  1
  Pt  Pt4  1  0.125000  0.125000  0.125000  1
  Pt  Pt5  1  0.625000  0.125000  0.125000  1
  Rh  Rh6  1  0.125000  0.625000  0.125000  1
  Rh  Rh7  1  0.125000  0.125000  0.625000  1
  O  O8  1  0.048623  0.452043  0.450712  1
  O  O9  1  0.793561  0.792124  0.201552  1
  O  O10  1  0.789316  0.216275  0.205095  1
  O  O11  1  0.454966  0.042800  0.456367  1
  O  O12  1  0.747713  0.746887  0.757689  1
  O  O13  1  0.045868  0.042800  0.456367  1
  O  O14  1  0.037235  0.457876  0.048448  1
  O  O15  1  0.795034  0.207200  0.793633  1
  O  O16  1  0.212765  0.792124  0.201552  1
  O  O17  1  0.204132  0.207200  0.793633  1
  O  O18  1  0.502287  0.503113  0.492311  1
  O  O19  1  0.460684  0.033725  0.044905  1
  O  O20  1  0.456439  0.457876  0.048448  1
  O  O21  1  0.201377  0.797957  0.799288  1
