# generated using pymatgen
data_Li2YbYPt2
_symmetry_space_group_name_H-M   'P 1'
_cell_length_a   4.00758600
_cell_length_b   6.97389787
_cell_length_c   8.35983400
_cell_angle_alpha   89.11396211
_cell_angle_beta   90.00000000
_cell_angle_gamma   90.00000000
_symmetry_Int_Tables_number   1
_chemical_formula_structural   Li2YbYPt2
_chemical_formula_sum   'Li4 Yb2 Y2 Pt4'
_cell_volume   233.61684573
_cell_formula_units_Z   2
loop_
 _symmetry_equiv_pos_site_id
 _symmetry_equiv_pos_as_xyz
  1  'x, y, z'
loop_
 _atom_site_type_symbol
 _atom_site_label
 _atom_site_symmetry_multiplicity
 _atom_site_fract_x
 _atom_site_fract_y
 _atom_site_fract_z
 _atom_site_occupancy
  Li  Li0  1  0.250000  0.629756  0.556925  1
  Li  Li1  1  0.750000  0.370244  0.443075  1
  Li  Li2  1  0.750000  0.873567  0.058788  1
  Li  Li3  1  0.250000  0.126433  0.941212  1
  Yb  Yb4  1  0.750000  0.957239  0.678292  1
  Yb  Yb5  1  0.250000  0.042761  0.321708  1
  Y  Y6  1  0.250000  0.543408  0.181905  1
  Y  Y7  1  0.750000  0.456592  0.818095  1
  Pt  Pt8  1  0.250000  0.746442  0.879176  1
  Pt  Pt9  1  0.750000  0.253558  0.120824  1
  Pt  Pt10  1  0.750000  0.743253  0.372868  1
  Pt  Pt11  1  0.250000  0.256747  0.627132  1
