# generated using pymatgen
data_Sc6InSn6Rh5
_symmetry_space_group_name_H-M   'P 1'
_cell_length_a   7.64268100
_cell_length_b   7.64268011
_cell_length_c   7.04005600
_cell_angle_alpha   90.00000000
_cell_angle_beta   90.00000000
_cell_angle_gamma   120.00001686
_symmetry_Int_Tables_number   1
_chemical_formula_structural   Sc6InSn6Rh5
_chemical_formula_sum   'Sc6 In1 Sn6 Rh5'
_cell_volume   356.12141186
_cell_formula_units_Z   1
loop_
 _symmetry_equiv_pos_site_id
 _symmetry_equiv_pos_as_xyz
  1  'x, y, z'
loop_
 _atom_site_type_symbol
 _atom_site_label
 _atom_site_symmetry_multiplicity
 _atom_site_fract_x
 _atom_site_fract_y
 _atom_site_fract_z
 _atom_site_occupancy
  Sc  Sc0  1  0.379908  0.980577  0.237650  1
  Sc  Sc1  1  0.600668  0.620092  0.237650  1
  Sc  Sc2  1  0.019423  0.399332  0.237650  1
  Sc  Sc3  1  0.378034  0.978593  0.762737  1
  Sc  Sc4  1  0.600559  0.621966  0.762737  1
  Sc  Sc5  1  0.021407  0.399441  0.762737  1
  In  In6  1  0.666667  0.333333  0.506341  1
  Sn  Sn7  1  0.290780  0.278622  0.999962  1
  Sn  Sn8  1  0.987842  0.709220  0.999962  1
  Sn  Sn9  1  0.009348  0.748325  0.499485  1
  Sn  Sn10  1  0.738976  0.990652  0.499485  1
  Sn  Sn11  1  0.251675  0.261024  0.499485  1
  Sn  Sn12  1  0.721378  0.012158  0.999962  1
  Rh  Rh13  1  0.000000  0.000000  0.775280  1
  Rh  Rh14  1  0.000000  0.000000  0.224018  1
  Rh  Rh15  1  0.666667  0.333333  0.994859  1
  Rh  Rh16  1  0.333333  0.666667  0.498402  1
  Rh  Rh17  1  0.333333  0.666667  0.001598  1
