# generated using pymatgen
data_NpPaNiB10
_symmetry_space_group_name_H-M   'P 1'
_cell_length_a   4.11786400
_cell_length_b   5.54243048
_cell_length_c   11.00341602
_cell_angle_alpha   90.08397722
_cell_angle_beta   90.00000000
_cell_angle_gamma   90.00000000
_symmetry_Int_Tables_number   1
_chemical_formula_structural   NpPaNiB10
_chemical_formula_sum   'Np2 Pa2 Ni2 B20'
_cell_volume   251.13041837
_cell_formula_units_Z   2
loop_
 _symmetry_equiv_pos_site_id
 _symmetry_equiv_pos_as_xyz
  1  'x, y, z'
loop_
 _atom_site_type_symbol
 _atom_site_label
 _atom_site_symmetry_multiplicity
 _atom_site_fract_x
 _atom_site_fract_y
 _atom_site_fract_z
 _atom_site_occupancy
  Np  Np0  1  0.500000  0.317959  0.859017  1
  Np  Np1  1  0.500000  0.682041  0.140983  1
  Pa  Pa2  1  0.500000  0.814750  0.639840  1
  Pa  Pa3  1  0.500000  0.185250  0.360160  1
  Ni  Ni4  1  0.000000  0.500000  0.500000  1
  Ni  Ni5  1  0.000000  0.000000  0.000000  1
  B  B6  1  0.000000  0.125732  0.539203  1
  B  B7  1  0.000000  0.874268  0.460797  1
  B  B8  1  0.000000  0.626827  0.961319  1
  B  B9  1  0.000000  0.373173  0.038681  1
  B  B10  1  0.000000  0.155743  0.697854  1
  B  B11  1  0.000000  0.844257  0.302146  1
  B  B12  1  0.302324  0.199531  0.113056  1
  B  B13  1  0.302324  0.800469  0.886944  1
  B  B14  1  0.697391  0.699760  0.386168  1
  B  B15  1  0.697391  0.300240  0.613832  1
  B  B16  1  0.697676  0.800469  0.886944  1
  B  B17  1  0.697676  0.199531  0.113056  1
  B  B18  1  0.302609  0.300240  0.613832  1
  B  B19  1  0.302609  0.699760  0.386168  1
  B  B20  1  0.000000  0.029261  0.187216  1
  B  B21  1  0.000000  0.970739  0.812784  1
  B  B22  1  0.000000  0.529095  0.312392  1
  B  B23  1  0.000000  0.470905  0.687608  1
  B  B24  1  0.000000  0.342748  0.197718  1
  B  B25  1  0.000000  0.657252  0.802282  1
