# generated using pymatgen
data_TbDy7Sc11Si16Ru
_symmetry_space_group_name_H-M   'P 1'
_cell_length_a   7.01092301
_cell_length_b   7.36091444
_cell_length_c   13.90639207
_cell_angle_alpha   90.01080113
_cell_angle_beta   90.00344672
_cell_angle_gamma   90.07402611
_symmetry_Int_Tables_number   1
_chemical_formula_structural   TbDy7Sc11Si16Ru
_chemical_formula_sum   'Tb1 Dy7 Sc11 Si16 Ru1'
_cell_volume   717.66384243
_cell_formula_units_Z   1
loop_
 _symmetry_equiv_pos_site_id
 _symmetry_equiv_pos_as_xyz
  1  'x, y, z'
loop_
 _atom_site_type_symbol
 _atom_site_label
 _atom_site_symmetry_multiplicity
 _atom_site_fract_x
 _atom_site_fract_y
 _atom_site_fract_z
 _atom_site_occupancy
  Tb  Tb0  1  0.011551  0.177390  0.093562  1
  Dy  Dy1  1  0.992939  0.818451  0.900818  1
  Dy  Dy2  1  0.488631  0.672680  0.901812  1
  Dy  Dy3  1  0.992932  0.818465  0.599155  1
  Dy  Dy4  1  0.511057  0.324005  0.095077  1
  Dy  Dy5  1  0.011583  0.177504  0.406356  1
  Dy  Dy6  1  0.511076  0.323973  0.404928  1
  Dy  Dy7  1  0.488633  0.672654  0.598167  1
  Sc  Sc8  1  0.840658  0.496323  0.250014  1
  Sc  Sc9  1  0.341174  0.003124  0.250035  1
  Sc  Sc10  1  0.658294  0.996910  0.750018  1
  Sc  Sc11  1  0.326414  0.177736  0.626960  1
  Sc  Sc12  1  0.671588  0.824419  0.374673  1
  Sc  Sc13  1  0.171973  0.674538  0.376388  1
  Sc  Sc14  1  0.671590  0.824385  0.125347  1
  Sc  Sc15  1  0.827316  0.330803  0.627973  1
  Sc  Sc16  1  0.326419  0.177704  0.873014  1
  Sc  Sc17  1  0.827309  0.330858  0.871996  1
  Sc  Sc18  1  0.171982  0.674497  0.123642  1
  Si  Si19  1  0.030157  0.118579  0.749995  1
  Si  Si20  1  0.971570  0.884978  0.250044  1
  Si  Si21  1  0.468232  0.616249  0.250008  1
  Si  Si22  1  0.517538  0.393763  0.749995  1
  Si  Si23  1  0.285777  0.866336  0.750005  1
  Si  Si24  1  0.715571  0.128233  0.250080  1
  Si  Si25  1  0.214574  0.371962  0.250075  1
  Si  Si26  1  0.794954  0.628446  0.749997  1
  Si  Si27  1  0.156966  0.465082  0.546295  1
  Si  Si28  1  0.843368  0.535844  0.463109  1
  Si  Si29  1  0.345108  0.964590  0.463159  1
  Si  Si30  1  0.843333  0.535993  0.036860  1
  Si  Si31  1  0.658471  0.034396  0.539916  1
  Si  Si32  1  0.156981  0.465208  0.953667  1
  Si  Si33  1  0.658378  0.034364  0.960072  1
  Si  Si34  1  0.345328  0.964503  0.036796  1
  Ru  Ru35  1  0.150572  0.495057  0.749991  1
