# generated using pymatgen
data_Eu2Cu2P4Pd
_symmetry_space_group_name_H-M   'P 1'
_cell_length_a   8.09408059
_cell_length_b   8.09407903
_cell_length_c   8.09436360
_cell_angle_alpha   137.90929197
_cell_angle_beta   107.81848809
_cell_angle_gamma   87.24163895
_symmetry_Int_Tables_number   1
_chemical_formula_structural   Eu2Cu2P4Pd
_chemical_formula_sum   'Eu4 Cu4 P8 Pd2'
_cell_volume   324.83034942
_cell_formula_units_Z   2
loop_
 _symmetry_equiv_pos_site_id
 _symmetry_equiv_pos_as_xyz
  1  'x, y, z'
loop_
 _atom_site_type_symbol
 _atom_site_label
 _atom_site_symmetry_multiplicity
 _atom_site_fract_x
 _atom_site_fract_y
 _atom_site_fract_z
 _atom_site_occupancy
  Eu  Eu0  1  0.105521  0.884497  0.220995  1
  Eu  Eu1  1  0.894479  0.115503  0.779005  1
  Eu  Eu2  1  0.336499  0.615475  0.720995  1
  Eu  Eu3  1  0.663501  0.384525  0.279005  1
  Cu  Cu4  1  0.263107  0.013107  0.750000  1
  Cu  Cu5  1  0.736510  0.486510  0.750000  1
  Cu  Cu6  1  0.263490  0.513490  0.250000  1
  Cu  Cu7  1  0.736893  0.986893  0.250000  1
  P  P8  1  0.487939  0.127221  0.360627  1
  P  P9  1  0.512061  0.872779  0.639373  1
  P  P10  1  0.233406  0.372689  0.860627  1
  P  P11  1  0.766594  0.627311  0.139373  1
  P  P12  1  0.988486  0.359869  0.628705  1
  P  P13  1  0.011514  0.640131  0.371295  1
  P  P14  1  0.731164  0.859781  0.871295  1
  P  P15  1  0.268836  0.140219  0.128705  1
  Pd  Pd16  1  0.499936  0.749936  0.250000  1
  Pd  Pd17  1  0.500064  0.250064  0.750000  1
