# generated using pymatgen
data_Tb12InCoNi3Os
_symmetry_space_group_name_H-M   'P 1'
_cell_length_a   8.35402118
_cell_length_b   8.35352497
_cell_length_c   8.35401933
_cell_angle_alpha   111.17614835
_cell_angle_beta   109.57654394
_cell_angle_gamma   107.68220245
_symmetry_Int_Tables_number   1
_chemical_formula_structural   Tb12InCoNi3Os
_chemical_formula_sum   'Tb12 In1 Co1 Ni3 Os1'
_cell_volume   448.35479898
_cell_formula_units_Z   1
loop_
 _symmetry_equiv_pos_site_id
 _symmetry_equiv_pos_as_xyz
  1  'x, y, z'
loop_
 _atom_site_type_symbol
 _atom_site_label
 _atom_site_symmetry_multiplicity
 _atom_site_fract_x
 _atom_site_fract_y
 _atom_site_fract_z
 _atom_site_occupancy
  Tb  Tb0  1  0.408651  0.217986  0.190743  1
  Tb  Tb1  1  0.590818  0.781395  0.809487  1
  Tb  Tb2  1  0.027243  0.217986  0.809334  1
  Tb  Tb3  1  0.971908  0.781395  0.190578  1
  Tb  Tb4  1  0.177713  0.283663  0.464279  1
  Tb  Tb5  1  0.819407  0.713468  0.535791  1
  Tb  Tb6  1  0.177678  0.713468  0.894062  1
  Tb  Tb7  1  0.819384  0.283663  0.105949  1
  Tb  Tb8  1  0.322071  0.626652  0.304580  1
  Tb  Tb9  1  0.682348  0.375673  0.693326  1
  Tb  Tb10  1  0.322041  0.017456  0.695414  1
  Tb  Tb11  1  0.682339  0.989119  0.306781  1
  In  In12  1  0.499477  0.499478  0.000001  1
  Co  Co13  1  0.885354  0.385417  0.500063  1
  Ni  Ni14  1  0.364118  0.998811  0.365346  1
  Ni  Ni15  1  0.633464  0.998811  0.634692  1
  Ni  Ni16  1  0.117277  0.616833  0.499556  1
  Os  Os17  1  0.998708  0.998727  0.000019  1
