# generated using pymatgen
data_U2Co5(Ni8B3)2
_symmetry_space_group_name_H-M   'P 1'
_cell_length_a   7.49835532
_cell_length_b   7.49883365
_cell_length_c   7.49835500
_cell_angle_alpha   60.00210704
_cell_angle_beta   59.99999701
_cell_angle_gamma   60.00210549
_symmetry_Int_Tables_number   1
_chemical_formula_structural   U2Co5(Ni8B3)2
_chemical_formula_sum   'U2 Co5 Ni16 B6'
_cell_volume   298.14295489
_cell_formula_units_Z   1
loop_
 _symmetry_equiv_pos_site_id
 _symmetry_equiv_pos_as_xyz
  1  'x, y, z'
loop_
 _atom_site_type_symbol
 _atom_site_label
 _atom_site_symmetry_multiplicity
 _atom_site_fract_x
 _atom_site_fract_y
 _atom_site_fract_z
 _atom_site_occupancy
  U  U0  1  0.254420  0.236740  0.254420  1
  U  U1  1  0.750401  0.748797  0.750401  1
  Co  Co2  1  0.381774  0.854677  0.381774  1
  Co  Co3  1  0.618150  0.619842  0.618150  1
  Co  Co4  1  0.618150  0.619842  0.143855  1
  Co  Co5  1  0.618322  0.145033  0.618322  1
  Co  Co6  1  0.143855  0.619842  0.618150  1
  Ni  Ni7  1  0.000111  0.999666  0.000111  1
  Ni  Ni8  1  0.337021  0.000761  0.999975  1
  Ni  Ni9  1  0.001331  0.336426  0.660913  1
  Ni  Ni10  1  0.662243  0.000761  0.999975  1
  Ni  Ni11  1  0.002809  0.658759  0.335624  1
  Ni  Ni12  1  0.001331  0.336426  0.001331  1
  Ni  Ni13  1  0.999975  0.000761  0.337021  1
  Ni  Ni14  1  0.337021  0.000761  0.662243  1
  Ni  Ni15  1  0.335624  0.658759  0.002809  1
  Ni  Ni16  1  0.662243  0.000761  0.337021  1
  Ni  Ni17  1  0.999975  0.000761  0.662243  1
  Ni  Ni18  1  0.002809  0.658759  0.002809  1
  Ni  Ni19  1  0.660913  0.336426  0.001331  1
  Ni  Ni20  1  0.385849  0.387050  0.385849  1
  Ni  Ni21  1  0.385849  0.387050  0.841251  1
  Ni  Ni22  1  0.841251  0.387050  0.385849  1
  B  B23  1  0.728670  0.271671  0.270989  1
  B  B24  1  0.271878  0.729759  0.726486  1
  B  B25  1  0.271877  0.729760  0.271877  1
  B  B26  1  0.270989  0.271671  0.728670  1
  B  B27  1  0.728669  0.271672  0.728669  1
  B  B28  1  0.726486  0.729759  0.271878  1
