# generated using pymatgen
data_Tb4Al17NiPd6
_symmetry_space_group_name_H-M   'P 1'
_cell_length_a   7.60999874
_cell_length_b   7.60999852
_cell_length_c   9.41835200
_cell_angle_alpha   90.00000000
_cell_angle_beta   90.00000000
_cell_angle_gamma   118.67729409
_symmetry_Int_Tables_number   1
_chemical_formula_structural   Tb4Al17NiPd6
_chemical_formula_sum   'Tb4 Al17 Ni1 Pd6'
_cell_volume   478.53116313
_cell_formula_units_Z   1
loop_
 _symmetry_equiv_pos_site_id
 _symmetry_equiv_pos_as_xyz
  1  'x, y, z'
loop_
 _atom_site_type_symbol
 _atom_site_label
 _atom_site_symmetry_multiplicity
 _atom_site_fract_x
 _atom_site_fract_y
 _atom_site_fract_z
 _atom_site_occupancy
  Tb  Tb0  1  0.989338  0.674518  0.250000  1
  Tb  Tb1  1  0.007028  0.325541  0.750000  1
  Tb  Tb2  1  0.674518  0.989338  0.250000  1
  Tb  Tb3  1  0.325541  0.007028  0.750000  1
  Al  Al4  1  0.863928  0.863928  0.750000  1
  Al  Al5  1  0.005910  0.326151  0.088624  1
  Al  Al6  1  0.999360  0.661489  0.922092  1
  Al  Al7  1  0.999360  0.661489  0.577908  1
  Al  Al8  1  0.326151  0.005910  0.411376  1
  Al  Al9  1  0.005910  0.326151  0.411376  1
  Al  Al10  1  0.661489  0.999360  0.577908  1
  Al  Al11  1  0.661489  0.999360  0.922092  1
  Al  Al12  1  0.326151  0.005910  0.088624  1
  Al  Al13  1  0.329900  0.329900  0.536355  1
  Al  Al14  1  0.666103  0.666103  0.448098  1
  Al  Al15  1  0.666103  0.666103  0.051902  1
  Al  Al16  1  0.329900  0.329900  0.963645  1
  Al  Al17  1  0.339836  0.544296  0.250000  1
  Al  Al18  1  0.655373  0.448034  0.750000  1
  Al  Al19  1  0.544296  0.339836  0.250000  1
  Al  Al20  1  0.448034  0.655373  0.750000  1
  Ni  Ni21  1  0.175658  0.175658  0.250000  1
  Pd  Pd22  1  0.677541  0.327719  0.000356  1
  Pd  Pd23  1  0.327719  0.677541  0.000356  1
  Pd  Pd24  1  0.327719  0.677541  0.499644  1
  Pd  Pd25  1  0.677541  0.327719  0.499644  1
  Pd  Pd26  1  0.994052  0.994052  0.994804  1
  Pd  Pd27  1  0.994052  0.994052  0.505196  1
