# generated using pymatgen
data_Y4Al4PdRuPt2
_symmetry_space_group_name_H-M   'P 1'
_cell_length_a   4.39190700
_cell_length_b   6.91066770
_cell_length_c   7.83865891
_cell_angle_alpha   89.70238898
_cell_angle_beta   90.00000000
_cell_angle_gamma   90.00000000
_symmetry_Int_Tables_number   1
_chemical_formula_structural   Y4Al4PdRuPt2
_chemical_formula_sum   'Y4 Al4 Pd1 Ru1 Pt2'
_cell_volume   237.90800437
_cell_formula_units_Z   1
loop_
 _symmetry_equiv_pos_site_id
 _symmetry_equiv_pos_as_xyz
  1  'x, y, z'
loop_
 _atom_site_type_symbol
 _atom_site_label
 _atom_site_symmetry_multiplicity
 _atom_site_fract_x
 _atom_site_fract_y
 _atom_site_fract_z
 _atom_site_occupancy
  Y  Y0  1  0.250000  0.032819  0.679395  1
  Y  Y1  1  0.250000  0.525976  0.819412  1
  Y  Y2  1  0.750000  0.981110  0.317972  1
  Y  Y3  1  0.750000  0.470948  0.185880  1
  Al  Al4  1  0.250000  0.147253  0.064006  1
  Al  Al5  1  0.250000  0.640485  0.434042  1
  Al  Al6  1  0.750000  0.855685  0.937836  1
  Al  Al7  1  0.750000  0.350560  0.562574  1
  Pd  Pd8  1  0.750000  0.724971  0.616798  1
  Ru  Ru9  1  0.250000  0.268267  0.384310  1
  Pt  Pt10  1  0.250000  0.775494  0.115076  1
  Pt  Pt11  1  0.750000  0.226432  0.882699  1
