# generated using pymatgen
data_Tb3Er7(In2Bi)2
_symmetry_space_group_name_H-M   'P 1'
_cell_length_a   9.01017858
_cell_length_b   9.00294925
_cell_length_c   6.57781700
_cell_angle_alpha   90.00000000
_cell_angle_beta   90.00000000
_cell_angle_gamma   119.97345945
_symmetry_Int_Tables_number   1
_chemical_formula_structural   Tb3Er7(In2Bi)2
_chemical_formula_sum   'Tb3 Er7 In4 Bi2'
_cell_volume   462.21784139
_cell_formula_units_Z   1
loop_
 _symmetry_equiv_pos_site_id
 _symmetry_equiv_pos_as_xyz
  1  'x, y, z'
loop_
 _atom_site_type_symbol
 _atom_site_label
 _atom_site_symmetry_multiplicity
 _atom_site_fract_x
 _atom_site_fract_y
 _atom_site_fract_z
 _atom_site_occupancy
  Tb  Tb0  1  0.768733  0.760047  0.750000  1
  Tb  Tb1  1  0.231267  0.991314  0.750000  1
  Tb  Tb2  1  0.000000  0.239452  0.750000  1
  Er  Er3  1  0.670539  0.337995  0.006819  1
  Er  Er4  1  0.329461  0.667457  0.006819  1
  Er  Er5  1  0.329461  0.667457  0.493181  1
  Er  Er6  1  0.670539  0.337995  0.493181  1
  Er  Er7  1  0.236440  0.237777  0.250000  1
  Er  Er8  1  0.763560  0.001337  0.250000  1
  Er  Er9  1  0.000000  0.762688  0.250000  1
  In  In10  1  0.000000  0.596297  0.750000  1
  In  In11  1  0.604877  0.606963  0.250000  1
  In  In12  1  0.395123  0.002086  0.250000  1
  In  In13  1  0.000000  0.396572  0.250000  1
  Bi  Bi14  1  0.396353  0.395458  0.750000  1
  Bi  Bi15  1  0.603647  0.999105  0.750000  1
