# generated using pymatgen
data_V3Cr(CoP)4
_symmetry_space_group_name_H-M   'P 1'
_cell_length_a   3.53380700
_cell_length_b   5.80985744
_cell_length_c   6.67832977
_cell_angle_alpha   90.10475176
_cell_angle_beta   90.00000000
_cell_angle_gamma   90.00000000
_symmetry_Int_Tables_number   1
_chemical_formula_structural   V3Cr(CoP)4
_chemical_formula_sum   'V3 Cr1 Co4 P4'
_cell_volume   137.11199109
_cell_formula_units_Z   1
loop_
 _symmetry_equiv_pos_site_id
 _symmetry_equiv_pos_as_xyz
  1  'x, y, z'
loop_
 _atom_site_type_symbol
 _atom_site_label
 _atom_site_symmetry_multiplicity
 _atom_site_fract_x
 _atom_site_fract_y
 _atom_site_fract_z
 _atom_site_occupancy
  V  V0  1  0.750000  0.528703  0.169532  1
  V  V1  1  0.750000  0.030291  0.329189  1
  V  V2  1  0.250000  0.473136  0.828927  1
  Cr  Cr3  1  0.250000  0.968675  0.670796  1
  Co  Co4  1  0.750000  0.644222  0.561637  1
  Co  Co5  1  0.750000  0.141831  0.936682  1
  Co  Co6  1  0.250000  0.358397  0.438825  1
  Co  Co7  1  0.250000  0.857349  0.064658  1
  P  P8  1  0.750000  0.260681  0.623307  1
  P  P9  1  0.750000  0.765661  0.876304  1
  P  P10  1  0.250000  0.735656  0.376784  1
  P  P11  1  0.250000  0.235397  0.123359  1
