# generated using pymatgen
data_Tb4GaCu3Si3Ni
_symmetry_space_group_name_H-M   'P 1'
_cell_length_a   4.25271700
_cell_length_b   7.02986601
_cell_length_c   7.27106204
_cell_angle_alpha   89.89686033
_cell_angle_beta   90.00000000
_cell_angle_gamma   90.00000000
_symmetry_Int_Tables_number   1
_chemical_formula_structural   Tb4GaCu3Si3Ni
_chemical_formula_sum   'Tb4 Ga1 Cu3 Si3 Ni1'
_cell_volume   217.37554181
_cell_formula_units_Z   1
loop_
 _symmetry_equiv_pos_site_id
 _symmetry_equiv_pos_as_xyz
  1  'x, y, z'
loop_
 _atom_site_type_symbol
 _atom_site_label
 _atom_site_symmetry_multiplicity
 _atom_site_fract_x
 _atom_site_fract_y
 _atom_site_fract_z
 _atom_site_occupancy
  Tb  Tb0  1  0.250000  0.490337  0.207577  1
  Tb  Tb1  1  0.750000  0.500257  0.792311  1
  Tb  Tb2  1  0.750000  0.008193  0.704305  1
  Tb  Tb3  1  0.250000  0.998108  0.293988  1
  Ga  Ga4  1  0.250000  0.805871  0.910538  1
  Cu  Cu5  1  0.250000  0.683242  0.574149  1
  Cu  Cu6  1  0.750000  0.317163  0.419304  1
  Cu  Cu7  1  0.750000  0.808944  0.085379  1
  Si  Si8  1  0.750000  0.192904  0.081999  1
  Si  Si9  1  0.750000  0.702100  0.407084  1
  Si  Si10  1  0.250000  0.292401  0.599263  1
  Ni  Ni11  1  0.250000  0.200479  0.924105  1
