# generated using pymatgen
data_La8AlZn7Pt8
_symmetry_space_group_name_H-M   'P 1'
_cell_length_a   4.14261400
_cell_length_b   7.56341027
_cell_length_c   16.86803576
_cell_angle_alpha   89.56996222
_cell_angle_beta   90.00000000
_cell_angle_gamma   90.00000000
_symmetry_Int_Tables_number   1
_chemical_formula_structural   La8AlZn7Pt8
_chemical_formula_sum   'La8 Al1 Zn7 Pt8'
_cell_volume   528.49928975
_cell_formula_units_Z   1
loop_
 _symmetry_equiv_pos_site_id
 _symmetry_equiv_pos_as_xyz
  1  'x, y, z'
loop_
 _atom_site_type_symbol
 _atom_site_label
 _atom_site_symmetry_multiplicity
 _atom_site_fract_x
 _atom_site_fract_y
 _atom_site_fract_z
 _atom_site_occupancy
  La  La0  1  0.750000  0.329649  0.440598  1
  La  La1  1  0.250000  0.047330  0.716397  1
  La  La2  1  0.250000  0.547656  0.783277  1
  La  La3  1  0.250000  0.670711  0.559406  1
  La  La4  1  0.750000  0.828463  0.057985  1
  La  La5  1  0.250000  0.169949  0.940086  1
  La  La6  1  0.750000  0.457359  0.218580  1
  La  La7  1  0.750000  0.951019  0.283984  1
  Al  Al8  1  0.250000  0.129747  0.149635  1
  Zn  Zn9  1  0.250000  0.000255  0.439847  1
  Zn  Zn10  1  0.750000  0.872974  0.850208  1
  Zn  Zn11  1  0.750000  0.000938  0.559991  1
  Zn  Zn12  1  0.250000  0.495596  0.060646  1
  Zn  Zn13  1  0.750000  0.372458  0.649459  1
  Zn  Zn14  1  0.750000  0.498036  0.940509  1
  Zn  Zn15  1  0.250000  0.626502  0.351662  1
  Pt  Pt16  1  0.750000  0.253181  0.814858  1
  Pt  Pt17  1  0.250000  0.243586  0.308823  1
  Pt  Pt18  1  0.250000  0.737838  0.933687  1
  Pt  Pt19  1  0.250000  0.240945  0.565354  1
  Pt  Pt20  1  0.250000  0.760771  0.182665  1
  Pt  Pt21  1  0.750000  0.759282  0.435033  1
  Pt  Pt22  1  0.750000  0.252555  0.071883  1
  Pt  Pt23  1  0.750000  0.753200  0.685424  1
