# generated using pymatgen
data_Nd3ThAlGa17Ir6
_symmetry_space_group_name_H-M   'P 1'
_cell_length_a   7.66973795
_cell_length_b   7.67215057
_cell_length_c   9.57849318
_cell_angle_alpha   89.99163702
_cell_angle_beta   89.98614943
_cell_angle_gamma   119.56288267
_symmetry_Int_Tables_number   1
_chemical_formula_structural   Nd3ThAlGa17Ir6
_chemical_formula_sum   'Nd3 Th1 Al1 Ga17 Ir6'
_cell_volume   490.25447207
_cell_formula_units_Z   1
loop_
 _symmetry_equiv_pos_site_id
 _symmetry_equiv_pos_as_xyz
  1  'x, y, z'
loop_
 _atom_site_type_symbol
 _atom_site_label
 _atom_site_symmetry_multiplicity
 _atom_site_fract_x
 _atom_site_fract_y
 _atom_site_fract_z
 _atom_site_occupancy
  Nd  Nd0  1  0.000802  0.329168  0.749217  1
  Nd  Nd1  1  0.671338  0.996811  0.249672  1
  Nd  Nd2  1  0.329037  0.001069  0.749182  1
  Th  Th3  1  0.997411  0.670528  0.250114  1
  Al  Al4  1  0.334887  0.334773  0.951015  1
  Ga  Ga5  1  0.131502  0.131908  0.249601  1
  Ga  Ga6  1  0.871181  0.872740  0.749514  1
  Ga  Ga7  1  0.001224  0.332176  0.077474  1
  Ga  Ga8  1  0.998204  0.664262  0.917098  1
  Ga  Ga9  1  0.997775  0.664193  0.582731  1
  Ga  Ga10  1  0.339457  0.005146  0.420800  1
  Ga  Ga11  1  0.002173  0.332211  0.420829  1
  Ga  Ga12  1  0.664478  0.998784  0.579400  1
  Ga  Ga13  1  0.664412  0.999224  0.920088  1
  Ga  Ga14  1  0.338959  0.003934  0.077489  1
  Ga  Ga15  1  0.331386  0.331301  0.560955  1
  Ga  Ga16  1  0.663500  0.666498  0.443479  1
  Ga  Ga17  1  0.666855  0.669686  0.056559  1
  Ga  Ga18  1  0.343292  0.547302  0.249910  1
  Ga  Ga19  1  0.654217  0.450981  0.750181  1
  Ga  Ga20  1  0.545227  0.340541  0.249898  1
  Ga  Ga21  1  0.450819  0.656208  0.750190  1
  Ir  Ir22  1  0.670702  0.331599  0.000667  1
  Ir  Ir23  1  0.326788  0.668001  0.000657  1
  Ir  Ir24  1  0.326904  0.671058  0.498120  1
  Ir  Ir25  1  0.673759  0.331899  0.498089  1
  Ir  Ir26  1  0.004353  0.001587  0.999928  1
  Ir  Ir27  1  0.999359  0.996415  0.497144  1
