# generated using pymatgen
data_SmEr2SbO7
_symmetry_space_group_name_H-M   'P 1'
_cell_length_a   6.45456596
_cell_length_b   6.45456565
_cell_length_c   7.56396400
_cell_angle_alpha   90.00000000
_cell_angle_beta   90.00000000
_cell_angle_gamma   109.15167627
_symmetry_Int_Tables_number   1
_chemical_formula_structural   SmEr2SbO7
_chemical_formula_sum   'Sm2 Er4 Sb2 O14'
_cell_volume   297.68435640
_cell_formula_units_Z   2
loop_
 _symmetry_equiv_pos_site_id
 _symmetry_equiv_pos_as_xyz
  1  'x, y, z'
loop_
 _atom_site_type_symbol
 _atom_site_label
 _atom_site_symmetry_multiplicity
 _atom_site_fract_x
 _atom_site_fract_y
 _atom_site_fract_z
 _atom_site_occupancy
  Sm  Sm0  1  0.500000  0.500000  0.500000  1
  Sm  Sm1  1  0.500000  0.500000  0.000000  1
  Er  Er2  1  0.531242  0.000765  0.750000  1
  Er  Er3  1  0.000765  0.531242  0.250000  1
  Er  Er4  1  0.468758  0.999235  0.250000  1
  Er  Er5  1  0.999235  0.468758  0.750000  1
  Sb  Sb6  1  0.000000  0.000000  0.500000  1
  Sb  Sb7  1  0.000000  0.000000  0.000000  1
  O  O8  1  0.677060  0.929892  0.470492  1
  O  O9  1  0.929892  0.677060  0.529508  1
  O  O10  1  0.677060  0.929892  0.029508  1
  O  O11  1  0.929892  0.677060  0.970492  1
  O  O12  1  0.322940  0.070108  0.529508  1
  O  O13  1  0.070108  0.322940  0.470492  1
  O  O14  1  0.322940  0.070108  0.970492  1
  O  O15  1  0.070108  0.322940  0.029508  1
  O  O16  1  0.929792  0.070208  0.750000  1
  O  O17  1  0.070208  0.929792  0.250000  1
  O  O18  1  0.364053  0.635947  0.750000  1
  O  O19  1  0.635947  0.364053  0.250000  1
  O  O20  1  0.642093  0.357907  0.750000  1
  O  O21  1  0.357907  0.642093  0.250000  1
