# generated using pymatgen
data_Lu10In8Pd3Ru
_symmetry_space_group_name_H-M   'P 1'
_cell_length_a   3.55439800
_cell_length_b   8.03233613
_cell_length_c   18.05306230
_cell_angle_alpha   90.02067283
_cell_angle_beta   90.00000000
_cell_angle_gamma   90.00000000
_symmetry_Int_Tables_number   1
_chemical_formula_structural   Lu10In8Pd3Ru
_chemical_formula_sum   'Lu10 In8 Pd3 Ru1'
_cell_volume   515.41705189
_cell_formula_units_Z   1
loop_
 _symmetry_equiv_pos_site_id
 _symmetry_equiv_pos_as_xyz
  1  'x, y, z'
loop_
 _atom_site_type_symbol
 _atom_site_label
 _atom_site_symmetry_multiplicity
 _atom_site_fract_x
 _atom_site_fract_y
 _atom_site_fract_z
 _atom_site_occupancy
  Lu  Lu0  1  0.000000  0.499942  0.499832  1
  Lu  Lu1  1  0.000000  0.999883  0.000662  1
  Lu  Lu2  1  0.000000  0.727730  0.276930  1
  Lu  Lu3  1  0.000000  0.258955  0.720635  1
  Lu  Lu4  1  0.000000  0.757811  0.779286  1
  Lu  Lu5  1  0.000000  0.255201  0.220475  1
  Lu  Lu6  1  0.000000  0.616257  0.086885  1
  Lu  Lu7  1  0.000000  0.383007  0.915941  1
  Lu  Lu8  1  0.000000  0.882985  0.584272  1
  Lu  Lu9  1  0.000000  0.119028  0.414575  1
  In  In10  1  0.500000  0.709000  0.932712  1
  In  In11  1  0.500000  0.292997  0.068132  1
  In  In12  1  0.500000  0.792010  0.433235  1
  In  In13  1  0.500000  0.208367  0.566658  1
  In  In14  1  0.500000  0.578519  0.648415  1
  In  In15  1  0.500000  0.426467  0.350810  1
  In  In16  1  0.500000  0.922125  0.149753  1
  In  In17  1  0.500000  0.077186  0.851854  1
  Pd  Pd18  1  0.500000  0.475388  0.803821  1
  Pd  Pd19  1  0.500000  0.976597  0.695981  1
  Pd  Pd20  1  0.500000  0.020226  0.304252  1
  Ru  Ru21  1  0.500000  0.520321  0.194884  1
