# generated using pymatgen
data_Rb12Mo3WS16
_symmetry_space_group_name_H-M   'P 1'
_cell_length_a   9.56051700
_cell_length_b   9.68926955
_cell_length_c   11.22160900
_cell_angle_alpha   90.00000000
_cell_angle_beta   90.00000000
_cell_angle_gamma   89.87916116
_symmetry_Int_Tables_number   1
_chemical_formula_structural   Rb12Mo3WS16
_chemical_formula_sum   'Rb12 Mo3 W1 S16'
_cell_volume   1039.50499934
_cell_formula_units_Z   1
loop_
 _symmetry_equiv_pos_site_id
 _symmetry_equiv_pos_as_xyz
  1  'x, y, z'
loop_
 _atom_site_type_symbol
 _atom_site_label
 _atom_site_symmetry_multiplicity
 _atom_site_fract_x
 _atom_site_fract_y
 _atom_site_fract_z
 _atom_site_occupancy
  Rb  Rb0  1  0.943996  0.712180  0.961027  1
  Rb  Rb1  1  0.453885  0.795096  0.958996  1
  Rb  Rb2  1  0.553735  0.206843  0.455718  1
  Rb  Rb3  1  0.048270  0.287981  0.046982  1
  Rb  Rb4  1  0.142530  0.078694  0.750000  1
  Rb  Rb5  1  0.646705  0.418109  0.750000  1
  Rb  Rb6  1  0.356372  0.582181  0.250000  1
  Rb  Rb7  1  0.855591  0.919668  0.250000  1
  Rb  Rb8  1  0.048270  0.287981  0.453018  1
  Rb  Rb9  1  0.453885  0.795096  0.541004  1
  Rb  Rb10  1  0.553735  0.206843  0.044282  1
  Rb  Rb11  1  0.943996  0.712180  0.538973  1
  Mo  Mo12  1  0.777752  0.486288  0.250000  1
  Mo  Mo13  1  0.278843  0.014221  0.250000  1
  Mo  Mo14  1  0.720907  0.986241  0.750000  1
  W  W15  1  0.220134  0.514256  0.750000  1
  S  S16  1  0.201374  0.743601  0.750000  1
  S  S17  1  0.703046  0.753615  0.750000  1
  S  S18  1  0.298437  0.246344  0.250000  1
  S  S19  1  0.797833  0.254206  0.250000  1
  S  S20  1  0.006331  0.421363  0.750000  1
  S  S21  1  0.503710  0.080199  0.750000  1
  S  S22  1  0.495962  0.921092  0.250000  1
  S  S23  1  0.994858  0.578927  0.250000  1
  S  S24  1  0.664872  0.548602  0.418215  1
  S  S25  1  0.166052  0.949151  0.082958  1
  S  S26  1  0.834847  0.050963  0.583325  1
  S  S27  1  0.334150  0.449680  0.913893  1
  S  S28  1  0.334150  0.449680  0.586107  1
  S  S29  1  0.664872  0.548602  0.081785  1
  S  S30  1  0.166052  0.949151  0.417042  1
  S  S31  1  0.834847  0.050963  0.916675  1
