# generated using pymatgen
data_Hf6AlGa6Cu16H3
_symmetry_space_group_name_H-M   'P 1'
_cell_length_a   8.43564453
_cell_length_b   8.43351566
_cell_length_c   8.43692268
_cell_angle_alpha   120.45357836
_cell_angle_beta   120.23587252
_cell_angle_gamma   89.43158532
_symmetry_Int_Tables_number   1
_chemical_formula_structural   Hf6AlGa6Cu16H3
_chemical_formula_sum   'Hf6 Al1 Ga6 Cu16 H3'
_cell_volume   422.08151871
_cell_formula_units_Z   1
loop_
 _symmetry_equiv_pos_site_id
 _symmetry_equiv_pos_as_xyz
  1  'x, y, z'
loop_
 _atom_site_type_symbol
 _atom_site_label
 _atom_site_symmetry_multiplicity
 _atom_site_fract_x
 _atom_site_fract_y
 _atom_site_fract_z
 _atom_site_occupancy
  Hf  Hf0  1  0.799849  0.199480  0.999116  1
  Hf  Hf1  1  0.799793  0.800638  0.600328  1
  Hf  Hf2  1  0.785370  0.785466  0.999810  1
  Hf  Hf3  1  0.200329  0.800801  0.000897  1
  Hf  Hf4  1  0.200401  0.199622  0.399616  1
  Hf  Hf5  1  0.209717  0.209704  0.000142  1
  Al  Al6  1  0.499073  0.499097  0.000005  1
  Ga  Ga7  1  0.497878  0.496847  0.497885  1
  Ga  Ga8  1  0.497785  0.999993  0.001069  1
  Ga  Ga9  1  0.498272  0.998188  0.500063  1
  Ga  Ga10  1  0.999049  0.999977  0.502120  1
  Ga  Ga11  1  0.998837  0.496722  0.998973  1
  Ga  Ga12  1  0.997786  0.497865  0.499982  1
  Cu  Cu13  1  0.471536  0.821585  0.650061  1
  Cu  Cu14  1  0.171583  0.821635  0.349833  1
  Cu  Cu15  1  0.165441  0.829496  0.663865  1
  Cu  Cu16  1  0.165382  0.501613  0.336069  1
  Cu  Cu17  1  0.509223  0.168189  0.341025  1
  Cu  Cu18  1  0.827449  0.168105  0.658980  1
  Cu  Cu19  1  0.830966  0.165235  0.334364  1
  Cu  Cu20  1  0.830811  0.496392  0.665533  1
  Cu  Cu21  1  0.856177  0.617095  0.239516  1
  Cu  Cu22  1  0.377505  0.616936  0.760743  1
  Cu  Cu23  1  0.381107  0.620300  0.239257  1
  Cu  Cu24  1  0.381157  0.141853  0.760793  1
  Cu  Cu25  1  0.142292  0.381397  0.760650  1
  Cu  Cu26  1  0.620751  0.381447  0.239148  1
  Cu  Cu27  1  0.616605  0.377015  0.760730  1
  Cu  Cu28  1  0.616562  0.855839  0.239297  1
  H  H29  1  0.043456  0.043536  0.000140  1
  H  H30  1  0.757694  0.913850  0.843805  1
  H  H31  1  0.069965  0.913884  0.156186  1
