# generated using pymatgen
data_U2Al2C3
_symmetry_space_group_name_H-M   'P 1'
_cell_length_a   3.32880300
_cell_length_b   5.12887700
_cell_length_c   11.28314100
_cell_angle_alpha   90.00000000
_cell_angle_beta   90.00000000
_cell_angle_gamma   90.00000000
_symmetry_Int_Tables_number   1
_chemical_formula_structural   U2Al2C3
_chemical_formula_sum   'U4 Al4 C6'
_cell_volume   192.63730487
_cell_formula_units_Z   2
loop_
 _symmetry_equiv_pos_site_id
 _symmetry_equiv_pos_as_xyz
  1  'x, y, z'
loop_
 _atom_site_type_symbol
 _atom_site_label
 _atom_site_symmetry_multiplicity
 _atom_site_fract_x
 _atom_site_fract_y
 _atom_site_fract_z
 _atom_site_occupancy
  U  U0  1  0.500000  0.834203  0.148297  1
  U  U1  1  0.000000  0.334203  0.351703  1
  U  U2  1  0.000000  0.665797  0.648297  1
  U  U3  1  0.500000  0.165797  0.851703  1
  Al  Al4  1  0.500000  0.828816  0.411462  1
  Al  Al5  1  0.000000  0.328816  0.088538  1
  Al  Al6  1  0.500000  0.171184  0.588538  1
  Al  Al7  1  0.000000  0.671184  0.911462  1
  C  C8  1  0.000000  0.169112  0.696185  1
  C  C9  1  0.500000  0.669112  0.803815  1
  C  C10  1  0.000000  0.830888  0.303815  1
  C  C11  1  0.000000  0.000000  0.000000  1
  C  C12  1  0.500000  0.330888  0.196185  1
  C  C13  1  0.500000  0.500000  0.500000  1
