# generated using pymatgen
data_La2Pr3Al2Os3
_symmetry_space_group_name_H-M   'P 1'
_cell_length_a   8.60617177
_cell_length_b   8.65924999
_cell_length_c   8.65492743
_cell_angle_alpha   109.38367817
_cell_angle_beta   109.31599599
_cell_angle_gamma   109.24730371
_symmetry_Int_Tables_number   1
_chemical_formula_structural   La2Pr3Al2Os3
_chemical_formula_sum   'La4 Pr6 Al4 Os6'
_cell_volume   499.35304984
_cell_formula_units_Z   2
loop_
 _symmetry_equiv_pos_site_id
 _symmetry_equiv_pos_as_xyz
  1  'x, y, z'
loop_
 _atom_site_type_symbol
 _atom_site_label
 _atom_site_symmetry_multiplicity
 _atom_site_fract_x
 _atom_site_fract_y
 _atom_site_fract_z
 _atom_site_occupancy
  La  La0  1  0.251772  0.686009  0.436841  1
  La  La1  1  0.751154  0.816035  0.063617  1
  La  La2  1  0.436120  0.249554  0.685210  1
  La  La3  1  0.687102  0.436637  0.251999  1
  Pr  Pr4  1  0.068926  0.750800  0.819488  1
  Pr  Pr5  1  0.819793  0.068132  0.749923  1
  Pr  Pr6  1  0.212725  0.213938  0.211792  1
  Pr  Pr7  1  0.499970  0.996864  0.285806  1
  Pr  Pr8  1  0.286892  0.500913  0.999207  1
  Pr  Pr9  1  0.999871  0.287839  0.502897  1
  Al  Al10  1  0.590069  0.588819  0.589093  1
  Al  Al11  1  0.500096  0.001843  0.912530  1
  Al  Al12  1  0.912233  0.498411  0.999216  1
  Al  Al13  1  0.999344  0.911730  0.500106  1
  Os  Os14  1  0.248951  0.117879  0.860130  1
  Os  Os15  1  0.743658  0.379653  0.635214  1
  Os  Os16  1  0.861355  0.252157  0.118318  1
  Os  Os17  1  0.111435  0.860942  0.246729  1
  Os  Os18  1  0.633211  0.743053  0.381174  1
  Os  Os19  1  0.385321  0.638792  0.750709  1
