# generated using pymatgen
data_Y4Ga4PtRh3
_symmetry_space_group_name_H-M   'P 1'
_cell_length_a   4.38660300
_cell_length_b   6.87221289
_cell_length_c   7.73297339
_cell_angle_alpha   89.65486810
_cell_angle_beta   90.00000000
_cell_angle_gamma   90.00000000
_symmetry_Int_Tables_number   1
_chemical_formula_structural   Y4Ga4PtRh3
_chemical_formula_sum   'Y4 Ga4 Pt1 Rh3'
_cell_volume   233.11143218
_cell_formula_units_Z   1
loop_
 _symmetry_equiv_pos_site_id
 _symmetry_equiv_pos_as_xyz
  1  'x, y, z'
loop_
 _atom_site_type_symbol
 _atom_site_label
 _atom_site_symmetry_multiplicity
 _atom_site_fract_x
 _atom_site_fract_y
 _atom_site_fract_z
 _atom_site_occupancy
  Y  Y0  1  0.250000  0.980412  0.306422  1
  Y  Y1  1  0.250000  0.481665  0.196124  1
  Y  Y2  1  0.750000  0.019902  0.691806  1
  Y  Y3  1  0.750000  0.521760  0.806644  1
  Ga  Ga4  1  0.250000  0.337373  0.571087  1
  Ga  Ga5  1  0.250000  0.833198  0.925822  1
  Ga  Ga6  1  0.750000  0.663796  0.426074  1
  Ga  Ga7  1  0.750000  0.162318  0.076515  1
  Pt  Pt8  1  0.250000  0.226681  0.897459  1
  Rh  Rh9  1  0.250000  0.726808  0.602170  1
  Rh  Rh10  1  0.750000  0.773451  0.101789  1
  Rh  Rh11  1  0.750000  0.272636  0.398088  1
