# generated using pymatgen
data_NaEr(SbAu)2
_symmetry_space_group_name_H-M   'P 1'
_cell_length_a   4.53935500
_cell_length_b   4.53935510
_cell_length_c   17.76591900
_cell_angle_alpha   90.00000000
_cell_angle_beta   90.00000000
_cell_angle_gamma   120.00002111
_symmetry_Int_Tables_number   1
_chemical_formula_structural   NaEr(SbAu)2
_chemical_formula_sum   'Na2 Er2 Sb4 Au4'
_cell_volume   317.03449843
_cell_formula_units_Z   2
loop_
 _symmetry_equiv_pos_site_id
 _symmetry_equiv_pos_as_xyz
  1  'x, y, z'
loop_
 _atom_site_type_symbol
 _atom_site_label
 _atom_site_symmetry_multiplicity
 _atom_site_fract_x
 _atom_site_fract_y
 _atom_site_fract_z
 _atom_site_occupancy
  Na  Na0  1  0.000000  0.000000  0.500000  1
  Na  Na1  1  0.000000  0.000000  0.000000  1
  Er  Er2  1  0.000000  0.000000  0.250000  1
  Er  Er3  1  0.000000  0.000000  0.750000  1
  Sb  Sb4  1  0.333333  0.666667  0.380494  1
  Sb  Sb5  1  0.666667  0.333333  0.619506  1
  Sb  Sb6  1  0.666667  0.333333  0.880494  1
  Sb  Sb7  1  0.333333  0.666667  0.119506  1
  Au  Au8  1  0.666667  0.333333  0.336141  1
  Au  Au9  1  0.333333  0.666667  0.663859  1
  Au  Au10  1  0.333333  0.666667  0.836141  1
  Au  Au11  1  0.666667  0.333333  0.163859  1
