# generated using pymatgen
data_LaNd(AlAu)6
_symmetry_space_group_name_H-M   'P 1'
_cell_length_a   4.42852200
_cell_length_b   7.20097600
_cell_length_c   8.64110000
_cell_angle_alpha   90.00000000
_cell_angle_beta   90.00000000
_cell_angle_gamma   90.00000000
_symmetry_Int_Tables_number   1
_chemical_formula_structural   LaNd(AlAu)6
_chemical_formula_sum   'La1 Nd1 Al6 Au6'
_cell_volume   275.56191936
_cell_formula_units_Z   1
loop_
 _symmetry_equiv_pos_site_id
 _symmetry_equiv_pos_as_xyz
  1  'x, y, z'
loop_
 _atom_site_type_symbol
 _atom_site_label
 _atom_site_symmetry_multiplicity
 _atom_site_fract_x
 _atom_site_fract_y
 _atom_site_fract_z
 _atom_site_occupancy
  La  La0  1  0.000000  0.500000  0.260732  1
  Nd  Nd1  1  0.500000  0.000000  0.740674  1
  Al  Al2  1  0.000000  0.304876  0.895542  1
  Al  Al3  1  0.500000  0.194889  0.103528  1
  Al  Al4  1  0.000000  0.695124  0.895542  1
  Al  Al5  1  0.000000  0.000000  0.374954  1
  Al  Al6  1  0.500000  0.805111  0.103528  1
  Al  Al7  1  0.500000  0.500000  0.623555  1
  Au  Au8  1  0.000000  0.725958  0.603122  1
  Au  Au9  1  0.500000  0.780673  0.398875  1
  Au  Au10  1  0.500000  0.500000  0.940671  1
  Au  Au11  1  0.000000  0.000000  0.057278  1
  Au  Au12  1  0.500000  0.219327  0.398875  1
  Au  Au13  1  0.000000  0.274042  0.603122  1
