# generated using pymatgen
data_Y5Lu3Tc2(B12Os)2
_symmetry_space_group_name_H-M   'P 1'
_cell_length_a   3.64395700
_cell_length_b   9.11224005
_cell_length_c   11.50714021
_cell_angle_alpha   89.95054922
_cell_angle_beta   90.00000000
_cell_angle_gamma   90.00000000
_symmetry_Int_Tables_number   1
_chemical_formula_structural   Y5Lu3Tc2(B12Os)2
_chemical_formula_sum   'Y5 Lu3 Tc2 B24 Os2'
_cell_volume   382.08997126
_cell_formula_units_Z   1
loop_
 _symmetry_equiv_pos_site_id
 _symmetry_equiv_pos_as_xyz
  1  'x, y, z'
loop_
 _atom_site_type_symbol
 _atom_site_label
 _atom_site_symmetry_multiplicity
 _atom_site_fract_x
 _atom_site_fract_y
 _atom_site_fract_z
 _atom_site_occupancy
  Y  Y0  1  0.000000  0.324355  0.415439  1
  Y  Y1  1  0.000000  0.675466  0.585174  1
  Y  Y2  1  0.000000  0.820037  0.086855  1
  Y  Y3  1  0.000000  0.179971  0.912586  1
  Y  Y4  1  0.000000  0.942126  0.371731  1
  Lu  Lu5  1  0.000000  0.058521  0.629870  1
  Lu  Lu6  1  0.000000  0.444065  0.129321  1
  Lu  Lu7  1  0.000000  0.556039  0.870158  1
  Tc  Tc8  1  0.000000  0.637366  0.319145  1
  Tc  Tc9  1  0.000000  0.360997  0.681053  1
  B  B10  1  0.500000  0.552518  0.432567  1
  B  B11  1  0.500000  0.446281  0.567755  1
  B  B12  1  0.500000  0.054495  0.066736  1
  B  B13  1  0.500000  0.945884  0.932534  1
  B  B14  1  0.500000  0.747762  0.418632  1
  B  B15  1  0.500000  0.250293  0.581929  1
  B  B16  1  0.500000  0.250910  0.081310  1
  B  B17  1  0.500000  0.749578  0.918241  1
  B  B18  1  0.500000  0.790501  0.264717  1
  B  B19  1  0.500000  0.207949  0.734857  1
  B  B20  1  0.500000  0.292309  0.233767  1
  B  B21  1  0.500000  0.708422  0.765902  1
  B  B22  1  0.500000  0.629529  0.184223  1
  B  B23  1  0.500000  0.369952  0.815452  1
  B  B24  1  0.500000  0.131551  0.313790  1
  B  B25  1  0.500000  0.870049  0.685806  1
  B  B26  1  0.500000  0.983349  0.211501  1
  B  B27  1  0.500000  0.017476  0.787445  1
  B  B28  1  0.500000  0.481717  0.286432  1
  B  B29  1  0.500000  0.517857  0.713367  1
  B  B30  1  0.500000  0.600150  0.027180  1
  B  B31  1  0.500000  0.399885  0.972315  1
  B  B32  1  0.500000  0.102924  0.473120  1
  B  B33  1  0.500000  0.898616  0.530038  1
  Os  Os34  1  0.000000  0.139499  0.178081  1
  Os  Os35  1  0.000000  0.861604  0.820970  1
