# generated using pymatgen
data_Cd2Hg(ClO)2
_symmetry_space_group_name_H-M   'P 1'
_cell_length_a   6.49870216
_cell_length_b   6.49870175
_cell_length_c   6.62556900
_cell_angle_alpha   114.63022102
_cell_angle_beta   114.63021938
_cell_angle_gamma   33.36539080
_symmetry_Int_Tables_number   1
_chemical_formula_structural   Cd2Hg(ClO)2
_chemical_formula_sum   'Cd2 Hg1 Cl2 O2'
_cell_volume   138.56502873
_cell_formula_units_Z   1
loop_
 _symmetry_equiv_pos_site_id
 _symmetry_equiv_pos_as_xyz
  1  'x, y, z'
loop_
 _atom_site_type_symbol
 _atom_site_label
 _atom_site_symmetry_multiplicity
 _atom_site_fract_x
 _atom_site_fract_y
 _atom_site_fract_z
 _atom_site_occupancy
  Cd  Cd0  1  0.768906  0.768906  0.239017  1
  Cd  Cd1  1  0.231094  0.231094  0.760983  1
  Hg  Hg2  1  0.000000  0.000000  0.000000  1
  Cl  Cl3  1  0.616104  0.616104  0.444322  1
  Cl  Cl4  1  0.383897  0.383897  0.555678  1
  O  O5  1  0.170376  0.170376  0.038472  1
  O  O6  1  0.829623  0.829623  0.961528  1
