# generated using pymatgen
data_Tb8Ho6Lu2Cd3InPt4
_symmetry_space_group_name_H-M   'P 1'
_cell_length_a   9.66346898
_cell_length_b   9.65147550
_cell_length_c   9.67589500
_cell_angle_alpha   59.99835309
_cell_angle_beta   59.87543109
_cell_angle_gamma   60.12619847
_symmetry_Int_Tables_number   1
_chemical_formula_structural   Tb8Ho6Lu2Cd3InPt4
_chemical_formula_sum   'Tb8 Ho6 Lu2 Cd3 In1 Pt4'
_cell_volume   638.11462899
_cell_formula_units_Z   1
loop_
 _symmetry_equiv_pos_site_id
 _symmetry_equiv_pos_as_xyz
  1  'x, y, z'
loop_
 _atom_site_type_symbol
 _atom_site_label
 _atom_site_symmetry_multiplicity
 _atom_site_fract_x
 _atom_site_fract_y
 _atom_site_fract_z
 _atom_site_occupancy
  Tb  Tb0  1  0.187979  0.187941  0.811964  1
  Tb  Tb1  1  0.811654  0.811633  0.188386  1
  Tb  Tb2  1  0.936664  0.563876  0.563906  1
  Tb  Tb3  1  0.564099  0.936263  0.936111  1
  Tb  Tb4  1  0.564037  0.936473  0.564094  1
  Tb  Tb5  1  0.935972  0.564329  0.935982  1
  Tb  Tb6  1  0.563572  0.563602  0.937005  1
  Tb  Tb7  1  0.936319  0.936455  0.563898  1
  Ho  Ho8  1  0.351619  0.352553  0.351567  1
  Ho  Ho9  1  0.352403  0.351629  0.944430  1
  Ho  Ho10  1  0.351553  0.944374  0.351588  1
  Ho  Ho11  1  0.944413  0.351571  0.352423  1
  Ho  Ho12  1  0.810808  0.189147  0.189203  1
  Ho  Ho13  1  0.189608  0.810479  0.810489  1
  Lu  Lu14  1  0.189660  0.810302  0.189664  1
  Lu  Lu15  1  0.809990  0.190139  0.809993  1
  Cd  Cd16  1  0.580867  0.580973  0.255480  1
  Cd  Cd17  1  0.582018  0.255366  0.581070  1
  Cd  Cd18  1  0.255420  0.581938  0.580883  1
  In  In19  1  0.581396  0.580902  0.581983  1
  Pt  Pt20  1  0.143033  0.140227  0.145648  1
  Pt  Pt21  1  0.140229  0.143049  0.571008  1
  Pt  Pt22  1  0.145710  0.571017  0.143004  1
  Pt  Pt23  1  0.570976  0.145763  0.140222  1
