# generated using pymatgen
data_Sm2Er3Tm(Co3P2)6
_symmetry_space_group_name_H-M   'P 1'
_cell_length_a   3.69609400
_cell_length_b   10.52282100
_cell_length_c   12.18200600
_cell_angle_alpha   89.99849137
_cell_angle_beta   90.00000000
_cell_angle_gamma   90.00000000
_symmetry_Int_Tables_number   1
_chemical_formula_structural   Sm2Er3Tm(Co3P2)6
_chemical_formula_sum   'Sm2 Er3 Tm1 Co18 P12'
_cell_volume   473.79884708
_cell_formula_units_Z   1
loop_
 _symmetry_equiv_pos_site_id
 _symmetry_equiv_pos_as_xyz
  1  'x, y, z'
loop_
 _atom_site_type_symbol
 _atom_site_label
 _atom_site_symmetry_multiplicity
 _atom_site_fract_x
 _atom_site_fract_y
 _atom_site_fract_z
 _atom_site_occupancy
  Sm  Sm0  1  0.000000  0.499997  0.522448  1
  Sm  Sm1  1  0.500000  0.999970  0.477643  1
  Er  Er2  1  0.500000  0.817734  0.205067  1
  Er  Er3  1  0.500000  0.182265  0.205123  1
  Er  Er4  1  0.000000  0.682154  0.794860  1
  Tm  Tm5  1  0.000000  0.317704  0.794848  1
  Co  Co6  1  0.500000  0.499975  0.157405  1
  Co  Co7  1  0.000000  0.000030  0.842555  1
  Co  Co8  1  0.500000  0.499653  0.706018  1
  Co  Co9  1  0.000000  0.000045  0.294085  1
  Co  Co10  1  0.000000  0.499865  0.986416  1
  Co  Co11  1  0.500000  0.000128  0.013328  1
  Co  Co12  1  0.500000  0.333183  0.994648  1
  Co  Co13  1  0.500000  0.666690  0.994790  1
  Co  Co14  1  0.000000  0.166928  0.004964  1
  Co  Co15  1  0.000000  0.833218  0.005107  1
  Co  Co16  1  0.500000  0.296855  0.429571  1
  Co  Co17  1  0.500000  0.703123  0.429458  1
  Co  Co18  1  0.000000  0.203215  0.570792  1
  Co  Co19  1  0.000000  0.796852  0.570573  1
  Co  Co20  1  0.500000  0.879148  0.711801  1
  Co  Co21  1  0.500000  0.121180  0.711985  1
  Co  Co22  1  0.000000  0.620914  0.288201  1
  Co  Co23  1  0.000000  0.379091  0.288247  1
  P  P24  1  0.500000  0.499722  0.883146  1
  P  P25  1  0.000000  0.000054  0.116623  1
  P  P26  1  0.500000  0.500003  0.341366  1
  P  P27  1  0.000000  0.999995  0.658675  1
  P  P28  1  0.500000  0.308952  0.617904  1
  P  P29  1  0.500000  0.691063  0.617537  1
  P  P30  1  0.000000  0.191172  0.382566  1
  P  P31  1  0.000000  0.808872  0.382478  1
  P  P32  1  0.500000  0.846515  0.893429  1
  P  P33  1  0.500000  0.153768  0.893241  1
  P  P34  1  0.000000  0.653404  0.106506  1
  P  P35  1  0.000000  0.346562  0.106596  1
