# generated using pymatgen
data_Tb4MoRu7
_symmetry_space_group_name_H-M   'P 1'
_cell_length_a   5.20315623
_cell_length_b   5.20315588
_cell_length_c   9.07007700
_cell_angle_alpha   90.00000000
_cell_angle_beta   90.00000000
_cell_angle_gamma   116.53520341
_symmetry_Int_Tables_number   1
_chemical_formula_structural   Tb4MoRu7
_chemical_formula_sum   'Tb4 Mo1 Ru7'
_cell_volume   219.68617029
_cell_formula_units_Z   1
loop_
 _symmetry_equiv_pos_site_id
 _symmetry_equiv_pos_as_xyz
  1  'x, y, z'
loop_
 _atom_site_type_symbol
 _atom_site_label
 _atom_site_symmetry_multiplicity
 _atom_site_fract_x
 _atom_site_fract_y
 _atom_site_fract_z
 _atom_site_occupancy
  Tb  Tb0  1  0.327703  0.672297  0.436908  1
  Tb  Tb1  1  0.664995  0.335005  0.568370  1
  Tb  Tb2  1  0.664995  0.335005  0.931630  1
  Tb  Tb3  1  0.327703  0.672297  0.063092  1
  Mo  Mo4  1  0.839625  0.160375  0.250000  1
  Ru  Ru5  1  0.990472  0.009528  0.501582  1
  Ru  Ru6  1  0.990472  0.009528  0.998418  1
  Ru  Ru7  1  0.829387  0.649880  0.250000  1
  Ru  Ru8  1  0.350120  0.170613  0.250000  1
  Ru  Ru9  1  0.178109  0.821891  0.750000  1
  Ru  Ru10  1  0.167443  0.331023  0.750000  1
  Ru  Ru11  1  0.668977  0.832557  0.750000  1
