# generated using pymatgen
data_LiTb4Co17(TcP6)2
_symmetry_space_group_name_H-M   'P 1'
_cell_length_a   3.69158200
_cell_length_b   10.34599701
_cell_length_c   11.80124502
_cell_angle_alpha   90.00609767
_cell_angle_beta   90.00000000
_cell_angle_gamma   90.00000000
_symmetry_Int_Tables_number   1
_chemical_formula_structural   LiTb4Co17(TcP6)2
_chemical_formula_sum   'Li1 Tb4 Co17 Tc2 P12'
_cell_volume   450.72608544
_cell_formula_units_Z   1
loop_
 _symmetry_equiv_pos_site_id
 _symmetry_equiv_pos_as_xyz
  1  'x, y, z'
loop_
 _atom_site_type_symbol
 _atom_site_label
 _atom_site_symmetry_multiplicity
 _atom_site_fract_x
 _atom_site_fract_y
 _atom_site_fract_z
 _atom_site_occupancy
  Li  Li0  1  0.750000  0.296409  0.009289  1
  Tb  Tb1  1  0.250000  0.582923  0.702945  1
  Tb  Tb2  1  0.250000  0.917753  0.202888  1
  Tb  Tb3  1  0.750000  0.415320  0.296048  1
  Tb  Tb4  1  0.750000  0.083679  0.795388  1
  Co  Co5  1  0.750000  0.214535  0.509417  1
  Co  Co6  1  0.250000  0.406296  0.487793  1
  Co  Co7  1  0.250000  0.091461  0.988834  1
  Co  Co8  1  0.750000  0.592630  0.510332  1
  Co  Co9  1  0.750000  0.905807  0.010796  1
  Co  Co10  1  0.250000  0.218882  0.179203  1
  Co  Co11  1  0.250000  0.280040  0.673540  1
  Co  Co12  1  0.750000  0.777780  0.823183  1
  Co  Co13  1  0.750000  0.721505  0.323055  1
  Co  Co14  1  0.250000  0.885697  0.701403  1
  Co  Co15  1  0.250000  0.614939  0.201561  1
  Co  Co16  1  0.750000  0.115213  0.302671  1
  Co  Co17  1  0.750000  0.382051  0.799545  1
  Co  Co18  1  0.250000  0.464071  0.932571  1
  Co  Co19  1  0.250000  0.035047  0.433558  1
  Co  Co20  1  0.750000  0.533314  0.069176  1
  Co  Co21  1  0.750000  0.967411  0.568573  1
  Tc  Tc22  1  0.250000  0.708569  0.989783  1
  Tc  Tc23  1  0.250000  0.790027  0.489111  1
  P  P24  1  0.250000  0.418257  0.114202  1
  P  P25  1  0.250000  0.082703  0.612220  1
  P  P26  1  0.750000  0.576942  0.887292  1
  P  P27  1  0.750000  0.921138  0.387506  1
  P  P28  1  0.250000  0.270434  0.863703  1
  P  P29  1  0.250000  0.229157  0.368772  1
  P  P30  1  0.750000  0.729251  0.132823  1
  P  P31  1  0.750000  0.771535  0.633628  1
  P  P32  1  0.250000  0.596372  0.391289  1
  P  P33  1  0.250000  0.902936  0.892212  1
  P  P34  1  0.750000  0.397520  0.606903  1
  P  P35  1  0.750000  0.102398  0.108780  1
