# generated using pymatgen
data_Sr4HoU7N16
_symmetry_space_group_name_H-M   'P 1'
_cell_length_a   10.15915035
_cell_length_b   3.52407300
_cell_length_c   11.90082654
_cell_angle_alpha   90.00000000
_cell_angle_beta   89.90277470
_cell_angle_gamma   90.00000000
_symmetry_Int_Tables_number   1
_chemical_formula_structural   Sr4HoU7N16
_chemical_formula_sum   'Sr4 Ho1 U7 N16'
_cell_volume   426.06786874
_cell_formula_units_Z   1
loop_
 _symmetry_equiv_pos_site_id
 _symmetry_equiv_pos_as_xyz
  1  'x, y, z'
loop_
 _atom_site_type_symbol
 _atom_site_label
 _atom_site_symmetry_multiplicity
 _atom_site_fract_x
 _atom_site_fract_y
 _atom_site_fract_z
 _atom_site_occupancy
  Sr  Sr0  1  0.754974  0.500001  0.142980  1
  Sr  Sr1  1  0.248572  0.500001  0.349240  1
  Sr  Sr2  1  0.750952  0.000000  0.648292  1
  Sr  Sr3  1  0.252770  0.000000  0.852440  1
  Ho  Ho4  1  0.083582  0.500001  0.110037  1
  U  U5  1  0.421125  0.000000  0.113598  1
  U  U6  1  0.923449  0.000000  0.388035  1
  U  U7  1  0.577555  0.500001  0.385392  1
  U  U8  1  0.422529  0.000000  0.613359  1
  U  U9  1  0.076434  0.500001  0.613476  1
  U  U10  1  0.575335  0.500001  0.889219  1
  U  U11  1  0.928506  0.000000  0.890641  1
  N  N12  1  0.604981  0.000000  0.010552  1
  N  N13  1  0.925477  0.000000  0.062247  1
  N  N14  1  0.227603  0.000000  0.172565  1
  N  N15  1  0.486722  0.500001  0.215107  1
  N  N16  1  0.977717  0.500001  0.290409  1
  N  N17  1  0.708069  0.000000  0.337464  1
  N  N18  1  0.443480  0.000000  0.425094  1
  N  N19  1  0.114814  0.000000  0.496125  1
  N  N20  1  0.886176  0.500001  0.508749  1
  N  N21  1  0.558017  0.500001  0.574713  1
  N  N22  1  0.290328  0.500001  0.665878  1
  N  N23  1  0.009430  0.000000  0.713425  1
  N  N24  1  0.516171  0.000000  0.785768  1
  N  N25  1  0.790537  0.500001  0.842306  1
  N  N26  1  0.059099  0.500001  0.913344  1
  N  N27  1  0.385609  0.500001  0.989555  1
