# generated using pymatgen
data_TaTlCl6
_symmetry_space_group_name_H-M   'P 1'
_cell_length_a   7.31976252
_cell_length_b   14.41327358
_cell_length_c   12.51663200
_cell_angle_alpha   29.72559756
_cell_angle_beta   54.21092672
_cell_angle_gamma   59.47935416
_symmetry_Int_Tables_number   1
_chemical_formula_structural   TaTlCl6
_chemical_formula_sum   'Ta2 Tl2 Cl12'
_cell_volume   531.14032395
_cell_formula_units_Z   2
loop_
 _symmetry_equiv_pos_site_id
 _symmetry_equiv_pos_as_xyz
  1  'x, y, z'
loop_
 _atom_site_type_symbol
 _atom_site_label
 _atom_site_symmetry_multiplicity
 _atom_site_fract_x
 _atom_site_fract_y
 _atom_site_fract_z
 _atom_site_occupancy
  Ta  Ta0  1  0.008792  0.000000  0.002677  1
  Ta  Ta1  1  0.985856  0.500000  0.002677  1
  Tl  Tl2  1  0.291885  0.000000  0.280375  1
  Tl  Tl3  1  0.147365  0.500000  0.280375  1
  Cl  Cl4  1  0.222863  0.269010  0.236493  1
  Cl  Cl5  1  0.767073  0.000000  0.236932  1
  Cl  Cl6  1  0.229328  0.236395  0.766023  1
  Cl  Cl7  1  0.229328  0.763605  0.238812  1
  Cl  Cl8  1  0.765839  0.263605  0.238812  1
  Cl  Cl9  1  0.230011  0.500000  0.770276  1
  Cl  Cl10  1  0.759061  0.500000  0.236932  1
  Cl  Cl11  1  0.222863  0.730990  0.774514  1
  Cl  Cl12  1  0.766130  0.230990  0.774514  1
  Cl  Cl13  1  0.766130  0.769010  0.236493  1
  Cl  Cl14  1  0.229439  0.000000  0.770276  1
  Cl  Cl15  1  0.765839  0.736395  0.766023  1
