# generated using pymatgen
data_Tm2Be23Au3
_symmetry_space_group_name_H-M   'P 1'
_cell_length_a   7.37145900
_cell_length_b   7.37142225
_cell_length_c   7.55405518
_cell_angle_alpha   119.20287271
_cell_angle_beta   89.99992791
_cell_angle_gamma   119.99997002
_symmetry_Int_Tables_number   1
_chemical_formula_structural   Tm2Be23Au3
_chemical_formula_sum   'Tm2 Be23 Au3'
_cell_volume   293.69680876
_cell_formula_units_Z   1
loop_
 _symmetry_equiv_pos_site_id
 _symmetry_equiv_pos_as_xyz
  1  'x, y, z'
loop_
 _atom_site_type_symbol
 _atom_site_label
 _atom_site_symmetry_multiplicity
 _atom_site_fract_x
 _atom_site_fract_y
 _atom_site_fract_z
 _atom_site_occupancy
  Tm  Tm0  1  0.758739  0.517478  0.276214  1
  Tm  Tm1  1  0.244907  0.489826  0.734723  1
  Be  Be2  1  0.997010  0.994024  0.991041  1
  Be  Be3  1  0.577939  0.801512  0.237665  1
  Be  Be4  1  0.436152  0.014084  0.237656  1
  Be  Be5  1  0.223574  0.659736  0.237661  1
  Be  Be6  1  0.941983  0.015557  0.308656  1
  Be  Be7  1  0.293100  0.235083  0.308653  1
  Be  Be8  1  0.073578  0.366675  0.308656  1
  Be  Be9  1  0.788058  0.227240  0.440637  1
  Be  Be10  1  0.213403  0.001458  0.440644  1
  Be  Be11  1  0.439185  0.652592  0.440646  1
  Be  Be12  1  0.501060  0.002118  0.503173  1
  Be  Be13  1  0.789946  0.002918  0.566286  1
  Be  Be14  1  0.563391  0.353332  0.566299  1
  Be  Be15  1  0.212967  0.776351  0.566297  1
  Be  Be16  1  0.055662  0.989831  0.695187  1
  Be  Be17  1  0.934170  0.639529  0.695197  1
  Be  Be18  1  0.705356  0.761026  0.695190  1
  Be  Be19  1  0.562100  0.989571  0.764597  1
  Be  Be20  1  0.427480  0.202501  0.764593  1
  Be  Be21  1  0.775023  0.337119  0.764601  1
  Be  Be22  1  0.943256  0.252045  0.930019  1
  Be  Be23  1  0.677967  0.621224  0.930018  1
  Be  Be24  1  0.308795  0.986763  0.930021  1
  Au  Au25  1  0.692076  0.009631  0.055216  1
  Au  Au26  1  0.045565  0.737649  0.055232  1
  Au  Au27  1  0.317556  0.363132  0.055220  1
