# generated using pymatgen
data_YHo19(Cd3Os)2
_symmetry_space_group_name_H-M   'P 1'
_cell_length_a   9.55689000
_cell_length_b   9.55660191
_cell_length_c   9.84537700
_cell_angle_alpha   90.00000000
_cell_angle_beta   90.00000000
_cell_angle_gamma   119.99900511
_symmetry_Int_Tables_number   1
_chemical_formula_structural   YHo19(Cd3Os)2
_chemical_formula_sum   'Y1 Ho19 Cd6 Os2'
_cell_volume   778.73092008
_cell_formula_units_Z   1
loop_
 _symmetry_equiv_pos_site_id
 _symmetry_equiv_pos_as_xyz
  1  'x, y, z'
loop_
 _atom_site_type_symbol
 _atom_site_label
 _atom_site_symmetry_multiplicity
 _atom_site_fract_x
 _atom_site_fract_y
 _atom_site_fract_z
 _atom_site_occupancy
  Y  Y0  1  0.080451  0.540226  0.750000  1
  Ho  Ho1  1  0.999950  0.999975  0.500032  1
  Ho  Ho2  1  0.999950  0.999975  0.999968  1
  Ho  Ho3  1  0.209826  0.790434  0.440367  1
  Ho  Ho4  1  0.209826  0.419392  0.440367  1
  Ho  Ho5  1  0.580531  0.790265  0.440512  1
  Ho  Ho6  1  0.790029  0.209559  0.559473  1
  Ho  Ho7  1  0.790029  0.580470  0.559473  1
  Ho  Ho8  1  0.419507  0.209753  0.559553  1
  Ho  Ho9  1  0.790029  0.209559  0.940527  1
  Ho  Ho10  1  0.790029  0.580470  0.940527  1
  Ho  Ho11  1  0.419507  0.209753  0.940447  1
  Ho  Ho12  1  0.209826  0.790434  0.059633  1
  Ho  Ho13  1  0.209826  0.419392  0.059633  1
  Ho  Ho14  1  0.580531  0.790265  0.059488  1
  Ho  Ho15  1  0.540111  0.459917  0.250000  1
  Ho  Ho16  1  0.540111  0.080194  0.250000  1
  Ho  Ho17  1  0.919807  0.459904  0.250000  1
  Ho  Ho18  1  0.460118  0.540049  0.750000  1
  Ho  Ho19  1  0.460118  0.920069  0.750000  1
  Cd  Cd20  1  0.885428  0.114540  0.250000  1
  Cd  Cd21  1  0.885428  0.770889  0.250000  1
  Cd  Cd22  1  0.229122  0.114562  0.250000  1
  Cd  Cd23  1  0.114612  0.885674  0.750000  1
  Cd  Cd24  1  0.114612  0.228936  0.750000  1
  Cd  Cd25  1  0.770845  0.885421  0.750000  1
  Os  Os26  1  0.333348  0.666674  0.250000  1
  Os  Os27  1  0.666495  0.333247  0.750000  1
