# generated using pymatgen
data_YbSm6CoI12
_symmetry_space_group_name_H-M   'P 1'
_cell_length_a   9.91443873
_cell_length_b   9.91443883
_cell_length_c   9.91443814
_cell_angle_alpha   107.06834937
_cell_angle_beta   107.06834429
_cell_angle_gamma   107.06834762
_symmetry_Int_Tables_number   1
_chemical_formula_structural   YbSm6CoI12
_chemical_formula_sum   'Yb1 Sm6 Co1 I12'
_cell_volume   810.09707622
_cell_formula_units_Z   1
loop_
 _symmetry_equiv_pos_site_id
 _symmetry_equiv_pos_as_xyz
  1  'x, y, z'
loop_
 _atom_site_type_symbol
 _atom_site_label
 _atom_site_symmetry_multiplicity
 _atom_site_fract_x
 _atom_site_fract_y
 _atom_site_fract_z
 _atom_site_occupancy
  Yb  Yb0  1  0.500000  0.500000  0.500000  1
  Sm  Sm1  1  0.023020  0.095207  0.295668  1
  Sm  Sm2  1  0.095207  0.295668  0.023020  1
  Sm  Sm3  1  0.295668  0.023020  0.095207  1
  Sm  Sm4  1  0.976980  0.904793  0.704332  1
  Sm  Sm5  1  0.904793  0.704332  0.976980  1
  Sm  Sm6  1  0.704332  0.976980  0.904793  1
  Co  Co7  1  0.000000  0.000000  0.000000  1
  I  I8  1  0.154420  0.458466  0.380466  1
  I  I9  1  0.458466  0.380466  0.154420  1
  I  I10  1  0.380466  0.154420  0.458466  1
  I  I11  1  0.845580  0.541534  0.619534  1
  I  I12  1  0.541534  0.619534  0.845580  1
  I  I13  1  0.619534  0.845580  0.541534  1
  I  I14  1  0.679772  0.072365  0.224911  1
  I  I15  1  0.072365  0.224911  0.679772  1
  I  I16  1  0.224911  0.679772  0.072365  1
  I  I17  1  0.320228  0.927635  0.775089  1
  I  I18  1  0.927635  0.775089  0.320228  1
  I  I19  1  0.775089  0.320228  0.927635  1
