# generated using pymatgen
data_Nd4GaPd11Pt
_symmetry_space_group_name_H-M   'P 1'
_cell_length_a   7.45484888
_cell_length_b   7.45484818
_cell_length_c   7.45484809
_cell_angle_alpha   108.59905310
_cell_angle_beta   109.90905087
_cell_angle_gamma   109.90906134
_symmetry_Int_Tables_number   1
_chemical_formula_structural   Nd4GaPd11Pt
_chemical_formula_sum   'Nd4 Ga1 Pd11 Pt1'
_cell_volume   318.87408068
_cell_formula_units_Z   1
loop_
 _symmetry_equiv_pos_site_id
 _symmetry_equiv_pos_as_xyz
  1  'x, y, z'
loop_
 _atom_site_type_symbol
 _atom_site_label
 _atom_site_symmetry_multiplicity
 _atom_site_fract_x
 _atom_site_fract_y
 _atom_site_fract_z
 _atom_site_occupancy
  Nd  Nd0  1  0.509116  0.978351  0.978351  1
  Nd  Nd1  1  0.000000  0.978351  0.469235  1
  Nd  Nd2  1  0.490884  0.469235  0.469235  1
  Nd  Nd3  1  0.000000  0.469235  0.978351  1
  Ga  Ga4  1  0.000000  0.450790  0.450790  1
  Pd  Pd5  1  0.248552  0.964067  0.212619  1
  Pd  Pd6  1  0.000000  0.738406  0.738406  1
  Pd  Pd7  1  0.288127  0.770299  0.482172  1
  Pd  Pd8  1  0.711873  0.482172  0.194044  1
  Pd  Pd9  1  0.500000  0.230067  0.730067  1
  Pd  Pd10  1  0.711873  0.194044  0.482172  1
  Pd  Pd11  1  0.751448  0.715514  0.964067  1
  Pd  Pd12  1  0.751448  0.964067  0.715514  1
  Pd  Pd13  1  0.288127  0.482172  0.770299  1
  Pd  Pd14  1  0.500000  0.730067  0.230067  1
  Pd  Pd15  1  0.248552  0.212619  0.964067  1
  Pt  Pt16  1  0.000000  0.170543  0.170543  1
