# generated using pymatgen
data_Ac3(MgBi3)2
_symmetry_space_group_name_H-M   'P 1'
_cell_length_a   4.56323700
_cell_length_b   11.61020900
_cell_length_c   14.31184400
_cell_angle_alpha   90.00000000
_cell_angle_beta   90.00000000
_cell_angle_gamma   90.00000000
_symmetry_Int_Tables_number   1
_chemical_formula_structural   Ac3(MgBi3)2
_chemical_formula_sum   'Ac6 Mg4 Bi12'
_cell_volume   758.24343132
_cell_formula_units_Z   2
loop_
 _symmetry_equiv_pos_site_id
 _symmetry_equiv_pos_as_xyz
  1  'x, y, z'
loop_
 _atom_site_type_symbol
 _atom_site_label
 _atom_site_symmetry_multiplicity
 _atom_site_fract_x
 _atom_site_fract_y
 _atom_site_fract_z
 _atom_site_occupancy
  Ac  Ac0  1  0.750000  0.259463  0.750000  1
  Ac  Ac1  1  0.750000  0.270866  0.410217  1
  Ac  Ac2  1  0.250000  0.729134  0.910217  1
  Ac  Ac3  1  0.250000  0.729134  0.589783  1
  Ac  Ac4  1  0.250000  0.740537  0.250000  1
  Ac  Ac5  1  0.750000  0.270866  0.089783  1
  Mg  Mg6  1  0.250000  0.003358  0.091367  1
  Mg  Mg7  1  0.250000  0.003358  0.408633  1
  Mg  Mg8  1  0.750000  0.996642  0.591367  1
  Mg  Mg9  1  0.750000  0.996642  0.908633  1
  Bi  Bi10  1  0.750000  0.505271  0.250000  1
  Bi  Bi11  1  0.750000  0.492305  0.916525  1
  Bi  Bi12  1  0.750000  0.835709  0.750000  1
  Bi  Bi13  1  0.750000  0.836685  0.421274  1
  Bi  Bi14  1  0.250000  0.163315  0.921274  1
  Bi  Bi15  1  0.250000  0.163315  0.578726  1
  Bi  Bi16  1  0.250000  0.164291  0.250000  1
  Bi  Bi17  1  0.250000  0.507695  0.083475  1
  Bi  Bi18  1  0.250000  0.494729  0.750000  1
  Bi  Bi19  1  0.250000  0.507695  0.416525  1
  Bi  Bi20  1  0.750000  0.492305  0.583475  1
  Bi  Bi21  1  0.750000  0.836685  0.078726  1
