# generated using pymatgen
data_Nd4Th2VCo17P12
_symmetry_space_group_name_H-M   'P 1'
_cell_length_a   3.77427000
_cell_length_b   10.68158700
_cell_length_c   12.38635700
_cell_angle_alpha   90.00000000
_cell_angle_beta   90.00000000
_cell_angle_gamma   90.00000000
_symmetry_Int_Tables_number   1
_chemical_formula_structural   Nd4Th2VCo17P12
_chemical_formula_sum   'Nd4 Th2 V1 Co17 P12'
_cell_volume   499.35837756
_cell_formula_units_Z   1
loop_
 _symmetry_equiv_pos_site_id
 _symmetry_equiv_pos_as_xyz
  1  'x, y, z'
loop_
 _atom_site_type_symbol
 _atom_site_label
 _atom_site_symmetry_multiplicity
 _atom_site_fract_x
 _atom_site_fract_y
 _atom_site_fract_z
 _atom_site_occupancy
  Nd  Nd0  1  0.500000  0.816759  0.205451  1
  Nd  Nd1  1  0.500000  0.183241  0.205451  1
  Nd  Nd2  1  0.000000  0.684003  0.796797  1
  Nd  Nd3  1  0.000000  0.315997  0.796797  1
  Th  Th4  1  0.000000  0.500000  0.525783  1
  Th  Th5  1  0.500000  0.000000  0.476484  1
  V  V6  1  0.500000  0.500000  0.150797  1
  Co  Co7  1  0.000000  0.000000  0.842715  1
  Co  Co8  1  0.500000  0.500000  0.699215  1
  Co  Co9  1  0.000000  0.000000  0.299880  1
  Co  Co10  1  0.000000  0.500000  0.987090  1
  Co  Co11  1  0.500000  0.000000  0.013832  1
  Co  Co12  1  0.500000  0.332511  0.994134  1
  Co  Co13  1  0.500000  0.667489  0.994134  1
  Co  Co14  1  0.000000  0.165682  0.004730  1
  Co  Co15  1  0.000000  0.834318  0.004730  1
  Co  Co16  1  0.500000  0.298502  0.430798  1
  Co  Co17  1  0.500000  0.701498  0.430798  1
  Co  Co18  1  0.000000  0.201245  0.568883  1
  Co  Co19  1  0.000000  0.798755  0.568883  1
  Co  Co20  1  0.500000  0.882155  0.710782  1
  Co  Co21  1  0.500000  0.117845  0.710782  1
  Co  Co22  1  0.000000  0.618472  0.290152  1
  Co  Co23  1  0.000000  0.381528  0.290152  1
  P  P24  1  0.500000  0.500000  0.884416  1
  P  P25  1  0.000000  0.000000  0.114677  1
  P  P26  1  0.500000  0.500000  0.341073  1
  P  P27  1  0.000000  0.000000  0.661949  1
  P  P28  1  0.500000  0.304124  0.615562  1
  P  P29  1  0.500000  0.695876  0.615562  1
  P  P30  1  0.000000  0.195287  0.385390  1
  P  P31  1  0.000000  0.804713  0.385390  1
  P  P32  1  0.500000  0.850474  0.894897  1
  P  P33  1  0.500000  0.149526  0.894897  1
  P  P34  1  0.000000  0.653288  0.103467  1
  P  P35  1  0.000000  0.346712  0.103467  1
