# generated using pymatgen
data_CsTb8Ho2(C2I9)2
_symmetry_space_group_name_H-M   'P 1'
_cell_length_a   11.47612253
_cell_length_b   11.49437042
_cell_length_c   11.52047259
_cell_angle_alpha   113.20533068
_cell_angle_beta   86.81077179
_cell_angle_gamma   119.91057135
_symmetry_Int_Tables_number   1
_chemical_formula_structural   CsTb8Ho2(C2I9)2
_chemical_formula_sum   'Cs1 Tb8 Ho2 C4 I18'
_cell_volume   1191.62246111
_cell_formula_units_Z   1
loop_
 _symmetry_equiv_pos_site_id
 _symmetry_equiv_pos_as_xyz
  1  'x, y, z'
loop_
 _atom_site_type_symbol
 _atom_site_label
 _atom_site_symmetry_multiplicity
 _atom_site_fract_x
 _atom_site_fract_y
 _atom_site_fract_z
 _atom_site_occupancy
  Cs  Cs0  1  0.499992  0.999946  0.499951  1
  Tb  Tb1  1  0.093573  0.391088  0.292000  1
  Tb  Tb2  1  0.964441  0.037717  0.323263  1
  Tb  Tb3  1  0.906672  0.609020  0.708008  1
  Tb  Tb4  1  0.104569  0.944568  0.000446  1
  Tb  Tb5  1  0.035498  0.962375  0.676274  1
  Tb  Tb6  1  0.322327  0.275598  0.288805  1
  Tb  Tb7  1  0.723016  0.647534  0.984600  1
  Tb  Tb8  1  0.895297  0.055520  0.999592  1
  Ho  Ho9  1  0.679498  0.725193  0.712602  1
  Ho  Ho10  1  0.275643  0.351178  0.016022  1
  C  C11  1  0.151940  0.220038  0.120709  1
  C  C12  1  0.847458  0.779828  0.878531  1
  C  C13  1  0.923132  0.855871  0.802719  1
  C  C14  1  0.076278  0.144029  0.196292  1
  I  I15  1  0.449901  0.530435  0.831276  1
  I  I16  1  0.383475  0.039407  0.157442  1
  I  I17  1  0.776578  0.854466  0.502077  1
  I  I18  1  0.837428  0.310020  0.153135  1
  I  I19  1  0.548493  0.469266  0.167213  1
  I  I20  1  0.222692  0.144840  0.498738  1
  I  I21  1  0.317543  0.097860  0.831342  1
  I  I22  1  0.682321  0.904051  0.169953  1
  I  I23  1  0.975454  0.756282  0.169547  1
  I  I24  1  0.933375  0.298640  0.501774  1
  I  I25  1  0.026602  0.244904  0.831695  1
  I  I26  1  0.066774  0.701484  0.498212  1
  I  I27  1  0.261324  0.620204  0.181044  1
  I  I28  1  0.739185  0.377875  0.817254  1
  I  I29  1  0.641962  0.436533  0.501325  1
  I  I30  1  0.162484  0.689934  0.846645  1
  I  I31  1  0.616941  0.958315  0.841213  1
  I  I32  1  0.358132  0.565983  0.500300  1
