# generated using pymatgen
data_AcTe2S
_symmetry_space_group_name_H-M   'P 1'
_cell_length_a   13.64499702
_cell_length_b   13.64499690
_cell_length_c   4.29020900
_cell_angle_alpha   90.00000000
_cell_angle_beta   90.00000000
_cell_angle_gamma   161.49036291
_symmetry_Int_Tables_number   1
_chemical_formula_structural   AcTe2S
_chemical_formula_sum   'Ac2 Te4 S2'
_cell_volume   253.58294294
_cell_formula_units_Z   2
loop_
 _symmetry_equiv_pos_site_id
 _symmetry_equiv_pos_as_xyz
  1  'x, y, z'
loop_
 _atom_site_type_symbol
 _atom_site_label
 _atom_site_symmetry_multiplicity
 _atom_site_fract_x
 _atom_site_fract_y
 _atom_site_fract_z
 _atom_site_occupancy
  Ac  Ac0  1  0.817006  0.182994  0.250000  1
  Ac  Ac1  1  0.182994  0.817006  0.750000  1
  Te  Te2  1  0.921910  0.078090  0.750000  1
  Te  Te3  1  0.078090  0.921910  0.250000  1
  Te  Te4  1  0.577685  0.422315  0.750000  1
  Te  Te5  1  0.422315  0.577685  0.250000  1
  S  S6  1  0.705624  0.294376  0.250000  1
  S  S7  1  0.294376  0.705624  0.750000  1
