# generated using pymatgen
data_Pr2Nd2CdOs
_symmetry_space_group_name_H-M   'P 1'
_cell_length_a   9.99075564
_cell_length_b   9.99075685
_cell_length_c   9.99140400
_cell_angle_alpha   59.99785723
_cell_angle_beta   59.99785324
_cell_angle_gamma   60.00429082
_symmetry_Int_Tables_number   1
_chemical_formula_structural   Pr2Nd2CdOs
_chemical_formula_sum   'Pr8 Nd8 Cd4 Os4'
_cell_volume   705.19341595
_cell_formula_units_Z   4
loop_
 _symmetry_equiv_pos_site_id
 _symmetry_equiv_pos_as_xyz
  1  'x, y, z'
loop_
 _atom_site_type_symbol
 _atom_site_label
 _atom_site_symmetry_multiplicity
 _atom_site_fract_x
 _atom_site_fract_y
 _atom_site_fract_z
 _atom_site_occupancy
  Pr  Pr0  1  0.190640  0.190640  0.809360  1
  Pr  Pr1  1  0.809360  0.809360  0.190640  1
  Pr  Pr2  1  0.940746  0.559254  0.559254  1
  Pr  Pr3  1  0.559254  0.940746  0.940746  1
  Pr  Pr4  1  0.559254  0.940746  0.559254  1
  Pr  Pr5  1  0.940746  0.559254  0.940746  1
  Pr  Pr6  1  0.559181  0.559181  0.940819  1
  Pr  Pr7  1  0.940819  0.940819  0.559181  1
  Nd  Nd8  1  0.345571  0.345571  0.345073  1
  Nd  Nd9  1  0.345571  0.345571  0.963785  1
  Nd  Nd10  1  0.345073  0.963785  0.345571  1
  Nd  Nd11  1  0.963785  0.345073  0.345571  1
  Nd  Nd12  1  0.809283  0.190717  0.190717  1
  Nd  Nd13  1  0.190717  0.809283  0.809283  1
  Nd  Nd14  1  0.190717  0.809283  0.190717  1
  Nd  Nd15  1  0.809283  0.190717  0.809283  1
  Cd  Cd16  1  0.578972  0.578972  0.579279  1
  Cd  Cd17  1  0.578972  0.578972  0.262776  1
  Cd  Cd18  1  0.579279  0.262776  0.578972  1
  Cd  Cd19  1  0.262776  0.579279  0.578972  1
  Os  Os20  1  0.138057  0.138057  0.138832  1
  Os  Os21  1  0.138057  0.138057  0.585051  1
  Os  Os22  1  0.138832  0.585051  0.138057  1
  Os  Os23  1  0.585051  0.138832  0.138057  1
