# generated using pymatgen
data_Hf18TaRe6P2W
_symmetry_space_group_name_H-M   'P 1'
_cell_length_a   8.61584300
_cell_length_b   8.61584283
_cell_length_c   8.58769400
_cell_angle_alpha   90.00000000
_cell_angle_beta   90.00000000
_cell_angle_gamma   119.99999683
_symmetry_Int_Tables_number   1
_chemical_formula_structural   Hf18TaRe6P2W
_chemical_formula_sum   'Hf18 Ta1 Re6 P2 W1'
_cell_volume   552.08093629
_cell_formula_units_Z   1
loop_
 _symmetry_equiv_pos_site_id
 _symmetry_equiv_pos_as_xyz
  1  'x, y, z'
loop_
 _atom_site_type_symbol
 _atom_site_label
 _atom_site_symmetry_multiplicity
 _atom_site_fract_x
 _atom_site_fract_y
 _atom_site_fract_z
 _atom_site_occupancy
  Hf  Hf0  1  0.198132  0.801868  0.451927  1
  Hf  Hf1  1  0.198132  0.396262  0.451927  1
  Hf  Hf2  1  0.603738  0.801868  0.451927  1
  Hf  Hf3  1  0.801868  0.198132  0.548073  1
  Hf  Hf4  1  0.801868  0.603738  0.548073  1
  Hf  Hf5  1  0.396262  0.198132  0.548073  1
  Hf  Hf6  1  0.803996  0.196004  0.950945  1
  Hf  Hf7  1  0.803996  0.607994  0.950945  1
  Hf  Hf8  1  0.392006  0.196004  0.950945  1
  Hf  Hf9  1  0.196004  0.803996  0.049055  1
  Hf  Hf10  1  0.196004  0.392006  0.049055  1
  Hf  Hf11  1  0.607994  0.803996  0.049055  1
  Hf  Hf12  1  0.539094  0.460906  0.248504  1
  Hf  Hf13  1  0.539094  0.078188  0.248504  1
  Hf  Hf14  1  0.921812  0.460906  0.248504  1
  Hf  Hf15  1  0.460906  0.539094  0.751496  1
  Hf  Hf16  1  0.460906  0.921812  0.751496  1
  Hf  Hf17  1  0.078188  0.539094  0.751496  1
  Ta  Ta18  1  0.000000  0.000000  0.500000  1
  Re  Re19  1  0.888944  0.111056  0.250132  1
  Re  Re20  1  0.888944  0.777886  0.250132  1
  Re  Re21  1  0.222114  0.111056  0.250132  1
  Re  Re22  1  0.111056  0.888944  0.749868  1
  Re  Re23  1  0.111056  0.222114  0.749868  1
  Re  Re24  1  0.777886  0.888944  0.749868  1
  P  P25  1  0.333333  0.666667  0.248243  1
  P  P26  1  0.666667  0.333333  0.751757  1
  W  W27  1  0.000000  0.000000  0.000000  1
