# generated using pymatgen
data_Cs4Zr6GeBr18
_symmetry_space_group_name_H-M   'P 1'
_cell_length_a   10.96026766
_cell_length_b   11.27657813
_cell_length_c   11.36694371
_cell_angle_alpha   118.21924212
_cell_angle_beta   100.46796795
_cell_angle_gamma   104.30666185
_symmetry_Int_Tables_number   1
_chemical_formula_structural   Cs4Zr6GeBr18
_chemical_formula_sum   'Cs4 Zr6 Ge1 Br18'
_cell_volume   1123.80946450
_cell_formula_units_Z   1
loop_
 _symmetry_equiv_pos_site_id
 _symmetry_equiv_pos_as_xyz
  1  'x, y, z'
loop_
 _atom_site_type_symbol
 _atom_site_label
 _atom_site_symmetry_multiplicity
 _atom_site_fract_x
 _atom_site_fract_y
 _atom_site_fract_z
 _atom_site_occupancy
  Cs  Cs0  1  0.662291  0.537583  0.231048  1
  Cs  Cs1  1  0.337709  0.462417  0.768952  1
  Cs  Cs2  1  0.697858  0.228199  0.564855  1
  Cs  Cs3  1  0.302142  0.771801  0.435145  1
  Zr  Zr4  1  0.154657  0.057869  0.233564  1
  Zr  Zr5  1  0.845343  0.942131  0.766436  1
  Zr  Zr6  1  0.857827  0.124597  0.131273  1
  Zr  Zr7  1  0.142173  0.875403  0.868727  1
  Zr  Zr8  1  0.149178  0.242105  0.046286  1
  Zr  Zr9  1  0.850822  0.757895  0.953714  1
  Ge  Ge10  1  0.000000  0.000000  0.000000  1
  Br  Br11  1  0.007192  0.393416  0.188840  1
  Br  Br12  1  0.992808  0.606584  0.811160  1
  Br  Br13  1  0.323090  0.323357  0.301444  1
  Br  Br14  1  0.676910  0.676643  0.698556  1
  Br  Br15  1  0.313016  0.506289  0.098307  1
  Br  Br16  1  0.686984  0.493711  0.901693  1
  Br  Br17  1  0.003937  0.803309  0.202608  1
  Br  Br18  1  0.996063  0.196691  0.797392  1
  Br  Br19  1  0.707449  0.259639  0.273126  1
  Br  Br20  1  0.292551  0.740361  0.726874  1
  Br  Br21  1  0.311208  0.126816  0.910159  1
  Br  Br22  1  0.688792  0.873184  0.089841  1
  Br  Br23  1  0.014799  0.196986  0.392852  1
  Br  Br24  1  0.985201  0.803014  0.607148  1
  Br  Br25  1  0.315404  0.929474  0.109922  1
  Br  Br26  1  0.684596  0.070526  0.890078  1
  Br  Br27  1  0.325793  0.119892  0.487065  1
  Br  Br28  1  0.674207  0.880108  0.512935  1
