# generated using pymatgen
data_ZnNiPdO4
_symmetry_space_group_name_H-M   'P 1'
_cell_length_a   6.08017712
_cell_length_b   5.96958469
_cell_length_c   6.07989521
_cell_angle_alpha   60.59855003
_cell_angle_beta   60.48714120
_cell_angle_gamma   60.60055214
_symmetry_Int_Tables_number   1
_chemical_formula_structural   ZnNiPdO4
_chemical_formula_sum   'Zn2 Ni2 Pd2 O8'
_cell_volume   158.02297039
_cell_formula_units_Z   2
loop_
 _symmetry_equiv_pos_site_id
 _symmetry_equiv_pos_as_xyz
  1  'x, y, z'
loop_
 _atom_site_type_symbol
 _atom_site_label
 _atom_site_symmetry_multiplicity
 _atom_site_fract_x
 _atom_site_fract_y
 _atom_site_fract_z
 _atom_site_occupancy
  Zn  Zn0  1  0.104487  0.145506  0.104509  1
  Zn  Zn1  1  0.895560  0.854462  0.895545  1
  Ni  Ni2  1  0.499974  0.499988  0.499930  1
  Ni  Ni3  1  0.499996  0.000096  0.499914  1
  Pd  Pd4  1  0.499941  0.499986  0.000094  1
  Pd  Pd5  1  0.000074  0.499979  0.499967  1
  O  O6  1  0.745445  0.732915  0.745452  1
  O  O7  1  0.256376  0.264522  0.714565  1
  O  O8  1  0.254548  0.723776  0.254578  1
  O  O9  1  0.714564  0.264525  0.256383  1
  O  O10  1  0.745429  0.276185  0.745452  1
  O  O11  1  0.285487  0.735480  0.743556  1
  O  O12  1  0.254545  0.267117  0.254578  1
  O  O13  1  0.743576  0.735464  0.285480  1
