# generated using pymatgen
data_Y4Ga10Ir5Pd
_symmetry_space_group_name_H-M   'P 1'
_cell_length_a   8.61358455
_cell_length_b   8.61132884
_cell_length_c   8.61133008
_cell_angle_alpha   141.25121669
_cell_angle_beta   109.60057587
_cell_angle_gamma   83.37235372
_symmetry_Int_Tables_number   1
_chemical_formula_structural   Y4Ga10Ir5Pd
_chemical_formula_sum   'Y4 Ga10 Ir5 Pd1'
_cell_volume   364.86339308
_cell_formula_units_Z   1
loop_
 _symmetry_equiv_pos_site_id
 _symmetry_equiv_pos_as_xyz
  1  'x, y, z'
loop_
 _atom_site_type_symbol
 _atom_site_label
 _atom_site_symmetry_multiplicity
 _atom_site_fract_x
 _atom_site_fract_y
 _atom_site_fract_z
 _atom_site_occupancy
  Y  Y0  1  0.633346  0.359429  0.273915  1
  Y  Y1  1  0.374066  0.643074  0.730993  1
  Y  Y2  1  0.913212  0.143726  0.769487  1
  Y  Y3  1  0.082764  0.856140  0.226624  1
  Ga  Ga4  1  0.405583  0.083160  0.322422  1
  Ga  Ga5  1  0.595278  0.915540  0.679738  1
  Ga  Ga6  1  0.235344  0.415528  0.819816  1
  Ga  Ga7  1  0.765648  0.585172  0.180475  1
  Ga  Ga8  1  0.297608  0.550431  0.249029  1
  Ga  Ga9  1  0.701294  0.951922  0.250459  1
  Ga  Ga10  1  0.701294  0.450836  0.749373  1
  Ga  Ga11  1  0.297608  0.048579  0.747176  1
  Ga  Ga12  1  0.997064  0.251590  0.251071  1
  Ga  Ga13  1  0.997064  0.745993  0.745473  1
  Ir  Ir14  1  0.758975  0.848305  0.910669  1
  Ir  Ir15  1  0.936670  0.347787  0.588884  1
  Ir  Ir16  1  0.065495  0.651498  0.413996  1
  Ir  Ir17  1  0.500708  0.250619  0.751492  1
  Ir  Ir18  1  0.500708  0.749216  0.250089  1
  Pd  Pd19  1  0.240271  0.151453  0.088819  1
