# generated using pymatgen
data_Er6Al7Au16
_symmetry_space_group_name_H-M   'P 1'
_cell_length_a   9.24802065
_cell_length_b   9.24802040
_cell_length_c   9.24802100
_cell_angle_alpha   60.00000145
_cell_angle_beta   60.00000231
_cell_angle_gamma   59.99999861
_symmetry_Int_Tables_number   1
_chemical_formula_structural   Er6Al7Au16
_chemical_formula_sum   'Er6 Al7 Au16'
_cell_volume   559.28270174
_cell_formula_units_Z   1
loop_
 _symmetry_equiv_pos_site_id
 _symmetry_equiv_pos_as_xyz
  1  'x, y, z'
loop_
 _atom_site_type_symbol
 _atom_site_label
 _atom_site_symmetry_multiplicity
 _atom_site_fract_x
 _atom_site_fract_y
 _atom_site_fract_z
 _atom_site_occupancy
  Er  Er0  1  0.714495  0.714495  0.285505  1
  Er  Er1  1  0.285505  0.714495  0.285505  1
  Er  Er2  1  0.714495  0.285505  0.285505  1
  Er  Er3  1  0.285505  0.285505  0.714495  1
  Er  Er4  1  0.714495  0.285505  0.714495  1
  Er  Er5  1  0.285505  0.714495  0.714495  1
  Al  Al6  1  0.000000  0.000000  0.000000  1
  Al  Al7  1  0.000000  0.000000  0.500000  1
  Al  Al8  1  0.500000  0.000000  0.500000  1
  Al  Al9  1  0.000000  0.500000  0.500000  1
  Al  Al10  1  0.500000  0.500000  0.000000  1
  Al  Al11  1  0.000000  0.500000  0.000000  1
  Al  Al12  1  0.500000  0.000000  0.000000  1
  Au  Au13  1  0.881820  0.881820  0.354540  1
  Au  Au14  1  0.881820  0.354540  0.881820  1
  Au  Au15  1  0.354540  0.881820  0.881820  1
  Au  Au16  1  0.881820  0.881820  0.881820  1
  Au  Au17  1  0.118180  0.118180  0.645460  1
  Au  Au18  1  0.118180  0.645460  0.118180  1
  Au  Au19  1  0.645460  0.118180  0.118180  1
  Au  Au20  1  0.118180  0.118180  0.118180  1
  Au  Au21  1  0.658238  0.658238  0.025285  1
  Au  Au22  1  0.658238  0.025285  0.658238  1
  Au  Au23  1  0.025285  0.658238  0.658238  1
  Au  Au24  1  0.658238  0.658238  0.658238  1
  Au  Au25  1  0.341762  0.341762  0.974715  1
  Au  Au26  1  0.341762  0.974715  0.341762  1
  Au  Au27  1  0.974715  0.341762  0.341762  1
  Au  Au28  1  0.341762  0.341762  0.341762  1
