# generated using pymatgen
data_LaPr9(AsPb3)2
_symmetry_space_group_name_H-M   'P 1'
_cell_length_a   9.62017645
_cell_length_b   9.59943662
_cell_length_c   7.24716000
_cell_angle_alpha   90.00000000
_cell_angle_beta   90.00000000
_cell_angle_gamma   119.92872078
_symmetry_Int_Tables_number   1
_chemical_formula_structural   LaPr9(AsPb3)2
_chemical_formula_sum   'La1 Pr9 As2 Pb6'
_cell_volume   580.01436745
_cell_formula_units_Z   1
loop_
 _symmetry_equiv_pos_site_id
 _symmetry_equiv_pos_as_xyz
  1  'x, y, z'
loop_
 _atom_site_type_symbol
 _atom_site_label
 _atom_site_symmetry_multiplicity
 _atom_site_fract_x
 _atom_site_fract_y
 _atom_site_fract_z
 _atom_site_occupancy
  La  La0  1  0.000000  0.758103  0.250000  1
  Pr  Pr1  1  0.757544  0.758790  0.750000  1
  Pr  Pr2  1  0.242456  0.001246  0.750000  1
  Pr  Pr3  1  0.000000  0.241978  0.750000  1
  Pr  Pr4  1  0.242345  0.241817  0.250000  1
  Pr  Pr5  1  0.757655  0.999472  0.250000  1
  Pr  Pr6  1  0.665678  0.332478  0.999503  1
  Pr  Pr7  1  0.334322  0.666801  0.999503  1
  Pr  Pr8  1  0.334322  0.666801  0.500497  1
  Pr  Pr9  1  0.665678  0.332478  0.500497  1
  As  As10  1  0.000000  0.000432  0.999594  1
  As  As11  1  0.000000  0.000432  0.500406  1
  Pb  Pb12  1  0.399956  0.399916  0.750000  1
  Pb  Pb13  1  0.600044  0.999960  0.750000  1
  Pb  Pb14  1  0.000000  0.599325  0.750000  1
  Pb  Pb15  1  0.598004  0.599404  0.250000  1
  Pb  Pb16  1  0.401996  0.001401  0.250000  1
  Pb  Pb17  1  0.000000  0.399165  0.250000  1
