# generated using pymatgen
data_Pr4Ga18(IrPd)3
_symmetry_space_group_name_H-M   'P 1'
_cell_length_a   7.71029356
_cell_length_b   7.71029484
_cell_length_c   9.65849483
_cell_angle_alpha   89.96887558
_cell_angle_beta   89.96887526
_cell_angle_gamma   119.60302759
_symmetry_Int_Tables_number   1
_chemical_formula_structural   Pr4Ga18(IrPd)3
_chemical_formula_sum   'Pr4 Ga18 Ir3 Pd3'
_cell_volume   499.23510213
_cell_formula_units_Z   1
loop_
 _symmetry_equiv_pos_site_id
 _symmetry_equiv_pos_as_xyz
  1  'x, y, z'
loop_
 _atom_site_type_symbol
 _atom_site_label
 _atom_site_symmetry_multiplicity
 _atom_site_fract_x
 _atom_site_fract_y
 _atom_site_fract_z
 _atom_site_occupancy
  Pr  Pr0  1  0.995035  0.669533  0.249500  1
  Pr  Pr1  1  0.001631  0.327672  0.750105  1
  Pr  Pr2  1  0.672328  0.998369  0.249895  1
  Pr  Pr3  1  0.330467  0.004965  0.750500  1
  Ga  Ga4  1  0.134710  0.132594  0.250504  1
  Ga  Ga5  1  0.867406  0.865290  0.749496  1
  Ga  Ga6  1  0.006025  0.337561  0.079289  1
  Ga  Ga7  1  0.000588  0.665050  0.921280  1
  Ga  Ga8  1  0.998982  0.662176  0.576346  1
  Ga  Ga9  1  0.337824  0.001019  0.423654  1
  Ga  Ga10  1  0.001733  0.338264  0.422893  1
  Ga  Ga11  1  0.661736  0.998267  0.577107  1
  Ga  Ga12  1  0.662439  0.993975  0.920711  1
  Ga  Ga13  1  0.334950  0.999413  0.078720  1
  Ga  Ga14  1  0.337663  0.337817  0.561331  1
  Ga  Ga15  1  0.662183  0.662337  0.438669  1
  Ga  Ga16  1  0.661140  0.664118  0.064991  1
  Ga  Ga17  1  0.335882  0.338860  0.935009  1
  Ga  Ga18  1  0.338208  0.546848  0.250564  1
  Ga  Ga19  1  0.663560  0.457872  0.747283  1
  Ga  Ga20  1  0.542128  0.336440  0.252717  1
  Ga  Ga21  1  0.453152  0.661792  0.749436  1
  Ir  Ir22  1  0.329476  0.670524  0.000000  1
  Ir  Ir23  1  0.328954  0.671046  0.500000  1
  Ir  Ir24  1  0.671109  0.328891  0.500000  1
  Pd  Pd25  1  0.670746  0.329254  0.000000  1
  Pd  Pd26  1  0.000322  0.999678  0.000000  1
  Pd  Pd27  1  0.999628  0.000372  0.500000  1
