# generated using pymatgen
data_CaEu2SbO6
_symmetry_space_group_name_H-M   'P 1'
_cell_length_a   5.95337600
_cell_length_b   5.73194829
_cell_length_c   10.04924048
_cell_angle_alpha   55.33490691
_cell_angle_beta   90.00000000
_cell_angle_gamma   90.00000000
_symmetry_Int_Tables_number   1
_chemical_formula_structural   CaEu2SbO6
_chemical_formula_sum   'Ca2 Eu4 Sb2 O12'
_cell_volume   282.05241329
_cell_formula_units_Z   2
loop_
 _symmetry_equiv_pos_site_id
 _symmetry_equiv_pos_as_xyz
  1  'x, y, z'
loop_
 _atom_site_type_symbol
 _atom_site_label
 _atom_site_symmetry_multiplicity
 _atom_site_fract_x
 _atom_site_fract_y
 _atom_site_fract_z
 _atom_site_occupancy
  Ca  Ca0  1  0.000000  0.500000  0.500000  1
  Ca  Ca1  1  0.500000  0.500000  0.000000  1
  Eu  Eu2  1  0.447378  0.236282  0.748506  1
  Eu  Eu3  1  0.552622  0.763718  0.251494  1
  Eu  Eu4  1  0.947378  0.763718  0.751494  1
  Eu  Eu5  1  0.052622  0.236282  0.248506  1
  Sb  Sb6  1  0.000000  0.000000  0.000000  1
  Sb  Sb7  1  0.500000  0.000000  0.500000  1
  O  O8  1  0.718278  0.889607  0.934496  1
  O  O9  1  0.281722  0.110393  0.065504  1
  O  O10  1  0.218278  0.110393  0.565504  1
  O  O11  1  0.781722  0.889607  0.434496  1
  O  O12  1  0.048809  0.342513  0.770463  1
  O  O13  1  0.951191  0.657487  0.229537  1
  O  O14  1  0.548809  0.657487  0.729537  1
  O  O15  1  0.451191  0.342513  0.270463  1
  O  O16  1  0.182354  0.769331  0.946044  1
  O  O17  1  0.817646  0.230669  0.053956  1
  O  O18  1  0.682354  0.230669  0.553956  1
  O  O19  1  0.317646  0.769331  0.446044  1
