# generated using pymatgen
data_Pr7Ru4C9
_symmetry_space_group_name_H-M   'P 1'
_cell_length_a   6.53507912
_cell_length_b   6.53507942
_cell_length_c   11.92538844
_cell_angle_alpha   71.27715266
_cell_angle_beta   71.27715325
_cell_angle_gamma   48.44021086
_symmetry_Int_Tables_number   1
_chemical_formula_structural   Pr7Ru4C9
_chemical_formula_sum   'Pr7 Ru4 C9'
_cell_volume   356.70536883
_cell_formula_units_Z   1
loop_
 _symmetry_equiv_pos_site_id
 _symmetry_equiv_pos_as_xyz
  1  'x, y, z'
loop_
 _atom_site_type_symbol
 _atom_site_label
 _atom_site_symmetry_multiplicity
 _atom_site_fract_x
 _atom_site_fract_y
 _atom_site_fract_z
 _atom_site_occupancy
  Pr  Pr0  1  0.376572  0.376572  0.840520  1
  Pr  Pr1  1  0.146019  0.146019  0.680865  1
  Pr  Pr2  1  0.853981  0.853981  0.319135  1
  Pr  Pr3  1  0.138859  0.138859  0.380814  1
  Pr  Pr4  1  0.861141  0.861141  0.619186  1
  Pr  Pr5  1  0.000000  0.000000  0.000000  1
  Pr  Pr6  1  0.623428  0.623428  0.159480  1
  Ru  Ru7  1  0.356636  0.356636  0.140516  1
  Ru  Ru8  1  0.567309  0.567309  0.569969  1
  Ru  Ru9  1  0.432691  0.432691  0.430031  1
  Ru  Ru10  1  0.643364  0.643364  0.859484  1
  C  C11  1  0.381536  0.381536  0.291005  1
  C  C12  1  0.924297  0.924297  0.819800  1
  C  C13  1  0.392078  0.392078  0.614163  1
  C  C14  1  0.194047  0.194047  0.141941  1
  C  C15  1  0.805953  0.805953  0.858059  1
  C  C16  1  0.500000  0.500000  0.000000  1
  C  C17  1  0.075703  0.075703  0.180200  1
  C  C18  1  0.618464  0.618464  0.708995  1
  C  C19  1  0.607922  0.607922  0.385837  1
