# generated using pymatgen
data_Eu2InSn3Pd2
_symmetry_space_group_name_H-M   'P 1'
_cell_length_a   6.14303030
_cell_length_b   6.14303022
_cell_length_c   7.67869068
_cell_angle_alpha   88.99378162
_cell_angle_beta   91.00621916
_cell_angle_gamma   136.91467147
_symmetry_Int_Tables_number   1
_chemical_formula_structural   Eu2InSn3Pd2
_chemical_formula_sum   'Eu2 In1 Sn3 Pd2'
_cell_volume   197.90234881
_cell_formula_units_Z   1
loop_
 _symmetry_equiv_pos_site_id
 _symmetry_equiv_pos_as_xyz
  1  'x, y, z'
loop_
 _atom_site_type_symbol
 _atom_site_label
 _atom_site_symmetry_multiplicity
 _atom_site_fract_x
 _atom_site_fract_y
 _atom_site_fract_z
 _atom_site_occupancy
  Eu  Eu0  1  0.066413  0.933587  0.248959  1
  Eu  Eu1  1  0.933872  0.066128  0.748800  1
  In  In2  1  0.354272  0.645728  0.049978  1
  Sn  Sn3  1  0.642260  0.357740  0.547051  1
  Sn  Sn4  1  0.356622  0.643378  0.452152  1
  Sn  Sn5  1  0.648499  0.351501  0.951263  1
  Pd  Pd6  1  0.207831  0.792169  0.745371  1
  Pd  Pd7  1  0.790230  0.209770  0.256425  1
