# generated using pymatgen
data_TbPuO5
_symmetry_space_group_name_H-M   'P 1'
_cell_length_a   5.54311790
_cell_length_b   5.54311725
_cell_length_c   7.90594700
_cell_angle_alpha   69.22207403
_cell_angle_beta   69.22207659
_cell_angle_gamma   70.55938130
_symmetry_Int_Tables_number   1
_chemical_formula_structural   TbPuO5
_chemical_formula_sum   'Tb2 Pu2 O10'
_cell_volume   206.31045185
_cell_formula_units_Z   2
loop_
 _symmetry_equiv_pos_site_id
 _symmetry_equiv_pos_as_xyz
  1  'x, y, z'
loop_
 _atom_site_type_symbol
 _atom_site_label
 _atom_site_symmetry_multiplicity
 _atom_site_fract_x
 _atom_site_fract_y
 _atom_site_fract_z
 _atom_site_occupancy
  Tb  Tb0  1  0.955492  0.044508  0.250000  1
  Tb  Tb1  1  0.044508  0.955492  0.750000  1
  Pu  Pu2  1  0.500000  0.500000  0.000000  1
  Pu  Pu3  1  0.500000  0.500000  0.500000  1
  O  O4  1  0.394728  0.605272  0.750000  1
  O  O5  1  0.288301  0.252367  0.619672  1
  O  O6  1  0.711699  0.747633  0.380328  1
  O  O7  1  0.252367  0.288301  0.119672  1
  O  O8  1  0.605272  0.394728  0.250000  1
  O  O9  1  0.747633  0.711699  0.880328  1
  O  O10  1  0.209071  0.816380  0.033461  1
  O  O11  1  0.816380  0.209071  0.533461  1
  O  O12  1  0.790929  0.183620  0.966539  1
  O  O13  1  0.183620  0.790929  0.466539  1
