# generated using pymatgen
data_LaPr2In3HgRh2
_symmetry_space_group_name_H-M   'P 1'
_cell_length_a   7.94991293
_cell_length_b   7.94880170
_cell_length_c   4.06816200
_cell_angle_alpha   90.00000000
_cell_angle_beta   90.00000000
_cell_angle_gamma   120.27984270
_symmetry_Int_Tables_number   1
_chemical_formula_structural   LaPr2In3HgRh2
_chemical_formula_sum   'La1 Pr2 In3 Hg1 Rh2'
_cell_volume   222.00426958
_cell_formula_units_Z   1
loop_
 _symmetry_equiv_pos_site_id
 _symmetry_equiv_pos_as_xyz
  1  'x, y, z'
loop_
 _atom_site_type_symbol
 _atom_site_label
 _atom_site_symmetry_multiplicity
 _atom_site_fract_x
 _atom_site_fract_y
 _atom_site_fract_z
 _atom_site_occupancy
  La  La0  1  0.971631  0.582219  0.500000  1
  Pr  Pr1  1  0.415142  0.391238  0.500000  1
  Pr  Pr2  1  0.608325  0.024398  0.500000  1
  In  In3  1  0.752073  0.753655  0.000000  1
  In  In4  1  0.996517  0.240945  0.000000  1
  In  In5  1  0.249410  0.004604  0.000000  1
  Hg  Hg6  1  0.333000  0.666750  0.000000  1
  Rh  Rh7  1  0.000880  0.996970  0.500000  1
  Rh  Rh8  1  0.673020  0.339221  0.000000  1
