# generated using pymatgen
data_CePr5U4O20
_symmetry_space_group_name_H-M   'P 1'
_cell_length_a   6.79125632
_cell_length_b   7.73105636
_cell_length_c   8.66882942
_cell_angle_alpha   101.40307617
_cell_angle_beta   97.44718299
_cell_angle_gamma   107.15031297
_symmetry_Int_Tables_number   1
_chemical_formula_structural   CePr5U4O20
_chemical_formula_sum   'Ce1 Pr5 U4 O20'
_cell_volume   417.65430215
_cell_formula_units_Z   1
loop_
 _symmetry_equiv_pos_site_id
 _symmetry_equiv_pos_as_xyz
  1  'x, y, z'
loop_
 _atom_site_type_symbol
 _atom_site_label
 _atom_site_symmetry_multiplicity
 _atom_site_fract_x
 _atom_site_fract_y
 _atom_site_fract_z
 _atom_site_occupancy
  Ce  Ce0  1  0.000000  0.000000  0.500000  1
  Pr  Pr1  1  0.607819  0.702129  0.700728  1
  Pr  Pr2  1  0.392181  0.297871  0.299272  1
  Pr  Pr3  1  0.200438  0.898785  0.896201  1
  Pr  Pr4  1  0.000000  0.500000  0.500000  1
  Pr  Pr5  1  0.799562  0.101215  0.103799  1
  U  U6  1  0.399444  0.801740  0.300222  1
  U  U7  1  0.200040  0.402435  0.902360  1
  U  U8  1  0.799960  0.597565  0.097640  1
  U  U9  1  0.600556  0.198260  0.699778  1
  O  O10  1  0.439728  0.534779  0.134035  1
  O  O11  1  0.557061  0.994415  0.837725  1
  O  O12  1  0.270594  0.151589  0.742704  1
  O  O13  1  0.359559  0.598876  0.438067  1
  O  O14  1  0.055682  0.732499  0.328101  1
  O  O15  1  0.442939  0.005585  0.162275  1
  O  O16  1  0.151243  0.190268  0.031285  1
  O  O17  1  0.560272  0.465221  0.865965  1
  O  O18  1  0.855083  0.341265  0.948702  1
  O  O19  1  0.253914  0.602499  0.762567  1
  O  O20  1  0.955906  0.782683  0.644956  1
  O  O21  1  0.351610  0.056352  0.455801  1
  O  O22  1  0.648390  0.943648  0.544199  1
  O  O23  1  0.044094  0.217317  0.355044  1
  O  O24  1  0.746086  0.397501  0.237433  1
  O  O25  1  0.144917  0.658735  0.051298  1
  O  O26  1  0.848757  0.809732  0.968715  1
  O  O27  1  0.944318  0.267501  0.671899  1
  O  O28  1  0.640441  0.401124  0.561933  1
  O  O29  1  0.729406  0.848411  0.257296  1
