# generated using pymatgen
data_Tb11DyTcRu3
_symmetry_space_group_name_H-M   'P 1'
_cell_length_a   6.32356209
_cell_length_b   7.35673435
_cell_length_c   9.26742807
_cell_angle_alpha   90.00851725
_cell_angle_beta   89.98819779
_cell_angle_gamma   90.02673959
_symmetry_Int_Tables_number   1
_chemical_formula_structural   Tb11DyTcRu3
_chemical_formula_sum   'Tb11 Dy1 Tc1 Ru3'
_cell_volume   431.12779609
_cell_formula_units_Z   1
loop_
 _symmetry_equiv_pos_site_id
 _symmetry_equiv_pos_as_xyz
  1  'x, y, z'
loop_
 _atom_site_type_symbol
 _atom_site_label
 _atom_site_symmetry_multiplicity
 _atom_site_fract_x
 _atom_site_fract_y
 _atom_site_fract_z
 _atom_site_occupancy
  Tb  Tb0  1  0.168776  0.175928  0.434880  1
  Tb  Tb1  1  0.669489  0.323896  0.565210  1
  Tb  Tb2  1  0.832965  0.824649  0.936277  1
  Tb  Tb3  1  0.669420  0.323965  0.934848  1
  Tb  Tb4  1  0.832963  0.824675  0.563768  1
  Tb  Tb5  1  0.331695  0.675801  0.434573  1
  Tb  Tb6  1  0.168837  0.175952  0.065088  1
  Tb  Tb7  1  0.865694  0.540465  0.249937  1
  Tb  Tb8  1  0.630409  0.042054  0.249950  1
  Tb  Tb9  1  0.136371  0.457275  0.750057  1
  Tb  Tb10  1  0.364343  0.957766  0.750052  1
  Dy  Dy11  1  0.331700  0.675733  0.065381  1
  Tc  Tc12  1  0.039593  0.886467  0.249959  1
  Ru  Ru13  1  0.459184  0.385549  0.249951  1
  Ru  Ru14  1  0.958306  0.115638  0.749984  1
  Ru  Ru15  1  0.540257  0.614186  0.750082  1
