# generated using pymatgen
data_Ti4FeCo3(BiO5)4
_symmetry_space_group_name_H-M   'P 1'
_cell_length_a   5.86596200
_cell_length_b   7.63919209
_cell_length_c   8.57518713
_cell_angle_alpha   89.77160063
_cell_angle_beta   90.00000000
_cell_angle_gamma   90.00000000
_symmetry_Int_Tables_number   1
_chemical_formula_structural   Ti4FeCo3(BiO5)4
_chemical_formula_sum   'Ti4 Fe1 Co3 Bi4 O20'
_cell_volume   384.26146243
_cell_formula_units_Z   1
loop_
 _symmetry_equiv_pos_site_id
 _symmetry_equiv_pos_as_xyz
  1  'x, y, z'
loop_
 _atom_site_type_symbol
 _atom_site_label
 _atom_site_symmetry_multiplicity
 _atom_site_fract_x
 _atom_site_fract_y
 _atom_site_fract_z
 _atom_site_occupancy
  Ti  Ti0  1  0.501681  0.878409  0.145654  1
  Ti  Ti1  1  0.501681  0.121591  0.854346  1
  Ti  Ti2  1  0.501720  0.372899  0.357897  1
  Ti  Ti3  1  0.501720  0.627101  0.642103  1
  Fe  Fe4  1  0.250509  0.500000  0.000000  1
  Co  Co5  1  0.749655  0.000000  0.500000  1
  Co  Co6  1  0.748689  0.500000  0.000000  1
  Co  Co7  1  0.250494  0.000000  0.500000  1
  Bi  Bi8  1  0.997553  0.661344  0.335329  1
  Bi  Bi9  1  0.997553  0.338656  0.664671  1
  Bi  Bi10  1  0.997323  0.155934  0.167346  1
  Bi  Bi11  1  0.997323  0.844066  0.832654  1
  O  O12  1  0.988966  0.657278  0.058057  1
  O  O13  1  0.988966  0.342722  0.941943  1
  O  O14  1  0.999270  0.150752  0.444004  1
  O  O15  1  0.999270  0.849248  0.555996  1
  O  O16  1  0.293490  0.500000  0.500000  1
  O  O17  1  0.709280  0.000000  0.000000  1
  O  O18  1  0.712259  0.500000  0.500000  1
  O  O19  1  0.290625  0.000000  0.000000  1
  O  O20  1  0.508364  0.655061  0.079094  1
  O  O21  1  0.508364  0.344939  0.920906  1
  O  O22  1  0.500721  0.149251  0.428082  1
  O  O23  1  0.500721  0.850749  0.571918  1
  O  O24  1  0.256758  0.887700  0.297408  1
  O  O25  1  0.256758  0.112300  0.702592  1
  O  O26  1  0.742254  0.385379  0.203255  1
  O  O27  1  0.742254  0.614621  0.796745  1
  O  O28  1  0.744682  0.109534  0.702190  1
  O  O29  1  0.744682  0.890466  0.297810  1
  O  O30  1  0.258207  0.620829  0.790493  1
  O  O31  1  0.258207  0.379171  0.209507  1
