# generated using pymatgen
data_TbY3Hf5ZrSi8
_symmetry_space_group_name_H-M   'P 1'
_cell_length_a   7.29702604
_cell_length_b   7.29676437
_cell_length_c   13.41245900
_cell_angle_alpha   90.00000000
_cell_angle_beta   90.00000000
_cell_angle_gamma   89.97114287
_symmetry_Int_Tables_number   1
_chemical_formula_structural   TbY3Hf5ZrSi8
_chemical_formula_sum   'Tb2 Y6 Hf10 Zr2 Si16'
_cell_volume   714.14199254
_cell_formula_units_Z   2
loop_
 _symmetry_equiv_pos_site_id
 _symmetry_equiv_pos_as_xyz
  1  'x, y, z'
loop_
 _atom_site_type_symbol
 _atom_site_label
 _atom_site_symmetry_multiplicity
 _atom_site_fract_x
 _atom_site_fract_y
 _atom_site_fract_z
 _atom_site_occupancy
  Tb  Tb0  1  0.343724  0.996426  0.784896  1
  Tb  Tb1  1  0.656276  0.003574  0.284896  1
  Y  Y2  1  0.996447  0.343744  0.215117  1
  Y  Y3  1  0.003553  0.656256  0.715117  1
  Y  Y4  1  0.156242  0.496515  0.465051  1
  Y  Y5  1  0.503499  0.843736  0.034939  1
  Y  Y6  1  0.843758  0.503485  0.965051  1
  Y  Y7  1  0.496501  0.156264  0.534939  1
  Hf  Hf8  1  0.325462  0.674532  0.250007  1
  Hf  Hf9  1  0.674538  0.325468  0.750007  1
  Hf  Hf10  1  0.149480  0.995271  0.374404  1
  Hf  Hf11  1  0.850520  0.004729  0.874404  1
  Hf  Hf12  1  0.504405  0.649740  0.624355  1
  Hf  Hf13  1  0.350245  0.495609  0.875672  1
  Hf  Hf14  1  0.495595  0.350260  0.124355  1
  Hf  Hf15  1  0.649755  0.504391  0.375672  1
  Hf  Hf16  1  0.995302  0.149459  0.625601  1
  Hf  Hf17  1  0.004698  0.850541  0.125601  1
  Zr  Zr18  1  0.174293  0.174296  0.999978  1
  Zr  Zr19  1  0.825707  0.825704  0.499978  1
  Si  Si20  1  0.363516  0.295109  0.317009  1
  Si  Si21  1  0.636484  0.704891  0.817009  1
  Si  Si22  1  0.205974  0.863525  0.567113  1
  Si  Si23  1  0.136476  0.793992  0.932900  1
  Si  Si24  1  0.794026  0.136475  0.067113  1
  Si  Si25  1  0.863524  0.206008  0.432900  1
  Si  Si26  1  0.295110  0.363543  0.682978  1
  Si  Si27  1  0.704890  0.636457  0.182978  1
  Si  Si28  1  0.295483  0.048104  0.186282  1
  Si  Si29  1  0.704517  0.951896  0.686282  1
  Si  Si30  1  0.450465  0.794887  0.435485  1
  Si  Si31  1  0.205102  0.549519  0.064509  1
  Si  Si32  1  0.549535  0.205113  0.935485  1
  Si  Si33  1  0.794898  0.450481  0.564509  1
  Si  Si34  1  0.048085  0.295517  0.813703  1
  Si  Si35  1  0.951915  0.704483  0.313703  1
