# generated using pymatgen
data_Ho4OsCl4
_symmetry_space_group_name_H-M   'P 1'
_cell_length_a   8.54306409
_cell_length_b   8.54306409
_cell_length_c   6.48183238
_cell_angle_alpha   89.77126914
_cell_angle_beta   89.77127453
_cell_angle_gamma   89.42651902
_symmetry_Int_Tables_number   1
_chemical_formula_structural   Ho4OsCl4
_chemical_formula_sum   'Ho8 Os2 Cl8'
_cell_volume   473.03853154
_cell_formula_units_Z   2
loop_
 _symmetry_equiv_pos_site_id
 _symmetry_equiv_pos_as_xyz
  1  'x, y, z'
loop_
 _atom_site_type_symbol
 _atom_site_label
 _atom_site_symmetry_multiplicity
 _atom_site_fract_x
 _atom_site_fract_y
 _atom_site_fract_z
 _atom_site_occupancy
  Ho  Ho0  1  0.104906  0.741142  0.987683  1
  Ho  Ho1  1  0.258858  0.895094  0.512317  1
  Ho  Ho2  1  0.895094  0.258858  0.012317  1
  Ho  Ho3  1  0.741142  0.104906  0.487683  1
  Ho  Ho4  1  0.742319  0.895973  0.008136  1
  Ho  Ho5  1  0.104027  0.257681  0.491864  1
  Ho  Ho6  1  0.257681  0.104027  0.991864  1
  Ho  Ho7  1  0.895973  0.742319  0.508136  1
  Os  Os8  1  0.006538  0.993462  0.250000  1
  Os  Os9  1  0.993462  0.006538  0.750000  1
  Cl  Cl10  1  0.421176  0.820084  0.899801  1
  Cl  Cl11  1  0.179916  0.578824  0.600199  1
  Cl  Cl12  1  0.578824  0.179916  0.100199  1
  Cl  Cl13  1  0.820084  0.421176  0.399801  1
  Cl  Cl14  1  0.810568  0.581764  0.899581  1
  Cl  Cl15  1  0.418236  0.189432  0.600419  1
  Cl  Cl16  1  0.189432  0.418236  0.100419  1
  Cl  Cl17  1  0.581764  0.810568  0.399581  1
