# generated using pymatgen
data_Pa4IrPd3Pb2
_symmetry_space_group_name_H-M   'P 1'
_cell_length_a   7.84510198
_cell_length_b   7.84510154
_cell_length_c   3.70481900
_cell_angle_alpha   90.00000000
_cell_angle_beta   90.00000000
_cell_angle_gamma   90.14037840
_symmetry_Int_Tables_number   1
_chemical_formula_structural   Pa4IrPd3Pb2
_chemical_formula_sum   'Pa4 Ir1 Pd3 Pb2'
_cell_volume   228.01470375
_cell_formula_units_Z   1
loop_
 _symmetry_equiv_pos_site_id
 _symmetry_equiv_pos_as_xyz
  1  'x, y, z'
loop_
 _atom_site_type_symbol
 _atom_site_label
 _atom_site_symmetry_multiplicity
 _atom_site_fract_x
 _atom_site_fract_y
 _atom_site_fract_z
 _atom_site_occupancy
  Pa  Pa0  1  0.661576  0.176092  0.500000  1
  Pa  Pa1  1  0.182576  0.317424  0.500000  1
  Pa  Pa2  1  0.830105  0.669895  0.500000  1
  Pa  Pa3  1  0.323908  0.838424  0.500000  1
  Ir  Ir4  1  0.375512  0.124488  0.000000  1
  Pd  Pd5  1  0.128089  0.626485  0.000000  1
  Pd  Pd6  1  0.632973  0.867027  0.000000  1
  Pd  Pd7  1  0.873515  0.371911  0.000000  1
  Pb  Pb8  1  0.993360  0.001615  0.000000  1
  Pb  Pb9  1  0.498385  0.506640  0.000000  1
