# generated using pymatgen
data_Sr2In3SbPt4
_symmetry_space_group_name_H-M   'P 1'
_cell_length_a   4.86635697
_cell_length_b   4.67083700
_cell_length_c   10.60763676
_cell_angle_alpha   90.00000000
_cell_angle_beta   93.20901770
_cell_angle_gamma   90.00000000
_symmetry_Int_Tables_number   1
_chemical_formula_structural   Sr2In3SbPt4
_chemical_formula_sum   'Sr2 In3 Sb1 Pt4'
_cell_volume   240.73309108
_cell_formula_units_Z   1
loop_
 _symmetry_equiv_pos_site_id
 _symmetry_equiv_pos_as_xyz
  1  'x, y, z'
loop_
 _atom_site_type_symbol
 _atom_site_label
 _atom_site_symmetry_multiplicity
 _atom_site_fract_x
 _atom_site_fract_y
 _atom_site_fract_z
 _atom_site_occupancy
  Sr  Sr0  1  0.733831  0.249999  0.242705  1
  Sr  Sr1  1  0.258796  0.749999  0.757893  1
  In  In2  1  0.199732  0.749999  0.116240  1
  In  In3  1  0.742556  0.749999  0.495894  1
  In  In4  1  0.253599  0.249999  0.505259  1
  Sb  Sb5  1  0.812451  0.249999  0.888210  1
  Pt  Pt6  1  0.321895  0.249999  0.994868  1
  Pt  Pt7  1  0.227437  0.749999  0.369418  1
  Pt  Pt8  1  0.768399  0.249999  0.637468  1
  Pt  Pt9  1  0.681304  0.749999  0.992042  1
