# generated using pymatgen
data_Pr8Zr12Si15Ge
_symmetry_space_group_name_H-M   'P 1'
_cell_length_a   7.27911769
_cell_length_b   7.47150252
_cell_length_c   14.22242319
_cell_angle_alpha   90.01684186
_cell_angle_beta   89.87953193
_cell_angle_gamma   90.01271232
_symmetry_Int_Tables_number   1
_chemical_formula_structural   Pr8Zr12Si15Ge
_chemical_formula_sum   'Pr8 Zr12 Si15 Ge1'
_cell_volume   773.49817942
_cell_formula_units_Z   1
loop_
 _symmetry_equiv_pos_site_id
 _symmetry_equiv_pos_as_xyz
  1  'x, y, z'
loop_
 _atom_site_type_symbol
 _atom_site_label
 _atom_site_symmetry_multiplicity
 _atom_site_fract_x
 _atom_site_fract_y
 _atom_site_fract_z
 _atom_site_occupancy
  Pr  Pr0  1  0.011848  0.172069  0.402253  1
  Pr  Pr1  1  0.512706  0.326676  0.402192  1
  Pr  Pr2  1  0.487266  0.672792  0.902777  1
  Pr  Pr3  1  0.489575  0.674162  0.597894  1
  Pr  Pr4  1  0.986809  0.828225  0.597584  1
  Pr  Pr5  1  0.986938  0.827388  0.902780  1
  Pr  Pr6  1  0.512849  0.327111  0.097382  1
  Pr  Pr7  1  0.013130  0.172885  0.097267  1
  Zr  Zr8  1  0.332499  0.173264  0.626220  1
  Zr  Zr9  1  0.669312  0.824316  0.374471  1
  Zr  Zr10  1  0.658346  0.004673  0.750260  1
  Zr  Zr11  1  0.169070  0.677256  0.373862  1
  Zr  Zr12  1  0.829781  0.324377  0.874746  1
  Zr  Zr13  1  0.827779  0.323518  0.625374  1
  Zr  Zr14  1  0.841629  0.504948  0.249917  1
  Zr  Zr15  1  0.341655  0.995315  0.249786  1
  Zr  Zr16  1  0.330115  0.175970  0.874803  1
  Zr  Zr17  1  0.170017  0.675831  0.125281  1
  Zr  Zr18  1  0.669731  0.824095  0.125134  1
  Zr  Zr19  1  0.158304  0.495042  0.751773  1
  Si  Si20  1  0.285478  0.881972  0.750287  1
  Si  Si21  1  0.465701  0.626103  0.249804  1
  Si  Si22  1  0.034112  0.126226  0.749930  1
  Si  Si23  1  0.533843  0.374028  0.750176  1
  Si  Si24  1  0.965402  0.874353  0.249610  1
  Si  Si25  1  0.714315  0.117291  0.249764  1
  Si  Si26  1  0.849170  0.535451  0.041383  1
  Si  Si27  1  0.349477  0.964359  0.041404  1
  Si  Si28  1  0.150860  0.464698  0.958574  1
  Si  Si29  1  0.651360  0.036015  0.541107  1
  Si  Si30  1  0.348673  0.964001  0.458693  1
  Si  Si31  1  0.844496  0.536609  0.457543  1
  Si  Si32  1  0.786426  0.617106  0.749979  1
  Si  Si33  1  0.214213  0.382834  0.249968  1
  Si  Si34  1  0.650379  0.035555  0.958469  1
  Ge  Ge35  1  0.156733  0.463484  0.541552  1
