# generated using pymatgen
data_Li2La2Zn19Cu
_symmetry_space_group_name_H-M   'P 1'
_cell_length_a   8.33460928
_cell_length_b   8.33089158
_cell_length_c   8.33089200
_cell_angle_alpha   99.03810089
_cell_angle_beta   99.71269217
_cell_angle_gamma   132.36298413
_symmetry_Int_Tables_number   1
_chemical_formula_structural   Li2La2Zn19Cu
_chemical_formula_sum   'Li2 La2 Zn19 Cu1'
_cell_volume   391.08894894
_cell_formula_units_Z   1
loop_
 _symmetry_equiv_pos_site_id
 _symmetry_equiv_pos_as_xyz
  1  'x, y, z'
loop_
 _atom_site_type_symbol
 _atom_site_label
 _atom_site_symmetry_multiplicity
 _atom_site_fract_x
 _atom_site_fract_y
 _atom_site_fract_z
 _atom_site_occupancy
  Li  Li0  1  0.758628  0.253961  0.504666  1
  Li  Li1  1  0.491372  0.496039  0.995334  1
  La  La2  1  0.000475  0.998321  0.002153  1
  La  La3  1  0.249525  0.751679  0.497847  1
  Zn  Zn4  1  0.625000  0.875000  0.250000  1
  Zn  Zn5  1  0.625000  0.375000  0.750000  1
  Zn  Zn6  1  0.625000  0.375000  0.250000  1
  Zn  Zn7  1  0.185651  0.507911  0.075447  1
  Zn  Zn8  1  0.185651  0.110204  0.677739  1
  Zn  Zn9  1  0.765970  0.939005  0.587935  1
  Zn  Zn10  1  0.765970  0.178035  0.826966  1
  Zn  Zn11  1  0.425519  0.512272  0.329417  1
  Zn  Zn12  1  0.425519  0.096099  0.913246  1
  Zn  Zn13  1  0.350057  0.933411  0.172269  1
  Zn  Zn14  1  0.350057  0.177789  0.416647  1
  Zn  Zn15  1  0.064349  0.242089  0.424553  1
  Zn  Zn16  1  0.064349  0.639796  0.822261  1
  Zn  Zn17  1  0.484030  0.810995  0.912065  1
  Zn  Zn18  1  0.484030  0.571965  0.673034  1
  Zn  Zn19  1  0.824481  0.237728  0.170583  1
  Zn  Zn20  1  0.824481  0.653901  0.586754  1
  Zn  Zn21  1  0.899943  0.816589  0.327731  1
  Zn  Zn22  1  0.899943  0.572211  0.083353  1
  Cu  Cu23  1  0.125000  0.375000  0.750000  1
