# generated using pymatgen
data_Ho3Co6B2Ru
_symmetry_space_group_name_H-M   'P 1'
_cell_length_a   5.04997800
_cell_length_b   5.04997735
_cell_length_c   14.39314900
_cell_angle_alpha   90.00000000
_cell_angle_beta   90.00000000
_cell_angle_gamma   120.00253405
_symmetry_Int_Tables_number   1
_chemical_formula_structural   Ho3Co6B2Ru
_chemical_formula_sum   'Ho6 Co12 B4 Ru2'
_cell_volume   317.87346755
_cell_formula_units_Z   2
loop_
 _symmetry_equiv_pos_site_id
 _symmetry_equiv_pos_as_xyz
  1  'x, y, z'
loop_
 _atom_site_type_symbol
 _atom_site_label
 _atom_site_symmetry_multiplicity
 _atom_site_fract_x
 _atom_site_fract_y
 _atom_site_fract_z
 _atom_site_occupancy
  Ho  Ho0  1  0.666658  0.333342  0.036230  1
  Ho  Ho1  1  0.333342  0.666658  0.963770  1
  Ho  Ho2  1  0.333342  0.666658  0.536230  1
  Ho  Ho3  1  0.666658  0.333342  0.463770  1
  Ho  Ho4  1  0.666633  0.333367  0.250000  1
  Ho  Ho5  1  0.333367  0.666633  0.750000  1
  Co  Co6  1  0.834576  0.669076  0.649616  1
  Co  Co7  1  0.834564  0.165436  0.649620  1
  Co  Co8  1  0.330924  0.165424  0.649616  1
  Co  Co9  1  0.165424  0.330924  0.350384  1
  Co  Co10  1  0.165436  0.834564  0.350380  1
  Co  Co11  1  0.669076  0.834576  0.350384  1
  Co  Co12  1  0.165424  0.330924  0.149616  1
  Co  Co13  1  0.165436  0.834564  0.149620  1
  Co  Co14  1  0.669076  0.834576  0.149616  1
  Co  Co15  1  0.834576  0.669076  0.850384  1
  Co  Co16  1  0.834564  0.165436  0.850380  1
  Co  Co17  1  0.330924  0.165424  0.850384  1
  B  B18  1  0.666676  0.333324  0.750000  1
  B  B19  1  0.333324  0.666676  0.250000  1
  B  B20  1  0.000020  0.999980  0.750000  1
  B  B21  1  0.999980  0.000020  0.250000  1
  Ru  Ru22  1  0.000000  0.000000  0.500000  1
  Ru  Ru23  1  0.000000  0.000000  0.000000  1
