# generated using pymatgen
data_Ce6Nb5Ga11Os7
_symmetry_space_group_name_H-M   'P 1'
_cell_length_a   9.08827414
_cell_length_b   9.08827404
_cell_length_c   9.03397800
_cell_angle_alpha   59.80098562
_cell_angle_beta   59.80098599
_cell_angle_gamma   59.99999348
_symmetry_Int_Tables_number   1
_chemical_formula_structural   Ce6Nb5Ga11Os7
_chemical_formula_sum   'Ce6 Nb5 Ga11 Os7'
_cell_volume   526.03406652
_cell_formula_units_Z   1
loop_
 _symmetry_equiv_pos_site_id
 _symmetry_equiv_pos_as_xyz
  1  'x, y, z'
loop_
 _atom_site_type_symbol
 _atom_site_label
 _atom_site_symmetry_multiplicity
 _atom_site_fract_x
 _atom_site_fract_y
 _atom_site_fract_z
 _atom_site_occupancy
  Ce  Ce0  1  0.697608  0.697608  0.305138  1
  Ce  Ce1  1  0.299646  0.697608  0.305138  1
  Ce  Ce2  1  0.697608  0.299646  0.305138  1
  Ce  Ce3  1  0.307145  0.307145  0.698221  1
  Ce  Ce4  1  0.687489  0.307145  0.698221  1
  Ce  Ce5  1  0.307145  0.687489  0.698221  1
  Nb  Nb6  1  0.878953  0.878953  0.363142  1
  Nb  Nb7  1  0.875290  0.367181  0.882241  1
  Nb  Nb8  1  0.367181  0.875290  0.882241  1
  Nb  Nb9  1  0.875290  0.875290  0.882241  1
  Nb  Nb10  1  0.126922  0.126922  0.619235  1
  Ga  Ga11  1  0.116908  0.647124  0.119058  1
  Ga  Ga12  1  0.647124  0.116908  0.119058  1
  Ga  Ga13  1  0.116908  0.116908  0.119058  1
  Ga  Ga14  1  0.662615  0.662615  0.012154  1
  Ga  Ga15  1  0.664839  0.006900  0.663422  1
  Ga  Ga16  1  0.006900  0.664839  0.663422  1
  Ga  Ga17  1  0.664839  0.664839  0.663422  1
  Ga  Ga18  1  0.330546  0.330546  0.008362  1
  Ga  Ga19  1  0.335478  0.999400  0.329644  1
  Ga  Ga20  1  0.999400  0.335478  0.329644  1
  Ga  Ga21  1  0.335478  0.335478  0.329644  1
  Os  Os22  1  0.006799  0.006799  0.979604  1
  Os  Os23  1  0.997553  0.997553  0.509810  1
  Os  Os24  1  0.495084  0.997553  0.509810  1
  Os  Os25  1  0.997553  0.495084  0.509810  1
  Os  Os26  1  0.502289  0.502289  0.998300  1
  Os  Os27  1  0.997121  0.502289  0.998300  1
  Os  Os28  1  0.502289  0.997121  0.998300  1
