# generated using pymatgen
data_HoZr(NbSe2)8
_symmetry_space_group_name_H-M   'P 1'
_cell_length_a   7.02848023
_cell_length_b   7.02815408
_cell_length_c   13.95365559
_cell_angle_alpha   90.00000053
_cell_angle_beta   90.02888690
_cell_angle_gamma   119.99852306
_symmetry_Int_Tables_number   1
_chemical_formula_structural   HoZr(NbSe2)8
_chemical_formula_sum   'Ho1 Zr1 Nb8 Se16'
_cell_volume   596.93593277
_cell_formula_units_Z   1
loop_
 _symmetry_equiv_pos_site_id
 _symmetry_equiv_pos_as_xyz
  1  'x, y, z'
loop_
 _atom_site_type_symbol
 _atom_site_label
 _atom_site_symmetry_multiplicity
 _atom_site_fract_x
 _atom_site_fract_y
 _atom_site_fract_z
 _atom_site_occupancy
  Ho  Ho0  1  0.000000  0.000000  0.000000  1
  Zr  Zr1  1  0.000000  0.000000  0.500000  1
  Nb  Nb2  1  0.986180  0.493090  0.255203  1
  Nb  Nb3  1  0.013820  0.506910  0.744797  1
  Nb  Nb4  1  0.493074  0.506831  0.744789  1
  Nb  Nb5  1  0.506926  0.013757  0.255211  1
  Nb  Nb6  1  0.000058  0.000029  0.744592  1
  Nb  Nb7  1  0.999942  0.999971  0.255408  1
  Nb  Nb8  1  0.506926  0.493169  0.255211  1
  Nb  Nb9  1  0.493074  0.986243  0.744789  1
  Se  Se10  1  0.333313  0.666658  0.621658  1
  Se  Se11  1  0.666650  0.333324  0.130837  1
  Se  Se12  1  0.666687  0.333342  0.378342  1
  Se  Se13  1  0.333350  0.666676  0.869163  1
  Se  Se14  1  0.169237  0.338508  0.375144  1
  Se  Se15  1  0.829996  0.169970  0.863897  1
  Se  Se16  1  0.339996  0.169997  0.863911  1
  Se  Se17  1  0.661497  0.830750  0.375180  1
  Se  Se18  1  0.169237  0.830728  0.375144  1
  Se  Se19  1  0.829996  0.660025  0.863897  1
  Se  Se20  1  0.170004  0.339975  0.136103  1
  Se  Se21  1  0.830763  0.169272  0.624856  1
  Se  Se22  1  0.338503  0.169250  0.624820  1
  Se  Se23  1  0.660004  0.830003  0.136089  1
  Se  Se24  1  0.170004  0.830030  0.136103  1
  Se  Se25  1  0.830763  0.661492  0.624856  1
