# generated using pymatgen
data_NaTh3(B2Ir5)2
_symmetry_space_group_name_H-M   'P 1'
_cell_length_a   11.19807999
_cell_length_b   11.19807950
_cell_length_c   11.19808076
_cell_angle_alpha   28.48827867
_cell_angle_beta   28.48828438
_cell_angle_gamma   28.48828164
_symmetry_Int_Tables_number   1
_chemical_formula_structural   NaTh3(B2Ir5)2
_chemical_formula_sum   'Na1 Th3 B4 Ir10'
_cell_volume   282.36175850
_cell_formula_units_Z   1
loop_
 _symmetry_equiv_pos_site_id
 _symmetry_equiv_pos_as_xyz
  1  'x, y, z'
loop_
 _atom_site_type_symbol
 _atom_site_label
 _atom_site_symmetry_multiplicity
 _atom_site_fract_x
 _atom_site_fract_y
 _atom_site_fract_z
 _atom_site_occupancy
  Na  Na0  1  0.153960  0.153960  0.153960  1
  Th  Th1  1  0.949027  0.949027  0.949027  1
  Th  Th2  1  0.844386  0.844386  0.844386  1
  Th  Th3  1  0.055269  0.055269  0.055269  1
  B  B4  1  0.616754  0.616754  0.616754  1
  B  B5  1  0.716451  0.716451  0.716451  1
  B  B6  1  0.381489  0.381489  0.381489  1
  B  B7  1  0.283235  0.283235  0.283235  1
  Ir  Ir8  1  0.407051  0.898765  0.407051  1
  Ir  Ir9  1  0.898765  0.407051  0.407051  1
  Ir  Ir10  1  0.500718  0.500718  0.999495  1
  Ir  Ir11  1  0.500718  0.999495  0.500718  1
  Ir  Ir12  1  0.999495  0.500718  0.500718  1
  Ir  Ir13  1  0.499374  0.499374  0.499374  1
  Ir  Ir14  1  0.592092  0.102072  0.592092  1
  Ir  Ir15  1  0.592092  0.592092  0.102072  1
  Ir  Ir16  1  0.102072  0.592092  0.592092  1
  Ir  Ir17  1  0.407051  0.407051  0.898765  1
