# generated using pymatgen
data_HfMo3(SeO3)8
_symmetry_space_group_name_H-M   'P 1'
_cell_length_a   8.40035952
_cell_length_b   8.40036003
_cell_length_c   8.40035954
_cell_angle_alpha   89.79213507
_cell_angle_beta   90.20786985
_cell_angle_gamma   90.20786155
_symmetry_Int_Tables_number   1
_chemical_formula_structural   HfMo3(SeO3)8
_chemical_formula_sum   'Hf1 Mo3 Se8 O24'
_cell_volume   592.76846815
_cell_formula_units_Z   1
loop_
 _symmetry_equiv_pos_site_id
 _symmetry_equiv_pos_as_xyz
  1  'x, y, z'
loop_
 _atom_site_type_symbol
 _atom_site_label
 _atom_site_symmetry_multiplicity
 _atom_site_fract_x
 _atom_site_fract_y
 _atom_site_fract_z
 _atom_site_occupancy
  Hf  Hf0  1  0.500000  0.500000  0.000000  1
  Mo  Mo1  1  0.500000  0.000000  0.500000  1
  Mo  Mo2  1  0.000000  0.000000  0.000000  1
  Mo  Mo3  1  0.000000  0.500000  0.500000  1
  Se  Se4  1  0.830558  0.169442  0.669442  1
  Se  Se5  1  0.169442  0.830558  0.330558  1
  Se  Se6  1  0.679441  0.677153  0.658056  1
  Se  Se7  1  0.158056  0.679441  0.822847  1
  Se  Se8  1  0.322847  0.158056  0.820559  1
  Se  Se9  1  0.841944  0.320559  0.177153  1
  Se  Se10  1  0.677153  0.841944  0.179441  1
  Se  Se11  1  0.320559  0.322847  0.341944  1
  O  O12  1  0.239896  0.460132  0.474488  1
  O  O13  1  0.974488  0.239896  0.039868  1
  O  O14  1  0.037028  0.741085  0.462088  1
  O  O15  1  0.449428  0.265696  0.939699  1
  O  O16  1  0.258915  0.962088  0.462972  1
  O  O17  1  0.560301  0.550572  0.765696  1
  O  O18  1  0.962088  0.037028  0.758915  1
  O  O19  1  0.550572  0.734304  0.060301  1
  O  O20  1  0.539868  0.974488  0.260104  1
  O  O21  1  0.460132  0.025512  0.739896  1
  O  O22  1  0.758501  0.969151  0.036946  1
  O  O23  1  0.265696  0.560301  0.949428  1
  O  O24  1  0.030849  0.536946  0.741499  1
  O  O25  1  0.037912  0.962972  0.241085  1
  O  O26  1  0.241499  0.030849  0.963054  1
  O  O27  1  0.439699  0.449428  0.234304  1
  O  O28  1  0.760104  0.539868  0.525512  1
  O  O29  1  0.969151  0.463054  0.258501  1
  O  O30  1  0.025512  0.760104  0.960132  1
  O  O31  1  0.463054  0.241499  0.469151  1
  O  O32  1  0.536946  0.758501  0.530849  1
  O  O33  1  0.962972  0.258915  0.537912  1
  O  O34  1  0.741085  0.037912  0.537028  1
  O  O35  1  0.734304  0.439699  0.050572  1
