# generated using pymatgen
data_Hf3Ti2Ga2Sn
_symmetry_space_group_name_H-M   'P 1'
_cell_length_a   8.03037300
_cell_length_b   8.01429775
_cell_length_c   5.50288600
_cell_angle_alpha   90.00000000
_cell_angle_beta   90.00000000
_cell_angle_gamma   120.06637012
_symmetry_Int_Tables_number   1
_chemical_formula_structural   Hf3Ti2Ga2Sn
_chemical_formula_sum   'Hf6 Ti4 Ga4 Sn2'
_cell_volume   306.50071995
_cell_formula_units_Z   2
loop_
 _symmetry_equiv_pos_site_id
 _symmetry_equiv_pos_as_xyz
  1  'x, y, z'
loop_
 _atom_site_type_symbol
 _atom_site_label
 _atom_site_symmetry_multiplicity
 _atom_site_fract_x
 _atom_site_fract_y
 _atom_site_fract_z
 _atom_site_occupancy
  Hf  Hf0  1  0.228967  0.000000  0.250000  1
  Hf  Hf1  1  0.771033  0.000000  0.750000  1
  Hf  Hf2  1  0.011769  0.253419  0.250000  1
  Hf  Hf3  1  0.988231  0.746581  0.750000  1
  Hf  Hf4  1  0.758350  0.746581  0.250000  1
  Hf  Hf5  1  0.241650  0.253419  0.750000  1
  Ti  Ti6  1  0.325590  0.651181  0.000000  1
  Ti  Ti7  1  0.674410  0.348819  0.000000  1
  Ti  Ti8  1  0.674410  0.348819  0.500000  1
  Ti  Ti9  1  0.325590  0.651181  0.500000  1
  Ga  Ga10  1  0.004530  0.602903  0.250000  1
  Ga  Ga11  1  0.995470  0.397097  0.750000  1
  Ga  Ga12  1  0.401627  0.397097  0.250000  1
  Ga  Ga13  1  0.598373  0.602903  0.750000  1
  Sn  Sn14  1  0.601532  0.000000  0.250000  1
  Sn  Sn15  1  0.398468  0.000000  0.750000  1
