# generated using pymatgen
data_NaTb5YRuI12
_symmetry_space_group_name_H-M   'P 1'
_cell_length_a   9.82002864
_cell_length_b   9.82507763
_cell_length_c   9.82275035
_cell_angle_alpha   106.92841470
_cell_angle_beta   106.92675458
_cell_angle_gamma   106.90352484
_symmetry_Int_Tables_number   1
_chemical_formula_structural   NaTb5YRuI12
_chemical_formula_sum   'Na1 Tb5 Y1 Ru1 I12'
_cell_volume   790.99895306
_cell_formula_units_Z   1
loop_
 _symmetry_equiv_pos_site_id
 _symmetry_equiv_pos_as_xyz
  1  'x, y, z'
loop_
 _atom_site_type_symbol
 _atom_site_label
 _atom_site_symmetry_multiplicity
 _atom_site_fract_x
 _atom_site_fract_y
 _atom_site_fract_z
 _atom_site_occupancy
  Na  Na0  1  0.500013  0.499978  0.500014  1
  Tb  Tb1  1  0.970315  0.899626  0.697875  1
  Tb  Tb2  1  0.697863  0.970230  0.899656  1
  Tb  Tb3  1  0.100372  0.302028  0.029697  1
  Tb  Tb4  1  0.029677  0.100320  0.302123  1
  Tb  Tb5  1  0.302096  0.029670  0.100355  1
  Y  Y6  1  0.899575  0.697639  0.970145  1
  Ru  Ru7  1  0.000107  0.000427  0.000013  1
  I  I8  1  0.626485  0.856975  0.548224  1
  I  I9  1  0.548599  0.626537  0.857137  1
  I  I10  1  0.857001  0.548280  0.626749  1
  I  I11  1  0.373506  0.142986  0.451792  1
  I  I12  1  0.451854  0.373478  0.143034  1
  I  I13  1  0.142987  0.451752  0.373543  1
  I  I14  1  0.683460  0.074688  0.223642  1
  I  I15  1  0.223280  0.683465  0.074604  1
  I  I16  1  0.074688  0.223590  0.683443  1
  I  I17  1  0.316532  0.925249  0.776337  1
  I  I18  1  0.776341  0.316845  0.925304  1
  I  I19  1  0.925250  0.776238  0.316312  1
