# generated using pymatgen
data_PrNd3Ga5Br2
_symmetry_space_group_name_H-M   'P 1'
_cell_length_a   11.49929237
_cell_length_b   11.49929102
_cell_length_c   4.24715300
_cell_angle_alpha   90.00000000
_cell_angle_beta   90.00000000
_cell_angle_gamma   93.54870965
_symmetry_Int_Tables_number   1
_chemical_formula_structural   PrNd3Ga5Br2
_chemical_formula_sum   'Pr2 Nd6 Ga10 Br4'
_cell_volume   560.53991683
_cell_formula_units_Z   2
loop_
 _symmetry_equiv_pos_site_id
 _symmetry_equiv_pos_as_xyz
  1  'x, y, z'
loop_
 _atom_site_type_symbol
 _atom_site_label
 _atom_site_symmetry_multiplicity
 _atom_site_fract_x
 _atom_site_fract_y
 _atom_site_fract_z
 _atom_site_occupancy
  Pr  Pr0  1  0.368304  0.631696  0.000000  1
  Pr  Pr1  1  0.631696  0.368304  0.000000  1
  Nd  Nd2  1  0.673687  0.040026  0.500000  1
  Nd  Nd3  1  0.326313  0.959974  0.500000  1
  Nd  Nd4  1  0.040026  0.673687  0.500000  1
  Nd  Nd5  1  0.959974  0.326313  0.500000  1
  Nd  Nd6  1  0.729976  0.729976  0.000000  1
  Nd  Nd7  1  0.270024  0.270024  0.000000  1
  Ga  Ga8  1  0.579669  0.579669  0.500000  1
  Ga  Ga9  1  0.420331  0.420331  0.500000  1
  Ga  Ga10  1  0.536886  0.899487  0.000000  1
  Ga  Ga11  1  0.463114  0.100513  0.000000  1
  Ga  Ga12  1  0.899487  0.536886  0.000000  1
  Ga  Ga13  1  0.100513  0.463114  0.000000  1
  Ga  Ga14  1  0.512757  0.782334  0.500000  1
  Ga  Ga15  1  0.487243  0.217666  0.500000  1
  Ga  Ga16  1  0.217666  0.487243  0.500000  1
  Ga  Ga17  1  0.782334  0.512757  0.500000  1
  Br  Br18  1  0.124728  0.124728  0.500000  1
  Br  Br19  1  0.875272  0.875272  0.500000  1
  Br  Br20  1  0.824073  0.175927  0.000000  1
  Br  Br21  1  0.175927  0.824073  0.000000  1
