# generated using pymatgen
data_PrHgIrRhO7
_symmetry_space_group_name_H-M   'P 1'
_cell_length_a   7.53726137
_cell_length_b   7.34929046
_cell_length_c   7.34930084
_cell_angle_alpha   59.01418382
_cell_angle_beta   59.15020969
_cell_angle_gamma   59.15035087
_symmetry_Int_Tables_number   1
_chemical_formula_structural   PrHgIrRhO7
_chemical_formula_sum   'Pr2 Hg2 Ir2 Rh2 O14'
_cell_volume   281.99084187
_cell_formula_units_Z   2
loop_
 _symmetry_equiv_pos_site_id
 _symmetry_equiv_pos_as_xyz
  1  'x, y, z'
loop_
 _atom_site_type_symbol
 _atom_site_label
 _atom_site_symmetry_multiplicity
 _atom_site_fract_x
 _atom_site_fract_y
 _atom_site_fract_z
 _atom_site_occupancy
  Pr  Pr0  1  0.125000  0.125000  0.125000  1
  Pr  Pr1  1  0.625000  0.125000  0.125000  1
  Hg  Hg2  1  0.125000  0.125000  0.625000  1
  Hg  Hg3  1  0.125000  0.625000  0.125000  1
  Ir  Ir4  1  0.625000  0.625000  0.625000  1
  Ir  Ir5  1  0.125000  0.625000  0.625000  1
  Rh  Rh6  1  0.625000  0.125000  0.625000  1
  Rh  Rh7  1  0.625000  0.625000  0.125000  1
  O  O8  1  0.943077  0.556923  0.556923  1
  O  O9  1  0.299521  0.302460  0.701481  1
  O  O10  1  0.950480  0.548520  0.947540  1
  O  O11  1  0.713858  0.286142  0.286142  1
  O  O12  1  0.553461  0.548519  0.947540  1
  O  O13  1  0.553460  0.947540  0.548520  1
  O  O14  1  0.536142  0.963858  0.963858  1
  O  O15  1  0.237379  0.262621  0.262621  1
  O  O16  1  0.306923  0.693077  0.693077  1
  O  O17  1  0.696540  0.302460  0.701480  1
  O  O18  1  0.012621  0.987379  0.987379  1
  O  O19  1  0.950479  0.947540  0.548519  1
  O  O20  1  0.299520  0.701480  0.302460  1
  O  O21  1  0.696539  0.701481  0.302460  1
