# generated using pymatgen
data_Pr8Sn(IrO8)3
_symmetry_space_group_name_H-M   'P 1'
_cell_length_a   5.51138152
_cell_length_b   9.49833897
_cell_length_c   10.31824263
_cell_angle_alpha   89.58267497
_cell_angle_beta   89.95547448
_cell_angle_gamma   90.21342560
_symmetry_Int_Tables_number   1
_chemical_formula_structural   Pr8Sn(IrO8)3
_chemical_formula_sum   'Pr8 Sn1 Ir3 O24'
_cell_volume   540.13112264
_cell_formula_units_Z   1
loop_
 _symmetry_equiv_pos_site_id
 _symmetry_equiv_pos_as_xyz
  1  'x, y, z'
loop_
 _atom_site_type_symbol
 _atom_site_label
 _atom_site_symmetry_multiplicity
 _atom_site_fract_x
 _atom_site_fract_y
 _atom_site_fract_z
 _atom_site_occupancy
  Pr  Pr0  1  0.038190  0.218217  0.130449  1
  Pr  Pr1  1  0.467261  0.770328  0.634391  1
  Pr  Pr2  1  0.967091  0.717656  0.372938  1
  Pr  Pr3  1  0.531477  0.289693  0.856810  1
  Pr  Pr4  1  0.029716  0.110487  0.539518  1
  Pr  Pr5  1  0.473391  0.899986  0.036522  1
  Pr  Pr6  1  0.978615  0.602606  0.958572  1
  Pr  Pr7  1  0.520289  0.403682  0.465008  1
  Sn  Sn8  1  0.038113  0.491654  0.645251  1
  Ir  Ir9  1  0.546106  0.001161  0.355871  1
  Ir  Ir10  1  0.956267  0.997268  0.858795  1
  Ir  Ir11  1  0.458329  0.503937  0.143861  1
  O  O12  1  0.437046  0.149093  0.467660  1
  O  O13  1  0.060961  0.853527  0.982907  1
  O  O14  1  0.562124  0.650137  0.024553  1
  O  O15  1  0.916351  0.341564  0.513223  1
  O  O16  1  0.723605  0.391255  0.075273  1
  O  O17  1  0.762743  0.614622  0.555846  1
  O  O18  1  0.282654  0.890436  0.433350  1
  O  O19  1  0.221437  0.110101  0.936198  1
  O  O20  1  0.254638  0.411336  0.008843  1
  O  O21  1  0.253413  0.596728  0.502661  1
  O  O22  1  0.754464  0.916305  0.491692  1
  O  O23  1  0.750241  0.089234  0.993242  1
  O  O24  1  0.190706  0.627869  0.180877  1
  O  O25  1  0.320883  0.345263  0.669420  1
  O  O26  1  0.815355  0.123635  0.314227  1
  O  O27  1  0.688826  0.869482  0.824977  1
  O  O28  1  0.340118  0.056154  0.213704  1
  O  O29  1  0.160452  0.943947  0.720838  1
  O  O30  1  0.657427  0.563768  0.280895  1
  O  O31  1  0.821231  0.450318  0.801272  1
  O  O32  1  0.327665  0.361317  0.255751  1
  O  O33  1  0.198351  0.640761  0.767762  1
  O  O34  1  0.668340  0.858558  0.242486  1
  O  O35  1  0.826120  0.137913  0.744359  1
