# generated using pymatgen
data_KRb2Nd(SbAu)4
_symmetry_space_group_name_H-M   'P 1'
_cell_length_a   4.69225000
_cell_length_b   4.69224939
_cell_length_c   20.75276000
_cell_angle_alpha   90.00000000
_cell_angle_beta   90.00000000
_cell_angle_gamma   120.00000428
_symmetry_Int_Tables_number   1
_chemical_formula_structural   KRb2Nd(SbAu)4
_chemical_formula_sum   'K1 Rb2 Nd1 Sb4 Au4'
_cell_volume   395.70242006
_cell_formula_units_Z   1
loop_
 _symmetry_equiv_pos_site_id
 _symmetry_equiv_pos_as_xyz
  1  'x, y, z'
loop_
 _atom_site_type_symbol
 _atom_site_label
 _atom_site_symmetry_multiplicity
 _atom_site_fract_x
 _atom_site_fract_y
 _atom_site_fract_z
 _atom_site_occupancy
  K  K0  1  0.000000  0.000000  0.762601  1
  Rb  Rb1  1  0.000000  0.000000  0.502032  1
  Rb  Rb2  1  0.000000  0.000000  0.235221  1
  Nd  Nd3  1  0.000000  0.000000  0.997552  1
  Sb  Sb4  1  0.333333  0.666667  0.367058  1
  Sb  Sb5  1  0.666667  0.333333  0.638325  1
  Sb  Sb6  1  0.666667  0.333333  0.895141  1
  Sb  Sb7  1  0.333333  0.666667  0.100515  1
  Au  Au8  1  0.666667  0.333333  0.366245  1
  Au  Au9  1  0.333333  0.666667  0.640535  1
  Au  Au10  1  0.333333  0.666667  0.911940  1
  Au  Au11  1  0.666667  0.333333  0.082835  1
