# generated using pymatgen
data_Hf18Cr2Re6PtSe
_symmetry_space_group_name_H-M   'P 1'
_cell_length_a   8.64098700
_cell_length_b   8.64098566
_cell_length_c   8.49764300
_cell_angle_alpha   90.00000000
_cell_angle_beta   90.00000000
_cell_angle_gamma   120.00000129
_symmetry_Int_Tables_number   1
_chemical_formula_structural   Hf18Cr2Re6PtSe
_chemical_formula_sum   'Hf18 Cr2 Re6 Pt1 Se1'
_cell_volume   549.48487679
_cell_formula_units_Z   1
loop_
 _symmetry_equiv_pos_site_id
 _symmetry_equiv_pos_as_xyz
  1  'x, y, z'
loop_
 _atom_site_type_symbol
 _atom_site_label
 _atom_site_symmetry_multiplicity
 _atom_site_fract_x
 _atom_site_fract_y
 _atom_site_fract_z
 _atom_site_occupancy
  Hf  Hf0  1  0.192370  0.807630  0.447115  1
  Hf  Hf1  1  0.192370  0.384739  0.447115  1
  Hf  Hf2  1  0.615261  0.807630  0.447115  1
  Hf  Hf3  1  0.809069  0.190931  0.547982  1
  Hf  Hf4  1  0.809069  0.618138  0.547982  1
  Hf  Hf5  1  0.381862  0.190931  0.547982  1
  Hf  Hf6  1  0.809069  0.190931  0.952018  1
  Hf  Hf7  1  0.809069  0.618138  0.952018  1
  Hf  Hf8  1  0.381862  0.190931  0.952018  1
  Hf  Hf9  1  0.192370  0.807630  0.052885  1
  Hf  Hf10  1  0.192370  0.384739  0.052885  1
  Hf  Hf11  1  0.615261  0.807630  0.052885  1
  Hf  Hf12  1  0.542286  0.457714  0.250000  1
  Hf  Hf13  1  0.542286  0.084573  0.250000  1
  Hf  Hf14  1  0.915427  0.457714  0.250000  1
  Hf  Hf15  1  0.455007  0.544993  0.750000  1
  Hf  Hf16  1  0.455007  0.910014  0.750000  1
  Hf  Hf17  1  0.089986  0.544993  0.750000  1
  Cr  Cr18  1  0.000000  0.000000  0.498372  1
  Cr  Cr19  1  0.000000  0.000000  0.001628  1
  Re  Re20  1  0.892008  0.107992  0.250000  1
  Re  Re21  1  0.892008  0.784015  0.250000  1
  Re  Re22  1  0.215985  0.107992  0.250000  1
  Re  Re23  1  0.107480  0.892520  0.750000  1
  Re  Re24  1  0.107480  0.214959  0.750000  1
  Re  Re25  1  0.785041  0.892520  0.750000  1
  Pt  Pt26  1  0.333333  0.666667  0.250000  1
  Se  Se27  1  0.666667  0.333333  0.750000  1
