# generated using pymatgen
data_SmScP7Ru12
_symmetry_space_group_name_H-M   'P 1'
_cell_length_a   9.41191100
_cell_length_b   9.41191023
_cell_length_c   3.94677800
_cell_angle_alpha   90.00000000
_cell_angle_beta   90.00000000
_cell_angle_gamma   119.99999825
_symmetry_Int_Tables_number   1
_chemical_formula_structural   SmScP7Ru12
_chemical_formula_sum   'Sm1 Sc1 P7 Ru12'
_cell_volume   302.78121407
_cell_formula_units_Z   1
loop_
 _symmetry_equiv_pos_site_id
 _symmetry_equiv_pos_as_xyz
  1  'x, y, z'
loop_
 _atom_site_type_symbol
 _atom_site_label
 _atom_site_symmetry_multiplicity
 _atom_site_fract_x
 _atom_site_fract_y
 _atom_site_fract_z
 _atom_site_occupancy
  Sm  Sm0  1  0.333333  0.666667  0.000000  1
  Sc  Sc1  1  0.666667  0.333333  0.500000  1
  P  P2  1  0.602567  0.718849  0.500000  1
  P  P3  1  0.000000  0.000000  0.000000  1
  P  P4  1  0.281151  0.883718  0.500000  1
  P  P5  1  0.116282  0.397433  0.500000  1
  P  P6  1  0.883766  0.570751  0.000000  1
  P  P7  1  0.429249  0.313016  0.000000  1
  P  P8  1  0.686984  0.116234  0.000000  1
  Ru  Ru9  1  0.558907  0.954948  0.500000  1
  Ru  Ru10  1  0.396041  0.441093  0.500000  1
  Ru  Ru11  1  0.914424  0.120545  0.500000  1
  Ru  Ru12  1  0.206121  0.085576  0.500000  1
  Ru  Ru13  1  0.879455  0.793879  0.500000  1
  Ru  Ru14  1  0.727601  0.892143  0.000000  1
  Ru  Ru15  1  0.107857  0.835457  0.000000  1
  Ru  Ru16  1  0.164543  0.272399  0.000000  1
  Ru  Ru17  1  0.424871  0.070567  0.000000  1
  Ru  Ru18  1  0.929433  0.354305  0.000000  1
  Ru  Ru19  1  0.645695  0.575129  0.000000  1
  Ru  Ru20  1  0.045052  0.603959  0.500000  1
