# generated using pymatgen
data_Th4Ta3Nb3Si8
_symmetry_space_group_name_H-M   'P 1'
_cell_length_a   7.17706101
_cell_length_b   7.17498201
_cell_length_c   13.38054300
_cell_angle_alpha   90.00000000
_cell_angle_beta   90.00000000
_cell_angle_gamma   90.00479060
_symmetry_Int_Tables_number   1
_chemical_formula_structural   Th4Ta3Nb3Si8
_chemical_formula_sum   'Th8 Ta6 Nb6 Si16'
_cell_volume   689.03485380
_cell_formula_units_Z   2
loop_
 _symmetry_equiv_pos_site_id
 _symmetry_equiv_pos_as_xyz
  1  'x, y, z'
loop_
 _atom_site_type_symbol
 _atom_site_label
 _atom_site_symmetry_multiplicity
 _atom_site_fract_x
 _atom_site_fract_y
 _atom_site_fract_z
 _atom_site_occupancy
  Th  Th0  1  0.999140  0.337171  0.218116  1
  Th  Th1  1  0.000860  0.662829  0.718116  1
  Th  Th2  1  0.162664  0.499214  0.468218  1
  Th  Th3  1  0.501110  0.837377  0.031875  1
  Th  Th4  1  0.837336  0.500786  0.968218  1
  Th  Th5  1  0.498890  0.162623  0.531875  1
  Th  Th6  1  0.337373  0.999087  0.781803  1
  Th  Th7  1  0.662627  0.000913  0.281803  1
  Ta  Ta8  1  0.167814  0.167603  0.000120  1
  Ta  Ta9  1  0.832186  0.832397  0.500120  1
  Ta  Ta10  1  0.331585  0.668339  0.249757  1
  Ta  Ta11  1  0.668415  0.331661  0.749757  1
  Ta  Ta12  1  0.994794  0.160156  0.625980  1
  Ta  Ta13  1  0.005206  0.839844  0.125980  1
  Nb  Nb14  1  0.160289  0.995222  0.374029  1
  Nb  Nb15  1  0.839711  0.004778  0.874029  1
  Nb  Nb16  1  0.504858  0.660390  0.624159  1
  Nb  Nb17  1  0.339444  0.494989  0.875917  1
  Nb  Nb18  1  0.495142  0.339610  0.124159  1
  Nb  Nb19  1  0.660556  0.505011  0.375917  1
  Si  Si20  1  0.288691  0.038881  0.186113  1
  Si  Si21  1  0.711309  0.961119  0.686113  1
  Si  Si22  1  0.461018  0.788762  0.436114  1
  Si  Si23  1  0.211083  0.539377  0.063886  1
  Si  Si24  1  0.538982  0.211238  0.936114  1
  Si  Si25  1  0.788917  0.460623  0.563886  1
  Si  Si26  1  0.039043  0.288682  0.813581  1
  Si  Si27  1  0.960957  0.711318  0.313581  1
  Si  Si28  1  0.375761  0.299236  0.313703  1
  Si  Si29  1  0.624239  0.700764  0.813703  1
  Si  Si30  1  0.200620  0.875990  0.563920  1
  Si  Si31  1  0.124104  0.799109  0.936538  1
  Si  Si32  1  0.799380  0.124010  0.063920  1
  Si  Si33  1  0.875896  0.200891  0.436538  1
  Si  Si34  1  0.298726  0.375524  0.686170  1
  Si  Si35  1  0.701274  0.624476  0.186170  1
