# generated using pymatgen
data_Dy14Er5TmSn16
_symmetry_space_group_name_H-M   'P 1'
_cell_length_a   8.01016212
_cell_length_b   8.15615611
_cell_length_c   15.42579309
_cell_angle_alpha   90.01223240
_cell_angle_beta   90.00017022
_cell_angle_gamma   89.98046290
_symmetry_Int_Tables_number   1
_chemical_formula_structural   Dy14Er5TmSn16
_chemical_formula_sum   'Dy14 Er5 Tm1 Sn16'
_cell_volume   1007.79987954
_cell_formula_units_Z   1
loop_
 _symmetry_equiv_pos_site_id
 _symmetry_equiv_pos_as_xyz
  1  'x, y, z'
loop_
 _atom_site_type_symbol
 _atom_site_label
 _atom_site_symmetry_multiplicity
 _atom_site_fract_x
 _atom_site_fract_y
 _atom_site_fract_z
 _atom_site_occupancy
  Dy  Dy0  1  0.632154  0.164044  0.378162  1
  Dy  Dy1  1  0.132160  0.335995  0.121711  1
  Dy  Dy2  1  0.632159  0.164112  0.121925  1
  Dy  Dy3  1  0.132165  0.335926  0.378194  1
  Dy  Dy4  1  0.367782  0.835858  0.621981  1
  Dy  Dy5  1  0.868095  0.663898  0.878023  1
  Dy  Dy6  1  0.521036  0.320314  0.902306  1
  Dy  Dy7  1  0.021231  0.179929  0.597696  1
  Dy  Dy8  1  0.478876  0.679809  0.402372  1
  Dy  Dy9  1  0.978833  0.820201  0.097683  1
  Dy  Dy10  1  0.478863  0.679790  0.097512  1
  Dy  Dy11  1  0.978816  0.820224  0.402427  1
  Dy  Dy12  1  0.521108  0.320418  0.597737  1
  Dy  Dy13  1  0.021304  0.179831  0.902269  1
  Er  Er14  1  0.367631  0.835941  0.877972  1
  Er  Er15  1  0.867926  0.663822  0.621993  1
  Er  Er16  1  0.698469  0.997092  0.749949  1
  Er  Er17  1  0.801453  0.497299  0.250039  1
  Er  Er18  1  0.301494  0.002649  0.250012  1
  Tm  Tm19  1  0.198655  0.503005  0.750035  1
  Sn  Sn20  1  0.292282  0.034550  0.041653  1
  Sn  Sn21  1  0.792249  0.465359  0.458342  1
  Sn  Sn22  1  0.708157  0.964668  0.542115  1
  Sn  Sn23  1  0.208127  0.535270  0.957633  1
  Sn  Sn24  1  0.707432  0.965008  0.957920  1
  Sn  Sn25  1  0.207366  0.534938  0.542339  1
  Sn  Sn26  1  0.292144  0.034839  0.458059  1
  Sn  Sn27  1  0.792100  0.465061  0.041938  1
  Sn  Sn28  1  0.564579  0.618900  0.750000  1
  Sn  Sn29  1  0.065306  0.880449  0.750007  1
  Sn  Sn30  1  0.434733  0.381084  0.250000  1
  Sn  Sn31  1  0.934904  0.118989  0.250003  1
  Sn  Sn32  1  0.329288  0.147727  0.750096  1
  Sn  Sn33  1  0.829716  0.353130  0.749899  1
  Sn  Sn34  1  0.670610  0.852692  0.249994  1
  Sn  Sn35  1  0.170794  0.647177  0.250005  1
