# generated using pymatgen
data_PrNp(Co5As3)2
_symmetry_space_group_name_H-M   'P 1'
_cell_length_a   3.83201700
_cell_length_b   10.77523100
_cell_length_c   12.16759200
_cell_angle_alpha   90.00000000
_cell_angle_beta   90.00000000
_cell_angle_gamma   90.00000000
_symmetry_Int_Tables_number   1
_chemical_formula_structural   PrNp(Co5As3)2
_chemical_formula_sum   'Pr2 Np2 Co20 As12'
_cell_volume   502.41043966
_cell_formula_units_Z   2
loop_
 _symmetry_equiv_pos_site_id
 _symmetry_equiv_pos_as_xyz
  1  'x, y, z'
loop_
 _atom_site_type_symbol
 _atom_site_label
 _atom_site_symmetry_multiplicity
 _atom_site_fract_x
 _atom_site_fract_y
 _atom_site_fract_z
 _atom_site_occupancy
  Pr  Pr0  1  0.750000  0.416313  0.298265  1
  Pr  Pr1  1  0.750000  0.083687  0.798265  1
  Np  Np2  1  0.250000  0.582190  0.699017  1
  Np  Np3  1  0.250000  0.917810  0.199017  1
  Co  Co4  1  0.250000  0.710702  0.992112  1
  Co  Co5  1  0.250000  0.789298  0.492112  1
  Co  Co6  1  0.750000  0.290188  0.007007  1
  Co  Co7  1  0.750000  0.209812  0.507007  1
  Co  Co8  1  0.250000  0.408821  0.491413  1
  Co  Co9  1  0.250000  0.091179  0.991413  1
  Co  Co10  1  0.750000  0.592594  0.518181  1
  Co  Co11  1  0.750000  0.907406  0.018181  1
  Co  Co12  1  0.250000  0.212967  0.178440  1
  Co  Co13  1  0.250000  0.287033  0.678440  1
  Co  Co14  1  0.750000  0.786268  0.824234  1
  Co  Co15  1  0.750000  0.713732  0.324234  1
  Co  Co16  1  0.250000  0.882389  0.694965  1
  Co  Co17  1  0.250000  0.617611  0.194965  1
  Co  Co18  1  0.750000  0.110902  0.302407  1
  Co  Co19  1  0.750000  0.389098  0.802407  1
  Co  Co20  1  0.250000  0.474475  0.928376  1
  Co  Co21  1  0.250000  0.025525  0.428376  1
  Co  Co22  1  0.750000  0.530918  0.065298  1
  Co  Co23  1  0.750000  0.969082  0.565298  1
  As  As24  1  0.250000  0.414050  0.110159  1
  As  As25  1  0.250000  0.085950  0.610159  1
  As  As26  1  0.750000  0.587690  0.884270  1
  As  As27  1  0.750000  0.912310  0.384270  1
  As  As28  1  0.250000  0.274040  0.872441  1
  As  As29  1  0.250000  0.225960  0.372441  1
  As  As30  1  0.750000  0.726907  0.131568  1
  As  As31  1  0.750000  0.773093  0.631568  1
  As  As32  1  0.250000  0.603907  0.392729  1
  As  As33  1  0.250000  0.896093  0.892729  1
  As  As34  1  0.750000  0.395627  0.609120  1
  As  As35  1  0.750000  0.104373  0.109120  1
