# generated using pymatgen
data_Li29AlSi7Sn
_symmetry_space_group_name_H-M   'P 1'
_cell_length_a   9.23556723
_cell_length_b   9.27086132
_cell_length_c   9.21244144
_cell_angle_alpha   109.52086134
_cell_angle_beta   109.90103586
_cell_angle_gamma   109.37680173
_symmetry_Int_Tables_number   1
_chemical_formula_structural   Li29AlSi7Sn
_chemical_formula_sum   'Li29 Al1 Si7 Sn1'
_cell_volume   604.29392640
_cell_formula_units_Z   1
loop_
 _symmetry_equiv_pos_site_id
 _symmetry_equiv_pos_as_xyz
  1  'x, y, z'
loop_
 _atom_site_type_symbol
 _atom_site_label
 _atom_site_symmetry_multiplicity
 _atom_site_fract_x
 _atom_site_fract_y
 _atom_site_fract_z
 _atom_site_occupancy
  Li  Li0  1  0.116758  0.747277  0.876350  1
  Li  Li1  1  0.732554  0.353130  0.819647  1
  Li  Li2  1  0.618081  0.763403  0.590085  1
  Li  Li3  1  0.034437  0.919831  0.694202  1
  Li  Li4  1  0.088432  0.274261  0.112062  1
  Li  Li5  1  0.913247  0.690950  0.028941  1
  Li  Li6  1  0.270556  0.111942  0.082602  1
  Li  Li7  1  0.198923  0.419126  0.532862  1
  Li  Li8  1  0.779060  0.584567  0.619408  1
  Li  Li9  1  0.700392  0.031931  0.923378  1
  Li  Li10  1  0.524796  0.188031  0.407585  1
  Li  Li11  1  0.621537  0.380141  0.248505  1
  Li  Li12  1  0.476407  0.174276  0.895889  1
  Li  Li13  1  0.883241  0.126536  0.753803  1
  Li  Li14  1  0.974750  0.384010  0.662322  1
  Li  Li15  1  0.413771  0.527349  0.188140  1
  Li  Li16  1  0.113862  0.088248  0.275230  1
  Li  Li17  1  0.298586  0.831752  0.210505  1
  Li  Li18  1  0.755981  0.873192  0.123479  1
  Li  Li19  1  0.888252  0.475902  0.163703  1
  Li  Li20  1  0.584701  0.616713  0.777969  1
  Li  Li21  1  0.380962  0.654378  0.964861  1
  Li  Li22  1  0.805850  0.728989  0.340213  1
  Li  Li23  1  0.657847  0.956388  0.371732  1
  Li  Li24  1  0.142027  0.881067  0.459735  1
  Li  Li25  1  0.224043  0.309339  0.840557  1
  Li  Li26  1  0.370421  0.257513  0.629695  1
  Li  Li27  1  0.844530  0.222119  0.309218  1
  Li  Li28  1  0.246634  0.614480  0.368551  1
  Al  Al29  1  0.332764  0.814176  0.730226  1
  Si  Si30  1  0.586260  0.504794  0.005120  1
  Si  Si31  1  0.494352  0.995489  0.070156  1
  Si  Si32  1  0.998602  0.088109  0.498359  1
  Si  Si33  1  0.010026  0.589529  0.508080  1
  Si  Si34  1  0.082668  0.496555  0.998141  1
  Si  Si35  1  0.418912  0.410950  0.413035  1
  Si  Si36  1  0.919510  0.916344  0.917394  1
  Sn  Sn37  1  0.496268  0.997208  0.588256  1
