# generated using pymatgen
data_Ce5NdAl24(Os3Pd)2
_symmetry_space_group_name_H-M   'P 1'
_cell_length_a   8.90799437
_cell_length_b   8.92602859
_cell_length_c   9.58703214
_cell_angle_alpha   89.86678135
_cell_angle_beta   90.05460573
_cell_angle_gamma   119.76698623
_symmetry_Int_Tables_number   1
_chemical_formula_structural   Ce5NdAl24(Os3Pd)2
_chemical_formula_sum   'Ce5 Nd1 Al24 Os6 Pd2'
_cell_volume   661.70860097
_cell_formula_units_Z   1
loop_
 _symmetry_equiv_pos_site_id
 _symmetry_equiv_pos_as_xyz
  1  'x, y, z'
loop_
 _atom_site_type_symbol
 _atom_site_label
 _atom_site_symmetry_multiplicity
 _atom_site_fract_x
 _atom_site_fract_y
 _atom_site_fract_z
 _atom_site_occupancy
  Ce  Ce0  1  0.191657  0.383318  0.254659  1
  Ce  Ce1  1  0.806979  0.617368  0.745795  1
  Ce  Ce2  1  0.613647  0.810703  0.255198  1
  Ce  Ce3  1  0.384501  0.190310  0.744682  1
  Ce  Ce4  1  0.197640  0.810362  0.255391  1
  Nd  Nd5  1  0.806875  0.189607  0.747718  1
  Al  Al6  1  0.334419  0.669232  0.028943  1
  Al  Al7  1  0.664167  0.328276  0.972761  1
  Al  Al8  1  0.668325  0.332678  0.520304  1
  Al  Al9  1  0.333898  0.665432  0.481334  1
  Al  Al10  1  0.163156  0.326172  0.574036  1
  Al  Al11  1  0.836936  0.674150  0.424295  1
  Al  Al12  1  0.673084  0.836479  0.574843  1
  Al  Al13  1  0.838435  0.677656  0.078329  1
  Al  Al14  1  0.327029  0.164419  0.423751  1
  Al  Al15  1  0.162880  0.323850  0.923352  1
  Al  Al16  1  0.162866  0.835974  0.576226  1
  Al  Al17  1  0.324858  0.157859  0.077046  1
  Al  Al18  1  0.836829  0.164519  0.423280  1
  Al  Al19  1  0.673478  0.841711  0.924941  1
  Al  Al20  1  0.831553  0.157138  0.079072  1
  Al  Al21  1  0.167478  0.841996  0.922490  1
  Al  Al22  1  0.563990  0.128250  0.248591  1
  Al  Al23  1  0.437014  0.874479  0.750736  1
  Al  Al24  1  0.873742  0.437350  0.250267  1
  Al  Al25  1  0.125383  0.563523  0.746922  1
  Al  Al26  1  0.562744  0.438460  0.251537  1
  Al  Al27  1  0.436292  0.562778  0.748552  1
  Al  Al28  1  0.000727  0.000313  0.250313  1
  Al  Al29  1  0.000672  0.997143  0.749576  1
  Os  Os30  1  0.497516  0.997924  0.002427  1
  Os  Os31  1  0.497641  0.997768  0.496700  1
  Os  Os32  1  0.002570  0.502330  0.496127  1
  Os  Os33  1  0.500688  0.499531  0.500375  1
  Os  Os34  1  0.999802  0.000514  0.999868  1
  Os  Os35  1  0.999788  0.000436  0.499561  1
  Pd  Pd36  1  0.000375  0.500478  0.000222  1
  Pd  Pd37  1  0.500365  0.499512  0.999778  1
