# generated using pymatgen
data_Lu3GeS2
_symmetry_space_group_name_H-M   'P 1'
_cell_length_a   6.76319160
_cell_length_b   6.76319245
_cell_length_c   6.76319198
_cell_angle_alpha   146.26920163
_cell_angle_beta   131.74297287
_cell_angle_gamma   60.16883160
_symmetry_Int_Tables_number   1
_chemical_formula_structural   Lu3GeS2
_chemical_formula_sum   'Lu3 Ge1 S2'
_cell_volume   126.98560165
_cell_formula_units_Z   1
loop_
 _symmetry_equiv_pos_site_id
 _symmetry_equiv_pos_as_xyz
  1  'x, y, z'
loop_
 _atom_site_type_symbol
 _atom_site_label
 _atom_site_symmetry_multiplicity
 _atom_site_fract_x
 _atom_site_fract_y
 _atom_site_fract_z
 _atom_site_occupancy
  Lu  Lu0  1  0.333341  0.333341  0.000000  1
  Lu  Lu1  1  0.000000  0.000000  0.000000  1
  Lu  Lu2  1  0.666659  0.666659  0.000000  1
  Ge  Ge3  1  0.500000  0.000000  0.500000  1
  S  S4  1  0.166411  0.666411  0.500000  1
  S  S5  1  0.833589  0.333589  0.500000  1
