# generated using pymatgen
data_Tb9Nd8Dy3Si16
_symmetry_space_group_name_H-M   'P 1'
_cell_length_a   7.77837918
_cell_length_b   7.77837927
_cell_length_c   14.39636500
_cell_angle_alpha   90.01226444
_cell_angle_beta   89.98773556
_cell_angle_gamma   90.00873874
_symmetry_Int_Tables_number   1
_chemical_formula_structural   Tb9Nd8Dy3Si16
_chemical_formula_sum   'Tb9 Nd8 Dy3 Si16'
_cell_volume   871.02586104
_cell_formula_units_Z   1
loop_
 _symmetry_equiv_pos_site_id
 _symmetry_equiv_pos_as_xyz
  1  'x, y, z'
loop_
 _atom_site_type_symbol
 _atom_site_label
 _atom_site_symmetry_multiplicity
 _atom_site_fract_x
 _atom_site_fract_y
 _atom_site_fract_z
 _atom_site_occupancy
  Tb  Tb0  1  0.491099  0.362131  0.124429  1
  Tb  Tb1  1  0.991083  0.137978  0.625403  1
  Tb  Tb2  1  0.862128  0.009106  0.874802  1
  Tb  Tb3  1  0.137978  0.991083  0.374597  1
  Tb  Tb4  1  0.509026  0.637785  0.624971  1
  Tb  Tb5  1  0.362131  0.491099  0.875571  1
  Tb  Tb6  1  0.637785  0.509026  0.375029  1
  Tb  Tb7  1  0.009106  0.862128  0.125198  1
  Tb  Tb8  1  0.316635  0.316635  0.500000  1
  Nd  Nd9  1  0.640910  0.992564  0.457706  1
  Nd  Nd10  1  0.359018  0.007421  0.957700  1
  Nd  Nd11  1  0.992564  0.640910  0.542294  1
  Nd  Nd12  1  0.492594  0.858845  0.207383  1
  Nd  Nd13  1  0.507730  0.140948  0.708009  1
  Nd  Nd14  1  0.858845  0.492594  0.792617  1
  Nd  Nd15  1  0.140948  0.507730  0.291991  1
  Nd  Nd16  1  0.007421  0.359018  0.042300  1
  Dy  Dy17  1  0.183172  0.816554  0.750125  1
  Dy  Dy18  1  0.816554  0.183172  0.249875  1
  Dy  Dy19  1  0.683358  0.683358  0.000000  1
  Si  Si20  1  0.290741  0.934656  0.561312  1
  Si  Si21  1  0.709043  0.064518  0.061198  1
  Si  Si22  1  0.934656  0.290741  0.438688  1
  Si  Si23  1  0.435574  0.208657  0.310661  1
  Si  Si24  1  0.564626  0.791256  0.811544  1
  Si  Si25  1  0.208657  0.435574  0.689339  1
  Si  Si26  1  0.791256  0.564626  0.188456  1
  Si  Si27  1  0.064518  0.709043  0.938802  1
  Si  Si28  1  0.796571  0.845594  0.690272  1
  Si  Si29  1  0.203902  0.154135  0.189756  1
  Si  Si30  1  0.845594  0.796571  0.309728  1
  Si  Si31  1  0.345960  0.703858  0.439961  1
  Si  Si32  1  0.654357  0.296469  0.940062  1
  Si  Si33  1  0.703858  0.345960  0.560039  1
  Si  Si34  1  0.296469  0.654357  0.059938  1
  Si  Si35  1  0.154135  0.203902  0.810244  1
