# generated using pymatgen
data_HoPa3(SnPd2)2
_symmetry_space_group_name_H-M   'P 1'
_cell_length_a   7.75674793
_cell_length_b   7.75674695
_cell_length_c   3.71749600
_cell_angle_alpha   90.00000000
_cell_angle_beta   90.00000000
_cell_angle_gamma   90.33729378
_symmetry_Int_Tables_number   1
_chemical_formula_structural   HoPa3(SnPd2)2
_chemical_formula_sum   'Ho1 Pa3 Sn2 Pd4'
_cell_volume   223.66719274
_cell_formula_units_Z   1
loop_
 _symmetry_equiv_pos_site_id
 _symmetry_equiv_pos_as_xyz
  1  'x, y, z'
loop_
 _atom_site_type_symbol
 _atom_site_label
 _atom_site_symmetry_multiplicity
 _atom_site_fract_x
 _atom_site_fract_y
 _atom_site_fract_z
 _atom_site_occupancy
  Ho  Ho0  1  0.824438  0.675562  0.500000  1
  Pa  Pa1  1  0.675659  0.175036  0.500000  1
  Pa  Pa2  1  0.324964  0.824341  0.500000  1
  Pa  Pa3  1  0.173299  0.326701  0.500000  1
  Sn  Sn4  1  0.995827  0.992511  0.000000  1
  Sn  Sn5  1  0.507489  0.504173  0.000000  1
  Pd  Pd6  1  0.135101  0.623444  0.000000  1
  Pd  Pd7  1  0.876556  0.364899  0.000000  1
  Pd  Pd8  1  0.619293  0.880707  0.000000  1
  Pd  Pd9  1  0.367374  0.132626  0.000000  1
