# generated using pymatgen
data_DyLuSi2O7
_symmetry_space_group_name_H-M   'P 1'
_cell_length_a   5.63920311
_cell_length_b   5.63920274
_cell_length_c   4.77379572
_cell_angle_alpha   82.70921739
_cell_angle_beta   82.70923083
_cell_angle_gamma   105.29023795
_symmetry_Int_Tables_number   1
_chemical_formula_structural   DyLuSi2O7
_chemical_formula_sum   'Dy1 Lu1 Si2 O7'
_cell_volume   143.19711105
_cell_formula_units_Z   1
loop_
 _symmetry_equiv_pos_site_id
 _symmetry_equiv_pos_as_xyz
  1  'x, y, z'
loop_
 _atom_site_type_symbol
 _atom_site_label
 _atom_site_symmetry_multiplicity
 _atom_site_fract_x
 _atom_site_fract_y
 _atom_site_fract_z
 _atom_site_occupancy
  Dy  Dy0  1  0.304658  0.695342  0.000000  1
  Lu  Lu1  1  0.688580  0.311420  0.000000  1
  Si  Si2  1  0.781771  0.780715  0.410686  1
  Si  Si3  1  0.219285  0.218229  0.589314  1
  O  O4  1  0.391498  0.094228  0.784122  1
  O  O5  1  0.905772  0.608502  0.215878  1
  O  O6  1  0.620385  0.925680  0.222363  1
  O  O7  1  0.074320  0.379615  0.777637  1
  O  O8  1  0.014838  0.985162  0.500000  1
  O  O9  1  0.382539  0.383644  0.285210  1
  O  O10  1  0.616356  0.617461  0.714790  1
