# generated using pymatgen
data_Ac2YbMg3Tl2Ag
_symmetry_space_group_name_H-M   'P 1'
_cell_length_a   7.99396182
_cell_length_b   8.03332807
_cell_length_c   4.77277900
_cell_angle_alpha   90.00000000
_cell_angle_beta   90.00000000
_cell_angle_gamma   120.16305143
_symmetry_Int_Tables_number   1
_chemical_formula_structural   Ac2YbMg3Tl2Ag
_chemical_formula_sum   'Ac2 Yb1 Mg3 Tl2 Ag1'
_cell_volume   264.99863128
_cell_formula_units_Z   1
loop_
 _symmetry_equiv_pos_site_id
 _symmetry_equiv_pos_as_xyz
  1  'x, y, z'
loop_
 _atom_site_type_symbol
 _atom_site_label
 _atom_site_symmetry_multiplicity
 _atom_site_fract_x
 _atom_site_fract_y
 _atom_site_fract_z
 _atom_site_occupancy
  Ac  Ac0  1  0.414674  0.415746  0.500000  1
  Ac  Ac1  1  0.585326  0.001072  0.500000  1
  Yb  Yb2  1  0.000000  0.591091  0.500000  1
  Mg  Mg3  1  0.774246  0.769240  0.000000  1
  Mg  Mg4  1  0.225754  0.994994  0.000000  1
  Mg  Mg5  1  0.000000  0.231460  0.000000  1
  Tl  Tl6  1  0.685777  0.346175  0.000000  1
  Tl  Tl7  1  0.314223  0.660400  0.000000  1
  Ag  Ag8  1  0.000000  0.989821  0.500000  1
