# generated using pymatgen
data_SmGaPRu2
_symmetry_space_group_name_H-M   'P 1'
_cell_length_a   5.72476126
_cell_length_b   5.72476171
_cell_length_c   5.72476177
_cell_angle_alpha   136.80472744
_cell_angle_beta   136.80473764
_cell_angle_gamma   62.73862917
_symmetry_Int_Tables_number   1
_chemical_formula_structural   SmGaPRu2
_chemical_formula_sum   'Sm1 Ga1 P1 Ru2'
_cell_volume   86.81653065
_cell_formula_units_Z   1
loop_
 _symmetry_equiv_pos_site_id
 _symmetry_equiv_pos_as_xyz
  1  'x, y, z'
loop_
 _atom_site_type_symbol
 _atom_site_label
 _atom_site_symmetry_multiplicity
 _atom_site_fract_x
 _atom_site_fract_y
 _atom_site_fract_z
 _atom_site_occupancy
  Sm  Sm0  1  0.000151  0.000151  0.000000  1
  Ga  Ga1  1  0.621941  0.621941  0.000000  1
  P  P2  1  0.359202  0.359202  0.000000  1
  Ru  Ru3  1  0.259353  0.759353  0.500000  1
  Ru  Ru4  1  0.759353  0.259353  0.500000  1
