# generated using pymatgen
data_NpH2Br
_symmetry_space_group_name_H-M   'P 1'
_cell_length_a   10.90090882
_cell_length_b   10.90090850
_cell_length_c   10.90090759
_cell_angle_alpha   20.17811611
_cell_angle_beta   20.17812007
_cell_angle_gamma   20.17811716
_symmetry_Int_Tables_number   1
_chemical_formula_structural   NpH2Br
_chemical_formula_sum   'Np2 H4 Br2'
_cell_volume   134.85577351
_cell_formula_units_Z   2
loop_
 _symmetry_equiv_pos_site_id
 _symmetry_equiv_pos_as_xyz
  1  'x, y, z'
loop_
 _atom_site_type_symbol
 _atom_site_label
 _atom_site_symmetry_multiplicity
 _atom_site_fract_x
 _atom_site_fract_y
 _atom_site_fract_z
 _atom_site_occupancy
  Np  Np0  1  0.883755  0.883755  0.883755  1
  Np  Np1  1  0.116245  0.116245  0.116245  1
  H  H2  1  0.811859  0.811859  0.811859  1
  H  H3  1  0.188141  0.188141  0.188141  1
  H  H4  1  0.546522  0.546522  0.546522  1
  H  H5  1  0.453478  0.453478  0.453478  1
  Br  Br6  1  0.720243  0.720243  0.720243  1
  Br  Br7  1  0.279757  0.279757  0.279757  1
