# generated using pymatgen
data_RbTl(Ga3Se5)2
_symmetry_space_group_name_H-M   'P 1'
_cell_length_a   13.47636300
_cell_length_b   7.56309721
_cell_length_c   11.21002800
_cell_angle_alpha   75.77419207
_cell_angle_beta   90.00000000
_cell_angle_gamma   90.00000000
_symmetry_Int_Tables_number   1
_chemical_formula_structural   RbTl(Ga3Se5)2
_chemical_formula_sum   'Rb2 Tl2 Ga12 Se20'
_cell_volume   1107.52328573
_cell_formula_units_Z   2
loop_
 _symmetry_equiv_pos_site_id
 _symmetry_equiv_pos_as_xyz
  1  'x, y, z'
loop_
 _atom_site_type_symbol
 _atom_site_label
 _atom_site_symmetry_multiplicity
 _atom_site_fract_x
 _atom_site_fract_y
 _atom_site_fract_z
 _atom_site_occupancy
  Rb  Rb0  1  0.617887  0.838656  0.383972  1
  Rb  Rb1  1  0.117887  0.161344  0.116028  1
  Tl  Tl2  1  0.361891  0.165254  0.644066  1
  Tl  Tl3  1  0.861891  0.834746  0.855934  1
  Ga  Ga4  1  0.922266  0.802572  0.401827  1
  Ga  Ga5  1  0.579961  0.801781  0.897961  1
  Ga  Ga6  1  0.422266  0.197428  0.098173  1
  Ga  Ga7  1  0.398076  0.562304  0.805193  1
  Ga  Ga8  1  0.105467  0.559683  0.310486  1
  Ga  Ga9  1  0.336665  0.706942  0.123329  1
  Ga  Ga10  1  0.605467  0.440317  0.189514  1
  Ga  Ga11  1  0.079961  0.198219  0.602039  1
  Ga  Ga12  1  0.664681  0.293207  0.874450  1
  Ga  Ga13  1  0.898076  0.437696  0.694807  1
  Ga  Ga14  1  0.164681  0.706793  0.625550  1
  Ga  Ga15  1  0.836665  0.293058  0.376671  1
  Se  Se16  1  0.827667  0.722292  0.588566  1
  Se  Se17  1  0.106086  0.817428  0.411727  1
  Se  Se18  1  0.677387  0.722555  0.080609  1
  Se  Se19  1  0.395786  0.817179  0.907820  1
  Se  Se20  1  0.327667  0.277708  0.911434  1
  Se  Se21  1  0.661743  0.344470  0.399807  1
  Se  Se22  1  0.580732  0.578594  0.764470  1
  Se  Se23  1  0.606086  0.182572  0.088273  1
  Se  Se24  1  0.895786  0.182821  0.592180  1
  Se  Se25  1  0.636853  0.073424  0.753095  1
  Se  Se26  1  0.366582  0.926656  0.243355  1
  Se  Se27  1  0.177387  0.277445  0.419391  1
  Se  Se28  1  0.080732  0.421406  0.735530  1
  Se  Se29  1  0.921873  0.577537  0.270279  1
  Se  Se30  1  0.866582  0.073344  0.256645  1
  Se  Se31  1  0.136853  0.926576  0.746905  1
  Se  Se32  1  0.838395  0.349580  0.902850  1
  Se  Se33  1  0.338395  0.650420  0.597150  1
  Se  Se34  1  0.421873  0.422463  0.229721  1
  Se  Se35  1  0.161743  0.655530  0.100193  1
