# generated using pymatgen
data_Nd7Y(Si3Pt)4
_symmetry_space_group_name_H-M   'P 1'
_cell_length_a   8.23157729
_cell_length_b   8.22779160
_cell_length_c   8.53914300
_cell_angle_alpha   90.00000000
_cell_angle_beta   90.00000000
_cell_angle_gamma   119.98477796
_symmetry_Int_Tables_number   1
_chemical_formula_structural   Nd7Y(Si3Pt)4
_chemical_formula_sum   'Nd7 Y1 Si12 Pt4'
_cell_volume   500.93093939
_cell_formula_units_Z   1
loop_
 _symmetry_equiv_pos_site_id
 _symmetry_equiv_pos_as_xyz
  1  'x, y, z'
loop_
 _atom_site_type_symbol
 _atom_site_label
 _atom_site_symmetry_multiplicity
 _atom_site_fract_x
 _atom_site_fract_y
 _atom_site_fract_z
 _atom_site_occupancy
  Nd  Nd0  1  0.499887  0.500105  0.750000  1
  Nd  Nd1  1  0.500077  0.499895  0.250000  1
  Nd  Nd2  1  0.999806  0.499903  0.250000  1
  Nd  Nd3  1  0.499887  0.999782  0.750000  1
  Nd  Nd4  1  0.500077  0.000182  0.250000  1
  Nd  Nd5  1  0.999987  0.999994  0.750000  1
  Nd  Nd6  1  0.999997  0.999998  0.250000  1
  Y  Y7  1  0.000268  0.500134  0.750000  1
  Si  Si8  1  0.834787  0.166678  0.998107  1
  Si  Si9  1  0.165219  0.833337  0.999331  1
  Si  Si10  1  0.332183  0.166092  0.999357  1
  Si  Si11  1  0.165219  0.833337  0.500669  1
  Si  Si12  1  0.667812  0.833906  0.000508  1
  Si  Si13  1  0.834787  0.166678  0.501893  1
  Si  Si14  1  0.834787  0.668109  0.998107  1
  Si  Si15  1  0.667812  0.833906  0.499492  1
  Si  Si16  1  0.165219  0.331882  0.999331  1
  Si  Si17  1  0.332183  0.166092  0.500643  1
  Si  Si18  1  0.165219  0.331882  0.500669  1
  Si  Si19  1  0.834787  0.668109  0.501893  1
  Pt  Pt20  1  0.667821  0.333910  0.996900  1
  Pt  Pt21  1  0.332180  0.666091  0.997135  1
  Pt  Pt22  1  0.332180  0.666091  0.502865  1
  Pt  Pt23  1  0.667821  0.333910  0.503100  1
