# generated using pymatgen
data_Cs7LiNbTl2As5
_symmetry_space_group_name_H-M   'P 1'
_cell_length_a   9.12942392
_cell_length_b   9.91484907
_cell_length_c   15.24922280
_cell_angle_alpha   86.39126510
_cell_angle_beta   79.87067593
_cell_angle_gamma   86.02727874
_symmetry_Int_Tables_number   1
_chemical_formula_structural   Cs7LiNbTl2As5
_chemical_formula_sum   'Cs14 Li2 Nb2 Tl4 As10'
_cell_volume   1353.72045152
_cell_formula_units_Z   2
loop_
 _symmetry_equiv_pos_site_id
 _symmetry_equiv_pos_as_xyz
  1  'x, y, z'
loop_
 _atom_site_type_symbol
 _atom_site_label
 _atom_site_symmetry_multiplicity
 _atom_site_fract_x
 _atom_site_fract_y
 _atom_site_fract_z
 _atom_site_occupancy
  Cs  Cs0  1  0.852784  0.358789  0.652549  1
  Cs  Cs1  1  0.845282  0.801193  0.129964  1
  Cs  Cs2  1  0.239968  0.020298  0.469566  1
  Cs  Cs3  1  0.279134  0.259316  0.245865  1
  Cs  Cs4  1  0.740038  0.477808  0.971218  1
  Cs  Cs5  1  0.259962  0.522192  0.028782  1
  Cs  Cs6  1  0.641337  0.087408  0.877524  1
  Cs  Cs7  1  0.760032  0.979702  0.530434  1
  Cs  Cs8  1  0.720866  0.740684  0.754135  1
  Cs  Cs9  1  0.346304  0.348622  0.607720  1
  Cs  Cs10  1  0.147216  0.641211  0.347451  1
  Cs  Cs11  1  0.154718  0.198807  0.870036  1
  Cs  Cs12  1  0.358663  0.912592  0.122476  1
  Cs  Cs13  1  0.653696  0.651378  0.392280  1
  Li  Li14  1  0.085590  0.825088  0.818039  1
  Li  Li15  1  0.914410  0.174912  0.181961  1
  Nb  Nb16  1  0.338718  0.621031  0.777885  1
  Nb  Nb17  1  0.661282  0.378969  0.222115  1
  Tl  Tl18  1  0.356450  0.967125  0.701359  1
  Tl  Tl19  1  0.101931  0.722440  0.621187  1
  Tl  Tl20  1  0.898069  0.277560  0.378813  1
  Tl  Tl21  1  0.643550  0.032875  0.298641  1
  As  As22  1  0.927689  0.441220  0.209765  1
  As  As23  1  0.658284  0.178314  0.123287  1
  As  As24  1  0.072311  0.558780  0.790235  1
  As  As25  1  0.574566  0.292886  0.382469  1
  As  As26  1  0.425434  0.707114  0.617531  1
  As  As27  1  0.010884  0.007606  0.704809  1
  As  As28  1  0.494063  0.419075  0.813793  1
  As  As29  1  0.505937  0.580925  0.186207  1
  As  As30  1  0.341716  0.821686  0.876713  1
  As  As31  1  0.989116  0.992394  0.295191  1
