# generated using pymatgen
data_Ho6Al24Ru3Pt3Rh2
_symmetry_space_group_name_H-M   'P 1'
_cell_length_a   8.84434322
_cell_length_b   8.84434486
_cell_length_c   9.49267478
_cell_angle_alpha   89.82383313
_cell_angle_beta   90.17616597
_cell_angle_gamma   120.15449045
_symmetry_Int_Tables_number   1
_chemical_formula_structural   Ho6Al24Ru3Pt3Rh2
_chemical_formula_sum   'Ho6 Al24 Ru3 Pt3 Rh2'
_cell_volume   642.05105329
_cell_formula_units_Z   1
loop_
 _symmetry_equiv_pos_site_id
 _symmetry_equiv_pos_as_xyz
  1  'x, y, z'
loop_
 _atom_site_type_symbol
 _atom_site_label
 _atom_site_symmetry_multiplicity
 _atom_site_fract_x
 _atom_site_fract_y
 _atom_site_fract_z
 _atom_site_occupancy
  Ho  Ho0  1  0.193461  0.383181  0.250163  1
  Ho  Ho1  1  0.806539  0.616819  0.749837  1
  Ho  Ho2  1  0.616819  0.806539  0.250163  1
  Ho  Ho3  1  0.383181  0.193461  0.749837  1
  Ho  Ho4  1  0.191180  0.808820  0.251992  1
  Ho  Ho5  1  0.808820  0.191180  0.748008  1
  Al  Al6  1  0.331243  0.668757  0.031809  1
  Al  Al7  1  0.668757  0.331243  0.968191  1
  Al  Al8  1  0.663875  0.336125  0.530565  1
  Al  Al9  1  0.336125  0.663875  0.469435  1
  Al  Al10  1  0.167342  0.325700  0.576264  1
  Al  Al11  1  0.832658  0.674300  0.423736  1
  Al  Al12  1  0.674300  0.832658  0.576264  1
  Al  Al13  1  0.840711  0.674289  0.076232  1
  Al  Al14  1  0.325700  0.167342  0.423736  1
  Al  Al15  1  0.159289  0.325711  0.923768  1
  Al  Al16  1  0.161923  0.838077  0.577634  1
  Al  Al17  1  0.325711  0.159289  0.076232  1
  Al  Al18  1  0.838077  0.161923  0.422366  1
  Al  Al19  1  0.674289  0.840711  0.923768  1
  Al  Al20  1  0.837375  0.162625  0.076159  1
  Al  Al21  1  0.162625  0.837375  0.923841  1
  Al  Al22  1  0.563095  0.125174  0.246910  1
  Al  Al23  1  0.436905  0.874826  0.753090  1
  Al  Al24  1  0.874826  0.436905  0.246910  1
  Al  Al25  1  0.125174  0.563095  0.753090  1
  Al  Al26  1  0.563024  0.436976  0.253779  1
  Al  Al27  1  0.436976  0.563024  0.746221  1
  Al  Al28  1  0.000526  0.999474  0.249946  1
  Al  Al29  1  0.999474  0.000526  0.750054  1
  Ru  Ru30  1  0.500000  0.500000  0.500000  1
  Ru  Ru31  1  0.000000  0.000000  0.000000  1
  Ru  Ru32  1  0.000000  0.000000  0.500000  1
  Pt  Pt33  1  0.500000  0.000000  0.500000  1
  Pt  Pt34  1  0.500000  0.500000  0.000000  1
  Pt  Pt35  1  0.000000  0.500000  0.500000  1
  Rh  Rh36  1  0.500000  0.000000  0.000000  1
  Rh  Rh37  1  0.000000  0.500000  0.000000  1
