# generated using pymatgen
data_Ho3Lu2(CoO6)2
_symmetry_space_group_name_H-M   'P 1'
_cell_length_a   6.69589546
_cell_length_b   6.69589547
_cell_length_c   7.08239212
_cell_angle_alpha   74.29203717
_cell_angle_beta   74.29204043
_cell_angle_gamma   50.18684801
_symmetry_Int_Tables_number   1
_chemical_formula_structural   Ho3Lu2(CoO6)2
_chemical_formula_sum   'Ho3 Lu2 Co2 O12'
_cell_volume   232.75899558
_cell_formula_units_Z   1
loop_
 _symmetry_equiv_pos_site_id
 _symmetry_equiv_pos_as_xyz
  1  'x, y, z'
loop_
 _atom_site_type_symbol
 _atom_site_label
 _atom_site_symmetry_multiplicity
 _atom_site_fract_x
 _atom_site_fract_y
 _atom_site_fract_z
 _atom_site_occupancy
  Ho  Ho0  1  0.308072  0.308072  0.833644  1
  Ho  Ho1  1  0.691928  0.691928  0.166356  1
  Ho  Ho2  1  0.000000  0.000000  0.500000  1
  Lu  Lu3  1  0.304509  0.304509  0.357268  1
  Lu  Lu4  1  0.695491  0.695491  0.642732  1
  Co  Co5  1  0.754959  0.245041  0.000000  1
  Co  Co6  1  0.245041  0.754959  0.000000  1
  O  O7  1  0.898775  0.421642  0.916773  1
  O  O8  1  0.421642  0.898775  0.916773  1
  O  O9  1  0.101225  0.578358  0.083227  1
  O  O10  1  0.578358  0.101225  0.083227  1
  O  O11  1  0.095835  0.597098  0.571931  1
  O  O12  1  0.597098  0.095835  0.571931  1
  O  O13  1  0.904165  0.402902  0.428069  1
  O  O14  1  0.402902  0.904165  0.428069  1
  O  O15  1  0.998827  0.998827  0.827519  1
  O  O16  1  0.001173  0.001173  0.172481  1
  O  O17  1  0.501558  0.501558  0.820016  1
  O  O18  1  0.498442  0.498442  0.179984  1
