# generated using pymatgen
data_SrPuN2
_symmetry_space_group_name_H-M   'P 1'
_cell_length_a   6.24284438
_cell_length_b   6.24284428
_cell_length_c   6.24284452
_cell_angle_alpha   33.42360117
_cell_angle_beta   33.42359868
_cell_angle_gamma   33.42358356
_symmetry_Int_Tables_number   1
_chemical_formula_structural   SrPuN2
_chemical_formula_sum   'Sr1 Pu1 N2'
_cell_volume   65.73877563
_cell_formula_units_Z   1
loop_
 _symmetry_equiv_pos_site_id
 _symmetry_equiv_pos_as_xyz
  1  'x, y, z'
loop_
 _atom_site_type_symbol
 _atom_site_label
 _atom_site_symmetry_multiplicity
 _atom_site_fract_x
 _atom_site_fract_y
 _atom_site_fract_z
 _atom_site_occupancy
  Sr  Sr0  1  0.000000  0.000000  0.000000  1
  Pu  Pu1  1  0.500000  0.500000  0.500000  1
  N  N2  1  0.768651  0.768651  0.768651  1
  N  N3  1  0.231349  0.231349  0.231349  1
