# generated using pymatgen
data_Be(CoMo)6
_symmetry_space_group_name_H-M   'P 1'
_cell_length_a   8.80673547
_cell_length_b   8.80673539
_cell_length_c   8.80673474
_cell_angle_alpha   31.30659308
_cell_angle_beta   31.30659243
_cell_angle_gamma   31.30659955
_symmetry_Int_Tables_number   1
_chemical_formula_structural   Be(CoMo)6
_chemical_formula_sum   'Be1 Co6 Mo6'
_cell_volume   163.68067633
_cell_formula_units_Z   1
loop_
 _symmetry_equiv_pos_site_id
 _symmetry_equiv_pos_as_xyz
  1  'x, y, z'
loop_
 _atom_site_type_symbol
 _atom_site_label
 _atom_site_symmetry_multiplicity
 _atom_site_fract_x
 _atom_site_fract_y
 _atom_site_fract_z
 _atom_site_occupancy
  Be  Be0  1  0.000000  0.000000  0.000000  1
  Co  Co1  1  0.908713  0.407990  0.908713  1
  Co  Co2  1  0.908713  0.908713  0.407990  1
  Co  Co3  1  0.407990  0.908713  0.908713  1
  Co  Co4  1  0.091287  0.592010  0.091287  1
  Co  Co5  1  0.091287  0.091287  0.592010  1
  Co  Co6  1  0.592010  0.091287  0.091287  1
  Mo  Mo7  1  0.830595  0.830595  0.830595  1
  Mo  Mo8  1  0.169405  0.169405  0.169405  1
  Mo  Mo9  1  0.653385  0.653385  0.653385  1
  Mo  Mo10  1  0.346615  0.346615  0.346615  1
  Mo  Mo11  1  0.550020  0.550020  0.550020  1
  Mo  Mo12  1  0.449980  0.449980  0.449980  1
