# generated using pymatgen
data_Ho5Er3Tc3OsC8
_symmetry_space_group_name_H-M   'P 1'
_cell_length_a   5.06728800
_cell_length_b   6.52201448
_cell_length_c   9.78697405
_cell_angle_alpha   89.85220474
_cell_angle_beta   90.00000000
_cell_angle_gamma   90.00000000
_symmetry_Int_Tables_number   1
_chemical_formula_structural   Ho5Er3Tc3OsC8
_chemical_formula_sum   'Ho5 Er3 Tc3 Os1 C8'
_cell_volume   323.44790221
_cell_formula_units_Z   1
loop_
 _symmetry_equiv_pos_site_id
 _symmetry_equiv_pos_as_xyz
  1  'x, y, z'
loop_
 _atom_site_type_symbol
 _atom_site_label
 _atom_site_symmetry_multiplicity
 _atom_site_fract_x
 _atom_site_fract_y
 _atom_site_fract_z
 _atom_site_occupancy
  Ho  Ho0  1  0.750000  0.822534  0.057077  1
  Ho  Ho1  1  0.250000  0.531136  0.216081  1
  Ho  Ho2  1  0.750000  0.466819  0.784285  1
  Ho  Ho3  1  0.750000  0.969187  0.713338  1
  Ho  Ho4  1  0.250000  0.031163  0.284469  1
  Er  Er5  1  0.250000  0.676002  0.557267  1
  Er  Er6  1  0.750000  0.322535  0.442894  1
  Er  Er7  1  0.250000  0.176141  0.942559  1
  Tc  Tc8  1  0.250000  0.719542  0.866219  1
  Tc  Tc9  1  0.750000  0.281100  0.132931  1
  Tc  Tc10  1  0.750000  0.780091  0.367430  1
  Os  Os11  1  0.250000  0.219761  0.633693  1
  C  C12  1  0.250000  0.452566  0.758372  1
  C  C13  1  0.750000  0.547588  0.241806  1
  C  C14  1  0.750000  0.048154  0.259480  1
  C  C15  1  0.250000  0.953803  0.741340  1
  C  C16  1  0.250000  0.824033  0.050652  1
  C  C17  1  0.750000  0.176973  0.948164  1
  C  C18  1  0.750000  0.675999  0.552516  1
  C  C19  1  0.250000  0.324874  0.449428  1
