# generated using pymatgen
data_Tb2YZr(Al3Ir)6
_symmetry_space_group_name_H-M   'P 1'
_cell_length_a   7.54658416
_cell_length_b   7.53670176
_cell_length_c   9.43351200
_cell_angle_alpha   90.00000000
_cell_angle_beta   90.00000000
_cell_angle_gamma   119.60825713
_symmetry_Int_Tables_number   1
_chemical_formula_structural   Tb2YZr(Al3Ir)6
_chemical_formula_sum   'Tb2 Y1 Zr1 Al18 Ir6'
_cell_volume   466.48388872
_cell_formula_units_Z   1
loop_
 _symmetry_equiv_pos_site_id
 _symmetry_equiv_pos_as_xyz
  1  'x, y, z'
loop_
 _atom_site_type_symbol
 _atom_site_label
 _atom_site_symmetry_multiplicity
 _atom_site_fract_x
 _atom_site_fract_y
 _atom_site_fract_z
 _atom_site_occupancy
  Tb  Tb0  1  0.005581  0.327822  0.750000  1
  Tb  Tb1  1  0.670681  0.995312  0.250000  1
  Y  Y2  1  0.329473  0.006405  0.750000  1
  Zr  Zr3  1  0.996552  0.671969  0.250000  1
  Al  Al4  1  0.126002  0.123075  0.250000  1
  Al  Al5  1  0.870899  0.869574  0.750000  1
  Al  Al6  1  0.000410  0.337868  0.078218  1
  Al  Al7  1  0.999320  0.665189  0.930275  1
  Al  Al8  1  0.999320  0.665189  0.569725  1
  Al  Al9  1  0.332123  0.998101  0.421690  1
  Al  Al10  1  0.000410  0.337868  0.421782  1
  Al  Al11  1  0.664693  0.998226  0.574080  1
  Al  Al12  1  0.664693  0.998226  0.925920  1
  Al  Al13  1  0.332123  0.998101  0.078310  1
  Al  Al14  1  0.333896  0.333931  0.550103  1
  Al  Al15  1  0.668899  0.666791  0.444281  1
  Al  Al16  1  0.668899  0.666791  0.055719  1
  Al  Al17  1  0.333896  0.333931  0.949897  1
  Al  Al18  1  0.335499  0.549058  0.250000  1
  Al  Al19  1  0.660913  0.452617  0.750000  1
  Al  Al20  1  0.554825  0.344483  0.250000  1
  Al  Al21  1  0.451361  0.659774  0.750000  1
  Ir  Ir22  1  0.672186  0.328254  0.000721  1
  Ir  Ir23  1  0.327987  0.672074  0.001448  1
  Ir  Ir24  1  0.327987  0.672074  0.498552  1
  Ir  Ir25  1  0.672186  0.328254  0.499279  1
  Ir  Ir26  1  0.999593  0.999520  0.000728  1
  Ir  Ir27  1  0.999593  0.999520  0.499272  1
