# generated using pymatgen
data_Tb11Y(TcRh)2
_symmetry_space_group_name_H-M   'P 1'
_cell_length_a   6.34620967
_cell_length_b   7.35214394
_cell_length_c   9.30943000
_cell_angle_alpha   90.00000000
_cell_angle_beta   90.00000000
_cell_angle_gamma   89.91673685
_symmetry_Int_Tables_number   1
_chemical_formula_structural   Tb11Y(TcRh)2
_chemical_formula_sum   'Tb11 Y1 Tc2 Rh2'
_cell_volume   434.36122582
_cell_formula_units_Z   1
loop_
 _symmetry_equiv_pos_site_id
 _symmetry_equiv_pos_as_xyz
  1  'x, y, z'
loop_
 _atom_site_type_symbol
 _atom_site_label
 _atom_site_symmetry_multiplicity
 _atom_site_fract_x
 _atom_site_fract_y
 _atom_site_fract_z
 _atom_site_occupancy
  Tb  Tb0  1  0.327728  0.677961  0.067851  1
  Tb  Tb1  1  0.172170  0.177978  0.432149  1
  Tb  Tb2  1  0.665509  0.322873  0.560566  1
  Tb  Tb3  1  0.834654  0.822875  0.939656  1
  Tb  Tb4  1  0.665509  0.322873  0.939434  1
  Tb  Tb5  1  0.834654  0.822875  0.560344  1
  Tb  Tb6  1  0.327728  0.677961  0.432149  1
  Tb  Tb7  1  0.172170  0.177978  0.067851  1
  Tb  Tb8  1  0.869812  0.537529  0.250000  1
  Tb  Tb9  1  0.630387  0.037616  0.250000  1
  Tb  Tb10  1  0.361477  0.958461  0.750000  1
  Y  Y11  1  0.137825  0.459216  0.750000  1
  Tc  Tc12  1  0.038507  0.886730  0.250000  1
  Tc  Tc13  1  0.461442  0.386798  0.250000  1
  Rh  Rh14  1  0.948370  0.114660  0.750000  1
  Rh  Rh15  1  0.552057  0.615610  0.750000  1
