# generated using pymatgen
data_SmY5PtBr10
_symmetry_space_group_name_H-M   'P 1'
_cell_length_a   7.40206208
_cell_length_b   9.27140142
_cell_length_c   9.38967035
_cell_angle_alpha   107.46393677
_cell_angle_beta   96.36254179
_cell_angle_gamma   104.95336689
_symmetry_Int_Tables_number   1
_chemical_formula_structural   SmY5PtBr10
_chemical_formula_sum   'Sm1 Y5 Pt1 Br10'
_cell_volume   581.34928923
_cell_formula_units_Z   1
loop_
 _symmetry_equiv_pos_site_id
 _symmetry_equiv_pos_as_xyz
  1  'x, y, z'
loop_
 _atom_site_type_symbol
 _atom_site_label
 _atom_site_symmetry_multiplicity
 _atom_site_fract_x
 _atom_site_fract_y
 _atom_site_fract_z
 _atom_site_occupancy
  Sm  Sm0  1  0.870269  0.950702  0.250523  1
  Y  Y1  1  0.128122  0.048308  0.753592  1
  Y  Y2  1  0.032565  0.700466  0.905406  1
  Y  Y3  1  0.967905  0.298740  0.091546  1
  Y  Y4  1  0.641136  0.866833  0.823812  1
  Y  Y5  1  0.358927  0.133452  0.176399  1
  Pt  Pt6  1  0.000047  0.999431  0.000223  1
  Br  Br7  1  0.656351  0.552722  0.730271  1
  Br  Br8  1  0.343401  0.447332  0.268563  1
  Br  Br9  1  0.753216  0.921180  0.551740  1
  Br  Br10  1  0.251574  0.082348  0.456876  1
  Br  Br11  1  0.915562  0.623670  0.168646  1
  Br  Br12  1  0.086945  0.371086  0.826930  1
  Br  Br13  1  0.546313  0.178292  0.913862  1
  Br  Br14  1  0.448830  0.819938  0.083223  1
  Br  Br15  1  0.226347  0.749828  0.658857  1
  Br  Br16  1  0.772489  0.255673  0.339532  1
