# generated using pymatgen
data_La5NdZn4IrPd12
_symmetry_space_group_name_H-M   'P 1'
_cell_length_a   8.43576269
_cell_length_b   8.43576225
_cell_length_c   8.43576319
_cell_angle_alpha   109.16973766
_cell_angle_beta   109.62216891
_cell_angle_gamma   109.62217401
_symmetry_Int_Tables_number   1
_chemical_formula_structural   La5NdZn4IrPd12
_chemical_formula_sum   'La5 Nd1 Zn4 Ir1 Pd12'
_cell_volume   462.10659708
_cell_formula_units_Z   1
loop_
 _symmetry_equiv_pos_site_id
 _symmetry_equiv_pos_as_xyz
  1  'x, y, z'
loop_
 _atom_site_type_symbol
 _atom_site_label
 _atom_site_symmetry_multiplicity
 _atom_site_fract_x
 _atom_site_fract_y
 _atom_site_fract_z
 _atom_site_occupancy
  La  La0  1  0.702374  0.701979  0.999605  1
  La  La1  1  0.297626  0.999605  0.297231  1
  La  La2  1  0.000000  0.299992  0.299992  1
  La  La3  1  0.297626  0.297231  0.999605  1
  La  La4  1  0.702374  0.999605  0.701979  1
  Nd  Nd5  1  0.000000  0.700081  0.700081  1
  Zn  Zn6  1  0.000000  0.999544  0.500602  1
  Zn  Zn7  1  0.000000  0.500602  0.999544  1
  Zn  Zn8  1  0.498942  0.999544  0.999544  1
  Zn  Zn9  1  0.501058  0.500602  0.500602  1
  Ir  Ir10  1  0.000000  0.000032  0.000032  1
  Pd  Pd11  1  0.331950  0.331862  0.663812  1
  Pd  Pd12  1  0.668050  0.999912  0.331862  1
  Pd  Pd13  1  0.000000  0.667956  0.332430  1
  Pd  Pd14  1  0.668050  0.331862  0.999912  1
  Pd  Pd15  1  0.331950  0.663812  0.331862  1
  Pd  Pd16  1  0.000000  0.332430  0.667956  1
  Pd  Pd17  1  0.331428  0.668241  0.999669  1
  Pd  Pd18  1  0.331428  0.999669  0.668241  1
  Pd  Pd19  1  0.664474  0.332430  0.332430  1
  Pd  Pd20  1  0.668572  0.668241  0.336813  1
  Pd  Pd21  1  0.668572  0.336813  0.668241  1
  Pd  Pd22  1  0.335526  0.667956  0.667956  1
