# generated using pymatgen
data_Y6Lu5Sc5(In3Co)2
_symmetry_space_group_name_H-M   'P 1'
_cell_length_a   10.02161088
_cell_length_b   10.02161002
_cell_length_c   6.98271064
_cell_angle_alpha   89.85959656
_cell_angle_beta   90.14040106
_cell_angle_gamma   120.01675785
_symmetry_Int_Tables_number   1
_chemical_formula_structural   Y6Lu5Sc5(In3Co)2
_chemical_formula_sum   'Y6 Lu5 Sc5 In6 Co2'
_cell_volume   607.23194684
_cell_formula_units_Z   1
loop_
 _symmetry_equiv_pos_site_id
 _symmetry_equiv_pos_as_xyz
  1  'x, y, z'
loop_
 _atom_site_type_symbol
 _atom_site_label
 _atom_site_symmetry_multiplicity
 _atom_site_fract_x
 _atom_site_fract_y
 _atom_site_fract_z
 _atom_site_occupancy
  Y  Y0  1  0.530238  0.066232  0.504072  1
  Y  Y1  1  0.933768  0.469762  0.504072  1
  Y  Y2  1  0.533364  0.466636  0.501003  1
  Y  Y3  1  0.463931  0.930676  0.000951  1
  Y  Y4  1  0.069324  0.536069  0.000951  1
  Y  Y5  1  0.466962  0.533038  0.000743  1
  Lu  Lu6  1  0.821480  0.178520  0.210657  1
  Lu  Lu7  1  0.665786  0.334214  0.897430  1
  Lu  Lu8  1  0.333189  0.666811  0.399271  1
  Lu  Lu9  1  0.000847  0.999153  0.495221  1
  Lu  Lu10  1  0.000987  0.999013  0.992852  1
  Sc  Sc11  1  0.179224  0.358849  0.710961  1
  Sc  Sc12  1  0.641151  0.820776  0.710961  1
  Sc  Sc13  1  0.178898  0.821102  0.710277  1
  Sc  Sc14  1  0.821086  0.640915  0.210799  1
  Sc  Sc15  1  0.359085  0.178914  0.210799  1
  In  In16  1  0.839767  0.679718  0.759327  1
  In  In17  1  0.320282  0.160233  0.759327  1
  In  In18  1  0.839676  0.160324  0.753025  1
  In  In19  1  0.167136  0.323977  0.260973  1
  In  In20  1  0.676023  0.832864  0.260973  1
  In  In21  1  0.160581  0.839419  0.260079  1
  Co  Co22  1  0.664116  0.335884  0.272246  1
  Co  Co23  1  0.333099  0.666901  0.771068  1
