# generated using pymatgen
data_Y(Co3Si2)2
_symmetry_space_group_name_H-M   'P 1'
_cell_length_a   6.60467600
_cell_length_b   6.60467633
_cell_length_c   3.60617900
_cell_angle_alpha   90.00000000
_cell_angle_beta   90.00000000
_cell_angle_gamma   120.00000838
_symmetry_Int_Tables_number   1
_chemical_formula_structural   Y(Co3Si2)2
_chemical_formula_sum   'Y1 Co6 Si4'
_cell_volume   136.23256444
_cell_formula_units_Z   1
loop_
 _symmetry_equiv_pos_site_id
 _symmetry_equiv_pos_as_xyz
  1  'x, y, z'
loop_
 _atom_site_type_symbol
 _atom_site_label
 _atom_site_symmetry_multiplicity
 _atom_site_fract_x
 _atom_site_fract_y
 _atom_site_fract_z
 _atom_site_occupancy
  Y  Y0  1  0.000000  0.000000  0.000000  1
  Co  Co1  1  0.534206  0.068410  0.000000  1
  Co  Co2  1  0.534205  0.465794  0.000000  1
  Co  Co3  1  0.931590  0.465794  0.000000  1
  Co  Co4  1  0.205063  0.410128  0.500001  1
  Co  Co5  1  0.205064  0.794938  0.500001  1
  Co  Co6  1  0.589872  0.794938  0.500001  1
  Si  Si7  1  0.333334  0.666667  0.000000  1
  Si  Si8  1  0.398841  0.199421  0.500001  1
  Si  Si9  1  0.800580  0.199421  0.500001  1
  Si  Si10  1  0.800579  0.601159  0.500001  1
