# generated using pymatgen
data_Pr3Ho5(AgIr)2
_symmetry_space_group_name_H-M   'P 1'
_cell_length_a   9.67811573
_cell_length_b   9.67811647
_cell_length_c   9.67811600
_cell_angle_alpha   60.00000160
_cell_angle_beta   59.99999906
_cell_angle_gamma   59.99999797
_symmetry_Int_Tables_number   1
_chemical_formula_structural   Pr3Ho5(AgIr)2
_chemical_formula_sum   'Pr6 Ho10 Ag4 Ir4'
_cell_volume   640.99918295
_cell_formula_units_Z   2
loop_
 _symmetry_equiv_pos_site_id
 _symmetry_equiv_pos_as_xyz
  1  'x, y, z'
loop_
 _atom_site_type_symbol
 _atom_site_label
 _atom_site_symmetry_multiplicity
 _atom_site_fract_x
 _atom_site_fract_y
 _atom_site_fract_z
 _atom_site_occupancy
  Pr  Pr0  1  0.940354  0.559646  0.559646  1
  Pr  Pr1  1  0.559646  0.940354  0.940354  1
  Pr  Pr2  1  0.559646  0.940354  0.559646  1
  Pr  Pr3  1  0.940354  0.559646  0.940354  1
  Pr  Pr4  1  0.559646  0.559646  0.940354  1
  Pr  Pr5  1  0.940354  0.940354  0.559646  1
  Ho  Ho6  1  0.348644  0.348644  0.348644  1
  Ho  Ho7  1  0.348644  0.348644  0.954068  1
  Ho  Ho8  1  0.348644  0.954068  0.348644  1
  Ho  Ho9  1  0.954068  0.348644  0.348644  1
  Ho  Ho10  1  0.813234  0.186766  0.186766  1
  Ho  Ho11  1  0.186766  0.813234  0.813234  1
  Ho  Ho12  1  0.186766  0.813234  0.186766  1
  Ho  Ho13  1  0.813234  0.186766  0.813234  1
  Ho  Ho14  1  0.186766  0.186766  0.813234  1
  Ho  Ho15  1  0.813234  0.813234  0.186766  1
  Ag  Ag16  1  0.579133  0.579133  0.579133  1
  Ag  Ag17  1  0.579133  0.579133  0.262600  1
  Ag  Ag18  1  0.579133  0.262600  0.579133  1
  Ag  Ag19  1  0.262600  0.579133  0.579133  1
  Ir  Ir20  1  0.141712  0.141712  0.141712  1
  Ir  Ir21  1  0.141712  0.141712  0.574865  1
  Ir  Ir22  1  0.141712  0.574865  0.141712  1
  Ir  Ir23  1  0.574865  0.141712  0.141712  1
