# generated using pymatgen
data_Ba4Tm(US4)3
_symmetry_space_group_name_H-M   'P 1'
_cell_length_a   7.17750897
_cell_length_b   7.26919396
_cell_length_c   10.34510200
_cell_angle_alpha   90.23978687
_cell_angle_beta   90.29005203
_cell_angle_gamma   89.92332481
_symmetry_Int_Tables_number   1
_chemical_formula_structural   Ba4Tm(US4)3
_chemical_formula_sum   'Ba4 Tm1 U3 S12'
_cell_volume   539.74053272
_cell_formula_units_Z   1
loop_
 _symmetry_equiv_pos_site_id
 _symmetry_equiv_pos_as_xyz
  1  'x, y, z'
loop_
 _atom_site_type_symbol
 _atom_site_label
 _atom_site_symmetry_multiplicity
 _atom_site_fract_x
 _atom_site_fract_y
 _atom_site_fract_z
 _atom_site_occupancy
  Ba  Ba0  1  0.989823  0.052801  0.246071  1
  Ba  Ba1  1  0.485613  0.442437  0.755254  1
  Ba  Ba2  1  0.514387  0.557563  0.244746  1
  Ba  Ba3  1  0.010177  0.947199  0.753929  1
  Tm  Tm4  1  0.500000  0.000000  0.000000  1
  U  U5  1  0.000000  0.500000  0.000000  1
  U  U6  1  0.000000  0.500000  0.500000  1
  U  U7  1  0.500000  0.000000  0.500000  1
  S  S8  1  0.698143  0.301265  0.458397  1
  S  S9  1  0.195569  0.197125  0.541886  1
  S  S10  1  0.798190  0.793469  0.040214  1
  S  S11  1  0.292861  0.702857  0.960534  1
  S  S12  1  0.301857  0.698735  0.541603  1
  S  S13  1  0.804431  0.802875  0.458114  1
  S  S14  1  0.201810  0.206531  0.959786  1
  S  S15  1  0.707139  0.297143  0.039466  1
  S  S16  1  0.078943  0.487439  0.251332  1
  S  S17  1  0.574452  0.012004  0.747836  1
  S  S18  1  0.425548  0.987996  0.252164  1
  S  S19  1  0.921057  0.512561  0.748668  1
