# generated using pymatgen
data_Ac3Sb4Au3
_symmetry_space_group_name_H-M   'P 1'
_cell_length_a   9.07966476
_cell_length_b   9.07966588
_cell_length_c   9.07966500
_cell_angle_alpha   109.47121868
_cell_angle_beta   109.47122117
_cell_angle_gamma   109.47122391
_symmetry_Int_Tables_number   1
_chemical_formula_structural   Ac3Sb4Au3
_chemical_formula_sum   'Ac6 Sb8 Au6'
_cell_volume   576.21904117
_cell_formula_units_Z   2
loop_
 _symmetry_equiv_pos_site_id
 _symmetry_equiv_pos_as_xyz
  1  'x, y, z'
loop_
 _atom_site_type_symbol
 _atom_site_label
 _atom_site_symmetry_multiplicity
 _atom_site_fract_x
 _atom_site_fract_y
 _atom_site_fract_z
 _atom_site_occupancy
  Ac  Ac0  1  0.125000  0.875000  0.250000  1
  Ac  Ac1  1  0.375000  0.625000  0.750000  1
  Ac  Ac2  1  0.875000  0.250000  0.125000  1
  Ac  Ac3  1  0.625000  0.750000  0.375000  1
  Ac  Ac4  1  0.250000  0.125000  0.875000  1
  Ac  Ac5  1  0.750000  0.375000  0.625000  1
  Sb  Sb6  1  0.331201  0.331201  0.331201  1
  Sb  Sb7  1  0.168799  0.500000  0.000000  1
  Sb  Sb8  1  0.000000  0.168799  0.500000  1
  Sb  Sb9  1  0.831201  0.831201  0.831201  1
  Sb  Sb10  1  0.500000  0.000000  0.168799  1
  Sb  Sb11  1  0.668799  0.500000  0.000000  1
  Sb  Sb12  1  0.500000  0.000000  0.668799  1
  Sb  Sb13  1  0.000000  0.668799  0.500000  1
  Au  Au14  1  0.625000  0.375000  0.250000  1
  Au  Au15  1  0.875000  0.125000  0.750000  1
  Au  Au16  1  0.375000  0.250000  0.625000  1
  Au  Au17  1  0.125000  0.750000  0.875000  1
  Au  Au18  1  0.250000  0.625000  0.375000  1
  Au  Au19  1  0.750000  0.875000  0.125000  1
