# generated using pymatgen
data_Zr7Co16Si12W
_symmetry_space_group_name_H-M   'P 1'
_cell_length_a   12.27124501
_cell_length_b   12.27124536
_cell_length_c   3.71424200
_cell_angle_alpha   90.00000000
_cell_angle_beta   90.00000000
_cell_angle_gamma   119.76648163
_symmetry_Int_Tables_number   1
_chemical_formula_structural   Zr7Co16Si12W
_chemical_formula_sum   'Zr7 Co16 Si12 W1'
_cell_volume   485.50669820
_cell_formula_units_Z   1
loop_
 _symmetry_equiv_pos_site_id
 _symmetry_equiv_pos_as_xyz
  1  'x, y, z'
loop_
 _atom_site_type_symbol
 _atom_site_label
 _atom_site_symmetry_multiplicity
 _atom_site_fract_x
 _atom_site_fract_y
 _atom_site_fract_z
 _atom_site_occupancy
  Zr  Zr0  1  0.560895  0.000765  0.000000  1
  Zr  Zr1  1  0.000765  0.560895  0.000000  1
  Zr  Zr2  1  0.663995  0.335221  0.000000  1
  Zr  Zr3  1  0.335221  0.663995  0.000000  1
  Zr  Zr4  1  0.808643  0.808643  0.500000  1
  Zr  Zr5  1  0.183217  0.003435  0.500000  1
  Zr  Zr6  1  0.003435  0.183217  0.500000  1
  Co  Co7  1  0.198988  0.372970  0.000000  1
  Co  Co8  1  0.180015  0.807830  0.000000  1
  Co  Co9  1  0.816961  0.624737  0.000000  1
  Co  Co10  1  0.807830  0.180015  0.000000  1
  Co  Co11  1  0.372970  0.198988  0.000000  1
  Co  Co12  1  0.127007  0.481256  0.500000  1
  Co  Co13  1  0.360536  0.883211  0.500000  1
  Co  Co14  1  0.518688  0.638911  0.500000  1
  Co  Co15  1  0.638911  0.518688  0.500000  1
  Co  Co16  1  0.883211  0.360536  0.500000  1
  Co  Co17  1  0.481256  0.127007  0.500000  1
  Co  Co18  1  0.998450  0.998450  0.000000  1
  Co  Co19  1  0.721785  0.999106  0.500000  1
  Co  Co20  1  0.999106  0.721785  0.500000  1
  Co  Co21  1  0.624737  0.816961  0.000000  1
  Co  Co22  1  0.280499  0.280499  0.500000  1
  Si  Si23  1  0.638955  0.638955  0.000000  1
  Si  Si24  1  0.349616  0.003766  0.000000  1
  Si  Si25  1  0.003766  0.349616  0.000000  1
  Si  Si26  1  0.481157  0.311950  0.500000  1
  Si  Si27  1  0.697506  0.180176  0.500000  1
  Si  Si28  1  0.821969  0.517893  0.500000  1
  Si  Si29  1  0.517893  0.821969  0.500000  1
  Si  Si30  1  0.180176  0.697506  0.500000  1
  Si  Si31  1  0.819362  0.997829  0.000000  1
  Si  Si32  1  0.997829  0.819362  0.000000  1
  Si  Si33  1  0.311950  0.481157  0.500000  1
  Si  Si34  1  0.177579  0.177579  0.000000  1
  W  W35  1  0.435121  0.435121  0.000000  1
