# generated using pymatgen
data_Yb9Dy(Sn3H)2
_symmetry_space_group_name_H-M   'P 1'
_cell_length_a   9.33063788
_cell_length_b   9.33063788
_cell_length_c   9.34739598
_cell_angle_alpha   128.42206218
_cell_angle_beta   128.42206000
_cell_angle_gamma   75.94287388
_symmetry_Int_Tables_number   1
_chemical_formula_structural   Yb9Dy(Sn3H)2
_chemical_formula_sum   'Yb9 Dy1 Sn6 H2'
_cell_volume   485.70028154
_cell_formula_units_Z   1
loop_
 _symmetry_equiv_pos_site_id
 _symmetry_equiv_pos_as_xyz
  1  'x, y, z'
loop_
 _atom_site_type_symbol
 _atom_site_label
 _atom_site_symmetry_multiplicity
 _atom_site_fract_x
 _atom_site_fract_y
 _atom_site_fract_z
 _atom_site_occupancy
  Yb  Yb0  1  0.499159  0.502687  0.001512  1
  Yb  Yb1  1  0.002687  0.999159  0.001512  1
  Yb  Yb2  1  0.185505  0.685505  0.174776  1
  Yb  Yb3  1  0.008206  0.184762  0.498302  1
  Yb  Yb4  1  0.684762  0.508206  0.498302  1
  Yb  Yb5  1  0.490583  0.990583  0.180361  1
  Yb  Yb6  1  0.812125  0.312125  0.822272  1
  Yb  Yb7  1  0.988024  0.812859  0.498032  1
  Yb  Yb8  1  0.312859  0.488024  0.498032  1
  Dy  Dy9  1  0.513277  0.013277  0.824057  1
  Sn  Sn10  1  0.254839  0.243781  0.994130  1
  Sn  Sn11  1  0.743781  0.754839  0.994130  1
  Sn  Sn12  1  0.868999  0.368999  0.238560  1
  Sn  Sn13  1  0.125245  0.625245  0.751602  1
  Sn  Sn14  1  0.371170  0.128209  0.505221  1
  Sn  Sn15  1  0.628209  0.871170  0.505221  1
  H  H16  1  0.260477  0.760477  0.511972  1
  H  H17  1  0.750091  0.250091  0.502006  1
