# generated using pymatgen
data_Lu4MgZn2Bi
_symmetry_space_group_name_H-M   'P 1'
_cell_length_a   8.47141243
_cell_length_b   8.47141352
_cell_length_c   8.47141288
_cell_angle_alpha   125.84252948
_cell_angle_beta   125.84253455
_cell_angle_gamma   80.14710320
_symmetry_Int_Tables_number   1
_chemical_formula_structural   Lu4MgZn2Bi
_chemical_formula_sum   'Lu8 Mg2 Zn4 Bi2'
_cell_volume   385.60725813
_cell_formula_units_Z   2
loop_
 _symmetry_equiv_pos_site_id
 _symmetry_equiv_pos_as_xyz
  1  'x, y, z'
loop_
 _atom_site_type_symbol
 _atom_site_label
 _atom_site_symmetry_multiplicity
 _atom_site_fract_x
 _atom_site_fract_y
 _atom_site_fract_z
 _atom_site_occupancy
  Lu  Lu0  1  0.799794  0.299794  0.814618  1
  Lu  Lu1  1  0.200206  0.700206  0.185382  1
  Lu  Lu2  1  0.485177  0.985177  0.185382  1
  Lu  Lu3  1  0.299794  0.485177  0.500000  1
  Lu  Lu4  1  0.014823  0.200206  0.500000  1
  Lu  Lu5  1  0.514823  0.014823  0.814618  1
  Lu  Lu6  1  0.700206  0.514823  0.500000  1
  Lu  Lu7  1  0.985177  0.799794  0.500000  1
  Mg  Mg8  1  0.000000  0.000000  0.000000  1
  Mg  Mg9  1  0.500000  0.500000  0.000000  1
  Zn  Zn10  1  0.133927  0.633927  0.767855  1
  Zn  Zn11  1  0.866073  0.366073  0.232145  1
  Zn  Zn12  1  0.633927  0.866073  0.500000  1
  Zn  Zn13  1  0.366073  0.133927  0.500000  1
  Bi  Bi14  1  0.250000  0.250000  0.000000  1
  Bi  Bi15  1  0.750000  0.750000  0.000000  1
