# generated using pymatgen
data_SbMo3O8
_symmetry_space_group_name_H-M   'P 1'
_cell_length_a   4.77358906
_cell_length_b   5.77302114
_cell_length_c   6.51296586
_cell_angle_alpha   124.44164416
_cell_angle_beta   89.92894480
_cell_angle_gamma   90.34503919
_symmetry_Int_Tables_number   1
_chemical_formula_structural   SbMo3O8
_chemical_formula_sum   'Sb1 Mo3 O8'
_cell_volume   148.01815772
_cell_formula_units_Z   1
loop_
 _symmetry_equiv_pos_site_id
 _symmetry_equiv_pos_as_xyz
  1  'x, y, z'
loop_
 _atom_site_type_symbol
 _atom_site_label
 _atom_site_symmetry_multiplicity
 _atom_site_fract_x
 _atom_site_fract_y
 _atom_site_fract_z
 _atom_site_occupancy
  Sb  Sb0  1  0.009990  0.749966  0.999964  1
  Mo  Mo1  1  0.510018  0.249994  0.000003  1
  Mo  Mo2  1  0.509996  0.249938  0.499949  1
  Mo  Mo3  1  0.010028  0.750105  0.500072  1
  O  O4  1  0.682954  0.054661  0.652957  1
  O  O5  1  0.201995  0.948804  0.336995  1
  O  O6  1  0.819047  0.552016  0.138126  1
  O  O7  1  0.303488  0.451147  0.850114  1
  O  O8  1  0.716433  0.048678  0.149765  1
  O  O9  1  0.200915  0.948098  0.862000  1
  O  O10  1  0.818017  0.551173  0.662948  1
  O  O11  1  0.337121  0.445418  0.347107  1
