# generated using pymatgen
data_DyMgPaRh2
_symmetry_space_group_name_H-M   'P 1'
_cell_length_a   7.67434953
_cell_length_b   7.67434824
_cell_length_c   3.63819200
_cell_angle_alpha   90.00000000
_cell_angle_beta   90.00000000
_cell_angle_gamma   93.81417661
_symmetry_Int_Tables_number   1
_chemical_formula_structural   DyMgPaRh2
_chemical_formula_sum   'Dy2 Mg2 Pa2 Rh4'
_cell_volume   213.79900530
_cell_formula_units_Z   2
loop_
 _symmetry_equiv_pos_site_id
 _symmetry_equiv_pos_as_xyz
  1  'x, y, z'
loop_
 _atom_site_type_symbol
 _atom_site_label
 _atom_site_symmetry_multiplicity
 _atom_site_fract_x
 _atom_site_fract_y
 _atom_site_fract_z
 _atom_site_occupancy
  Dy  Dy0  1  0.163479  0.336521  0.500000  1
  Dy  Dy1  1  0.836521  0.663479  0.500000  1
  Mg  Mg2  1  0.000000  0.000000  0.000000  1
  Mg  Mg3  1  0.500000  0.500000  0.000000  1
  Pa  Pa4  1  0.664826  0.164826  0.500000  1
  Pa  Pa5  1  0.335174  0.835174  0.500000  1
  Rh  Rh6  1  0.150619  0.650619  0.000000  1
  Rh  Rh7  1  0.849381  0.349381  0.000000  1
  Rh  Rh8  1  0.627414  0.872586  0.000000  1
  Rh  Rh9  1  0.372586  0.127414  0.000000  1
