# generated using pymatgen
data_Zr3Zn3CoAu2
_symmetry_space_group_name_H-M   'P 1'
_cell_length_a   7.27262300
_cell_length_b   7.27262115
_cell_length_c   3.47545100
_cell_angle_alpha   90.00000000
_cell_angle_beta   90.00000000
_cell_angle_gamma   120.00000265
_symmetry_Int_Tables_number   1
_chemical_formula_structural   Zr3Zn3CoAu2
_chemical_formula_sum   'Zr3 Zn3 Co1 Au2'
_cell_volume   159.19294961
_cell_formula_units_Z   1
loop_
 _symmetry_equiv_pos_site_id
 _symmetry_equiv_pos_as_xyz
  1  'x, y, z'
loop_
 _atom_site_type_symbol
 _atom_site_label
 _atom_site_symmetry_multiplicity
 _atom_site_fract_x
 _atom_site_fract_y
 _atom_site_fract_z
 _atom_site_occupancy
  Zr  Zr0  1  0.420668  0.031608  0.499999  1
  Zr  Zr1  1  0.968392  0.389060  0.499999  1
  Zr  Zr2  1  0.610941  0.579333  0.499999  1
  Zn  Zn3  1  0.726479  0.003336  0.000000  1
  Zn  Zn4  1  0.276857  0.273522  0.000000  1
  Zn  Zn5  1  0.996664  0.723143  0.000000  1
  Co  Co6  1  0.666667  0.333333  0.000000  1
  Au  Au7  1  0.333333  0.666666  0.000000  1
  Au  Au8  1  0.000000  0.000000  0.499999  1
