# generated using pymatgen
data_Lu10Ag3Ir
_symmetry_space_group_name_H-M   'P 1'
_cell_length_a   9.32750100
_cell_length_b   9.32750091
_cell_length_c   9.40690800
_cell_angle_alpha   90.00000000
_cell_angle_beta   90.00000000
_cell_angle_gamma   119.99999679
_symmetry_Int_Tables_number   1
_chemical_formula_structural   Lu10Ag3Ir
_chemical_formula_sum   'Lu20 Ag6 Ir2'
_cell_volume   708.77460162
_cell_formula_units_Z   2
loop_
 _symmetry_equiv_pos_site_id
 _symmetry_equiv_pos_as_xyz
  1  'x, y, z'
loop_
 _atom_site_type_symbol
 _atom_site_label
 _atom_site_symmetry_multiplicity
 _atom_site_fract_x
 _atom_site_fract_y
 _atom_site_fract_z
 _atom_site_occupancy
  Lu  Lu0  1  0.000000  0.000000  0.500000  1
  Lu  Lu1  1  0.000000  0.000000  0.000000  1
  Lu  Lu2  1  0.208355  0.791645  0.443716  1
  Lu  Lu3  1  0.208355  0.416710  0.443716  1
  Lu  Lu4  1  0.583290  0.791645  0.443716  1
  Lu  Lu5  1  0.791645  0.208355  0.556284  1
  Lu  Lu6  1  0.791645  0.583290  0.556284  1
  Lu  Lu7  1  0.416710  0.208355  0.556284  1
  Lu  Lu8  1  0.791645  0.208355  0.943716  1
  Lu  Lu9  1  0.791645  0.583290  0.943716  1
  Lu  Lu10  1  0.416710  0.208355  0.943716  1
  Lu  Lu11  1  0.208355  0.791645  0.056284  1
  Lu  Lu12  1  0.208355  0.416710  0.056284  1
  Lu  Lu13  1  0.583290  0.791645  0.056284  1
  Lu  Lu14  1  0.540872  0.459128  0.250000  1
  Lu  Lu15  1  0.540872  0.081741  0.250000  1
  Lu  Lu16  1  0.918259  0.459128  0.250000  1
  Lu  Lu17  1  0.459128  0.540872  0.750000  1
  Lu  Lu18  1  0.459128  0.918259  0.750000  1
  Lu  Lu19  1  0.081741  0.540872  0.750000  1
  Ag  Ag20  1  0.883428  0.116572  0.250000  1
  Ag  Ag21  1  0.883428  0.766857  0.250000  1
  Ag  Ag22  1  0.233143  0.116572  0.250000  1
  Ag  Ag23  1  0.116572  0.883428  0.750000  1
  Ag  Ag24  1  0.116572  0.233143  0.750000  1
  Ag  Ag25  1  0.766857  0.883428  0.750000  1
  Ir  Ir26  1  0.333333  0.666667  0.250000  1
  Ir  Ir27  1  0.666667  0.333333  0.750000  1
