# generated using pymatgen
data_Ho17Er3(Ir2Ru)4
_symmetry_space_group_name_H-M   'P 1'
_cell_length_a   10.77834400
_cell_length_b   10.77834400
_cell_length_c   6.40162700
_cell_angle_alpha   90.00000000
_cell_angle_beta   90.00000000
_cell_angle_gamma   90.00000000
_symmetry_Int_Tables_number   1
_chemical_formula_structural   Ho17Er3(Ir2Ru)4
_chemical_formula_sum   'Ho17 Er3 Ir8 Ru4'
_cell_volume   743.69428903
_cell_formula_units_Z   1
loop_
 _symmetry_equiv_pos_site_id
 _symmetry_equiv_pos_as_xyz
  1  'x, y, z'
loop_
 _atom_site_type_symbol
 _atom_site_label
 _atom_site_symmetry_multiplicity
 _atom_site_fract_x
 _atom_site_fract_y
 _atom_site_fract_z
 _atom_site_occupancy
  Ho  Ho0  1  0.293439  0.086383  0.377124  1
  Ho  Ho1  1  0.293376  0.913637  0.877201  1
  Ho  Ho2  1  0.706624  0.086363  0.877201  1
  Ho  Ho3  1  0.706561  0.913617  0.377124  1
  Ho  Ho4  1  0.586365  0.793349  0.877124  1
  Ho  Ho5  1  0.586371  0.206650  0.377097  1
  Ho  Ho6  1  0.413629  0.793350  0.377097  1
  Ho  Ho7  1  0.413635  0.206651  0.877124  1
  Ho  Ho8  1  0.206650  0.413629  0.622903  1
  Ho  Ho9  1  0.206651  0.586365  0.122876  1
  Ho  Ho10  1  0.793349  0.413635  0.122876  1
  Ho  Ho11  1  0.793350  0.586371  0.622903  1
  Ho  Ho12  1  0.913637  0.706624  0.122799  1
  Ho  Ho13  1  0.913617  0.293439  0.622876  1
  Ho  Ho14  1  0.086383  0.706561  0.622876  1
  Ho  Ho15  1  0.086363  0.293376  0.122799  1
  Ho  Ho16  1  0.000000  0.000000  0.500000  1
  Er  Er17  1  0.000000  0.000000  0.000000  1
  Er  Er18  1  0.500000  0.500000  0.000000  1
  Er  Er19  1  0.500000  0.500000  0.500000  1
  Ir  Ir20  1  0.847554  0.152454  0.249730  1
  Ir  Ir21  1  0.847546  0.847554  0.750270  1
  Ir  Ir22  1  0.152454  0.152446  0.750270  1
  Ir  Ir23  1  0.152446  0.847546  0.249730  1
  Ir  Ir24  1  0.652321  0.347664  0.750049  1
  Ir  Ir25  1  0.652336  0.652321  0.249951  1
  Ir  Ir26  1  0.347664  0.347679  0.249951  1
  Ir  Ir27  1  0.347679  0.652336  0.750049  1
  Ru  Ru28  1  0.500000  0.000000  0.122015  1
  Ru  Ru29  1  0.500000  0.000000  0.622019  1
  Ru  Ru30  1  0.000000  0.500000  0.877985  1
  Ru  Ru31  1  0.000000  0.500000  0.377981  1
