# generated using pymatgen
data_Dy9Ho3InCo4Os
_symmetry_space_group_name_H-M   'P 1'
_cell_length_a   8.27153576
_cell_length_b   8.27057607
_cell_length_c   8.27057681
_cell_angle_alpha   111.53437515
_cell_angle_beta   110.38322394
_cell_angle_gamma   106.53312589
_symmetry_Int_Tables_number   1
_chemical_formula_structural   Dy9Ho3InCo4Os
_chemical_formula_sum   'Dy9 Ho3 In1 Co4 Os1'
_cell_volume   434.67287108
_cell_formula_units_Z   1
loop_
 _symmetry_equiv_pos_site_id
 _symmetry_equiv_pos_as_xyz
  1  'x, y, z'
loop_
 _atom_site_type_symbol
 _atom_site_label
 _atom_site_symmetry_multiplicity
 _atom_site_fract_x
 _atom_site_fract_y
 _atom_site_fract_z
 _atom_site_occupancy
  Dy  Dy0  1  0.973246  0.780074  0.193173  1
  Dy  Dy1  1  0.182048  0.281600  0.463482  1
  Dy  Dy2  1  0.818066  0.718770  0.536959  1
  Dy  Dy3  1  0.182048  0.718565  0.900448  1
  Dy  Dy4  1  0.818066  0.281108  0.099296  1
  Dy  Dy5  1  0.314978  0.620321  0.305858  1
  Dy  Dy6  1  0.685093  0.379393  0.693930  1
  Dy  Dy7  1  0.314978  0.009119  0.694657  1
  Dy  Dy8  1  0.685093  0.991164  0.305700  1
  Ho  Ho9  1  0.413099  0.219934  0.193166  1
  Ho  Ho10  1  0.586743  0.780332  0.806409  1
  Ho  Ho11  1  0.026245  0.219628  0.806616  1
  In  In12  1  0.499555  0.499759  0.999796  1
  Co  Co13  1  0.376396  0.000082  0.376314  1
  Co  Co14  1  0.624111  0.000057  0.624054  1
  Co  Co15  1  0.111675  0.611427  0.500248  1
  Co  Co16  1  0.888587  0.388402  0.500186  1
  Os  Os17  1  0.999972  0.000264  0.999708  1
