# generated using pymatgen
data_La5Mg2Ru3
_symmetry_space_group_name_H-M   'P 1'
_cell_length_a   8.74461913
_cell_length_b   8.74461943
_cell_length_c   8.74462000
_cell_angle_alpha   109.47121964
_cell_angle_beta   109.47122033
_cell_angle_gamma   109.47122026
_symmetry_Int_Tables_number   1
_chemical_formula_structural   La5Mg2Ru3
_chemical_formula_sum   'La10 Mg4 Ru6'
_cell_volume   514.75535393
_cell_formula_units_Z   2
loop_
 _symmetry_equiv_pos_site_id
 _symmetry_equiv_pos_as_xyz
  1  'x, y, z'
loop_
 _atom_site_type_symbol
 _atom_site_label
 _atom_site_symmetry_multiplicity
 _atom_site_fract_x
 _atom_site_fract_y
 _atom_site_fract_z
 _atom_site_occupancy
  La  La0  1  0.792060  0.000000  0.000000  1
  La  La1  1  0.250000  0.314550  0.064550  1
  La  La2  1  0.707942  0.707942  0.207942  1
  La  La3  1  0.185450  0.935450  0.250000  1
  La  La4  1  0.000000  0.500001  0.292059  1
  La  La5  1  0.750000  0.185450  0.435450  1
  La  La6  1  0.500001  0.792060  0.500001  1
  La  La7  1  0.935450  0.750000  0.685450  1
  La  La8  1  0.314550  0.564550  0.750000  1
  La  La9  1  0.564550  0.250000  0.814549  1
  Mg  Mg10  1  0.412755  0.000000  0.000000  1
  Mg  Mg11  1  0.500000  0.412755  0.500000  1
  Mg  Mg12  1  0.087245  0.087245  0.587245  1
  Mg  Mg13  1  0.000000  0.500000  0.912755  1
  Ru  Ru14  1  0.381595  0.750000  0.131595  1
  Ru  Ru15  1  0.631595  0.381595  0.250000  1
  Ru  Ru16  1  0.118405  0.250000  0.368405  1
  Ru  Ru17  1  0.250000  0.868405  0.618406  1
  Ru  Ru18  1  0.868404  0.118405  0.750000  1
  Ru  Ru19  1  0.750000  0.631595  0.881595  1
