# generated using pymatgen
data_Y7Er9Cd4Pd3Rh
_symmetry_space_group_name_H-M   'P 1'
_cell_length_a   9.65928614
_cell_length_b   9.65928541
_cell_length_c   9.66097801
_cell_angle_alpha   59.81161422
_cell_angle_beta   59.81161709
_cell_angle_gamma   59.90328986
_symmetry_Int_Tables_number   1
_chemical_formula_structural   Y7Er9Cd4Pd3Rh
_chemical_formula_sum   'Y7 Er9 Cd4 Pd3 Rh1'
_cell_volume   635.09253638
_cell_formula_units_Z   1
loop_
 _symmetry_equiv_pos_site_id
 _symmetry_equiv_pos_as_xyz
  1  'x, y, z'
loop_
 _atom_site_type_symbol
 _atom_site_label
 _atom_site_symmetry_multiplicity
 _atom_site_fract_x
 _atom_site_fract_y
 _atom_site_fract_z
 _atom_site_occupancy
  Y  Y0  1  0.810894  0.810894  0.187901  1
  Y  Y1  1  0.935190  0.564733  0.566022  1
  Y  Y2  1  0.561422  0.936865  0.936193  1
  Y  Y3  1  0.564733  0.935190  0.566022  1
  Y  Y4  1  0.936865  0.561422  0.936193  1
  Y  Y5  1  0.564979  0.564979  0.935254  1
  Y  Y6  1  0.936442  0.936442  0.562069  1
  Er  Er7  1  0.351858  0.351858  0.352616  1
  Er  Er8  1  0.352372  0.352372  0.941396  1
  Er  Er9  1  0.351366  0.942951  0.352411  1
  Er  Er10  1  0.942951  0.351366  0.352411  1
  Er  Er11  1  0.814622  0.189621  0.188938  1
  Er  Er12  1  0.188237  0.811155  0.811171  1
  Er  Er13  1  0.189621  0.814622  0.188938  1
  Er  Er14  1  0.811155  0.188237  0.811171  1
  Er  Er15  1  0.188995  0.188995  0.814886  1
  Cd  Cd16  1  0.581327  0.581327  0.580987  1
  Cd  Cd17  1  0.580994  0.580994  0.254047  1
  Cd  Cd18  1  0.581012  0.254212  0.580737  1
  Cd  Cd19  1  0.254212  0.581012  0.580737  1
  Pd  Pd20  1  0.143626  0.143626  0.569321  1
  Pd  Pd21  1  0.146073  0.566964  0.143224  1
  Pd  Pd22  1  0.566964  0.146073  0.143224  1
  Rh  Rh23  1  0.144092  0.144092  0.144134  1
