# generated using pymatgen
data_Ac(TmS2)3
_symmetry_space_group_name_H-M   'P 1'
_cell_length_a   4.01926400
_cell_length_b   11.09119260
_cell_length_c   11.35754942
_cell_angle_alpha   71.14882054
_cell_angle_beta   90.00000000
_cell_angle_gamma   90.00000000
_symmetry_Int_Tables_number   1
_chemical_formula_structural   Ac(TmS2)3
_chemical_formula_sum   'Ac2 Tm6 S12'
_cell_volume   479.14422550
_cell_formula_units_Z   2
loop_
 _symmetry_equiv_pos_site_id
 _symmetry_equiv_pos_as_xyz
  1  'x, y, z'
loop_
 _atom_site_type_symbol
 _atom_site_label
 _atom_site_symmetry_multiplicity
 _atom_site_fract_x
 _atom_site_fract_y
 _atom_site_fract_z
 _atom_site_occupancy
  Ac  Ac0  1  0.750000  0.553601  0.801398  1
  Ac  Ac1  1  0.250000  0.446399  0.198602  1
  Tm  Tm2  1  0.750000  0.175737  0.999533  1
  Tm  Tm3  1  0.250000  0.824263  0.000467  1
  Tm  Tm4  1  0.750000  0.949607  0.665653  1
  Tm  Tm5  1  0.250000  0.050393  0.334347  1
  Tm  Tm6  1  0.750000  0.662797  0.409098  1
  Tm  Tm7  1  0.250000  0.337203  0.590902  1
  S  S8  1  0.750000  0.978003  0.889510  1
  S  S9  1  0.250000  0.021997  0.110490  1
  S  S10  1  0.750000  0.296534  0.748176  1
  S  S11  1  0.250000  0.703466  0.251824  1
  S  S12  1  0.750000  0.891968  0.445287  1
  S  S13  1  0.250000  0.108032  0.554713  1
  S  S14  1  0.750000  0.418053  0.413548  1
  S  S15  1  0.250000  0.581947  0.586452  1
  S  S16  1  0.750000  0.222232  0.232892  1
  S  S17  1  0.250000  0.777768  0.767108  1
  S  S18  1  0.750000  0.628657  0.035994  1
  S  S19  1  0.250000  0.371343  0.964006  1
