# generated using pymatgen
data_Dy16Er4IrRh11
_symmetry_space_group_name_H-M   'P 1'
_cell_length_a   10.87492321
_cell_length_b   10.87492321
_cell_length_c   6.33998101
_cell_angle_alpha   90.00422175
_cell_angle_beta   90.00422175
_cell_angle_gamma   90.02200166
_symmetry_Int_Tables_number   1
_chemical_formula_structural   Dy16Er4IrRh11
_chemical_formula_sum   'Dy16 Er4 Ir1 Rh11'
_cell_volume   749.79116793
_cell_formula_units_Z   1
loop_
 _symmetry_equiv_pos_site_id
 _symmetry_equiv_pos_as_xyz
  1  'x, y, z'
loop_
 _atom_site_type_symbol
 _atom_site_label
 _atom_site_symmetry_multiplicity
 _atom_site_fract_x
 _atom_site_fract_y
 _atom_site_fract_z
 _atom_site_occupancy
  Dy  Dy0  1  0.290342  0.088184  0.378119  1
  Dy  Dy1  1  0.290591  0.910737  0.877865  1
  Dy  Dy2  1  0.709625  0.088116  0.878035  1
  Dy  Dy3  1  0.709589  0.911798  0.378023  1
  Dy  Dy4  1  0.587113  0.789943  0.877809  1
  Dy  Dy5  1  0.588179  0.209582  0.378355  1
  Dy  Dy6  1  0.411556  0.789841  0.378898  1
  Dy  Dy7  1  0.411815  0.209511  0.878030  1
  Dy  Dy8  1  0.210057  0.412887  0.622191  1
  Dy  Dy9  1  0.210159  0.588444  0.121102  1
  Dy  Dy10  1  0.790418  0.411821  0.121645  1
  Dy  Dy11  1  0.790489  0.588185  0.621970  1
  Dy  Dy12  1  0.911816  0.709658  0.121881  1
  Dy  Dy13  1  0.911884  0.290375  0.621965  1
  Dy  Dy14  1  0.089263  0.709409  0.622135  1
  Dy  Dy15  1  0.088202  0.290411  0.121977  1
  Er  Er16  1  0.999945  0.999942  0.500075  1
  Er  Er17  1  0.000058  0.000055  0.999925  1
  Er  Er18  1  0.499615  0.500271  0.999938  1
  Er  Er19  1  0.499729  0.500385  0.500062  1
  Ir  Ir20  1  0.346924  0.653076  0.750000  1
  Rh  Rh21  1  0.846833  0.153167  0.250000  1
  Rh  Rh22  1  0.846821  0.846903  0.750048  1
  Rh  Rh23  1  0.153097  0.153179  0.749952  1
  Rh  Rh24  1  0.152694  0.847306  0.250000  1
  Rh  Rh25  1  0.653231  0.346769  0.750000  1
  Rh  Rh26  1  0.653627  0.653188  0.250094  1
  Rh  Rh27  1  0.346812  0.346373  0.249906  1
  Rh  Rh28  1  0.500122  0.000315  0.121715  1
  Rh  Rh29  1  0.500214  0.000508  0.621417  1
  Rh  Rh30  1  0.999492  0.499786  0.878583  1
  Rh  Rh31  1  0.999685  0.499878  0.378285  1
