# generated using pymatgen
data_Tb9Nd7Cd2(AgPt2)2
_symmetry_space_group_name_H-M   'P 1'
_cell_length_a   9.80181893
_cell_length_b   9.80181942
_cell_length_c   9.78218800
_cell_angle_alpha   60.06623787
_cell_angle_beta   60.06623623
_cell_angle_gamma   60.20785218
_symmetry_Int_Tables_number   1
_chemical_formula_structural   Tb9Nd7Cd2(AgPt2)2
_chemical_formula_sum   'Tb9 Nd7 Cd2 Ag2 Pt4'
_cell_volume   666.26560542
_cell_formula_units_Z   1
loop_
 _symmetry_equiv_pos_site_id
 _symmetry_equiv_pos_as_xyz
  1  'x, y, z'
loop_
 _atom_site_type_symbol
 _atom_site_label
 _atom_site_symmetry_multiplicity
 _atom_site_fract_x
 _atom_site_fract_y
 _atom_site_fract_z
 _atom_site_occupancy
  Tb  Tb0  1  0.351291  0.351291  0.350720  1
  Tb  Tb1  1  0.351291  0.351291  0.946698  1
  Tb  Tb2  1  0.351959  0.943022  0.352510  1
  Tb  Tb3  1  0.943022  0.351959  0.352510  1
  Tb  Tb4  1  0.811927  0.189224  0.189737  1
  Tb  Tb5  1  0.189224  0.811927  0.809111  1
  Tb  Tb6  1  0.189224  0.811927  0.189737  1
  Tb  Tb7  1  0.811927  0.189224  0.809111  1
  Tb  Tb8  1  0.189646  0.189646  0.810354  1
  Nd  Nd9  1  0.811019  0.811019  0.188981  1
  Nd  Nd10  1  0.935374  0.561030  0.565178  1
  Nd  Nd11  1  0.561030  0.935374  0.938418  1
  Nd  Nd12  1  0.561030  0.935374  0.565178  1
  Nd  Nd13  1  0.935374  0.561030  0.938418  1
  Nd  Nd14  1  0.561714  0.561714  0.938286  1
  Nd  Nd15  1  0.936640  0.936640  0.563360  1
  Cd  Cd16  1  0.580533  0.262563  0.578453  1
  Cd  Cd17  1  0.262563  0.580533  0.578453  1
  Ag  Ag18  1  0.582117  0.582117  0.582729  1
  Ag  Ag19  1  0.582117  0.582117  0.253038  1
  Pt  Pt20  1  0.143187  0.143187  0.144449  1
  Pt  Pt21  1  0.143187  0.143187  0.569179  1
  Pt  Pt22  1  0.146372  0.568236  0.142696  1
  Pt  Pt23  1  0.568236  0.146372  0.142696  1
