# generated using pymatgen
data_Zr5Zn6InRh12
_symmetry_space_group_name_H-M   'P 1'
_cell_length_a   4.49987400
_cell_length_b   6.25578000
_cell_length_c   13.48662500
_cell_angle_alpha   90.00000000
_cell_angle_beta   90.00208918
_cell_angle_gamma   90.00000000
_symmetry_Int_Tables_number   1
_chemical_formula_structural   Zr5Zn6InRh12
_chemical_formula_sum   'Zr5 Zn6 In1 Rh12'
_cell_volume   379.65148458
_cell_formula_units_Z   1
loop_
 _symmetry_equiv_pos_site_id
 _symmetry_equiv_pos_as_xyz
  1  'x, y, z'
loop_
 _atom_site_type_symbol
 _atom_site_label
 _atom_site_symmetry_multiplicity
 _atom_site_fract_x
 _atom_site_fract_y
 _atom_site_fract_z
 _atom_site_occupancy
  Zr  Zr0  1  0.999994  0.000000  0.998511  1
  Zr  Zr1  1  0.499875  0.500000  0.166480  1
  Zr  Zr2  1  0.999871  0.000000  0.333341  1
  Zr  Zr3  1  0.499996  0.500000  0.500213  1
  Zr  Zr4  1  0.000110  0.000000  0.668158  1
  Zn  Zn5  1  0.999981  0.500000  0.001765  1
  Zn  Zn6  1  0.499878  0.000000  0.164640  1
  Zn  Zn7  1  0.999867  0.500000  0.333312  1
  Zn  Zn8  1  0.499998  0.000000  0.502034  1
  Zn  Zn9  1  0.000105  0.500000  0.664908  1
  Zn  Zn10  1  0.500105  0.000000  0.833317  1
  In  In11  1  0.500320  0.500000  0.833246  1
  Rh  Rh12  1  0.499990  0.251862  0.999053  1
  Rh  Rh13  1  0.499990  0.748139  0.999053  1
  Rh  Rh14  1  0.999874  0.249850  0.166570  1
  Rh  Rh15  1  0.999874  0.750149  0.166570  1
  Rh  Rh16  1  0.499868  0.249952  0.333355  1
  Rh  Rh17  1  0.499868  0.750047  0.333355  1
  Rh  Rh18  1  0.999998  0.249879  0.500083  1
  Rh  Rh19  1  0.999998  0.750121  0.500083  1
  Rh  Rh20  1  0.500111  0.251910  0.667621  1
  Rh  Rh21  1  0.500111  0.748089  0.667621  1
  Rh  Rh22  1  0.000110  0.251956  0.833355  1
  Rh  Rh23  1  0.000110  0.748043  0.833355  1
