# generated using pymatgen
data_Dy3YNi2C5
_symmetry_space_group_name_H-M   'P 1'
_cell_length_a   3.65391500
_cell_length_b   3.69989200
_cell_length_c   11.65571000
_cell_angle_alpha   90.00000000
_cell_angle_beta   90.00000000
_cell_angle_gamma   90.00000000
_symmetry_Int_Tables_number   1
_chemical_formula_structural   Dy3YNi2C5
_chemical_formula_sum   'Dy3 Y1 Ni2 C5'
_cell_volume   157.57460273
_cell_formula_units_Z   1
loop_
 _symmetry_equiv_pos_site_id
 _symmetry_equiv_pos_as_xyz
  1  'x, y, z'
loop_
 _atom_site_type_symbol
 _atom_site_label
 _atom_site_symmetry_multiplicity
 _atom_site_fract_x
 _atom_site_fract_y
 _atom_site_fract_z
 _atom_site_occupancy
  Dy  Dy0  1  0.500000  0.503934  0.204126  1
  Dy  Dy1  1  0.500000  0.503934  0.795874  1
  Dy  Dy2  1  0.500000  0.208112  0.500000  1
  Y  Y3  1  0.000000  0.999838  0.000000  1
  Ni  Ni4  1  0.000000  0.697274  0.384099  1
  Ni  Ni5  1  0.000000  0.697274  0.615901  1
  C  C6  1  0.000000  0.000637  0.231135  1
  C  C7  1  0.000000  0.000637  0.768865  1
  C  C8  1  0.000000  0.196979  0.332919  1
  C  C9  1  0.000000  0.196979  0.667081  1
  C  C10  1  0.500000  0.495900  0.000000  1
