# generated using pymatgen
data_CaNiGeN
_symmetry_space_group_name_H-M   'P 1'
_cell_length_a   3.64474900
_cell_length_b   3.64474900
_cell_length_c   9.09096100
_cell_angle_alpha   90.00000000
_cell_angle_beta   90.00000000
_cell_angle_gamma   90.00000000
_symmetry_Int_Tables_number   1
_chemical_formula_structural   CaNiGeN
_chemical_formula_sum   'Ca2 Ni2 Ge2 N2'
_cell_volume   120.76610114
_cell_formula_units_Z   2
loop_
 _symmetry_equiv_pos_site_id
 _symmetry_equiv_pos_as_xyz
  1  'x, y, z'
loop_
 _atom_site_type_symbol
 _atom_site_label
 _atom_site_symmetry_multiplicity
 _atom_site_fract_x
 _atom_site_fract_y
 _atom_site_fract_z
 _atom_site_occupancy
  Ca  Ca0  1  0.000000  0.500000  0.128431  1
  Ca  Ca1  1  0.500000  0.000000  0.871569  1
  Ni  Ni2  1  0.000000  0.000000  0.500000  1
  Ni  Ni3  1  0.500000  0.500000  0.500000  1
  Ge  Ge4  1  0.000000  0.500000  0.665774  1
  Ge  Ge5  1  0.500000  0.000000  0.334226  1
  N  N6  1  0.000000  0.500000  0.866787  1
  N  N7  1  0.500000  0.000000  0.133213  1
