# generated using pymatgen
data_TbHo11(ErRh3)2
_symmetry_space_group_name_H-M   'P 1'
_cell_length_a   9.74698534
_cell_length_b   9.75025653
_cell_length_c   6.16624213
_cell_angle_alpha   90.00000454
_cell_angle_beta   90.02072081
_cell_angle_gamma   120.01110178
_symmetry_Int_Tables_number   1
_chemical_formula_structural   TbHo11(ErRh3)2
_chemical_formula_sum   'Tb1 Ho11 Er2 Rh6'
_cell_volume   507.44494252
_cell_formula_units_Z   1
loop_
 _symmetry_equiv_pos_site_id
 _symmetry_equiv_pos_as_xyz
  1  'x, y, z'
loop_
 _atom_site_type_symbol
 _atom_site_label
 _atom_site_symmetry_multiplicity
 _atom_site_fract_x
 _atom_site_fract_y
 _atom_site_fract_z
 _atom_site_occupancy
  Tb  Tb0  1  0.752624  0.876312  0.991345  1
  Ho  Ho1  1  0.876116  0.124043  0.490000  1
  Ho  Ho2  1  0.540882  0.458632  0.798481  1
  Ho  Ho3  1  0.081714  0.540856  0.297269  1
  Ho  Ho4  1  0.458542  0.917878  0.298693  1
  Ho  Ho5  1  0.540882  0.082251  0.798481  1
  Ho  Ho6  1  0.917904  0.458953  0.797019  1
  Ho  Ho7  1  0.458542  0.540663  0.298693  1
  Ho  Ho8  1  0.124347  0.248144  0.989905  1
  Ho  Ho9  1  0.876116  0.752074  0.490000  1
  Ho  Ho10  1  0.247353  0.123677  0.490028  1
  Ho  Ho11  1  0.124347  0.876204  0.989905  1
  Er  Er12  1  0.666446  0.333222  0.286726  1
  Er  Er13  1  0.333194  0.666598  0.786542  1
  Rh  Rh14  1  0.189667  0.809903  0.563365  1
  Rh  Rh15  1  0.380224  0.190112  0.063979  1
  Rh  Rh16  1  0.810769  0.619305  0.063630  1
  Rh  Rh17  1  0.189667  0.379765  0.563365  1
  Rh  Rh18  1  0.619894  0.809947  0.562948  1
  Rh  Rh19  1  0.810769  0.191463  0.063630  1
