# generated using pymatgen
data_CaPrB4(IrRu)2
_symmetry_space_group_name_H-M   'P 1'
_cell_length_a   6.91242031
_cell_length_b   6.04914441
_cell_length_c   5.59612856
_cell_angle_alpha   72.70538846
_cell_angle_beta   56.67290089
_cell_angle_gamma   50.59055802
_symmetry_Int_Tables_number   1
_chemical_formula_structural   CaPrB4(IrRu)2
_chemical_formula_sum   'Ca1 Pr1 B4 Ir2 Ru2'
_cell_volume   150.57978634
_cell_formula_units_Z   1
loop_
 _symmetry_equiv_pos_site_id
 _symmetry_equiv_pos_as_xyz
  1  'x, y, z'
loop_
 _atom_site_type_symbol
 _atom_site_label
 _atom_site_symmetry_multiplicity
 _atom_site_fract_x
 _atom_site_fract_y
 _atom_site_fract_z
 _atom_site_occupancy
  Ca  Ca0  1  0.249173  0.249173  0.250827  1
  Pr  Pr1  1  0.998929  0.998929  0.001071  1
  B  B2  1  0.323047  0.677198  0.320776  1
  B  B3  1  0.569321  0.932045  0.565499  1
  B  B4  1  0.677198  0.323047  0.678979  1
  B  B5  1  0.932045  0.569321  0.933135  1
  Ir  Ir6  1  0.617330  0.617330  0.882670  1
  Ir  Ir7  1  0.364831  0.364831  0.635169  1
  Ru  Ru8  1  0.634801  0.634801  0.365199  1
  Ru  Ru9  1  0.883326  0.883326  0.616674  1
