# generated using pymatgen
data_La13Pr7Ir11Ru
_symmetry_space_group_name_H-M   'P 1'
_cell_length_a   11.41501582
_cell_length_b   11.45631924
_cell_length_c   6.63594453
_cell_angle_alpha   89.86775593
_cell_angle_beta   89.98249536
_cell_angle_gamma   89.90808135
_symmetry_Int_Tables_number   1
_chemical_formula_structural   La13Pr7Ir11Ru
_chemical_formula_sum   'La13 Pr7 Ir11 Ru1'
_cell_volume   867.80597571
_cell_formula_units_Z   1
loop_
 _symmetry_equiv_pos_site_id
 _symmetry_equiv_pos_as_xyz
  1  'x, y, z'
loop_
 _atom_site_type_symbol
 _atom_site_label
 _atom_site_symmetry_multiplicity
 _atom_site_fract_x
 _atom_site_fract_y
 _atom_site_fract_z
 _atom_site_occupancy
  La  La0  1  0.291671  0.090224  0.385545  1
  La  La1  1  0.292096  0.909817  0.888872  1
  La  La2  1  0.708044  0.090718  0.889359  1
  La  La3  1  0.707759  0.910427  0.386140  1
  La  La4  1  0.590905  0.792162  0.888961  1
  La  La5  1  0.590982  0.208331  0.386277  1
  La  La6  1  0.408789  0.791894  0.386312  1
  La  La7  1  0.408852  0.207843  0.889852  1
  La  La8  1  0.206399  0.408819  0.613886  1
  La  La9  1  0.207753  0.590355  0.113504  1
  La  La10  1  0.792562  0.408038  0.113176  1
  La  La11  1  0.792624  0.590319  0.613762  1
  La  La12  1  0.909873  0.709214  0.113930  1
  Pr  Pr13  1  0.910009  0.290349  0.616188  1
  Pr  Pr14  1  0.090923  0.710014  0.616390  1
  Pr  Pr15  1  0.089333  0.290047  0.116165  1
  Pr  Pr16  1  0.999569  0.000132  0.498420  1
  Pr  Pr17  1  0.000640  0.000837  0.997115  1
  Pr  Pr18  1  0.500073  0.499574  0.999769  1
  Pr  Pr19  1  0.500064  0.500032  0.499759  1
  Ir  Ir20  1  0.845498  0.154307  0.247315  1
  Ir  Ir21  1  0.845717  0.845256  0.748921  1
  Ir  Ir22  1  0.154733  0.153979  0.746589  1
  Ir  Ir23  1  0.154894  0.845932  0.247542  1
  Ir  Ir24  1  0.654506  0.345705  0.749450  1
  Ir  Ir25  1  0.655778  0.654245  0.249138  1
  Ir  Ir26  1  0.344651  0.346045  0.250411  1
  Ir  Ir27  1  0.345374  0.654235  0.749573  1
  Ir  Ir28  1  0.500185  0.999965  0.618499  1
  Ir  Ir29  1  0.000268  0.499945  0.882929  1
  Ir  Ir30  1  0.999663  0.501181  0.381646  1
  Ru  Ru31  1  0.499813  0.000057  0.114608  1
