# generated using pymatgen
data_TbSmP7Ru12
_symmetry_space_group_name_H-M   'P 1'
_cell_length_a   9.42614100
_cell_length_b   9.42614026
_cell_length_c   3.96461300
_cell_angle_alpha   90.00000000
_cell_angle_beta   90.00000000
_cell_angle_gamma   119.99999909
_symmetry_Int_Tables_number   1
_chemical_formula_structural   TbSmP7Ru12
_chemical_formula_sum   'Tb1 Sm1 P7 Ru12'
_cell_volume   305.06983414
_cell_formula_units_Z   1
loop_
 _symmetry_equiv_pos_site_id
 _symmetry_equiv_pos_as_xyz
  1  'x, y, z'
loop_
 _atom_site_type_symbol
 _atom_site_label
 _atom_site_symmetry_multiplicity
 _atom_site_fract_x
 _atom_site_fract_y
 _atom_site_fract_z
 _atom_site_occupancy
  Tb  Tb0  1  0.666667  0.333333  0.500000  1
  Sm  Sm1  1  0.333333  0.666667  0.000000  1
  P  P2  1  0.602938  0.718622  0.500000  1
  P  P3  1  0.000000  0.000000  0.000000  1
  P  P4  1  0.281378  0.884316  0.500000  1
  P  P5  1  0.115684  0.397062  0.500000  1
  P  P6  1  0.886415  0.573098  0.000000  1
  P  P7  1  0.426902  0.313317  0.000000  1
  P  P8  1  0.686683  0.113585  0.000000  1
  Ru  Ru9  1  0.558090  0.952391  0.500000  1
  Ru  Ru10  1  0.394301  0.441910  0.500000  1
  Ru  Ru11  1  0.914790  0.120675  0.500000  1
  Ru  Ru12  1  0.205885  0.085210  0.500000  1
  Ru  Ru13  1  0.879325  0.794115  0.500000  1
  Ru  Ru14  1  0.728579  0.892794  0.000000  1
  Ru  Ru15  1  0.107206  0.835784  0.000000  1
  Ru  Ru16  1  0.164216  0.271421  0.000000  1
  Ru  Ru17  1  0.422231  0.067154  0.000000  1
  Ru  Ru18  1  0.932846  0.355078  0.000000  1
  Ru  Ru19  1  0.644922  0.577769  0.000000  1
  Ru  Ru20  1  0.047609  0.605699  0.500000  1
