# generated using pymatgen
data_Li3Sc2Ni9P7
_symmetry_space_group_name_H-M   'P 1'
_cell_length_a   9.05765800
_cell_length_b   9.05765720
_cell_length_c   3.63063200
_cell_angle_alpha   90.00000000
_cell_angle_beta   90.00000000
_cell_angle_gamma   120.00000293
_symmetry_Int_Tables_number   1
_chemical_formula_structural   Li3Sc2Ni9P7
_chemical_formula_sum   'Li3 Sc2 Ni9 P7'
_cell_volume   257.95541474
_cell_formula_units_Z   1
loop_
 _symmetry_equiv_pos_site_id
 _symmetry_equiv_pos_as_xyz
  1  'x, y, z'
loop_
 _atom_site_type_symbol
 _atom_site_label
 _atom_site_symmetry_multiplicity
 _atom_site_fract_x
 _atom_site_fract_y
 _atom_site_fract_z
 _atom_site_occupancy
  Li  Li0  1  0.214779  0.112403  0.500000  1
  Li  Li1  1  0.887597  0.102376  0.500000  1
  Li  Li2  1  0.897624  0.785221  0.500000  1
  Sc  Sc3  1  0.333333  0.666667  0.000000  1
  Sc  Sc4  1  0.666667  0.333333  0.500000  1
  Ni  Ni5  1  0.121248  0.284549  0.000000  1
  Ni  Ni6  1  0.715451  0.836699  0.000000  1
  Ni  Ni7  1  0.163301  0.878752  0.000000  1
  Ni  Ni8  1  0.430258  0.369124  0.000000  1
  Ni  Ni9  1  0.630876  0.061135  0.000000  1
  Ni  Ni10  1  0.938865  0.569742  0.000000  1
  Ni  Ni11  1  0.046336  0.439955  0.500000  1
  Ni  Ni12  1  0.560045  0.606381  0.500000  1
  Ni  Ni13  1  0.393619  0.953664  0.500000  1
  P  P14  1  0.286232  0.414045  0.500000  1
  P  P15  1  0.585955  0.872186  0.500000  1
  P  P16  1  0.127814  0.713768  0.500000  1
  P  P17  1  0.418047  0.117334  0.000000  1
  P  P18  1  0.882666  0.300714  0.000000  1
  P  P19  1  0.699286  0.581953  0.000000  1
  P  P20  1  0.000000  0.000000  0.000000  1
