# generated using pymatgen
data_Cs2Pd(IO3)6
_symmetry_space_group_name_H-M   'P 1'
_cell_length_a   7.93953727
_cell_length_b   7.93953791
_cell_length_c   7.93953703
_cell_angle_alpha   97.23246710
_cell_angle_beta   97.23247702
_cell_angle_gamma   97.23246875
_symmetry_Int_Tables_number   1
_chemical_formula_structural   Cs2Pd(IO3)6
_chemical_formula_sum   'Cs2 Pd1 I6 O18'
_cell_volume   487.41080274
_cell_formula_units_Z   1
loop_
 _symmetry_equiv_pos_site_id
 _symmetry_equiv_pos_as_xyz
  1  'x, y, z'
loop_
 _atom_site_type_symbol
 _atom_site_label
 _atom_site_symmetry_multiplicity
 _atom_site_fract_x
 _atom_site_fract_y
 _atom_site_fract_z
 _atom_site_occupancy
  Cs  Cs0  1  0.164524  0.164524  0.164524  1
  Cs  Cs1  1  0.835476  0.835476  0.835476  1
  Pd  Pd2  1  0.500000  0.500000  0.500000  1
  I  I3  1  0.700851  0.339990  0.145933  1
  I  I4  1  0.660010  0.854067  0.299149  1
  I  I5  1  0.145933  0.700851  0.339990  1
  I  I6  1  0.854067  0.299149  0.660010  1
  I  I7  1  0.299149  0.660010  0.854067  1
  I  I8  1  0.339990  0.145933  0.700851  1
  O  O9  1  0.900935  0.397977  0.294340  1
  O  O10  1  0.602023  0.705660  0.099065  1
  O  O11  1  0.705660  0.099065  0.602023  1
  O  O12  1  0.677516  0.688151  0.452441  1
  O  O13  1  0.685348  0.108043  0.105069  1
  O  O14  1  0.452441  0.677516  0.688151  1
  O  O15  1  0.311849  0.547559  0.322484  1
  O  O16  1  0.322484  0.311849  0.547559  1
  O  O17  1  0.108043  0.105069  0.685348  1
  O  O18  1  0.894931  0.314652  0.891957  1
  O  O19  1  0.688151  0.452441  0.677516  1
  O  O20  1  0.099065  0.602023  0.705660  1
  O  O21  1  0.547559  0.322484  0.311849  1
  O  O22  1  0.314652  0.891957  0.894931  1
  O  O23  1  0.891957  0.894931  0.314652  1
  O  O24  1  0.397977  0.294340  0.900935  1
  O  O25  1  0.294340  0.900935  0.397977  1
  O  O26  1  0.105069  0.685348  0.108043  1
