# generated using pymatgen
data_La4Y8Tc3Rh
_symmetry_space_group_name_H-M   'P 1'
_cell_length_a   6.50633282
_cell_length_b   7.41004274
_cell_length_c   9.49741400
_cell_angle_alpha   90.00000000
_cell_angle_beta   90.00000000
_cell_angle_gamma   90.27332508
_symmetry_Int_Tables_number   1
_chemical_formula_structural   La4Y8Tc3Rh
_chemical_formula_sum   'La4 Y8 Tc3 Rh1'
_cell_volume   457.88605406
_cell_formula_units_Z   1
loop_
 _symmetry_equiv_pos_site_id
 _symmetry_equiv_pos_as_xyz
  1  'x, y, z'
loop_
 _atom_site_type_symbol
 _atom_site_label
 _atom_site_symmetry_multiplicity
 _atom_site_fract_x
 _atom_site_fract_y
 _atom_site_fract_z
 _atom_site_occupancy
  La  La0  1  0.626694  0.056453  0.250000  1
  La  La1  1  0.370818  0.944528  0.750000  1
  La  La2  1  0.127761  0.447876  0.750000  1
  La  La3  1  0.864504  0.549390  0.250000  1
  Y  Y4  1  0.163525  0.175516  0.064011  1
  Y  Y5  1  0.831215  0.826043  0.930793  1
  Y  Y6  1  0.664026  0.324335  0.932530  1
  Y  Y7  1  0.831215  0.826043  0.569207  1
  Y  Y8  1  0.336586  0.672714  0.064719  1
  Y  Y9  1  0.163525  0.175516  0.435989  1
  Y  Y10  1  0.336586  0.672714  0.435281  1
  Y  Y11  1  0.664026  0.324335  0.567470  1
  Tc  Tc12  1  0.475283  0.370805  0.250000  1
  Tc  Tc13  1  0.523407  0.628417  0.750000  1
  Tc  Tc14  1  0.975710  0.125537  0.750000  1
  Rh  Rh15  1  0.045121  0.879779  0.250000  1
