# generated using pymatgen
data_La2Pr2NdCo2
_symmetry_space_group_name_H-M   'P 1'
_cell_length_a   9.17605157
_cell_length_b   9.17605095
_cell_length_c   7.08524487
_cell_angle_alpha   85.41871907
_cell_angle_beta   85.41872483
_cell_angle_gamma   42.41650819
_symmetry_Int_Tables_number   1
_chemical_formula_structural   La2Pr2NdCo2
_chemical_formula_sum   'La4 Pr4 Nd2 Co4'
_cell_volume   400.92062725
_cell_formula_units_Z   2
loop_
 _symmetry_equiv_pos_site_id
 _symmetry_equiv_pos_as_xyz
  1  'x, y, z'
loop_
 _atom_site_type_symbol
 _atom_site_label
 _atom_site_symmetry_multiplicity
 _atom_site_fract_x
 _atom_site_fract_y
 _atom_site_fract_z
 _atom_site_occupancy
  La  La0  1  0.015637  0.794603  0.897974  1
  La  La1  1  0.205397  0.984363  0.602026  1
  La  La2  1  0.984363  0.205397  0.102026  1
  La  La3  1  0.794603  0.015637  0.397974  1
  Pr  Pr4  1  0.357754  0.217232  0.829191  1
  Pr  Pr5  1  0.782768  0.642246  0.670809  1
  Pr  Pr6  1  0.642246  0.782768  0.170809  1
  Pr  Pr7  1  0.217232  0.357754  0.329191  1
  Nd  Nd8  1  0.570427  0.429573  0.750000  1
  Nd  Nd9  1  0.429573  0.570427  0.250000  1
  Co  Co10  1  0.174614  0.609412  0.586116  1
  Co  Co11  1  0.390588  0.825386  0.913884  1
  Co  Co12  1  0.825386  0.390588  0.413884  1
  Co  Co13  1  0.609412  0.174614  0.086116  1
