# generated using pymatgen
data_Ta6Ga4CuNiC2
_symmetry_space_group_name_H-M   'P 1'
_cell_length_a   8.25935280
_cell_length_b   8.24709889
_cell_length_c   8.24709811
_cell_angle_alpha   59.91209127
_cell_angle_beta   59.95083285
_cell_angle_gamma   59.95083687
_symmetry_Int_Tables_number   1
_chemical_formula_structural   Ta6Ga4CuNiC2
_chemical_formula_sum   'Ta12 Ga8 Cu2 Ni2 C4'
_cell_volume   396.66265191
_cell_formula_units_Z   2
loop_
 _symmetry_equiv_pos_site_id
 _symmetry_equiv_pos_as_xyz
  1  'x, y, z'
loop_
 _atom_site_type_symbol
 _atom_site_label
 _atom_site_symmetry_multiplicity
 _atom_site_fract_x
 _atom_site_fract_y
 _atom_site_fract_z
 _atom_site_occupancy
  Ta  Ta0  1  0.565513  0.935073  0.564307  1
  Ta  Ta1  1  0.314937  0.685063  0.685063  1
  Ta  Ta2  1  0.685760  0.314240  0.314240  1
  Ta  Ta3  1  0.314893  0.685693  0.314927  1
  Ta  Ta4  1  0.684487  0.685693  0.314927  1
  Ta  Ta5  1  0.314893  0.314927  0.685693  1
  Ta  Ta6  1  0.565513  0.564307  0.935073  1
  Ta  Ta7  1  0.935063  0.564937  0.564937  1
  Ta  Ta8  1  0.564240  0.935760  0.935760  1
  Ta  Ta9  1  0.935107  0.935073  0.564307  1
  Ta  Ta10  1  0.684487  0.314927  0.685693  1
  Ta  Ta11  1  0.935107  0.564307  0.935073  1
  Ga  Ga12  1  0.912182  0.916646  0.916646  1
  Ga  Ga13  1  0.995472  0.333354  0.333354  1
  Ga  Ga14  1  0.335580  0.997943  0.330895  1
  Ga  Ga15  1  0.335580  0.330895  0.997943  1
  Ga  Ga16  1  0.914420  0.252057  0.919105  1
  Ga  Ga17  1  0.914420  0.919105  0.252057  1
  Ga  Ga18  1  0.254528  0.916646  0.916646  1
  Ga  Ga19  1  0.337818  0.333354  0.333354  1
  Cu  Cu20  1  0.125000  0.625000  0.125000  1
  Cu  Cu21  1  0.125000  0.125000  0.625000  1
  Ni  Ni22  1  0.125000  0.125000  0.125000  1
  Ni  Ni23  1  0.625000  0.125000  0.125000  1
  C  C24  1  0.625000  0.625000  0.625000  1
  C  C25  1  0.125000  0.625000  0.625000  1
  C  C26  1  0.625000  0.125000  0.625000  1
  C  C27  1  0.625000  0.625000  0.125000  1
