# generated using pymatgen
data_TcI9
_symmetry_space_group_name_H-M   'P 1'
_cell_length_a   10.10197670
_cell_length_b   10.10197828
_cell_length_c   10.10197822
_cell_angle_alpha   91.82570183
_cell_angle_beta   91.82569942
_cell_angle_gamma   91.82570501
_symmetry_Int_Tables_number   1
_chemical_formula_structural   TcI9
_chemical_formula_sum   'Tc2 I18'
_cell_volume   1029.30221953
_cell_formula_units_Z   2
loop_
 _symmetry_equiv_pos_site_id
 _symmetry_equiv_pos_as_xyz
  1  'x, y, z'
loop_
 _atom_site_type_symbol
 _atom_site_label
 _atom_site_symmetry_multiplicity
 _atom_site_fract_x
 _atom_site_fract_y
 _atom_site_fract_z
 _atom_site_occupancy
  Tc  Tc0  1  0.000000  0.000000  0.000000  1
  Tc  Tc1  1  0.500000  0.500000  0.500000  1
  I  I2  1  0.744234  0.130065  0.616704  1
  I  I3  1  0.985374  0.010626  0.730314  1
  I  I4  1  0.616704  0.744234  0.130065  1
  I  I5  1  0.989374  0.269686  0.014626  1
  I  I6  1  0.730314  0.985374  0.010626  1
  I  I7  1  0.010626  0.730314  0.985374  1
  I  I8  1  0.014626  0.989374  0.269686  1
  I  I9  1  0.869935  0.383296  0.255766  1
  I  I10  1  0.269686  0.014626  0.989374  1
  I  I11  1  0.255766  0.869935  0.383296  1
  I  I12  1  0.130065  0.616704  0.744234  1
  I  I13  1  0.383296  0.255766  0.869935  1
  I  I14  1  0.768135  0.533889  0.486689  1
  I  I15  1  0.533889  0.486689  0.768135  1
  I  I16  1  0.231865  0.466111  0.513311  1
  I  I17  1  0.466111  0.513311  0.231865  1
  I  I18  1  0.486689  0.768135  0.533889  1
  I  I19  1  0.513311  0.231865  0.466111  1
