# generated using pymatgen
data_Ca11Ho9Sn16
_symmetry_space_group_name_H-M   'P 1'
_cell_length_a   7.86960909
_cell_length_b   8.45392989
_cell_length_c   16.00688000
_cell_angle_alpha   90.00000000
_cell_angle_beta   90.00000000
_cell_angle_gamma   89.85218805
_symmetry_Int_Tables_number   1
_chemical_formula_structural   Ca11Ho9Sn16
_chemical_formula_sum   'Ca11 Ho9 Sn16'
_cell_volume   1064.92015329
_cell_formula_units_Z   1
loop_
 _symmetry_equiv_pos_site_id
 _symmetry_equiv_pos_as_xyz
  1  'x, y, z'
loop_
 _atom_site_type_symbol
 _atom_site_label
 _atom_site_symmetry_multiplicity
 _atom_site_fract_x
 _atom_site_fract_y
 _atom_site_fract_z
 _atom_site_occupancy
  Ca  Ca0  1  0.503862  0.687217  0.593343  1
  Ca  Ca1  1  0.003863  0.815431  0.908562  1
  Ca  Ca2  1  0.494502  0.312231  0.092085  1
  Ca  Ca3  1  0.995759  0.186972  0.408294  1
  Ca  Ca4  1  0.494502  0.312231  0.407915  1
  Ca  Ca5  1  0.995759  0.186972  0.091706  1
  Ca  Ca6  1  0.503862  0.687217  0.906657  1
  Ca  Ca7  1  0.003863  0.815431  0.591438  1
  Ca  Ca8  1  0.336438  0.990174  0.750000  1
  Ca  Ca9  1  0.163574  0.488615  0.250000  1
  Ca  Ca10  1  0.663366  0.009132  0.250000  1
  Ho  Ho11  1  0.674157  0.163870  0.622234  1
  Ho  Ho12  1  0.175178  0.334664  0.877156  1
  Ho  Ho13  1  0.326072  0.833135  0.122065  1
  Ho  Ho14  1  0.826335  0.664244  0.378223  1
  Ho  Ho15  1  0.326072  0.833135  0.377935  1
  Ho  Ho16  1  0.826335  0.664244  0.121777  1
  Ho  Ho17  1  0.674157  0.163870  0.877766  1
  Ho  Ho18  1  0.175178  0.334664  0.622844  1
  Ho  Ho19  1  0.838013  0.509965  0.750000  1
  Sn  Sn20  1  0.671422  0.962195  0.459291  1
  Sn  Sn21  1  0.171148  0.537060  0.040062  1
  Sn  Sn22  1  0.329275  0.037464  0.959276  1
  Sn  Sn23  1  0.829171  0.465181  0.543908  1
  Sn  Sn24  1  0.329275  0.037464  0.540724  1
  Sn  Sn25  1  0.829171  0.465181  0.956092  1
  Sn  Sn26  1  0.671422  0.962195  0.040709  1
  Sn  Sn27  1  0.171148  0.537060  0.459938  1
  Sn  Sn28  1  0.475357  0.379343  0.750000  1
  Sn  Sn29  1  0.971351  0.132918  0.750000  1
  Sn  Sn30  1  0.528206  0.625412  0.250000  1
  Sn  Sn31  1  0.027726  0.871815  0.250000  1
  Sn  Sn32  1  0.721843  0.865874  0.750000  1
  Sn  Sn33  1  0.210086  0.630315  0.750000  1
  Sn  Sn34  1  0.280761  0.125660  0.250000  1
  Sn  Sn35  1  0.781790  0.371449  0.250000  1
