# generated using pymatgen
data_Y3Ho5(ScGa5)4
_symmetry_space_group_name_H-M   'P 1'
_cell_length_a   6.00227105
_cell_length_b   9.49338601
_cell_length_c   11.32204408
_cell_angle_alpha   89.99761648
_cell_angle_beta   89.98643126
_cell_angle_gamma   89.99552102
_symmetry_Int_Tables_number   1
_chemical_formula_structural   Y3Ho5(ScGa5)4
_chemical_formula_sum   'Y3 Ho5 Sc4 Ga20'
_cell_volume   645.15129107
_cell_formula_units_Z   1
loop_
 _symmetry_equiv_pos_site_id
 _symmetry_equiv_pos_as_xyz
  1  'x, y, z'
loop_
 _atom_site_type_symbol
 _atom_site_label
 _atom_site_symmetry_multiplicity
 _atom_site_fract_x
 _atom_site_fract_y
 _atom_site_fract_z
 _atom_site_occupancy
  Y  Y0  1  0.890900  0.510071  0.352243  1
  Y  Y1  1  0.609105  0.989908  0.852383  1
  Y  Y2  1  0.109122  0.010055  0.647644  1
  Ho  Ho3  1  0.390970  0.489969  0.147663  1
  Ho  Ho4  1  0.109037  0.489946  0.647898  1
  Ho  Ho5  1  0.390945  0.010048  0.147927  1
  Ho  Ho6  1  0.890910  0.989889  0.352095  1
  Ho  Ho7  1  0.609007  0.510097  0.852253  1
  Sc  Sc8  1  0.849079  0.749937  0.074426  1
  Sc  Sc9  1  0.650762  0.749988  0.574374  1
  Sc  Sc10  1  0.150821  0.250082  0.925703  1
  Sc  Sc11  1  0.349225  0.250024  0.425574  1
  Ga  Ga12  1  0.877342  0.050386  0.089430  1
  Ga  Ga13  1  0.622654  0.449618  0.589434  1
  Ga  Ga14  1  0.122758  0.550357  0.910730  1
  Ga  Ga15  1  0.377377  0.949595  0.410568  1
  Ga  Ga16  1  0.122561  0.949460  0.911076  1
  Ga  Ga17  1  0.377465  0.550455  0.410800  1
  Ga  Ga18  1  0.877244  0.449588  0.089023  1
  Ga  Ga19  1  0.622567  0.050503  0.588921  1
  Ga  Ga20  1  0.165615  0.750221  0.248491  1
  Ga  Ga21  1  0.334571  0.749524  0.748639  1
  Ga  Ga22  1  0.834592  0.250486  0.751356  1
  Ga  Ga23  1  0.665195  0.249753  0.251245  1
  Ga  Ga24  1  0.379264  0.749864  0.004264  1
  Ga  Ga25  1  0.120739  0.749824  0.504017  1
  Ga  Ga26  1  0.620572  0.250297  0.996084  1
  Ga  Ga27  1  0.879238  0.249840  0.495972  1
  Ga  Ga28  1  0.604046  0.750315  0.296224  1
  Ga  Ga29  1  0.895888  0.749576  0.796295  1
  Ga  Ga30  1  0.395890  0.250412  0.703669  1
  Ga  Ga31  1  0.104539  0.249912  0.203583  1
