# generated using pymatgen
data_ZrNp2As2Se
_symmetry_space_group_name_H-M   'P 1'
_cell_length_a   4.03606100
_cell_length_b   4.03606044
_cell_length_c   9.92663800
_cell_angle_alpha   90.00000000
_cell_angle_beta   90.00000000
_cell_angle_gamma   119.99999639
_symmetry_Int_Tables_number   1
_chemical_formula_structural   ZrNp2As2Se
_chemical_formula_sum   'Zr1 Np2 As2 Se1'
_cell_volume   140.03874650
_cell_formula_units_Z   1
loop_
 _symmetry_equiv_pos_site_id
 _symmetry_equiv_pos_as_xyz
  1  'x, y, z'
loop_
 _atom_site_type_symbol
 _atom_site_label
 _atom_site_symmetry_multiplicity
 _atom_site_fract_x
 _atom_site_fract_y
 _atom_site_fract_z
 _atom_site_occupancy
  Zr  Zr0  1  0.000000  0.000000  0.500000  1
  Np  Np1  1  0.333333  0.666667  0.178777  1
  Np  Np2  1  0.666667  0.333333  0.821223  1
  As  As3  1  0.333333  0.666667  0.653114  1
  As  As4  1  0.666667  0.333333  0.346886  1
  Se  Se5  1  0.000000  0.000000  0.000000  1
