# generated using pymatgen
data_Tb2Er3(FeB3)2
_symmetry_space_group_name_H-M   'P 1'
_cell_length_a   5.41142742
_cell_length_b   5.41142766
_cell_length_c   8.21553309
_cell_angle_alpha   70.77120316
_cell_angle_beta   70.77120322
_cell_angle_gamma   59.99999272
_symmetry_Int_Tables_number   1
_chemical_formula_structural   Tb2Er3(FeB3)2
_chemical_formula_sum   'Tb2 Er3 Fe2 B6'
_cell_volume   192.69452245
_cell_formula_units_Z   1
loop_
 _symmetry_equiv_pos_site_id
 _symmetry_equiv_pos_as_xyz
  1  'x, y, z'
loop_
 _atom_site_type_symbol
 _atom_site_label
 _atom_site_symmetry_multiplicity
 _atom_site_fract_x
 _atom_site_fract_y
 _atom_site_fract_z
 _atom_site_occupancy
  Tb  Tb0  1  0.999773  0.999773  0.000681  1
  Tb  Tb1  1  0.747963  0.747963  0.756111  1
  Er  Er2  1  0.251105  0.251105  0.246684  1
  Er  Er3  1  0.583221  0.583221  0.250339  1
  Er  Er4  1  0.416795  0.416795  0.749614  1
  Fe  Fe5  1  0.882813  0.882813  0.351560  1
  Fe  Fe6  1  0.117246  0.117246  0.648261  1
  B  B7  1  0.499678  0.168645  0.499459  1
  B  B8  1  0.832219  0.499678  0.499459  1
  B  B9  1  0.168645  0.832219  0.499459  1
  B  B10  1  0.168645  0.499678  0.499459  1
  B  B11  1  0.832219  0.168645  0.499459  1
  B  B12  1  0.499678  0.832219  0.499459  1
