# generated using pymatgen
data_PrHo2Tm(Ir2O7)2
_symmetry_space_group_name_H-M   'P 1'
_cell_length_a   7.30134239
_cell_length_b   7.23509455
_cell_length_c   7.24058300
_cell_angle_alpha   59.97489838
_cell_angle_beta   60.27489456
_cell_angle_gamma   60.25788478
_symmetry_Int_Tables_number   1
_chemical_formula_structural   PrHo2Tm(Ir2O7)2
_chemical_formula_sum   'Pr1 Ho2 Tm1 Ir4 O14'
_cell_volume   271.49343075
_cell_formula_units_Z   1
loop_
 _symmetry_equiv_pos_site_id
 _symmetry_equiv_pos_as_xyz
  1  'x, y, z'
loop_
 _atom_site_type_symbol
 _atom_site_label
 _atom_site_symmetry_multiplicity
 _atom_site_fract_x
 _atom_site_fract_y
 _atom_site_fract_z
 _atom_site_occupancy
  Pr  Pr0  1  0.625000  0.125000  0.125000  1
  Ho  Ho1  1  0.125000  0.125000  0.625000  1
  Ho  Ho2  1  0.125000  0.125000  0.125000  1
  Tm  Tm3  1  0.125000  0.625000  0.125000  1
  Ir  Ir4  1  0.625000  0.625000  0.625000  1
  Ir  Ir5  1  0.125000  0.625000  0.625000  1
  Ir  Ir6  1  0.625000  0.125000  0.625000  1
  Ir  Ir7  1  0.625000  0.625000  0.125000  1
  O  O8  1  0.962672  0.539221  0.536587  1
  O  O9  1  0.287488  0.288787  0.711862  1
  O  O10  1  0.962672  0.539221  0.961521  1
  O  O11  1  0.721600  0.288723  0.288479  1
  O  O12  1  0.526671  0.549977  0.961676  1
  O  O13  1  0.528400  0.961277  0.548802  1
  O  O14  1  0.528400  0.961277  0.961521  1
  O  O15  1  0.236223  0.257106  0.253336  1
  O  O16  1  0.287328  0.710779  0.713413  1
  O  O17  1  0.721600  0.288723  0.701198  1
  O  O18  1  0.013777  0.992894  0.996664  1
  O  O19  1  0.962512  0.961213  0.538138  1
  O  O20  1  0.287328  0.710779  0.288479  1
  O  O21  1  0.723329  0.700023  0.288324  1
