# generated using pymatgen
data_Nd3LuZn4Si3Ge
_symmetry_space_group_name_H-M   'P 1'
_cell_length_a   4.21948800
_cell_length_b   4.21948644
_cell_length_c   16.19351900
_cell_angle_alpha   90.00000000
_cell_angle_beta   90.00000000
_cell_angle_gamma   120.00001221
_symmetry_Int_Tables_number   1
_chemical_formula_structural   Nd3LuZn4Si3Ge
_chemical_formula_sum   'Nd3 Lu1 Zn4 Si3 Ge1'
_cell_volume   249.68425991
_cell_formula_units_Z   1
loop_
 _symmetry_equiv_pos_site_id
 _symmetry_equiv_pos_as_xyz
  1  'x, y, z'
loop_
 _atom_site_type_symbol
 _atom_site_label
 _atom_site_symmetry_multiplicity
 _atom_site_fract_x
 _atom_site_fract_y
 _atom_site_fract_z
 _atom_site_occupancy
  Nd  Nd0  1  0.000000  0.000000  0.748139  1
  Nd  Nd1  1  0.000000  0.000000  0.010096  1
  Nd  Nd2  1  0.000000  0.000000  0.491280  1
  Lu  Lu3  1  0.000000  0.000000  0.250610  1
  Zn  Zn4  1  0.333333  0.666667  0.153318  1
  Zn  Zn5  1  0.666667  0.333333  0.865378  1
  Zn  Zn6  1  0.666667  0.333333  0.630138  1
  Zn  Zn7  1  0.333333  0.666667  0.348193  1
  Si  Si8  1  0.333333  0.666667  0.615664  1
  Si  Si9  1  0.666667  0.333333  0.373639  1
  Si  Si10  1  0.666667  0.333333  0.127291  1
  Ge  Ge11  1  0.333333  0.666667  0.886253  1
