# generated using pymatgen
data_Cs13Zr2(In3As5)2
_symmetry_space_group_name_H-M   'P 1'
_cell_length_a   10.04628233
_cell_length_b   10.09984391
_cell_length_c   14.26606219
_cell_angle_alpha   81.76991979
_cell_angle_beta   78.56228174
_cell_angle_gamma   62.87708038
_symmetry_Int_Tables_number   1
_chemical_formula_structural   Cs13Zr2(In3As5)2
_chemical_formula_sum   'Cs13 Zr2 In6 As10'
_cell_volume   1260.44043891
_cell_formula_units_Z   1
loop_
 _symmetry_equiv_pos_site_id
 _symmetry_equiv_pos_as_xyz
  1  'x, y, z'
loop_
 _atom_site_type_symbol
 _atom_site_label
 _atom_site_symmetry_multiplicity
 _atom_site_fract_x
 _atom_site_fract_y
 _atom_site_fract_z
 _atom_site_occupancy
  Cs  Cs0  1  0.494685  0.865123  0.354155  1
  Cs  Cs1  1  0.505315  0.134877  0.645845  1
  Cs  Cs2  1  0.853706  0.587101  0.883844  1
  Cs  Cs3  1  0.146294  0.412899  0.116156  1
  Cs  Cs4  1  0.093148  0.788985  0.428865  1
  Cs  Cs5  1  0.906852  0.211015  0.571135  1
  Cs  Cs6  1  0.750477  0.681760  0.594790  1
  Cs  Cs7  1  0.249523  0.318240  0.405210  1
  Cs  Cs8  1  0.500000  0.500000  0.000000  1
  Cs  Cs9  1  0.320110  0.930037  0.089788  1
  Cs  Cs10  1  0.679890  0.069963  0.910212  1
  Cs  Cs11  1  0.891918  0.854089  0.162074  1
  Cs  Cs12  1  0.108082  0.145911  0.837926  1
  Zr  Zr13  1  0.377252  0.738389  0.773762  1
  Zr  Zr14  1  0.622748  0.261611  0.226238  1
  In  In15  1  0.037701  0.804214  0.707768  1
  In  In16  1  0.962299  0.195786  0.292232  1
  In  In17  1  0.596259  0.445052  0.409841  1
  In  In18  1  0.403741  0.554948  0.590159  1
  In  In19  1  0.723006  0.554268  0.173119  1
  In  In20  1  0.276994  0.445732  0.826881  1
  As  As21  1  0.438216  0.550403  0.255517  1
  As  As22  1  0.561784  0.449597  0.744483  1
  As  As23  1  0.130674  0.743498  0.890785  1
  As  As24  1  0.869326  0.256502  0.109215  1
  As  As25  1  0.712938  0.136720  0.394243  1
  As  As26  1  0.287062  0.863280  0.605757  1
  As  As27  1  0.849661  0.499113  0.350800  1
  As  As28  1  0.150339  0.500887  0.649200  1
  As  As29  1  0.499574  0.866247  0.841982  1
  As  As30  1  0.500426  0.133753  0.158018  1
