# generated using pymatgen
data_Pr2AlCdPd2
_symmetry_space_group_name_H-M   'P 1'
_cell_length_a   4.48351800
_cell_length_b   7.19619371
_cell_length_c   8.32390600
_cell_angle_alpha   91.23944682
_cell_angle_beta   90.00000000
_cell_angle_gamma   90.00000000
_symmetry_Int_Tables_number   1
_chemical_formula_structural   Pr2AlCdPd2
_chemical_formula_sum   'Pr4 Al2 Cd2 Pd4'
_cell_volume   268.50186425
_cell_formula_units_Z   2
loop_
 _symmetry_equiv_pos_site_id
 _symmetry_equiv_pos_as_xyz
  1  'x, y, z'
loop_
 _atom_site_type_symbol
 _atom_site_label
 _atom_site_symmetry_multiplicity
 _atom_site_fract_x
 _atom_site_fract_y
 _atom_site_fract_z
 _atom_site_occupancy
  Pr  Pr0  1  0.250000  0.540637  0.178125  1
  Pr  Pr1  1  0.750000  0.459363  0.821875  1
  Pr  Pr2  1  0.750000  0.958498  0.686516  1
  Pr  Pr3  1  0.250000  0.041502  0.313484  1
  Al  Al4  1  0.750000  0.860079  0.057902  1
  Al  Al5  1  0.250000  0.139921  0.942098  1
  Cd  Cd6  1  0.250000  0.639774  0.564407  1
  Cd  Cd7  1  0.750000  0.360226  0.435593  1
  Pd  Pd8  1  0.250000  0.779086  0.898958  1
  Pd  Pd9  1  0.750000  0.220914  0.101042  1
  Pd  Pd10  1  0.750000  0.755041  0.359752  1
  Pd  Pd11  1  0.250000  0.244959  0.640248  1
