# generated using pymatgen
data_Ho10TlIn3(NiHg)4
_symmetry_space_group_name_H-M   'P 1'
_cell_length_a   7.87461382
_cell_length_b   18.04738189
_cell_length_c   3.56483300
_cell_angle_alpha   90.00000000
_cell_angle_beta   90.00000000
_cell_angle_gamma   89.94764808
_symmetry_Int_Tables_number   1
_chemical_formula_structural   Ho10TlIn3(NiHg)4
_chemical_formula_sum   'Ho10 Tl1 In3 Ni4 Hg4'
_cell_volume   506.62017560
_cell_formula_units_Z   1
loop_
 _symmetry_equiv_pos_site_id
 _symmetry_equiv_pos_as_xyz
  1  'x, y, z'
loop_
 _atom_site_type_symbol
 _atom_site_label
 _atom_site_symmetry_multiplicity
 _atom_site_fract_x
 _atom_site_fract_y
 _atom_site_fract_z
 _atom_site_occupancy
  Ho  Ho0  1  0.500014  0.499406  0.000000  1
  Ho  Ho1  1  0.999759  0.000030  0.000000  1
  Ho  Ho2  1  0.757722  0.281644  0.000000  1
  Ho  Ho3  1  0.242196  0.718356  0.000000  1
  Ho  Ho4  1  0.742735  0.782063  0.000000  1
  Ho  Ho5  1  0.257543  0.218392  0.000000  1
  Ho  Ho6  1  0.613464  0.087908  0.000000  1
  Ho  Ho7  1  0.386301  0.912277  0.000000  1
  Ho  Ho8  1  0.887276  0.587984  0.000000  1
  Ho  Ho9  1  0.113147  0.412096  0.000000  1
  Tl  Tl10  1  0.569515  0.651363  0.500000  1
  In  In11  1  0.431109  0.348221  0.500000  1
  In  In12  1  0.931261  0.151833  0.500000  1
  In  In13  1  0.069037  0.848040  0.500000  1
  Ni  Ni14  1  0.541511  0.198296  0.500000  1
  Ni  Ni15  1  0.457570  0.803025  0.500000  1
  Ni  Ni16  1  0.961506  0.698422  0.500000  1
  Ni  Ni17  1  0.041395  0.301713  0.500000  1
  Hg  Hg18  1  0.707468  0.931828  0.500000  1
  Hg  Hg19  1  0.292322  0.068132  0.500000  1
  Hg  Hg20  1  0.792527  0.431643  0.500000  1
  Hg  Hg21  1  0.204621  0.567327  0.500000  1
