# generated using pymatgen
data_Zr6Zn20Pd3C
_symmetry_space_group_name_H-M   'P 1'
_cell_length_a   8.75447259
_cell_length_b   8.75447163
_cell_length_c   8.73890700
_cell_angle_alpha   60.05880661
_cell_angle_beta   60.05881019
_cell_angle_gamma   59.88239286
_symmetry_Int_Tables_number   1
_chemical_formula_structural   Zr6Zn20Pd3C
_chemical_formula_sum   'Zr6 Zn20 Pd3 C1'
_cell_volume   473.58652491
_cell_formula_units_Z   1
loop_
 _symmetry_equiv_pos_site_id
 _symmetry_equiv_pos_as_xyz
  1  'x, y, z'
loop_
 _atom_site_type_symbol
 _atom_site_label
 _atom_site_symmetry_multiplicity
 _atom_site_fract_x
 _atom_site_fract_y
 _atom_site_fract_z
 _atom_site_occupancy
  Zr  Zr0  1  0.687336  0.312664  0.312664  1
  Zr  Zr1  1  0.312664  0.687336  0.687336  1
  Zr  Zr2  1  0.312664  0.687336  0.312664  1
  Zr  Zr3  1  0.687336  0.312664  0.687336  1
  Zr  Zr4  1  0.308868  0.308868  0.691132  1
  Zr  Zr5  1  0.691132  0.691132  0.308868  1
  Zn  Zn6  1  0.117869  0.117869  0.124589  1
  Zn  Zn7  1  0.882131  0.882131  0.875411  1
  Zn  Zn8  1  0.117869  0.117869  0.639673  1
  Zn  Zn9  1  0.124589  0.639673  0.117869  1
  Zn  Zn10  1  0.882131  0.882131  0.360327  1
  Zn  Zn11  1  0.875411  0.360327  0.882131  1
  Zn  Zn12  1  0.639673  0.124589  0.117869  1
  Zn  Zn13  1  0.360327  0.875411  0.882131  1
  Zn  Zn14  1  0.500000  0.000000  0.000000  1
  Zn  Zn15  1  0.000000  0.500000  0.500000  1
  Zn  Zn16  1  0.000000  0.500000  0.000000  1
  Zn  Zn17  1  0.500000  0.000000  0.500000  1
  Zn  Zn18  1  0.331655  0.331655  0.334046  1
  Zn  Zn19  1  0.668345  0.668345  0.665954  1
  Zn  Zn20  1  0.331655  0.331655  0.002646  1
  Zn  Zn21  1  0.334046  0.002646  0.331655  1
  Zn  Zn22  1  0.668345  0.668345  0.997354  1
  Zn  Zn23  1  0.665954  0.997354  0.668345  1
  Zn  Zn24  1  0.002646  0.334046  0.331655  1
  Zn  Zn25  1  0.997354  0.665954  0.668345  1
  Pd  Pd26  1  0.000000  0.000000  0.500000  1
  Pd  Pd27  1  0.500000  0.500000  0.000000  1
  Pd  Pd28  1  0.000000  0.000000  0.000000  1
  C  C29  1  0.500000  0.500000  0.500000  1
