# generated using pymatgen
data_TbSmSn4BiRh3
_symmetry_space_group_name_H-M   'P 1'
_cell_length_a   13.64338512
_cell_length_b   13.64338515
_cell_length_c   7.31537600
_cell_angle_alpha   90.00000000
_cell_angle_beta   90.00000000
_cell_angle_gamma   161.05024207
_symmetry_Int_Tables_number   1
_chemical_formula_structural   TbSmSn4BiRh3
_chemical_formula_sum   'Tb2 Sm2 Sn8 Bi2 Rh6'
_cell_volume   442.19646352
_cell_formula_units_Z   2
loop_
 _symmetry_equiv_pos_site_id
 _symmetry_equiv_pos_as_xyz
  1  'x, y, z'
loop_
 _atom_site_type_symbol
 _atom_site_label
 _atom_site_symmetry_multiplicity
 _atom_site_fract_x
 _atom_site_fract_y
 _atom_site_fract_z
 _atom_site_occupancy
  Tb  Tb0  1  0.476794  0.523206  0.737779  1
  Tb  Tb1  1  0.523206  0.476794  0.237779  1
  Sm  Sm2  1  0.172465  0.827535  0.753200  1
  Sm  Sm3  1  0.827535  0.172465  0.253200  1
  Sn  Sn4  1  0.704209  0.295791  0.046450  1
  Sn  Sn5  1  0.295791  0.704209  0.546450  1
  Sn  Sn6  1  0.595738  0.404262  0.613763  1
  Sn  Sn7  1  0.404262  0.595738  0.113763  1
  Sn  Sn8  1  0.953428  0.046572  0.400009  1
  Sn  Sn9  1  0.046572  0.953428  0.900009  1
  Sn  Sn10  1  0.289487  0.710513  0.974997  1
  Sn  Sn11  1  0.710513  0.289487  0.474997  1
  Bi  Bi12  1  0.879840  0.120160  0.732700  1
  Bi  Bi13  1  0.120160  0.879840  0.232700  1
  Rh  Rh14  1  0.050020  0.949980  0.521432  1
  Rh  Rh15  1  0.949980  0.050020  0.021432  1
  Rh  Rh16  1  0.775810  0.224190  0.766862  1
  Rh  Rh17  1  0.224190  0.775810  0.266862  1
  Rh  Rh18  1  0.395876  0.604124  0.480808  1
  Rh  Rh19  1  0.604124  0.395876  0.980808  1
