# generated using pymatgen
data_La2Tb3Si3Ge
_symmetry_space_group_name_H-M   'P 1'
_cell_length_a   7.87604888
_cell_length_b   7.87695745
_cell_length_c   14.69636916
_cell_angle_alpha   90.21653408
_cell_angle_beta   89.98121000
_cell_angle_gamma   90.07689180
_symmetry_Int_Tables_number   1
_chemical_formula_structural   La2Tb3Si3Ge
_chemical_formula_sum   'La8 Tb12 Si12 Ge4'
_cell_volume   911.74510323
_cell_formula_units_Z   4
loop_
 _symmetry_equiv_pos_site_id
 _symmetry_equiv_pos_as_xyz
  1  'x, y, z'
loop_
 _atom_site_type_symbol
 _atom_site_label
 _atom_site_symmetry_multiplicity
 _atom_site_fract_x
 _atom_site_fract_y
 _atom_site_fract_z
 _atom_site_occupancy
  La  La0  1  0.988178  0.640601  0.042772  1
  La  La1  1  0.010773  0.363418  0.544760  1
  La  La2  1  0.635634  0.989922  0.955706  1
  La  La3  1  0.139659  0.510992  0.792676  1
  La  La4  1  0.859114  0.489027  0.292470  1
  La  La5  1  0.509172  0.135812  0.205904  1
  La  La6  1  0.489876  0.860291  0.707894  1
  La  La7  1  0.363280  0.009884  0.455873  1
  Tb  Tb8  1  0.362691  0.489977  0.375017  1
  Tb  Tb9  1  0.860584  0.012329  0.374491  1
  Tb  Tb10  1  0.988893  0.135478  0.125122  1
  Tb  Tb11  1  0.013248  0.861161  0.626295  1
  Tb  Tb12  1  0.635595  0.510517  0.875282  1
  Tb  Tb13  1  0.490561  0.363635  0.625428  1
  Tb  Tb14  1  0.511517  0.639721  0.124243  1
  Tb  Tb15  1  0.137717  0.987331  0.874140  1
  Tb  Tb16  1  0.682451  0.682012  0.500270  1
  Tb  Tb17  1  0.815562  0.185091  0.750319  1
  Tb  Tb18  1  0.184660  0.818932  0.249219  1
  Tb  Tb19  1  0.318005  0.313987  0.999223  1
  Si  Si20  1  0.788797  0.567535  0.688664  1
  Si  Si21  1  0.432246  0.212617  0.811276  1
  Si  Si22  1  0.567178  0.788115  0.312054  1
  Si  Si23  1  0.286877  0.932187  0.061135  1
  Si  Si24  1  0.843281  0.797302  0.806509  1
  Si  Si25  1  0.156032  0.198226  0.308217  1
  Si  Si26  1  0.798991  0.843109  0.194239  1
  Si  Si27  1  0.303183  0.656513  0.558445  1
  Si  Si28  1  0.698421  0.343679  0.058563  1
  Si  Si29  1  0.656677  0.303560  0.442078  1
  Si  Si30  1  0.342372  0.701061  0.943785  1
  Si  Si31  1  0.202362  0.156677  0.693932  1
  Ge  Ge32  1  0.064198  0.712296  0.436446  1
  Ge  Ge33  1  0.935357  0.286558  0.937604  1
  Ge  Ge34  1  0.714180  0.064420  0.563662  1
  Ge  Ge35  1  0.212680  0.436027  0.186284  1
