# generated using pymatgen
data_Sm3Eu13(MgRu)4
_symmetry_space_group_name_H-M   'P 1'
_cell_length_a   10.16216448
_cell_length_b   10.16216336
_cell_length_c   10.16216477
_cell_angle_alpha   60.36350674
_cell_angle_beta   60.36350984
_cell_angle_gamma   60.36350905
_symmetry_Int_Tables_number   1
_chemical_formula_structural   Sm3Eu13(MgRu)4
_chemical_formula_sum   'Sm3 Eu13 Mg4 Ru4'
_cell_volume   748.16955310
_cell_formula_units_Z   1
loop_
 _symmetry_equiv_pos_site_id
 _symmetry_equiv_pos_as_xyz
  1  'x, y, z'
loop_
 _atom_site_type_symbol
 _atom_site_label
 _atom_site_symmetry_multiplicity
 _atom_site_fract_x
 _atom_site_fract_y
 _atom_site_fract_z
 _atom_site_occupancy
  Sm  Sm0  1  0.338509  0.338509  0.982285  1
  Sm  Sm1  1  0.338509  0.982285  0.338509  1
  Sm  Sm2  1  0.982285  0.338509  0.338509  1
  Eu  Eu3  1  0.948647  0.551428  0.551428  1
  Eu  Eu4  1  0.552525  0.948313  0.948313  1
  Eu  Eu5  1  0.551428  0.948647  0.551428  1
  Eu  Eu6  1  0.948313  0.552525  0.948313  1
  Eu  Eu7  1  0.551428  0.551428  0.948647  1
  Eu  Eu8  1  0.948313  0.948313  0.552525  1
  Eu  Eu9  1  0.809343  0.190808  0.190808  1
  Eu  Eu10  1  0.189950  0.809830  0.809830  1
  Eu  Eu11  1  0.190808  0.809343  0.190808  1
  Eu  Eu12  1  0.809830  0.189950  0.809830  1
  Eu  Eu13  1  0.190808  0.190808  0.809343  1
  Eu  Eu14  1  0.809830  0.809830  0.189950  1
  Eu  Eu15  1  0.342656  0.342656  0.342656  1
  Mg  Mg16  1  0.577916  0.577916  0.577916  1
  Mg  Mg17  1  0.578229  0.578229  0.269894  1
  Mg  Mg18  1  0.578229  0.269894  0.578229  1
  Mg  Mg19  1  0.269894  0.578229  0.578229  1
  Ru  Ru20  1  0.139356  0.139356  0.139356  1
  Ru  Ru21  1  0.134079  0.134079  0.585034  1
  Ru  Ru22  1  0.134079  0.585034  0.134079  1
  Ru  Ru23  1  0.585034  0.134079  0.134079  1
