# generated using pymatgen
data_CaSm2Y3Mn2(Co4P3)4
_symmetry_space_group_name_H-M   'P 1'
_cell_length_a   3.71195800
_cell_length_b   10.57788900
_cell_length_c   12.23984500
_cell_angle_alpha   90.00000000
_cell_angle_beta   90.00000000
_cell_angle_gamma   90.00000000
_symmetry_Int_Tables_number   1
_chemical_formula_structural   CaSm2Y3Mn2(Co4P3)4
_chemical_formula_sum   'Ca1 Sm2 Y3 Mn2 Co16 P12'
_cell_volume   480.59359346
_cell_formula_units_Z   1
loop_
 _symmetry_equiv_pos_site_id
 _symmetry_equiv_pos_as_xyz
  1  'x, y, z'
loop_
 _atom_site_type_symbol
 _atom_site_label
 _atom_site_symmetry_multiplicity
 _atom_site_fract_x
 _atom_site_fract_y
 _atom_site_fract_z
 _atom_site_occupancy
  Ca  Ca0  1  0.500000  0.818249  0.204637  1
  Sm  Sm1  1  0.000000  0.499654  0.523122  1
  Sm  Sm2  1  0.500000  0.000167  0.476713  1
  Y  Y3  1  0.500000  0.181526  0.204733  1
  Y  Y4  1  0.000000  0.682003  0.795062  1
  Y  Y5  1  0.000000  0.317858  0.795569  1
  Mn  Mn6  1  0.500000  0.499832  0.156516  1
  Mn  Mn7  1  0.000000  0.000158  0.842787  1
  Co  Co8  1  0.500000  0.500336  0.704190  1
  Co  Co9  1  0.000000  0.001191  0.296523  1
  Co  Co10  1  0.000000  0.499994  0.986414  1
  Co  Co11  1  0.500000  0.000490  0.013271  1
  Co  Co12  1  0.500000  0.332904  0.993870  1
  Co  Co13  1  0.500000  0.666821  0.993928  1
  Co  Co14  1  0.000000  0.167122  0.005923  1
  Co  Co15  1  0.000000  0.832630  0.005083  1
  Co  Co16  1  0.500000  0.296169  0.429806  1
  Co  Co17  1  0.500000  0.703728  0.430260  1
  Co  Co18  1  0.000000  0.203675  0.570466  1
  Co  Co19  1  0.000000  0.796104  0.570354  1
  Co  Co20  1  0.500000  0.879996  0.711030  1
  Co  Co21  1  0.500000  0.120152  0.710929  1
  Co  Co22  1  0.000000  0.619432  0.289756  1
  Co  Co23  1  0.000000  0.379456  0.288906  1
  P  P24  1  0.500000  0.499936  0.883620  1
  P  P25  1  0.000000  0.999490  0.116618  1
  P  P26  1  0.500000  0.500273  0.341673  1
  P  P27  1  0.000000  0.999963  0.658124  1
  P  P28  1  0.500000  0.309100  0.616674  1
  P  P29  1  0.500000  0.691280  0.616815  1
  P  P30  1  0.000000  0.191163  0.383129  1
  P  P31  1  0.000000  0.808976  0.382645  1
  P  P32  1  0.500000  0.847392  0.894173  1
  P  P33  1  0.500000  0.152645  0.893812  1
  P  P34  1  0.000000  0.652919  0.106655  1
  P  P35  1  0.000000  0.347213  0.106212  1
