# generated using pymatgen
data_TbHoLu4(Al3Os)8
_symmetry_space_group_name_H-M   'P 1'
_cell_length_a   8.77638400
_cell_length_b   8.76796228
_cell_length_c   9.59063600
_cell_angle_alpha   90.00000000
_cell_angle_beta   90.00000000
_cell_angle_gamma   119.94332114
_symmetry_Int_Tables_number   1
_chemical_formula_structural   TbHoLu4(Al3Os)8
_chemical_formula_sum   'Tb1 Ho1 Lu4 Al24 Os8'
_cell_volume   639.49931958
_cell_formula_units_Z   1
loop_
 _symmetry_equiv_pos_site_id
 _symmetry_equiv_pos_as_xyz
  1  'x, y, z'
loop_
 _atom_site_type_symbol
 _atom_site_label
 _atom_site_symmetry_multiplicity
 _atom_site_fract_x
 _atom_site_fract_y
 _atom_site_fract_z
 _atom_site_occupancy
  Tb  Tb0  1  0.807048  0.192716  0.750000  1
  Ho  Ho1  1  0.805897  0.611859  0.750000  1
  Lu  Lu2  1  0.194957  0.391572  0.250000  1
  Lu  Lu3  1  0.607744  0.804067  0.250000  1
  Lu  Lu4  1  0.393889  0.196918  0.750000  1
  Lu  Lu5  1  0.195154  0.803468  0.250000  1
  Al  Al6  1  0.333176  0.666617  0.021955  1
  Al  Al7  1  0.666701  0.333390  0.980653  1
  Al  Al8  1  0.666701  0.333390  0.519347  1
  Al  Al9  1  0.333176  0.666617  0.478045  1
  Al  Al10  1  0.164220  0.327280  0.575008  1
  Al  Al11  1  0.836326  0.673260  0.422743  1
  Al  Al12  1  0.672064  0.835749  0.574891  1
  Al  Al13  1  0.836326  0.673260  0.077257  1
  Al  Al14  1  0.326047  0.163054  0.423513  1
  Al  Al15  1  0.164220  0.327280  0.924992  1
  Al  Al16  1  0.163819  0.836892  0.575049  1
  Al  Al17  1  0.326047  0.163054  0.076487  1
  Al  Al18  1  0.836275  0.163317  0.422353  1
  Al  Al19  1  0.672064  0.835749  0.925109  1
  Al  Al20  1  0.836275  0.163317  0.077647  1
  Al  Al21  1  0.163819  0.836892  0.924951  1
  Al  Al22  1  0.560709  0.122963  0.250000  1
  Al  Al23  1  0.437165  0.875703  0.750000  1
  Al  Al24  1  0.876149  0.438242  0.250000  1
  Al  Al25  1  0.124726  0.562550  0.750000  1
  Al  Al26  1  0.560729  0.438075  0.250000  1
  Al  Al27  1  0.437577  0.561452  0.750000  1
  Al  Al28  1  0.999346  0.999690  0.250000  1
  Al  Al29  1  0.005496  0.001209  0.750000  1
  Os  Os30  1  0.498893  0.999496  0.000769  1
  Os  Os31  1  0.000887  0.500914  0.001325  1
  Os  Os32  1  0.498893  0.999496  0.499231  1
  Os  Os33  1  0.499036  0.499713  0.000610  1
  Os  Os34  1  0.000887  0.500914  0.498675  1
  Os  Os35  1  0.499036  0.499713  0.499390  1
  Os  Os36  1  0.999260  0.000078  0.000266  1
  Os  Os37  1  0.999260  0.000078  0.499734  1
