# generated using pymatgen
data_Ho3Tm(Pd2Pb)2
_symmetry_space_group_name_H-M   'P 1'
_cell_length_a   7.86321885
_cell_length_b   7.86321885
_cell_length_c   3.63868300
_cell_angle_alpha   90.00000000
_cell_angle_beta   90.00000000
_cell_angle_gamma   89.74907998
_symmetry_Int_Tables_number   1
_chemical_formula_structural   Ho3Tm(Pd2Pb)2
_chemical_formula_sum   'Ho3 Tm1 Pd4 Pb2'
_cell_volume   224.97837911
_cell_formula_units_Z   1
loop_
 _symmetry_equiv_pos_site_id
 _symmetry_equiv_pos_as_xyz
  1  'x, y, z'
loop_
 _atom_site_type_symbol
 _atom_site_label
 _atom_site_symmetry_multiplicity
 _atom_site_fract_x
 _atom_site_fract_y
 _atom_site_fract_z
 _atom_site_occupancy
  Ho  Ho0  1  0.329073  0.828654  0.500000  1
  Ho  Ho1  1  0.671346  0.170927  0.500000  1
  Ho  Ho2  1  0.170674  0.329326  0.500000  1
  Tm  Tm3  1  0.829479  0.670521  0.500000  1
  Pd  Pd4  1  0.873414  0.375878  0.000000  1
  Pd  Pd5  1  0.627077  0.872923  0.000000  1
  Pd  Pd6  1  0.374787  0.125213  0.000000  1
  Pd  Pd7  1  0.124122  0.626586  0.000000  1
  Pb  Pb8  1  0.500028  0.500000  0.000000  1
  Pb  Pb9  1  0.000000  0.999972  0.000000  1
