# generated using pymatgen
data_Ho16MgIn2AgRh4
_symmetry_space_group_name_H-M   'P 1'
_cell_length_a   9.61100604
_cell_length_b   9.61100633
_cell_length_c   9.58893951
_cell_angle_alpha   59.76457401
_cell_angle_beta   59.76457032
_cell_angle_gamma   59.79430548
_symmetry_Int_Tables_number   1
_chemical_formula_structural   Ho16MgIn2AgRh4
_chemical_formula_sum   'Ho16 Mg1 In2 Ag1 Rh4'
_cell_volume   623.10869900
_cell_formula_units_Z   1
loop_
 _symmetry_equiv_pos_site_id
 _symmetry_equiv_pos_as_xyz
  1  'x, y, z'
loop_
 _atom_site_type_symbol
 _atom_site_label
 _atom_site_symmetry_multiplicity
 _atom_site_fract_x
 _atom_site_fract_y
 _atom_site_fract_z
 _atom_site_occupancy
  Ho  Ho0  1  0.186859  0.186859  0.813617  1
  Ho  Ho1  1  0.599585  0.599585  0.201322  1
  Ho  Ho2  1  0.440404  0.059017  0.440782  1
  Ho  Ho3  1  0.441287  0.441287  0.058358  1
  Ho  Ho4  1  0.814043  0.186085  0.815530  1
  Ho  Ho5  1  0.182708  0.812589  0.192301  1
  Ho  Ho6  1  0.438422  0.061685  0.060920  1
  Ho  Ho7  1  0.186085  0.814043  0.815530  1
  Ho  Ho8  1  0.061685  0.438422  0.060920  1
  Ho  Ho9  1  0.813610  0.813610  0.190024  1
  Ho  Ho10  1  0.201890  0.599801  0.600243  1
  Ho  Ho11  1  0.059017  0.440404  0.440782  1
  Ho  Ho12  1  0.062836  0.062836  0.435976  1
  Ho  Ho13  1  0.812589  0.182708  0.192301  1
  Ho  Ho14  1  0.599801  0.201890  0.600243  1
  Ho  Ho15  1  0.599481  0.599481  0.599985  1
  Mg  Mg16  1  0.827428  0.827428  0.823609  1
  In  In17  1  0.504097  0.832575  0.829322  1
  In  In18  1  0.832575  0.504097  0.829322  1
  Ag  Ag19  1  0.834310  0.834310  0.498772  1
  Rh  Rh20  1  0.392861  0.823106  0.392426  1
  Rh  Rh21  1  0.392779  0.392779  0.392354  1
  Rh  Rh22  1  0.823106  0.392861  0.392426  1
  Rh  Rh23  1  0.392542  0.392542  0.822941  1
