# generated using pymatgen
data_Sc5NbCo16(P6W)2
_symmetry_space_group_name_H-M   'P 1'
_cell_length_a   11.98068358
_cell_length_b   11.98068384
_cell_length_c   3.63659200
_cell_angle_alpha   90.00000000
_cell_angle_beta   90.00000000
_cell_angle_gamma   120.03567684
_symmetry_Int_Tables_number   1
_chemical_formula_structural   Sc5NbCo16(P6W)2
_chemical_formula_sum   'Sc5 Nb1 Co16 P12 W2'
_cell_volume   451.88942051
_cell_formula_units_Z   1
loop_
 _symmetry_equiv_pos_site_id
 _symmetry_equiv_pos_as_xyz
  1  'x, y, z'
loop_
 _atom_site_type_symbol
 _atom_site_label
 _atom_site_symmetry_multiplicity
 _atom_site_fract_x
 _atom_site_fract_y
 _atom_site_fract_z
 _atom_site_occupancy
  Sc  Sc0  1  0.817101  0.000112  0.500000  1
  Sc  Sc1  1  0.000112  0.817101  0.500000  1
  Sc  Sc2  1  0.180537  0.180537  0.500000  1
  Sc  Sc3  1  0.333364  0.667161  0.000000  1
  Sc  Sc4  1  0.667161  0.333364  0.000000  1
  Nb  Nb5  1  0.553419  0.553419  0.000000  1
  Co  Co6  1  0.279977  0.999418  0.500000  1
  Co  Co7  1  0.999418  0.279977  0.500000  1
  Co  Co8  1  0.721883  0.721883  0.500000  1
  Co  Co9  1  0.627104  0.805523  0.000000  1
  Co  Co10  1  0.197718  0.823821  0.000000  1
  Co  Co11  1  0.174791  0.371902  0.000000  1
  Co  Co12  1  0.371902  0.174791  0.000000  1
  Co  Co13  1  0.805523  0.627104  0.000000  1
  Co  Co14  1  0.823821  0.197718  0.000000  1
  Co  Co15  1  0.517813  0.873068  0.500000  1
  Co  Co16  1  0.129739  0.646641  0.500000  1
  Co  Co17  1  0.351032  0.481002  0.500000  1
  Co  Co18  1  0.481002  0.351032  0.500000  1
  Co  Co19  1  0.873068  0.517813  0.500000  1
  Co  Co20  1  0.646641  0.129739  0.500000  1
  Co  Co21  1  0.999698  0.999698  0.000000  1
  P  P22  1  0.174408  0.998876  0.000000  1
  P  P23  1  0.998876  0.174408  0.000000  1
  P  P24  1  0.824774  0.824774  0.000000  1
  P  P25  1  0.516474  0.687743  0.500000  1
  P  P26  1  0.315351  0.832208  0.500000  1
  P  P27  1  0.167278  0.482639  0.500000  1
  P  P28  1  0.482639  0.167278  0.500000  1
  P  P29  1  0.687743  0.516474  0.500000  1
  P  P30  1  0.832208  0.315351  0.500000  1
  P  P31  1  0.646537  0.001720  0.000000  1
  P  P32  1  0.001720  0.646537  0.000000  1
  P  P33  1  0.349585  0.349585  0.000000  1
  W  W34  1  0.448972  0.000612  0.000000  1
  W  W35  1  0.000612  0.448972  0.000000  1
