# generated using pymatgen
data_Cs2Dy2MnS5
_symmetry_space_group_name_H-M   'P 1'
_cell_length_a   4.08566700
_cell_length_b   15.64000700
_cell_length_c   18.01029100
_cell_angle_alpha   90.00000000
_cell_angle_beta   90.00000000
_cell_angle_gamma   90.00000000
_symmetry_Int_Tables_number   1
_chemical_formula_structural   Cs2Dy2MnS5
_chemical_formula_sum   'Cs8 Dy8 Mn4 S20'
_cell_volume   1150.85508210
_cell_formula_units_Z   4
loop_
 _symmetry_equiv_pos_site_id
 _symmetry_equiv_pos_as_xyz
  1  'x, y, z'
loop_
 _atom_site_type_symbol
 _atom_site_label
 _atom_site_symmetry_multiplicity
 _atom_site_fract_x
 _atom_site_fract_y
 _atom_site_fract_z
 _atom_site_occupancy
  Cs  Cs0  1  0.250000  0.508703  0.123880  1
  Cs  Cs1  1  0.750000  0.533854  0.382754  1
  Cs  Cs2  1  0.250000  0.966146  0.882754  1
  Cs  Cs3  1  0.750000  0.991297  0.623880  1
  Cs  Cs4  1  0.750000  0.491297  0.876120  1
  Cs  Cs5  1  0.750000  0.033854  0.117246  1
  Cs  Cs6  1  0.250000  0.466146  0.617246  1
  Cs  Cs7  1  0.250000  0.008703  0.376120  1
  Dy  Dy8  1  0.250000  0.251513  0.986725  1
  Dy  Dy9  1  0.750000  0.248487  0.486725  1
  Dy  Dy10  1  0.750000  0.712897  0.699330  1
  Dy  Dy11  1  0.750000  0.748487  0.013275  1
  Dy  Dy12  1  0.250000  0.787103  0.199330  1
  Dy  Dy13  1  0.750000  0.212897  0.800670  1
  Dy  Dy14  1  0.250000  0.751513  0.513275  1
  Dy  Dy15  1  0.250000  0.287103  0.300670  1
  Mn  Mn16  1  0.750000  0.793108  0.355230  1
  Mn  Mn17  1  0.750000  0.293108  0.144770  1
  Mn  Mn18  1  0.250000  0.206892  0.644770  1
  Mn  Mn19  1  0.250000  0.706892  0.855230  1
  S  S20  1  0.250000  0.111086  0.745850  1
  S  S21  1  0.250000  0.357983  0.442378  1
  S  S22  1  0.250000  0.857983  0.057622  1
  S  S23  1  0.750000  0.888914  0.254150  1
  S  S24  1  0.750000  0.388914  0.245850  1
  S  S25  1  0.750000  0.789892  0.848782  1
  S  S26  1  0.250000  0.314443  0.847864  1
  S  S27  1  0.250000  0.710108  0.348782  1
  S  S28  1  0.750000  0.685557  0.152136  1
  S  S29  1  0.250000  0.814443  0.652136  1
  S  S30  1  0.250000  0.141313  0.527955  1
  S  S31  1  0.250000  0.210108  0.151218  1
  S  S32  1  0.750000  0.289892  0.651218  1
  S  S33  1  0.750000  0.858687  0.472045  1
  S  S34  1  0.750000  0.642017  0.557622  1
  S  S35  1  0.250000  0.641313  0.972045  1
  S  S36  1  0.250000  0.611086  0.754150  1
  S  S37  1  0.750000  0.142017  0.942378  1
  S  S38  1  0.750000  0.185557  0.347864  1
  S  S39  1  0.750000  0.358687  0.027955  1
