# generated using pymatgen
data_TbErLu8(In2Pt)4
_symmetry_space_group_name_H-M   'P 1'
_cell_length_a   3.59090100
_cell_length_b   8.04371805
_cell_length_c   18.02672311
_cell_angle_alpha   89.98721814
_cell_angle_beta   90.00000000
_cell_angle_gamma   90.00000000
_symmetry_Int_Tables_number   1
_chemical_formula_structural   TbErLu8(In2Pt)4
_chemical_formula_sum   'Tb1 Er1 Lu8 In8 Pt4'
_cell_volume   520.68737604
_cell_formula_units_Z   1
loop_
 _symmetry_equiv_pos_site_id
 _symmetry_equiv_pos_as_xyz
  1  'x, y, z'
loop_
 _atom_site_type_symbol
 _atom_site_label
 _atom_site_symmetry_multiplicity
 _atom_site_fract_x
 _atom_site_fract_y
 _atom_site_fract_z
 _atom_site_occupancy
  Tb  Tb0  1  0.000000  0.000000  0.000000  1
  Er  Er1  1  0.000000  0.500000  0.500000  1
  Lu  Lu2  1  0.000000  0.116498  0.413947  1
  Lu  Lu3  1  0.000000  0.883502  0.586053  1
  Lu  Lu4  1  0.000000  0.383539  0.913923  1
  Lu  Lu5  1  0.000000  0.616461  0.086077  1
  Lu  Lu6  1  0.000000  0.244491  0.221310  1
  Lu  Lu7  1  0.000000  0.755509  0.778690  1
  Lu  Lu8  1  0.000000  0.255473  0.721345  1
  Lu  Lu9  1  0.000000  0.744527  0.278655  1
  In  In10  1  0.500000  0.423878  0.351826  1
  In  In11  1  0.500000  0.576122  0.648174  1
  In  In12  1  0.500000  0.076328  0.851531  1
  In  In13  1  0.500000  0.923672  0.148469  1
  In  In14  1  0.500000  0.294152  0.066504  1
  In  In15  1  0.500000  0.705848  0.933496  1
  In  In16  1  0.500000  0.206650  0.566328  1
  In  In17  1  0.500000  0.793350  0.433672  1
  Pt  Pt18  1  0.500000  0.025814  0.304007  1
  Pt  Pt19  1  0.500000  0.974186  0.695993  1
  Pt  Pt20  1  0.500000  0.474278  0.803901  1
  Pt  Pt21  1  0.500000  0.525722  0.196099  1
