# generated using pymatgen
data_Er2Tm3In4PtAu
_symmetry_space_group_name_H-M   'P 1'
_cell_length_a   3.61989100
_cell_length_b   8.12332367
_cell_length_c   18.18647072
_cell_angle_alpha   89.98666404
_cell_angle_beta   90.00000000
_cell_angle_gamma   90.00000000
_symmetry_Int_Tables_number   1
_chemical_formula_structural   Er2Tm3In4PtAu
_chemical_formula_sum   'Er4 Tm6 In8 Pt2 Au2'
_cell_volume   534.78309136
_cell_formula_units_Z   2
loop_
 _symmetry_equiv_pos_site_id
 _symmetry_equiv_pos_as_xyz
  1  'x, y, z'
loop_
 _atom_site_type_symbol
 _atom_site_label
 _atom_site_symmetry_multiplicity
 _atom_site_fract_x
 _atom_site_fract_y
 _atom_site_fract_z
 _atom_site_occupancy
  Er  Er0  1  0.000000  0.267880  0.721202  1
  Er  Er1  1  0.000000  0.732120  0.278798  1
  Er  Er2  1  0.000000  0.000000  0.000000  1
  Er  Er3  1  0.000000  0.500000  0.500000  1
  Tm  Tm4  1  0.000000  0.120001  0.418635  1
  Tm  Tm5  1  0.000000  0.879999  0.581365  1
  Tm  Tm6  1  0.000000  0.384679  0.915788  1
  Tm  Tm7  1  0.000000  0.615321  0.084212  1
  Tm  Tm8  1  0.000000  0.251894  0.217630  1
  Tm  Tm9  1  0.000000  0.748106  0.782370  1
  In  In10  1  0.500000  0.422683  0.352691  1
  In  In11  1  0.500000  0.577317  0.647309  1
  In  In12  1  0.500000  0.077516  0.853042  1
  In  In13  1  0.500000  0.922484  0.146958  1
  In  In14  1  0.500000  0.292074  0.065556  1
  In  In15  1  0.500000  0.707926  0.934444  1
  In  In16  1  0.500000  0.209081  0.566236  1
  In  In17  1  0.500000  0.790919  0.433764  1
  Pt  Pt18  1  0.500000  0.473859  0.803821  1
  Pt  Pt19  1  0.500000  0.526141  0.196179  1
  Au  Au20  1  0.500000  0.028242  0.302557  1
  Au  Au21  1  0.500000  0.971758  0.697443  1
