# generated using pymatgen
data_La11SmGe(OsI4)3
_symmetry_space_group_name_H-M   'P 1'
_cell_length_a   11.12864968
_cell_length_b   11.11259192
_cell_length_c   11.14076474
_cell_angle_alpha   110.08525044
_cell_angle_beta   109.74113302
_cell_angle_gamma   110.33412460
_symmetry_Int_Tables_number   1
_chemical_formula_structural   La11SmGe(OsI4)3
_chemical_formula_sum   'La11 Sm1 Ge1 Os3 I12'
_cell_volume   1037.08307058
_cell_formula_units_Z   1
loop_
 _symmetry_equiv_pos_site_id
 _symmetry_equiv_pos_as_xyz
  1  'x, y, z'
loop_
 _atom_site_type_symbol
 _atom_site_label
 _atom_site_symmetry_multiplicity
 _atom_site_fract_x
 _atom_site_fract_y
 _atom_site_fract_z
 _atom_site_occupancy
  La  La0  1  0.747025  0.226037  0.268601  1
  La  La1  1  0.739077  0.014246  0.473873  1
  La  La2  1  0.228369  0.466936  0.492165  1
  La  La3  1  0.274376  0.749490  0.226296  1
  La  La4  1  0.044251  0.284208  0.006266  1
  La  La5  1  0.005536  0.044981  0.285736  1
  La  La6  1  0.471806  0.734052  0.014304  1
  La  La7  1  0.492946  0.229184  0.467382  1
  La  La8  1  0.008538  0.469697  0.728898  1
  La  La9  1  0.283359  0.005601  0.043501  1
  La  La10  1  0.230956  0.277419  0.759044  1
  Sm  Sm11  1  0.462113  0.488246  0.227650  1
  Ge  Ge12  1  0.256689  0.256830  0.254712  1
  Os  Os13  1  0.499955  0.998771  0.249008  1
  Os  Os14  1  0.997531  0.248383  0.496800  1
  Os  Os15  1  0.248234  0.497818  0.997671  1
  I  I16  1  0.253245  0.762812  0.739122  1
  I  I17  1  0.518355  0.505986  0.755271  1
  I  I18  1  0.986196  0.745688  0.997755  1
  I  I19  1  0.737437  0.249287  0.761025  1
  I  I20  1  0.998232  0.985425  0.748573  1
  I  I21  1  0.248675  0.996359  0.504618  1
  I  I22  1  0.750037  0.518036  0.498329  1
  I  I23  1  0.506972  0.257569  0.003034  1
  I  I24  1  0.757868  0.734924  0.252647  1
  I  I25  1  0.746853  0.995631  0.985171  1
  I  I26  1  0.998443  0.507196  0.250025  1
  I  I27  1  0.506924  0.749188  0.512524  1
