# generated using pymatgen
data_Tb7ErTe12
_symmetry_space_group_name_H-M   'P 1'
_cell_length_a   14.49743093
_cell_length_b   13.83036419
_cell_length_c   7.58560273
_cell_angle_alpha   79.38678553
_cell_angle_beta   69.66342505
_cell_angle_gamma   30.92581048
_symmetry_Int_Tables_number   1
_chemical_formula_structural   Tb7ErTe12
_chemical_formula_sum   'Tb7 Er1 Te12'
_cell_volume   712.15004167
_cell_formula_units_Z   1
loop_
 _symmetry_equiv_pos_site_id
 _symmetry_equiv_pos_as_xyz
  1  'x, y, z'
loop_
 _atom_site_type_symbol
 _atom_site_label
 _atom_site_symmetry_multiplicity
 _atom_site_fract_x
 _atom_site_fract_y
 _atom_site_fract_z
 _atom_site_occupancy
  Tb  Tb0  1  0.000502  0.000502  0.499498  1
  Tb  Tb1  1  0.499414  0.499414  0.000586  1
  Tb  Tb2  1  0.249568  0.249568  0.750432  1
  Tb  Tb3  1  0.750670  0.750670  0.249330  1
  Tb  Tb4  1  0.667160  0.667160  0.832840  1
  Tb  Tb5  1  0.832922  0.832922  0.667078  1
  Tb  Tb6  1  0.582819  0.582819  0.417181  1
  Er  Er7  1  0.417290  0.417290  0.582710  1
  Te  Te8  1  0.666395  0.167624  0.829577  1
  Te  Te9  1  0.334231  0.831632  0.165353  1
  Te  Te10  1  0.831632  0.334231  0.668785  1
  Te  Te11  1  0.167624  0.666395  0.336404  1
  Te  Te12  1  0.579948  0.087135  0.419545  1
  Te  Te13  1  0.915688  0.418475  0.084704  1
  Te  Te14  1  0.418475  0.915688  0.581132  1
  Te  Te15  1  0.087135  0.579948  0.913373  1
  Te  Te16  1  0.749563  0.248992  0.250593  1
  Te  Te17  1  0.248992  0.749563  0.750851  1
  Te  Te18  1  0.497917  0.002054  0.002069  1
  Te  Te19  1  0.002054  0.497917  0.497960  1
