# generated using pymatgen
data_Ce12Al6RuRh5
_symmetry_space_group_name_H-M   'P 1'
_cell_length_a   7.82645750
_cell_length_b   7.81963916
_cell_length_c   9.75929800
_cell_angle_alpha   90.12788843
_cell_angle_beta   90.05418111
_cell_angle_gamma   120.17378386
_symmetry_Int_Tables_number   1
_chemical_formula_structural   Ce12Al6RuRh5
_chemical_formula_sum   'Ce12 Al6 Ru1 Rh5'
_cell_volume   516.33985043
_cell_formula_units_Z   1
loop_
 _symmetry_equiv_pos_site_id
 _symmetry_equiv_pos_as_xyz
  1  'x, y, z'
loop_
 _atom_site_type_symbol
 _atom_site_label
 _atom_site_symmetry_multiplicity
 _atom_site_fract_x
 _atom_site_fract_y
 _atom_site_fract_z
 _atom_site_occupancy
  Ce  Ce0  1  0.000157  0.596331  0.509340  1
  Ce  Ce1  1  0.595869  0.000055  0.509443  1
  Ce  Ce2  1  0.405025  0.404945  0.510109  1
  Ce  Ce3  1  0.001407  0.405181  0.008078  1
  Ce  Ce4  1  0.405815  0.001780  0.008317  1
  Ce  Ce5  1  0.586001  0.586344  0.004114  1
  Ce  Ce6  1  0.999320  0.731827  0.167540  1
  Ce  Ce7  1  0.731623  0.999224  0.167465  1
  Ce  Ce8  1  0.264043  0.263896  0.169286  1
  Ce  Ce9  1  0.004048  0.265230  0.670214  1
  Ce  Ce10  1  0.265680  0.004156  0.670239  1
  Ce  Ce11  1  0.733197  0.733311  0.667033  1
  Al  Al12  1  0.665841  0.332618  0.276446  1
  Al  Al13  1  0.332478  0.665990  0.276413  1
  Al  Al14  1  0.333558  0.668728  0.773968  1
  Al  Al15  1  0.669037  0.333681  0.773975  1
  Al  Al16  1  0.999369  0.999591  0.416216  1
  Al  Al17  1  0.000923  0.000532  0.917444  1
  Ru  Ru18  1  0.342367  0.342238  0.839496  1
  Rh  Rh19  1  0.999485  0.337020  0.339621  1
  Rh  Rh20  1  0.336937  0.999645  0.339720  1
  Rh  Rh21  1  0.662951  0.663125  0.337965  1
  Rh  Rh22  1  0.000716  0.663982  0.838436  1
  Rh  Rh23  1  0.664157  0.000571  0.838378  1
