# generated using pymatgen
data_RbZr2(MnH6)2
_symmetry_space_group_name_H-M   'P 1'
_cell_length_a   4.47666200
_cell_length_b   4.47666285
_cell_length_c   8.99283100
_cell_angle_alpha   90.00000000
_cell_angle_beta   90.00000000
_cell_angle_gamma   119.99999370
_symmetry_Int_Tables_number   1
_chemical_formula_structural   RbZr2(MnH6)2
_chemical_formula_sum   'Rb1 Zr2 Mn2 H12'
_cell_volume   156.07587711
_cell_formula_units_Z   1
loop_
 _symmetry_equiv_pos_site_id
 _symmetry_equiv_pos_as_xyz
  1  'x, y, z'
loop_
 _atom_site_type_symbol
 _atom_site_label
 _atom_site_symmetry_multiplicity
 _atom_site_fract_x
 _atom_site_fract_y
 _atom_site_fract_z
 _atom_site_occupancy
  Rb  Rb0  1  0.000000  0.000000  0.000000  1
  Zr  Zr1  1  0.666667  0.333333  0.374800  1
  Zr  Zr2  1  0.333333  0.666667  0.625200  1
  Mn  Mn3  1  0.666667  0.333333  0.687081  1
  Mn  Mn4  1  0.333333  0.666667  0.312919  1
  H  H5  1  0.155094  0.844906  0.405331  1
  H  H6  1  0.689811  0.844906  0.405331  1
  H  H7  1  0.155094  0.310189  0.405331  1
  H  H8  1  0.844906  0.155094  0.594669  1
  H  H9  1  0.310189  0.155094  0.594669  1
  H  H10  1  0.844906  0.689811  0.594669  1
  H  H11  1  0.502922  0.005845  0.801615  1
  H  H12  1  0.502922  0.497078  0.801615  1
  H  H13  1  0.994155  0.497078  0.801615  1
  H  H14  1  0.497078  0.994155  0.198385  1
  H  H15  1  0.497078  0.502922  0.198385  1
  H  H16  1  0.005845  0.502922  0.198385  1
