# generated using pymatgen
data_Ho5Co16SiP11Ru3
_symmetry_space_group_name_H-M   'P 1'
_cell_length_a   12.04436700
_cell_length_b   12.03568980
_cell_length_c   3.71242500
_cell_angle_alpha   90.00000000
_cell_angle_beta   90.00000000
_cell_angle_gamma   120.02150681
_symmetry_Int_Tables_number   1
_chemical_formula_structural   Ho5Co16SiP11Ru3
_chemical_formula_sum   'Ho5 Co16 Si1 P11 Ru3'
_cell_volume   465.96052587
_cell_formula_units_Z   1
loop_
 _symmetry_equiv_pos_site_id
 _symmetry_equiv_pos_as_xyz
  1  'x, y, z'
loop_
 _atom_site_type_symbol
 _atom_site_label
 _atom_site_symmetry_multiplicity
 _atom_site_fract_x
 _atom_site_fract_y
 _atom_site_fract_z
 _atom_site_occupancy
  Ho  Ho0  1  0.665963  0.335098  0.000000  1
  Ho  Ho1  1  0.333403  0.666945  0.000000  1
  Ho  Ho2  1  0.815854  0.814913  0.500000  1
  Ho  Ho3  1  0.183625  0.000253  0.500000  1
  Ho  Ho4  1  0.999396  0.184768  0.500000  1
  Co  Co5  1  0.876359  0.359443  0.500000  1
  Co  Co6  1  0.642579  0.516977  0.500000  1
  Co  Co7  1  0.476268  0.123859  0.500000  1
  Co  Co8  1  0.357699  0.874045  0.500000  1
  Co  Co9  1  0.516631  0.642595  0.500000  1
  Co  Co10  1  0.126997  0.484642  0.500000  1
  Co  Co11  1  0.807652  0.179231  0.000000  1
  Co  Co12  1  0.820640  0.624185  0.000000  1
  Co  Co13  1  0.374124  0.196383  0.000000  1
  Co  Co14  1  0.180411  0.804692  0.000000  1
  Co  Co15  1  0.623917  0.819410  0.000000  1
  Co  Co16  1  0.196338  0.376508  0.000000  1
  Co  Co17  1  0.282430  0.283104  0.500000  1
  Co  Co18  1  0.718002  0.995614  0.500000  1
  Co  Co19  1  0.000644  0.717614  0.500000  1
  Co  Co20  1  0.000433  0.999764  0.000000  1
  Si  Si21  1  0.684123  0.162639  0.500000  1
  P  P22  1  0.834670  0.521271  0.500000  1
  P  P23  1  0.478262  0.313229  0.500000  1
  P  P24  1  0.166276  0.687562  0.500000  1
  P  P25  1  0.521281  0.833758  0.500000  1
  P  P26  1  0.313243  0.479400  0.500000  1
  P  P27  1  0.178827  0.180124  0.000000  1
  P  P28  1  0.820564  0.999047  0.000000  1
  P  P29  1  0.000325  0.820211  0.000000  1
  P  P30  1  0.637172  0.636609  0.000000  1
  P  P31  1  0.363440  0.000435  0.000000  1
  P  P32  1  0.999956  0.363560  0.000000  1
  Ru  Ru33  1  0.446596  0.446389  0.000000  1
  Ru  Ru34  1  0.554639  0.001151  0.000000  1
  Ru  Ru35  1  0.001261  0.554571  0.000000  1
