# generated using pymatgen
data_CrFe2Co(NiPt)2
_symmetry_space_group_name_H-M   'P 1'
_cell_length_a   3.69531400
_cell_length_b   3.72168200
_cell_length_c   7.36346200
_cell_angle_alpha   90.00000000
_cell_angle_beta   90.00000000
_cell_angle_gamma   90.00000000
_symmetry_Int_Tables_number   1
_chemical_formula_structural   CrFe2Co(NiPt)2
_chemical_formula_sum   'Cr1 Fe2 Co1 Ni2 Pt2'
_cell_volume   101.26809942
_cell_formula_units_Z   1
loop_
 _symmetry_equiv_pos_site_id
 _symmetry_equiv_pos_as_xyz
  1  'x, y, z'
loop_
 _atom_site_type_symbol
 _atom_site_label
 _atom_site_symmetry_multiplicity
 _atom_site_fract_x
 _atom_site_fract_y
 _atom_site_fract_z
 _atom_site_occupancy
  Cr  Cr0  1  0.500000  0.000000  0.500000  1
  Fe  Fe1  1  0.500000  0.500000  0.251304  1
  Fe  Fe2  1  0.500000  0.500000  0.748696  1
  Co  Co3  1  0.000000  0.500000  0.500000  1
  Ni  Ni4  1  0.000000  0.500000  0.000000  1
  Ni  Ni5  1  0.500000  0.000000  0.000000  1
  Pt  Pt6  1  0.000000  0.000000  0.248747  1
  Pt  Pt7  1  0.000000  0.000000  0.751253  1
