# generated using pymatgen
data_Tb4ScFe(SbO7)2
_symmetry_space_group_name_H-M   'P 1'
_cell_length_a   7.35109449
_cell_length_b   7.36431737
_cell_length_c   7.35109460
_cell_angle_alpha   120.41264363
_cell_angle_beta   119.23440027
_cell_angle_gamma   90.25632312
_symmetry_Int_Tables_number   1
_chemical_formula_structural   Tb4ScFe(SbO7)2
_chemical_formula_sum   'Tb4 Sc1 Fe1 Sb2 O14'
_cell_volume   282.23747094
_cell_formula_units_Z   1
loop_
 _symmetry_equiv_pos_site_id
 _symmetry_equiv_pos_as_xyz
  1  'x, y, z'
loop_
 _atom_site_type_symbol
 _atom_site_label
 _atom_site_symmetry_multiplicity
 _atom_site_fract_x
 _atom_site_fract_y
 _atom_site_fract_z
 _atom_site_occupancy
  Tb  Tb0  1  0.000000  0.000000  0.500000  1
  Tb  Tb1  1  0.000000  0.500000  0.000000  1
  Tb  Tb2  1  0.000000  0.000000  0.000000  1
  Tb  Tb3  1  0.500000  0.000000  0.500000  1
  Sc  Sc4  1  0.500000  0.000000  0.000000  1
  Fe  Fe5  1  0.500000  0.500000  0.500000  1
  Sb  Sb6  1  0.500000  0.500000  0.000000  1
  Sb  Sb7  1  0.000000  0.500000  0.500000  1
  O  O8  1  0.122356  0.871002  0.248646  1
  O  O9  1  0.877644  0.128998  0.751354  1
  O  O10  1  0.826529  0.571550  0.245021  1
  O  O11  1  0.406378  0.161807  0.255428  1
  O  O12  1  0.848083  0.169891  0.264235  1
  O  O13  1  0.406818  0.570323  0.234295  1
  O  O14  1  0.836028  0.570323  0.663506  1
  O  O15  1  0.405655  0.169891  0.821807  1
  O  O16  1  0.173471  0.428450  0.754979  1
  O  O17  1  0.593622  0.838193  0.744572  1
  O  O18  1  0.151917  0.830109  0.735765  1
  O  O19  1  0.593182  0.429677  0.765705  1
  O  O20  1  0.163972  0.429677  0.336494  1
  O  O21  1  0.594345  0.830109  0.178193  1
