# generated using pymatgen
data_Tb3Ga2Ir7
_symmetry_space_group_name_H-M   'P 1'
_cell_length_a   8.82111376
_cell_length_b   8.82111491
_cell_length_c   8.82111500
_cell_angle_alpha   36.23511902
_cell_angle_beta   36.23511978
_cell_angle_gamma   36.23511470
_symmetry_Int_Tables_number   1
_chemical_formula_structural   Tb3Ga2Ir7
_chemical_formula_sum   'Tb3 Ga2 Ir7'
_cell_volume   214.59371382
_cell_formula_units_Z   1
loop_
 _symmetry_equiv_pos_site_id
 _symmetry_equiv_pos_as_xyz
  1  'x, y, z'
loop_
 _atom_site_type_symbol
 _atom_site_label
 _atom_site_symmetry_multiplicity
 _atom_site_fract_x
 _atom_site_fract_y
 _atom_site_fract_z
 _atom_site_occupancy
  Tb  Tb0  1  0.359543  0.359543  0.359543  1
  Tb  Tb1  1  0.500000  0.500000  0.500000  1
  Tb  Tb2  1  0.640457  0.640457  0.640457  1
  Ga  Ga3  1  0.164198  0.164198  0.164198  1
  Ga  Ga4  1  0.835802  0.835802  0.835802  1
  Ir  Ir5  1  0.000000  0.000000  0.000000  1
  Ir  Ir6  1  0.575152  0.085886  0.085886  1
  Ir  Ir7  1  0.085886  0.575152  0.085886  1
  Ir  Ir8  1  0.914114  0.914114  0.424848  1
  Ir  Ir9  1  0.085886  0.085886  0.575152  1
  Ir  Ir10  1  0.914114  0.424848  0.914114  1
  Ir  Ir11  1  0.424848  0.914114  0.914114  1
