# generated using pymatgen
data_Nd5Th3Zn8Ir7Rh
_symmetry_space_group_name_H-M   'P 1'
_cell_length_a   3.97503800
_cell_length_b   7.46792281
_cell_length_c   16.63311935
_cell_angle_alpha   90.02406264
_cell_angle_beta   90.00000000
_cell_angle_gamma   90.00000000
_symmetry_Int_Tables_number   1
_chemical_formula_structural   Nd5Th3Zn8Ir7Rh
_chemical_formula_sum   'Nd5 Th3 Zn8 Ir7 Rh1'
_cell_volume   493.75871079
_cell_formula_units_Z   1
loop_
 _symmetry_equiv_pos_site_id
 _symmetry_equiv_pos_as_xyz
  1  'x, y, z'
loop_
 _atom_site_type_symbol
 _atom_site_label
 _atom_site_symmetry_multiplicity
 _atom_site_fract_x
 _atom_site_fract_y
 _atom_site_fract_z
 _atom_site_occupancy
  Nd  Nd0  1  0.750000  0.944751  0.284078  1
  Nd  Nd1  1  0.750000  0.831555  0.062094  1
  Nd  Nd2  1  0.750000  0.448482  0.214613  1
  Nd  Nd3  1  0.250000  0.053278  0.715253  1
  Nd  Nd4  1  0.250000  0.552092  0.785480  1
  Th  Th5  1  0.250000  0.171787  0.940171  1
  Th  Th6  1  0.250000  0.670990  0.561523  1
  Th  Th7  1  0.750000  0.328285  0.438113  1
  Zn  Zn8  1  0.750000  0.006219  0.561119  1
  Zn  Zn9  1  0.250000  0.618403  0.346195  1
  Zn  Zn10  1  0.750000  0.382193  0.653732  1
  Zn  Zn11  1  0.250000  0.502904  0.059849  1
  Zn  Zn12  1  0.750000  0.509014  0.939952  1
  Zn  Zn13  1  0.250000  0.993332  0.438581  1
  Zn  Zn14  1  0.250000  0.115450  0.151570  1
  Zn  Zn15  1  0.750000  0.880830  0.846286  1
  Ir  Ir16  1  0.750000  0.743909  0.440245  1
  Ir  Ir17  1  0.250000  0.248402  0.319085  1
  Ir  Ir18  1  0.750000  0.247777  0.819959  1
  Ir  Ir19  1  0.750000  0.749105  0.680661  1
  Ir  Ir20  1  0.250000  0.254791  0.560563  1
  Ir  Ir21  1  0.250000  0.744823  0.186172  1
  Ir  Ir22  1  0.750000  0.250634  0.060483  1
  Rh  Rh23  1  0.250000  0.750991  0.934224  1
