# generated using pymatgen
data_Nd2Re9Tc8C3
_symmetry_space_group_name_H-M   'P 1'
_cell_length_a   7.05214340
_cell_length_b   7.05214379
_cell_length_c   7.05214397
_cell_angle_alpha   82.79818471
_cell_angle_beta   82.79817922
_cell_angle_gamma   82.79817665
_symmetry_Int_Tables_number   1
_chemical_formula_structural   Nd2Re9Tc8C3
_chemical_formula_sum   'Nd2 Re9 Tc8 C3'
_cell_volume   343.06162233
_cell_formula_units_Z   1
loop_
 _symmetry_equiv_pos_site_id
 _symmetry_equiv_pos_as_xyz
  1  'x, y, z'
loop_
 _atom_site_type_symbol
 _atom_site_label
 _atom_site_symmetry_multiplicity
 _atom_site_fract_x
 _atom_site_fract_y
 _atom_site_fract_z
 _atom_site_occupancy
  Nd  Nd0  1  0.651070  0.651070  0.651070  1
  Nd  Nd1  1  0.348930  0.348930  0.348930  1
  Re  Re2  1  0.000000  0.000000  0.500000  1
  Re  Re3  1  0.500000  0.000000  0.000000  1
  Re  Re4  1  0.000000  0.500000  0.000000  1
  Re  Re5  1  0.720539  0.279461  0.000000  1
  Re  Re6  1  0.000000  0.720539  0.279461  1
  Re  Re7  1  0.279461  0.000000  0.720539  1
  Re  Re8  1  0.000000  0.279461  0.720539  1
  Re  Re9  1  0.720539  0.000000  0.279461  1
  Re  Re10  1  0.279461  0.720539  0.000000  1
  Tc  Tc11  1  0.347729  0.865926  0.347729  1
  Tc  Tc12  1  0.347729  0.347729  0.865926  1
  Tc  Tc13  1  0.865926  0.347729  0.347729  1
  Tc  Tc14  1  0.652271  0.134074  0.652271  1
  Tc  Tc15  1  0.652271  0.652271  0.134074  1
  Tc  Tc16  1  0.134074  0.652271  0.652271  1
  Tc  Tc17  1  0.903196  0.903196  0.903196  1
  Tc  Tc18  1  0.096804  0.096804  0.096804  1
  C  C19  1  0.500000  0.500000  0.000000  1
  C  C20  1  0.000000  0.500000  0.500000  1
  C  C21  1  0.500000  0.000000  0.500000  1
