# generated using pymatgen
data_Tb5P12PdRu18
_symmetry_space_group_name_H-M   'P 1'
_cell_length_a   3.98673600
_cell_length_b   12.60884249
_cell_length_c   12.50125235
_cell_angle_alpha   119.74439041
_cell_angle_beta   90.00000000
_cell_angle_gamma   90.00000000
_symmetry_Int_Tables_number   1
_chemical_formula_structural   Tb5P12PdRu18
_chemical_formula_sum   'Tb5 P12 Pd1 Ru18'
_cell_volume   545.61927880
_cell_formula_units_Z   1
loop_
 _symmetry_equiv_pos_site_id
 _symmetry_equiv_pos_as_xyz
  1  'x, y, z'
loop_
 _atom_site_type_symbol
 _atom_site_label
 _atom_site_symmetry_multiplicity
 _atom_site_fract_x
 _atom_site_fract_y
 _atom_site_fract_z
 _atom_site_occupancy
  Tb  Tb0  1  0.500000  0.000757  0.182620  1
  Tb  Tb1  1  0.500000  0.183852  0.999941  1
  Tb  Tb2  1  0.500000  0.816400  0.815792  1
  Tb  Tb3  1  0.000000  0.338449  0.668430  1
  Tb  Tb4  1  0.000000  0.661050  0.330207  1
  P  P5  1  0.000000  0.999841  0.811354  1
  P  P6  1  0.000000  0.816610  0.001164  1
  P  P7  1  0.000000  0.183007  0.184199  1
  P  P8  1  0.500000  0.306933  0.479858  1
  P  P9  1  0.500000  0.180565  0.700352  1
  P  P10  1  0.500000  0.525643  0.831263  1
  P  P11  1  0.500000  0.819360  0.519666  1
  P  P12  1  0.500000  0.474489  0.305686  1
  P  P13  1  0.500000  0.693119  0.172824  1
  P  P14  1  0.000000  0.999881  0.364971  1
  P  P15  1  0.000000  0.373752  0.000495  1
  P  P16  1  0.000000  0.626084  0.626470  1
  Pd  Pd17  1  0.000000  0.999967  0.552189  1
  Ru  Ru18  1  0.000000  0.555638  0.001601  1
  Ru  Ru19  1  0.000000  0.444169  0.445754  1
  Ru  Ru20  1  0.500000  0.000156  0.712134  1
  Ru  Ru21  1  0.500000  0.718602  0.002178  1
  Ru  Ru22  1  0.500000  0.281677  0.283714  1
  Ru  Ru23  1  0.000000  0.193005  0.379162  1
  Ru  Ru24  1  0.000000  0.186298  0.806923  1
  Ru  Ru25  1  0.000000  0.625468  0.816730  1
  Ru  Ru26  1  0.000000  0.813976  0.620559  1
  Ru  Ru27  1  0.000000  0.374421  0.190974  1
  Ru  Ru28  1  0.000000  0.806875  0.186060  1
  Ru  Ru29  1  0.500000  0.126098  0.493597  1
  Ru  Ru30  1  0.500000  0.369760  0.877654  1
  Ru  Ru31  1  0.500000  0.508208  0.635382  1
  Ru  Ru32  1  0.500000  0.630138  0.508100  1
  Ru  Ru33  1  0.500000  0.492255  0.127530  1
  Ru  Ru34  1  0.500000  0.873865  0.367077  1
  Ru  Ru35  1  0.000000  0.999533  0.997391  1
