# generated using pymatgen
data_Tb16MgCd3Co3Ru
_symmetry_space_group_name_H-M   'P 1'
_cell_length_a   9.60796520
_cell_length_b   9.60796521
_cell_length_c   9.62013689
_cell_angle_alpha   59.60464759
_cell_angle_beta   59.60464959
_cell_angle_gamma   59.49964990
_symmetry_Int_Tables_number   1
_chemical_formula_structural   Tb16MgCd3Co3Ru
_chemical_formula_sum   'Tb16 Mg1 Cd3 Co3 Ru1'
_cell_volume   621.81101038
_cell_formula_units_Z   1
loop_
 _symmetry_equiv_pos_site_id
 _symmetry_equiv_pos_as_xyz
  1  'x, y, z'
loop_
 _atom_site_type_symbol
 _atom_site_label
 _atom_site_symmetry_multiplicity
 _atom_site_fract_x
 _atom_site_fract_y
 _atom_site_fract_z
 _atom_site_occupancy
  Tb  Tb0  1  0.438184  0.438184  0.056818  1
  Tb  Tb1  1  0.594973  0.594973  0.595138  1
  Tb  Tb2  1  0.188420  0.812887  0.812262  1
  Tb  Tb3  1  0.062139  0.062139  0.434768  1
  Tb  Tb4  1  0.436890  0.060793  0.060251  1
  Tb  Tb5  1  0.812887  0.188420  0.812262  1
  Tb  Tb6  1  0.437115  0.058325  0.436442  1
  Tb  Tb7  1  0.598723  0.214119  0.599374  1
  Tb  Tb8  1  0.812466  0.812466  0.186875  1
  Tb  Tb9  1  0.214119  0.598723  0.599374  1
  Tb  Tb10  1  0.807231  0.190627  0.188829  1
  Tb  Tb11  1  0.058325  0.437115  0.436442  1
  Tb  Tb12  1  0.190627  0.807231  0.188829  1
  Tb  Tb13  1  0.599781  0.599781  0.210783  1
  Tb  Tb14  1  0.189647  0.189647  0.807322  1
  Tb  Tb15  1  0.060793  0.436890  0.060251  1
  Mg  Mg16  1  0.824865  0.824865  0.521706  1
  Cd  Cd17  1  0.830437  0.830437  0.829783  1
  Cd  Cd18  1  0.506264  0.830125  0.830162  1
  Cd  Cd19  1  0.830125  0.506264  0.830162  1
  Co  Co20  1  0.829069  0.393098  0.391866  1
  Co  Co21  1  0.393098  0.829069  0.391866  1
  Co  Co22  1  0.392726  0.392726  0.829071  1
  Ru  Ru23  1  0.391095  0.391095  0.389366  1
