# generated using pymatgen
data_Tm16Cd2Co3Ag2Ir
_symmetry_space_group_name_H-M   'P 1'
_cell_length_a   9.40671465
_cell_length_b   9.35030441
_cell_length_c   9.35575100
_cell_angle_alpha   59.98073260
_cell_angle_beta   60.17906149
_cell_angle_gamma   60.19129316
_symmetry_Int_Tables_number   1
_chemical_formula_structural   Tm16Cd2Co3Ag2Ir
_chemical_formula_sum   'Tm16 Cd2 Co3 Ag2 Ir1'
_cell_volume   583.40971121
_cell_formula_units_Z   1
loop_
 _symmetry_equiv_pos_site_id
 _symmetry_equiv_pos_as_xyz
  1  'x, y, z'
loop_
 _atom_site_type_symbol
 _atom_site_label
 _atom_site_symmetry_multiplicity
 _atom_site_fract_x
 _atom_site_fract_y
 _atom_site_fract_z
 _atom_site_occupancy
  Tm  Tm0  1  0.590560  0.601414  0.601509  1
  Tm  Tm1  1  0.590560  0.601414  0.206517  1
  Tm  Tm2  1  0.590489  0.206356  0.601578  1
  Tm  Tm3  1  0.212771  0.595123  0.596053  1
  Tm  Tm4  1  0.066749  0.438172  0.439198  1
  Tm  Tm5  1  0.438650  0.061355  0.061848  1
  Tm  Tm6  1  0.438650  0.061355  0.438147  1
  Tm  Tm7  1  0.066749  0.438172  0.055881  1
  Tm  Tm8  1  0.438906  0.437626  0.061734  1
  Tm  Tm9  1  0.065853  0.055062  0.439542  1
  Tm  Tm10  1  0.183224  0.812637  0.814319  1
  Tm  Tm11  1  0.811836  0.185889  0.191039  1
  Tm  Tm12  1  0.811836  0.185889  0.811235  1
  Tm  Tm13  1  0.183224  0.812637  0.189820  1
  Tm  Tm14  1  0.811289  0.808673  0.190019  1
  Tm  Tm15  1  0.184673  0.185905  0.814711  1
  Cd  Cd16  1  0.833797  0.511719  0.827242  1
  Cd  Cd17  1  0.510299  0.832578  0.828562  1
  Co  Co18  1  0.392060  0.391012  0.389894  1
  Co  Co19  1  0.392060  0.391012  0.827033  1
  Co  Co20  1  0.391550  0.826800  0.390824  1
  Ag  Ag21  1  0.834760  0.833587  0.831421  1
  Ag  Ag22  1  0.834760  0.833587  0.500231  1
  Ir  Ir23  1  0.824696  0.392027  0.391638  1
