# generated using pymatgen
data_Ta3Zn3(Co5B2)2
_symmetry_space_group_name_H-M   'P 1'
_cell_length_a   8.55423040
_cell_length_b   8.55423040
_cell_length_c   2.98069600
_cell_angle_alpha   90.00000000
_cell_angle_beta   90.00000000
_cell_angle_gamma   90.79988869
_symmetry_Int_Tables_number   1
_chemical_formula_structural   Ta3Zn3(Co5B2)2
_chemical_formula_sum   'Ta3 Zn3 Co10 B4'
_cell_volume   218.09075112
_cell_formula_units_Z   1
loop_
 _symmetry_equiv_pos_site_id
 _symmetry_equiv_pos_as_xyz
  1  'x, y, z'
loop_
 _atom_site_type_symbol
 _atom_site_label
 _atom_site_symmetry_multiplicity
 _atom_site_fract_x
 _atom_site_fract_y
 _atom_site_fract_z
 _atom_site_occupancy
  Ta  Ta0  1  0.173520  0.673520  0.000000  1
  Ta  Ta1  1  0.324826  0.179223  0.000000  1
  Ta  Ta2  1  0.679223  0.824826  0.000000  1
  Zn  Zn3  1  0.498313  0.501295  0.000000  1
  Zn  Zn4  1  0.001295  0.998313  0.000000  1
  Zn  Zn5  1  0.820612  0.320612  0.000000  1
  Co  Co6  1  0.500807  0.000807  0.500000  1
  Co  Co7  1  0.995102  0.495102  0.500000  1
  Co  Co8  1  0.719228  0.573615  0.500000  1
  Co  Co9  1  0.277520  0.433567  0.500000  1
  Co  Co10  1  0.222043  0.930472  0.500000  1
  Co  Co11  1  0.779281  0.066801  0.500000  1
  Co  Co12  1  0.430472  0.722043  0.500000  1
  Co  Co13  1  0.566801  0.279281  0.500000  1
  Co  Co14  1  0.073615  0.219228  0.500000  1
  Co  Co15  1  0.933567  0.777520  0.500000  1
  B  B16  1  0.624609  0.124609  0.000000  1
  B  B17  1  0.378911  0.878911  0.000000  1
  B  B18  1  0.121417  0.378839  0.000000  1
  B  B19  1  0.878839  0.621417  0.000000  1
