# generated using pymatgen
data_Nd(SbO3)3
_symmetry_space_group_name_H-M   'P 1'
_cell_length_a   5.57054606
_cell_length_b   5.57054545
_cell_length_c   11.78954100
_cell_angle_alpha   90.00000000
_cell_angle_beta   90.00000000
_cell_angle_gamma   106.85949207
_symmetry_Int_Tables_number   1
_chemical_formula_structural   Nd(SbO3)3
_chemical_formula_sum   'Nd2 Sb6 O18'
_cell_volume   350.11675116
_cell_formula_units_Z   2
loop_
 _symmetry_equiv_pos_site_id
 _symmetry_equiv_pos_as_xyz
  1  'x, y, z'
loop_
 _atom_site_type_symbol
 _atom_site_label
 _atom_site_symmetry_multiplicity
 _atom_site_fract_x
 _atom_site_fract_y
 _atom_site_fract_z
 _atom_site_occupancy
  Nd  Nd0  1  0.753454  0.246546  0.750000  1
  Nd  Nd1  1  0.246546  0.753454  0.250000  1
  Sb  Sb2  1  0.121968  0.878032  0.907851  1
  Sb  Sb3  1  0.878032  0.121968  0.407851  1
  Sb  Sb4  1  0.878032  0.121968  0.092149  1
  Sb  Sb5  1  0.121968  0.878032  0.592149  1
  Sb  Sb6  1  0.500000  0.500000  0.000000  1
  Sb  Sb7  1  0.500000  0.500000  0.500000  1
  O  O8  1  0.949175  0.050825  0.250000  1
  O  O9  1  0.050825  0.949175  0.750000  1
  O  O10  1  0.104954  0.895046  0.075180  1
  O  O11  1  0.895046  0.104954  0.575180  1
  O  O12  1  0.895046  0.104954  0.924820  1
  O  O13  1  0.104954  0.895046  0.424820  1
  O  O14  1  0.337537  0.662463  0.881335  1
  O  O15  1  0.662463  0.337537  0.381335  1
  O  O16  1  0.419923  0.191264  0.601474  1
  O  O17  1  0.580077  0.808736  0.101474  1
  O  O18  1  0.191264  0.419923  0.398526  1
  O  O19  1  0.808736  0.580077  0.898526  1
  O  O20  1  0.580077  0.808736  0.398526  1
  O  O21  1  0.419923  0.191264  0.898526  1
  O  O22  1  0.808736  0.580077  0.601474  1
  O  O23  1  0.191264  0.419923  0.101474  1
  O  O24  1  0.337537  0.662463  0.618665  1
  O  O25  1  0.662463  0.337537  0.118665  1
