# generated using pymatgen
data_TbYTi2Cr2O10
_symmetry_space_group_name_H-M   'P 1'
_cell_length_a   5.86078300
_cell_length_b   7.47649404
_cell_length_c   8.61846204
_cell_angle_alpha   89.98889289
_cell_angle_beta   90.00000000
_cell_angle_gamma   90.00000000
_symmetry_Int_Tables_number   1
_chemical_formula_structural   TbYTi2Cr2O10
_chemical_formula_sum   'Tb2 Y2 Ti4 Cr4 O20'
_cell_volume   377.64470322
_cell_formula_units_Z   2
loop_
 _symmetry_equiv_pos_site_id
 _symmetry_equiv_pos_as_xyz
  1  'x, y, z'
loop_
 _atom_site_type_symbol
 _atom_site_label
 _atom_site_symmetry_multiplicity
 _atom_site_fract_x
 _atom_site_fract_y
 _atom_site_fract_z
 _atom_site_occupancy
  Tb  Tb0  1  0.500000  0.359523  0.329858  1
  Tb  Tb1  1  0.500000  0.640477  0.670142  1
  Y  Y2  1  0.500000  0.141163  0.829816  1
  Y  Y3  1  0.500000  0.858837  0.170184  1
  Ti  Ti4  1  0.000000  0.118095  0.146460  1
  Ti  Ti5  1  0.000000  0.881905  0.853540  1
  Ti  Ti6  1  0.000000  0.381799  0.646446  1
  Ti  Ti7  1  0.000000  0.618201  0.353554  1
  Cr  Cr8  1  0.254108  0.000000  0.500000  1
  Cr  Cr9  1  0.745892  0.000000  0.500000  1
  Cr  Cr10  1  0.745839  0.500000  0.000000  1
  Cr  Cr11  1  0.254161  0.500000  0.000000  1
  O  O12  1  0.252520  0.110275  0.287643  1
  O  O13  1  0.747480  0.889725  0.712357  1
  O  O14  1  0.252520  0.889725  0.712357  1
  O  O15  1  0.747497  0.389583  0.787715  1
  O  O16  1  0.747480  0.110275  0.287643  1
  O  O17  1  0.252503  0.610417  0.212285  1
  O  O18  1  0.747497  0.610417  0.212285  1
  O  O19  1  0.252503  0.389583  0.787715  1
  O  O20  1  0.000000  0.342589  0.077864  1
  O  O21  1  0.000000  0.657411  0.922136  1
  O  O22  1  0.000000  0.157402  0.577744  1
  O  O23  1  0.000000  0.842598  0.422256  1
  O  O24  1  0.500000  0.332709  0.059488  1
  O  O25  1  0.500000  0.667291  0.940512  1
  O  O26  1  0.500000  0.167043  0.559925  1
  O  O27  1  0.500000  0.832957  0.440075  1
  O  O28  1  0.220236  0.000000  0.000000  1
  O  O29  1  0.779764  0.000000  0.000000  1
  O  O30  1  0.780163  0.500000  0.500000  1
  O  O31  1  0.219837  0.500000  0.500000  1
