# generated using pymatgen
data_TbGd3(As4O9)2
_symmetry_space_group_name_H-M   'P 1'
_cell_length_a   6.82700548
_cell_length_b   7.62179816
_cell_length_c   9.87556070
_cell_angle_alpha   95.03317852
_cell_angle_beta   104.16116930
_cell_angle_gamma   104.74565915
_symmetry_Int_Tables_number   1
_chemical_formula_structural   TbGd3(As4O9)2
_chemical_formula_sum   'Tb1 Gd3 As8 O18'
_cell_volume   475.63465198
_cell_formula_units_Z   1
loop_
 _symmetry_equiv_pos_site_id
 _symmetry_equiv_pos_as_xyz
  1  'x, y, z'
loop_
 _atom_site_type_symbol
 _atom_site_label
 _atom_site_symmetry_multiplicity
 _atom_site_fract_x
 _atom_site_fract_y
 _atom_site_fract_z
 _atom_site_occupancy
  Tb  Tb0  1  0.279629  0.469848  0.591724  1
  Gd  Gd1  1  0.245646  0.940222  0.616018  1
  Gd  Gd2  1  0.755185  0.060751  0.384024  1
  Gd  Gd3  1  0.719893  0.531387  0.408658  1
  As  As4  1  0.680357  0.776637  0.075657  1
  As  As5  1  0.319592  0.224340  0.923352  1
  As  As6  1  0.173810  0.753262  0.912803  1
  As  As7  1  0.826266  0.246208  0.086176  1
  As  As8  1  0.744671  0.915709  0.709520  1
  As  As9  1  0.254415  0.083592  0.290620  1
  As  As10  1  0.808581  0.350076  0.701588  1
  As  As11  1  0.190943  0.649408  0.298981  1
  O  O12  1  0.722430  0.751094  0.255336  1
  O  O13  1  0.278276  0.251176  0.744020  1
  O  O14  1  0.316224  0.979067  0.872445  1
  O  O15  1  0.683368  0.021217  0.126771  1
  O  O16  1  0.606620  0.321594  0.985576  1
  O  O17  1  0.393329  0.678653  0.014431  1
  O  O18  1  0.131973  0.647746  0.738962  1
  O  O19  1  0.869626  0.351116  0.260465  1
  O  O20  1  0.845289  0.873209  0.560095  1
  O  O21  1  0.155528  0.128199  0.440474  1
  O  O22  1  0.487491  0.768843  0.666940  1
  O  O23  1  0.511918  0.229565  0.332437  1
  O  O24  1  0.370953  0.535327  0.379286  1
  O  O25  1  0.625971  0.462339  0.622069  1
  O  O26  1  0.090938  0.668414  0.453047  1
  O  O27  1  0.911388  0.331639  0.548445  1
  O  O28  1  0.372096  0.898420  0.358672  1
  O  O29  1  0.627595  0.100941  0.641408  1
