# generated using pymatgen
data_Li2Nd4YP12Ru17
_symmetry_space_group_name_H-M   'P 1'
_cell_length_a   12.80792021
_cell_length_b   12.61233775
_cell_length_c   4.00065300
_cell_angle_alpha   90.00000000
_cell_angle_beta   90.00000000
_cell_angle_gamma   120.53534163
_symmetry_Int_Tables_number   1
_chemical_formula_structural   Li2Nd4YP12Ru17
_chemical_formula_sum   'Li2 Nd4 Y1 P12 Ru17'
_cell_volume   556.63123250
_cell_formula_units_Z   1
loop_
 _symmetry_equiv_pos_site_id
 _symmetry_equiv_pos_as_xyz
  1  'x, y, z'
loop_
 _atom_site_type_symbol
 _atom_site_label
 _atom_site_symmetry_multiplicity
 _atom_site_fract_x
 _atom_site_fract_y
 _atom_site_fract_z
 _atom_site_occupancy
  Li  Li0  1  0.000337  0.562676  0.000000  1
  Li  Li1  1  0.437686  0.437320  0.000000  1
  Nd  Nd2  1  0.001974  0.182832  0.500000  1
  Nd  Nd3  1  0.819660  0.817353  0.500000  1
  Nd  Nd4  1  0.183402  0.000102  0.500000  1
  Nd  Nd5  1  0.662565  0.324882  0.000000  1
  Y  Y6  1  0.338020  0.675041  0.000000  1
  P  P7  1  0.999643  0.806102  0.000000  1
  P  P8  1  0.192272  0.195386  0.000000  1
  P  P9  1  0.815337  0.998866  0.000000  1
  P  P10  1  0.692310  0.167620  0.500000  1
  P  P11  1  0.817347  0.517045  0.500000  1
  P  P12  1  0.475122  0.299378  0.500000  1
  P  P13  1  0.178144  0.699946  0.500000  1
  P  P14  1  0.521884  0.829200  0.500000  1
  P  P15  1  0.300802  0.486348  0.500000  1
  P  P16  1  0.001601  0.372455  0.000000  1
  P  P17  1  0.629323  0.627661  0.000000  1
  P  P18  1  0.378115  0.000111  0.000000  1
  Ru  Ru19  1  0.556687  0.999739  0.000000  1
  Ru  Ru20  1  0.998965  0.708820  0.500000  1
  Ru  Ru21  1  0.289162  0.292819  0.500000  1
  Ru  Ru22  1  0.715625  0.998458  0.500000  1
  Ru  Ru23  1  0.807602  0.184659  0.000000  1
  Ru  Ru24  1  0.812131  0.614356  0.000000  1
  Ru  Ru25  1  0.377324  0.192822  0.000000  1
  Ru  Ru26  1  0.187046  0.806692  0.000000  1
  Ru  Ru27  1  0.620085  0.813147  0.000000  1
  Ru  Ru28  1  0.198699  0.388983  0.000000  1
  Ru  Ru29  1  0.875574  0.367017  0.500000  1
  Ru  Ru30  1  0.627922  0.510880  0.500000  1
  Ru  Ru31  1  0.489688  0.121657  0.500000  1
  Ru  Ru32  1  0.368516  0.875048  0.500000  1
  Ru  Ru33  1  0.505817  0.632539  0.500000  1
  Ru  Ru34  1  0.119419  0.492083  0.500000  1
  Ru  Ru35  1  0.004195  0.999956  0.000000  1
