# generated using pymatgen
data_CeY3(ScIr)4
_symmetry_space_group_name_H-M   'P 1'
_cell_length_a   7.16938315
_cell_length_b   4.28547600
_cell_length_c   8.72866843
_cell_angle_alpha   90.00000000
_cell_angle_beta   91.65501808
_cell_angle_gamma   90.00000000
_symmetry_Int_Tables_number   1
_chemical_formula_structural   CeY3(ScIr)4
_chemical_formula_sum   'Ce1 Y3 Sc4 Ir4'
_cell_volume   268.06965046
_cell_formula_units_Z   1
loop_
 _symmetry_equiv_pos_site_id
 _symmetry_equiv_pos_as_xyz
  1  'x, y, z'
loop_
 _atom_site_type_symbol
 _atom_site_label
 _atom_site_symmetry_multiplicity
 _atom_site_fract_x
 _atom_site_fract_y
 _atom_site_fract_z
 _atom_site_occupancy
  Ce  Ce0  1  0.518414  0.750000  0.681601  1
  Y  Y1  1  0.979877  0.250000  0.171835  1
  Y  Y2  1  0.482062  0.250000  0.322734  1
  Y  Y3  1  0.015302  0.750000  0.826285  1
  Sc  Sc4  1  0.869042  0.250000  0.563747  1
  Sc  Sc5  1  0.352693  0.250000  0.938511  1
  Sc  Sc6  1  0.141344  0.750000  0.433025  1
  Sc  Sc7  1  0.640636  0.750000  0.067848  1
  Ir  Ir8  1  0.730588  0.250000  0.887859  1
  Ir  Ir9  1  0.251315  0.250000  0.601942  1
  Ir  Ir10  1  0.258555  0.750000  0.105518  1
  Ir  Ir11  1  0.760174  0.750000  0.399094  1
