# generated using pymatgen
data_LiPr2Si2AgGe
_symmetry_space_group_name_H-M   'P 1'
_cell_length_a   9.61942236
_cell_length_b   9.61942282
_cell_length_c   6.95491314
_cell_angle_alpha   89.97928347
_cell_angle_beta   90.02071853
_cell_angle_gamma   153.12794504
_symmetry_Int_Tables_number   1
_chemical_formula_structural   LiPr2Si2AgGe
_chemical_formula_sum   'Li2 Pr4 Si4 Ag2 Ge2'
_cell_volume   290.88935692
_cell_formula_units_Z   2
loop_
 _symmetry_equiv_pos_site_id
 _symmetry_equiv_pos_as_xyz
  1  'x, y, z'
loop_
 _atom_site_type_symbol
 _atom_site_label
 _atom_site_symmetry_multiplicity
 _atom_site_fract_x
 _atom_site_fract_y
 _atom_site_fract_z
 _atom_site_occupancy
  Li  Li0  1  0.186604  0.813396  0.059811  1
  Li  Li1  1  0.813396  0.186604  0.940189  1
  Pr  Pr2  1  0.551714  0.448286  0.250593  1
  Pr  Pr3  1  0.448286  0.551714  0.749407  1
  Pr  Pr4  1  0.344718  0.655282  0.246102  1
  Pr  Pr5  1  0.655282  0.344718  0.753898  1
  Si  Si6  1  0.942436  0.057564  0.073749  1
  Si  Si7  1  0.057564  0.942436  0.926251  1
  Si  Si8  1  0.056496  0.943504  0.579781  1
  Si  Si9  1  0.943504  0.056496  0.420219  1
  Ag  Ag10  1  0.816516  0.183484  0.565520  1
  Ag  Ag11  1  0.183484  0.816516  0.434480  1
  Ge  Ge12  1  0.720830  0.279170  0.239706  1
  Ge  Ge13  1  0.279170  0.720830  0.760294  1
