# generated using pymatgen
data_NaPu4(NCl)4
_symmetry_space_group_name_H-M   'P 1'
_cell_length_a   3.82923700
_cell_length_b   6.59258791
_cell_length_c   10.61345601
_cell_angle_alpha   77.73971333
_cell_angle_beta   90.00000000
_cell_angle_gamma   90.00000000
_symmetry_Int_Tables_number   1
_chemical_formula_structural   NaPu4(NCl)4
_chemical_formula_sum   'Na1 Pu4 N4 Cl4'
_cell_volume   261.82152421
_cell_formula_units_Z   1
loop_
 _symmetry_equiv_pos_site_id
 _symmetry_equiv_pos_as_xyz
  1  'x, y, z'
loop_
 _atom_site_type_symbol
 _atom_site_label
 _atom_site_symmetry_multiplicity
 _atom_site_fract_x
 _atom_site_fract_y
 _atom_site_fract_z
 _atom_site_occupancy
  Na  Na0  1  0.000000  0.000000  0.000000  1
  Pu  Pu1  1  0.500000  0.711851  0.366311  1
  Pu  Pu2  1  0.000000  0.213143  0.366660  1
  Pu  Pu3  1  0.500000  0.288149  0.633689  1
  Pu  Pu4  1  0.000000  0.786857  0.633340  1
  N  N5  1  0.500000  0.639623  0.582979  1
  N  N6  1  0.000000  0.138537  0.581823  1
  N  N7  1  0.500000  0.360377  0.417021  1
  N  N8  1  0.000000  0.861463  0.418177  1
  Cl  Cl9  1  0.000000  0.386069  0.820537  1
  Cl  Cl10  1  0.500000  0.894195  0.829329  1
  Cl  Cl11  1  0.000000  0.613931  0.179463  1
  Cl  Cl12  1  0.500000  0.105805  0.170671  1
