# generated using pymatgen
data_Er4Al13Ga11Pt9
_symmetry_space_group_name_H-M   'P 1'
_cell_length_a   7.51505181
_cell_length_b   7.51863285
_cell_length_c   13.25660506
_cell_angle_alpha   84.60982105
_cell_angle_beta   100.77086518
_cell_angle_gamma   119.94898732
_symmetry_Int_Tables_number   1
_chemical_formula_structural   Er4Al13Ga11Pt9
_chemical_formula_sum   'Er4 Al13 Ga11 Pt9'
_cell_volume   637.58380020
_cell_formula_units_Z   1
loop_
 _symmetry_equiv_pos_site_id
 _symmetry_equiv_pos_as_xyz
  1  'x, y, z'
loop_
 _atom_site_type_symbol
 _atom_site_label
 _atom_site_symmetry_multiplicity
 _atom_site_fract_x
 _atom_site_fract_y
 _atom_site_fract_z
 _atom_site_occupancy
  Er  Er0  1  0.735585  0.002679  0.192507  1
  Er  Er1  1  0.264085  0.998973  0.806947  1
  Er  Er2  1  0.062452  0.662996  0.190725  1
  Er  Er3  1  0.939203  0.337098  0.808725  1
  Al  Al4  1  0.770822  0.660822  0.331538  1
  Al  Al5  1  0.852788  0.331843  0.558115  1
  Al  Al6  1  0.186728  0.999484  0.557775  1
  Al  Al7  1  0.812246  0.999199  0.440948  1
  Al  Al8  1  0.352017  0.999674  0.054607  1
  Al  Al9  1  0.648590  0.001467  0.945365  1
  Al  Al10  1  0.556476  0.994870  0.669058  1
  Al  Al11  1  0.443067  0.004553  0.331191  1
  Al  Al12  1  0.519291  0.666077  0.560627  1
  Al  Al13  1  0.478650  0.332186  0.439278  1
  Al  Al14  1  0.686296  0.668293  0.049763  1
  Al  Al15  1  0.316050  0.333960  0.951107  1
  Al  Al16  1  0.145827  0.667408  0.440922  1
  Ga  Ga17  1  0.804586  0.874187  0.814728  1
  Ga  Ga18  1  0.195236  0.125558  0.185084  1
  Ga  Ga19  1  0.982667  0.667413  0.939448  1
  Ga  Ga20  1  0.018667  0.333428  0.060783  1
  Ga  Ga21  1  0.400705  0.666397  0.815972  1
  Ga  Ga22  1  0.600346  0.336524  0.184201  1
  Ga  Ga23  1  0.885074  0.665765  0.670633  1
  Ga  Ga24  1  0.114892  0.334171  0.329605  1
  Ga  Ga25  1  0.600304  0.458221  0.815101  1
  Ga  Ga26  1  0.402719  0.543281  0.185240  1
  Ga  Ga27  1  0.228001  0.336883  0.672079  1
  Pt  Pt28  1  0.336490  0.674439  0.001163  1
  Pt  Pt29  1  0.545640  0.321696  0.635153  1
  Pt  Pt30  1  0.456221  0.676705  0.364829  1
  Pt  Pt31  1  0.882264  0.005784  0.635290  1
  Pt  Pt32  1  0.111695  0.988675  0.363179  1
  Pt  Pt33  1  0.664278  0.326136  0.999434  1
  Pt  Pt34  1  0.208402  0.669636  0.635712  1
  Pt  Pt35  1  0.791260  0.332936  0.363752  1
  Pt  Pt36  1  0.000380  0.000581  0.999412  1
