# generated using pymatgen
data_Cs2RbScSb2
_symmetry_space_group_name_H-M   'P 1'
_cell_length_a   10.32960511
_cell_length_b   10.32949085
_cell_length_c   10.32960638
_cell_angle_alpha   129.85476903
_cell_angle_beta   68.15660092
_cell_angle_gamma   136.99065382
_symmetry_Int_Tables_number   1
_chemical_formula_structural   Cs2RbScSb2
_chemical_formula_sum   'Cs4 Rb2 Sc2 Sb4'
_cell_volume   567.24636389
_cell_formula_units_Z   2
loop_
 _symmetry_equiv_pos_site_id
 _symmetry_equiv_pos_as_xyz
  1  'x, y, z'
loop_
 _atom_site_type_symbol
 _atom_site_label
 _atom_site_symmetry_multiplicity
 _atom_site_fract_x
 _atom_site_fract_y
 _atom_site_fract_z
 _atom_site_occupancy
  Cs  Cs0  1  0.322236  0.775133  0.097361  1
  Cs  Cs1  1  0.177771  0.275132  0.452896  1
  Cs  Cs2  1  0.822229  0.724868  0.547103  1
  Cs  Cs3  1  0.677764  0.224868  0.902639  1
  Rb  Rb4  1  0.249999  0.250000  0.999999  1
  Rb  Rb5  1  0.750001  0.750000  0.000001  1
  Sc  Sc6  1  0.750019  0.250000  0.500020  1
  Sc  Sc7  1  0.249980  0.750000  0.499980  1
  Sb  Sb8  1  0.910103  0.314816  0.224918  1
  Sb  Sb9  1  0.589898  0.814816  0.404713  1
  Sb  Sb10  1  0.410103  0.185184  0.595288  1
  Sb  Sb11  1  0.089898  0.685184  0.775082  1
