# generated using pymatgen
data_Tb18DyCdIr12
_symmetry_space_group_name_H-M   'P 1'
_cell_length_a   10.92991200
_cell_length_b   10.92991200
_cell_length_c   6.34334200
_cell_angle_alpha   90.00000000
_cell_angle_beta   90.00000000
_cell_angle_gamma   90.00000000
_symmetry_Int_Tables_number   1
_chemical_formula_structural   Tb18DyCdIr12
_chemical_formula_sum   'Tb18 Dy1 Cd1 Ir12'
_cell_volume   757.79451518
_cell_formula_units_Z   1
loop_
 _symmetry_equiv_pos_site_id
 _symmetry_equiv_pos_as_xyz
  1  'x, y, z'
loop_
 _atom_site_type_symbol
 _atom_site_label
 _atom_site_symmetry_multiplicity
 _atom_site_fract_x
 _atom_site_fract_y
 _atom_site_fract_z
 _atom_site_occupancy
  Tb  Tb0  1  0.282078  0.083906  0.380186  1
  Tb  Tb1  1  0.291557  0.911451  0.879228  1
  Tb  Tb2  1  0.708443  0.088549  0.879228  1
  Tb  Tb3  1  0.717922  0.916094  0.380186  1
  Tb  Tb4  1  0.588674  0.791989  0.881936  1
  Tb  Tb5  1  0.587312  0.207806  0.378242  1
  Tb  Tb6  1  0.412688  0.792194  0.378242  1
  Tb  Tb7  1  0.411326  0.208011  0.881936  1
  Tb  Tb8  1  0.207806  0.412688  0.621758  1
  Tb  Tb9  1  0.208011  0.588674  0.118064  1
  Tb  Tb10  1  0.791989  0.411326  0.118064  1
  Tb  Tb11  1  0.792194  0.587312  0.621758  1
  Tb  Tb12  1  0.911451  0.708443  0.120772  1
  Tb  Tb13  1  0.916094  0.282078  0.619814  1
  Tb  Tb14  1  0.083906  0.717922  0.619814  1
  Tb  Tb15  1  0.088549  0.291557  0.120772  1
  Tb  Tb16  1  0.000000  0.000000  0.000000  1
  Tb  Tb17  1  0.500000  0.500000  0.000000  1
  Dy  Dy18  1  0.500000  0.500000  0.500000  1
  Cd  Cd19  1  0.000000  0.000000  0.500000  1
  Ir  Ir20  1  0.843791  0.157815  0.241350  1
  Ir  Ir21  1  0.842185  0.843791  0.758650  1
  Ir  Ir22  1  0.157815  0.156209  0.758650  1
  Ir  Ir23  1  0.156209  0.842185  0.241350  1
  Ir  Ir24  1  0.655117  0.346308  0.746435  1
  Ir  Ir25  1  0.653692  0.655117  0.253565  1
  Ir  Ir26  1  0.346308  0.344883  0.253565  1
  Ir  Ir27  1  0.344883  0.653692  0.746435  1
  Ir  Ir28  1  0.500000  0.000000  0.125521  1
  Ir  Ir29  1  0.500000  0.000000  0.619730  1
  Ir  Ir30  1  0.000000  0.500000  0.874479  1
  Ir  Ir31  1  0.000000  0.500000  0.380270  1
