# generated using pymatgen
data_Zr2NbB2Os5
_symmetry_space_group_name_H-M   'P 1'
_cell_length_a   9.58793600
_cell_length_b   9.58793600
_cell_length_c   3.12731900
_cell_angle_alpha   90.00000000
_cell_angle_beta   90.00000000
_cell_angle_gamma   90.00000000
_symmetry_Int_Tables_number   1
_chemical_formula_structural   Zr2NbB2Os5
_chemical_formula_sum   'Zr4 Nb2 B4 Os10'
_cell_volume   287.48979704
_cell_formula_units_Z   2
loop_
 _symmetry_equiv_pos_site_id
 _symmetry_equiv_pos_as_xyz
  1  'x, y, z'
loop_
 _atom_site_type_symbol
 _atom_site_label
 _atom_site_symmetry_multiplicity
 _atom_site_fract_x
 _atom_site_fract_y
 _atom_site_fract_z
 _atom_site_occupancy
  Zr  Zr0  1  0.823551  0.676449  0.000000  1
  Zr  Zr1  1  0.176449  0.323551  0.000000  1
  Zr  Zr2  1  0.323551  0.823551  0.000000  1
  Zr  Zr3  1  0.676449  0.176449  0.000000  1
  Nb  Nb4  1  0.500000  0.500000  0.000000  1
  Nb  Nb5  1  0.000000  0.000000  0.000000  1
  B  B6  1  0.620914  0.879086  0.000000  1
  B  B7  1  0.379086  0.120914  0.000000  1
  B  B8  1  0.120914  0.620914  0.000000  1
  B  B9  1  0.879086  0.379086  0.000000  1
  Os  Os10  1  0.570225  0.719103  0.500000  1
  Os  Os11  1  0.429775  0.280897  0.500000  1
  Os  Os12  1  0.070225  0.780897  0.500000  1
  Os  Os13  1  0.929775  0.219103  0.500000  1
  Os  Os14  1  0.280897  0.570225  0.500000  1
  Os  Os15  1  0.719103  0.429775  0.500000  1
  Os  Os16  1  0.219103  0.070225  0.500000  1
  Os  Os17  1  0.780897  0.929775  0.500000  1
  Os  Os18  1  0.500000  0.000000  0.500000  1
  Os  Os19  1  0.000000  0.500000  0.500000  1
