# generated using pymatgen
data_TmNp6VSb10
_symmetry_space_group_name_H-M   'P 1'
_cell_length_a   9.22439200
_cell_length_b   9.22439217
_cell_length_c   6.19485300
_cell_angle_alpha   90.00000000
_cell_angle_beta   90.00000000
_cell_angle_gamma   119.99999940
_symmetry_Int_Tables_number   1
_chemical_formula_structural   TmNp6VSb10
_chemical_formula_sum   'Tm1 Np6 V1 Sb10'
_cell_volume   456.49618082
_cell_formula_units_Z   1
loop_
 _symmetry_equiv_pos_site_id
 _symmetry_equiv_pos_as_xyz
  1  'x, y, z'
loop_
 _atom_site_type_symbol
 _atom_site_label
 _atom_site_symmetry_multiplicity
 _atom_site_fract_x
 _atom_site_fract_y
 _atom_site_fract_z
 _atom_site_occupancy
  Tm  Tm0  1  0.000000  0.000000  0.000000  1
  Np  Np1  1  0.387773  0.387773  0.755923  1
  Np  Np2  1  0.612227  0.000000  0.755923  1
  Np  Np3  1  0.000000  0.612227  0.755923  1
  Np  Np4  1  0.612227  0.612227  0.244077  1
  Np  Np5  1  0.387773  0.000000  0.244077  1
  Np  Np6  1  0.000000  0.387773  0.244077  1
  V  V7  1  0.000000  0.000000  0.500000  1
  Sb  Sb8  1  0.733225  0.733225  0.733602  1
  Sb  Sb9  1  0.266775  0.000000  0.733602  1
  Sb  Sb10  1  0.000000  0.266775  0.733602  1
  Sb  Sb11  1  0.266775  0.266775  0.266398  1
  Sb  Sb12  1  0.733225  0.000000  0.266398  1
  Sb  Sb13  1  0.000000  0.733225  0.266398  1
  Sb  Sb14  1  0.666667  0.333333  0.000000  1
  Sb  Sb15  1  0.333333  0.666667  0.000000  1
  Sb  Sb16  1  0.333333  0.666667  0.500000  1
  Sb  Sb17  1  0.666667  0.333333  0.500000  1
