# generated using pymatgen
data_Dy4Ga12Co
_symmetry_space_group_name_H-M   'P 1'
_cell_length_a   7.43014322
_cell_length_b   7.43014168
_cell_length_c   7.43014209
_cell_angle_alpha   109.46578902
_cell_angle_beta   109.46579132
_cell_angle_gamma   109.46579774
_symmetry_Int_Tables_number   1
_chemical_formula_structural   Dy4Ga12Co
_chemical_formula_sum   'Dy4 Ga12 Co1'
_cell_volume   315.83245459
_cell_formula_units_Z   1
loop_
 _symmetry_equiv_pos_site_id
 _symmetry_equiv_pos_as_xyz
  1  'x, y, z'
loop_
 _atom_site_type_symbol
 _atom_site_label
 _atom_site_symmetry_multiplicity
 _atom_site_fract_x
 _atom_site_fract_y
 _atom_site_fract_z
 _atom_site_occupancy
  Dy  Dy0  1  0.500000  0.500000  0.500000  1
  Dy  Dy1  1  0.000000  0.000000  0.500000  1
  Dy  Dy2  1  0.000000  0.500000  0.000000  1
  Dy  Dy3  1  0.500000  0.000000  0.000000  1
  Ga  Ga4  1  0.749951  0.250049  0.500000  1
  Ga  Ga5  1  0.749951  0.500000  0.250049  1
  Ga  Ga6  1  0.500000  0.250049  0.749951  1
  Ga  Ga7  1  0.250049  0.500000  0.749951  1
  Ga  Ga8  1  0.250049  0.749951  0.500000  1
  Ga  Ga9  1  0.500000  0.749951  0.250049  1
  Ga  Ga10  1  0.717570  0.717570  0.999983  1
  Ga  Ga11  1  0.282430  0.000017  0.282430  1
  Ga  Ga12  1  0.000017  0.282430  0.282430  1
  Ga  Ga13  1  0.282430  0.282430  0.000017  1
  Ga  Ga14  1  0.717570  0.999983  0.717570  1
  Ga  Ga15  1  0.999983  0.717570  0.717570  1
  Co  Co16  1  0.000000  0.000000  0.000000  1
