# generated using pymatgen
data_AcTi3(BiO4)3
_symmetry_space_group_name_H-M   'P 1'
_cell_length_a   5.47130500
_cell_length_b   5.49294360
_cell_length_c   17.04518800
_cell_angle_alpha   80.92804929
_cell_angle_beta   90.00000000
_cell_angle_gamma   90.00000000
_symmetry_Int_Tables_number   1
_chemical_formula_structural   AcTi3(BiO4)3
_chemical_formula_sum   'Ac2 Ti6 Bi6 O24'
_cell_volume   505.86083617
_cell_formula_units_Z   2
loop_
 _symmetry_equiv_pos_site_id
 _symmetry_equiv_pos_as_xyz
  1  'x, y, z'
loop_
 _atom_site_type_symbol
 _atom_site_label
 _atom_site_symmetry_multiplicity
 _atom_site_fract_x
 _atom_site_fract_y
 _atom_site_fract_z
 _atom_site_occupancy
  Ac  Ac0  1  0.250893  0.124700  0.868506  1
  Ac  Ac1  1  0.749107  0.624700  0.868506  1
  Ti  Ti2  1  0.751094  0.056347  0.998953  1
  Ti  Ti3  1  0.248906  0.556347  0.998953  1
  Ti  Ti4  1  0.748792  0.189777  0.738453  1
  Ti  Ti5  1  0.251208  0.689777  0.738453  1
  Ti  Ti6  1  0.751776  0.928450  0.255165  1
  Ti  Ti7  1  0.248224  0.428450  0.255165  1
  Bi  Bi8  1  0.273263  0.197777  0.575085  1
  Bi  Bi9  1  0.726737  0.697777  0.575085  1
  Bi  Bi10  1  0.256714  0.941365  0.133951  1
  Bi  Bi11  1  0.743286  0.441365  0.133951  1
  Bi  Bi12  1  0.227430  0.776627  0.422538  1
  Bi  Bi13  1  0.772570  0.276627  0.422538  1
  O  O14  1  0.466623  0.307119  0.984848  1
  O  O15  1  0.533377  0.807119  0.984848  1
  O  O16  1  0.507103  0.010612  0.496108  1
  O  O17  1  0.492897  0.510612  0.496108  1
  O  O18  1  0.788836  0.135265  0.884224  1
  O  O19  1  0.211164  0.635265  0.884224  1
  O  O20  1  0.699816  0.251703  0.633537  1
  O  O21  1  0.300184  0.751703  0.633537  1
  O  O22  1  0.497318  0.429831  0.769946  1
  O  O23  1  0.502682  0.929831  0.769946  1
  O  O24  1  0.997863  0.438470  0.754985  1
  O  O25  1  0.002137  0.938470  0.754985  1
  O  O26  1  0.957499  0.369942  0.010138  1
  O  O27  1  0.042501  0.869942  0.010138  1
  O  O28  1  0.992419  0.510269  0.499838  1
  O  O29  1  0.007581  0.010269  0.499838  1
  O  O30  1  0.685397  0.040988  0.115785  1
  O  O31  1  0.314603  0.540988  0.115785  1
  O  O32  1  0.809901  0.884536  0.358695  1
  O  O33  1  0.190099  0.384536  0.358695  1
  O  O34  1  0.020634  0.194335  0.219624  1
  O  O35  1  0.979366  0.694335  0.219624  1
  O  O36  1  0.539549  0.240288  0.245421  1
  O  O37  1  0.460451  0.740288  0.245421  1
