# generated using pymatgen
data_Nd2Al3Re14C3
_symmetry_space_group_name_H-M   'P 1'
_cell_length_a   7.00103111
_cell_length_b   7.00103093
_cell_length_c   7.00103000
_cell_angle_alpha   82.62946792
_cell_angle_beta   82.62946952
_cell_angle_gamma   82.62946056
_symmetry_Int_Tables_number   1
_chemical_formula_structural   Nd2Al3Re14C3
_chemical_formula_sum   'Nd2 Al3 Re14 C3'
_cell_volume   335.31556712
_cell_formula_units_Z   1
loop_
 _symmetry_equiv_pos_site_id
 _symmetry_equiv_pos_as_xyz
  1  'x, y, z'
loop_
 _atom_site_type_symbol
 _atom_site_label
 _atom_site_symmetry_multiplicity
 _atom_site_fract_x
 _atom_site_fract_y
 _atom_site_fract_z
 _atom_site_occupancy
  Nd  Nd0  1  0.657189  0.657189  0.657189  1
  Nd  Nd1  1  0.342811  0.342811  0.342811  1
  Al  Al2  1  0.000000  0.000000  0.500000  1
  Al  Al3  1  0.500000  0.000000  0.000000  1
  Al  Al4  1  0.000000  0.500000  0.000000  1
  Re  Re5  1  0.721498  0.278502  0.000000  1
  Re  Re6  1  0.000000  0.721498  0.278502  1
  Re  Re7  1  0.278502  0.000000  0.721498  1
  Re  Re8  1  0.000000  0.278502  0.721498  1
  Re  Re9  1  0.721498  0.000000  0.278502  1
  Re  Re10  1  0.278502  0.721498  0.000000  1
  Re  Re11  1  0.349071  0.349071  0.850131  1
  Re  Re12  1  0.850131  0.349071  0.349071  1
  Re  Re13  1  0.349071  0.850131  0.349071  1
  Re  Re14  1  0.650929  0.650929  0.149869  1
  Re  Re15  1  0.149869  0.650929  0.650929  1
  Re  Re16  1  0.650929  0.149869  0.650929  1
  Re  Re17  1  0.903869  0.903869  0.903869  1
  Re  Re18  1  0.096131  0.096131  0.096131  1
  C  C19  1  0.500000  0.500000  0.000000  1
  C  C20  1  0.000000  0.500000  0.500000  1
  C  C21  1  0.500000  0.000000  0.500000  1
