# generated using pymatgen
data_Pr2Ga5PdRh2
_symmetry_space_group_name_H-M   'P 1'
_cell_length_a   8.73086015
_cell_length_b   8.73912742
_cell_length_c   8.73864394
_cell_angle_alpha   141.19898123
_cell_angle_beta   107.97593903
_cell_angle_gamma   84.96161265
_symmetry_Int_Tables_number   1
_chemical_formula_structural   Pr2Ga5PdRh2
_chemical_formula_sum   'Pr4 Ga10 Pd2 Rh4'
_cell_volume   384.14680592
_cell_formula_units_Z   2
loop_
 _symmetry_equiv_pos_site_id
 _symmetry_equiv_pos_as_xyz
  1  'x, y, z'
loop_
 _atom_site_type_symbol
 _atom_site_label
 _atom_site_symmetry_multiplicity
 _atom_site_fract_x
 _atom_site_fract_y
 _atom_site_fract_z
 _atom_site_occupancy
  Pr  Pr0  1  0.863832  0.634857  0.229027  1
  Pr  Pr1  1  0.136168  0.365143  0.770973  1
  Pr  Pr2  1  0.590405  0.863549  0.727047  1
  Pr  Pr3  1  0.409595  0.136451  0.272953  1
  Ga  Ga4  1  0.500048  0.743692  0.243735  1
  Ga  Ga5  1  0.499952  0.256308  0.756265  1
  Ga  Ga6  1  0.209616  0.959764  0.754978  1
  Ga  Ga7  1  0.790522  0.545433  0.750299  1
  Ga  Ga8  1  0.790384  0.040236  0.245022  1
  Ga  Ga9  1  0.209478  0.454567  0.249701  1
  Ga  Ga10  1  0.073369  0.908648  0.164751  1
  Ga  Ga11  1  0.926631  0.091352  0.835249  1
  Ga  Ga12  1  0.261284  0.592359  0.668886  1
  Ga  Ga13  1  0.738716  0.407641  0.331114  1
  Pd  Pd14  1  0.258675  0.853796  0.404796  1
  Pd  Pd15  1  0.741325  0.146204  0.595204  1
  Rh  Rh16  1  0.552058  0.645715  0.906288  1
  Rh  Rh17  1  0.447942  0.354285  0.093712  1
  Rh  Rh18  1  0.000004  0.749743  0.749746  1
  Rh  Rh19  1  0.999996  0.250257  0.250254  1
