# generated using pymatgen
data_NdPa3(InPt2)2
_symmetry_space_group_name_H-M   'P 1'
_cell_length_a   7.87820603
_cell_length_b   7.87820708
_cell_length_c   3.69657000
_cell_angle_alpha   90.00000000
_cell_angle_beta   90.00000000
_cell_angle_gamma   91.33027807
_symmetry_Int_Tables_number   1
_chemical_formula_structural   NdPa3(InPt2)2
_chemical_formula_sum   'Nd1 Pa3 In2 Pt4'
_cell_volume   229.36998949
_cell_formula_units_Z   1
loop_
 _symmetry_equiv_pos_site_id
 _symmetry_equiv_pos_as_xyz
  1  'x, y, z'
loop_
 _atom_site_type_symbol
 _atom_site_label
 _atom_site_symmetry_multiplicity
 _atom_site_fract_x
 _atom_site_fract_y
 _atom_site_fract_z
 _atom_site_occupancy
  Nd  Nd0  1  0.175184  0.324816  0.500000  1
  Pa  Pa1  1  0.672710  0.172764  0.500000  1
  Pa  Pa2  1  0.327236  0.827290  0.500000  1
  Pa  Pa3  1  0.830072  0.669928  0.500000  1
  In  In4  1  0.495752  0.500600  0.000000  1
  In  In5  1  0.999400  0.004248  0.000000  1
  Pt  Pt6  1  0.386401  0.113599  0.000000  1
  Pt  Pt7  1  0.122011  0.646668  0.000000  1
  Pt  Pt8  1  0.853332  0.377989  0.000000  1
  Pt  Pt9  1  0.637901  0.862099  0.000000  1
