# generated using pymatgen
data_RbCl37
_symmetry_space_group_name_H-M   'P 1'
_cell_length_a   13.74482266
_cell_length_b   11.84004527
_cell_length_c   12.64763246
_cell_angle_alpha   106.17471887
_cell_angle_beta   63.07659642
_cell_angle_gamma   80.37170078
_symmetry_Int_Tables_number   1
_chemical_formula_structural   RbCl37
_chemical_formula_sum   'Rb1 Cl37'
_cell_volume   1655.85673976
_cell_formula_units_Z   1
loop_
 _symmetry_equiv_pos_site_id
 _symmetry_equiv_pos_as_xyz
  1  'x, y, z'
loop_
 _atom_site_type_symbol
 _atom_site_label
 _atom_site_symmetry_multiplicity
 _atom_site_fract_x
 _atom_site_fract_y
 _atom_site_fract_z
 _atom_site_occupancy
  Rb  Rb0  1  0.500000  0.000000  0.000000  1
  Cl  Cl1  1  0.785074  0.314649  0.113013  1
  Cl  Cl2  1  0.214926  0.685351  0.886987  1
  Cl  Cl3  1  0.739765  0.049904  0.332619  1
  Cl  Cl4  1  0.260235  0.950096  0.667381  1
  Cl  Cl5  1  0.162635  0.216112  0.043447  1
  Cl  Cl6  1  0.837365  0.783888  0.956553  1
  Cl  Cl7  1  0.885271  0.578176  0.219351  1
  Cl  Cl8  1  0.114729  0.421824  0.780649  1
  Cl  Cl9  1  0.671170  0.301707  0.525890  1
  Cl  Cl10  1  0.328830  0.698293  0.474110  1
  Cl  Cl11  1  0.032186  0.149672  0.526262  1
  Cl  Cl12  1  0.967814  0.850328  0.473738  1
  Cl  Cl13  1  0.905183  0.983904  0.281166  1
  Cl  Cl14  1  0.094817  0.016096  0.718834  1
  Cl  Cl15  1  0.958422  0.375610  0.615910  1
  Cl  Cl16  1  0.041578  0.624390  0.384090  1
  Cl  Cl17  1  0.613238  0.404446  0.200517  1
  Cl  Cl18  1  0.386762  0.595554  0.799483  1
  Cl  Cl19  1  0.131356  0.431767  0.309284  1
  Cl  Cl20  1  0.868644  0.568233  0.690716  1
  Cl  Cl21  1  0.000000  0.500000  0.000000  1
  Cl  Cl22  1  0.521041  0.923788  0.238151  1
  Cl  Cl23  1  0.478959  0.076212  0.761849  1
  Cl  Cl24  1  0.170996  0.016320  0.305332  1
  Cl  Cl25  1  0.829004  0.983680  0.694668  1
  Cl  Cl26  1  0.469595  0.145096  0.424493  1
  Cl  Cl27  1  0.530405  0.854904  0.575507  1
  Cl  Cl28  1  0.004044  0.202590  0.125899  1
  Cl  Cl29  1  0.995956  0.797410  0.874101  1
  Cl  Cl30  1  0.689968  0.740606  0.400410  1
  Cl  Cl31  1  0.310032  0.259394  0.599590  1
  Cl  Cl32  1  0.706284  0.121507  0.891721  1
  Cl  Cl33  1  0.293716  0.878493  0.108279  1
  Cl  Cl34  1  0.401024  0.241120  0.923550  1
  Cl  Cl35  1  0.598976  0.758880  0.076450  1
  Cl  Cl36  1  0.640344  0.466937  0.657744  1
  Cl  Cl37  1  0.359656  0.533063  0.342256  1
