# generated using pymatgen
data_SrTmF5
_symmetry_space_group_name_H-M   'P 1'
_cell_length_a   8.13714931
_cell_length_b   8.13714942
_cell_length_c   5.72610865
_cell_angle_alpha   89.13157936
_cell_angle_beta   89.13157363
_cell_angle_gamma   149.35962469
_symmetry_Int_Tables_number   1
_chemical_formula_structural   SrTmF5
_chemical_formula_sum   'Sr2 Tm2 F10'
_cell_volume   192.91172371
_cell_formula_units_Z   2
loop_
 _symmetry_equiv_pos_site_id
 _symmetry_equiv_pos_as_xyz
  1  'x, y, z'
loop_
 _atom_site_type_symbol
 _atom_site_label
 _atom_site_symmetry_multiplicity
 _atom_site_fract_x
 _atom_site_fract_y
 _atom_site_fract_z
 _atom_site_occupancy
  Sr  Sr0  1  0.324192  0.675808  0.750000  1
  Sr  Sr1  1  0.675808  0.324192  0.250000  1
  Tm  Tm2  1  0.074776  0.925224  0.750000  1
  Tm  Tm3  1  0.925224  0.074776  0.250000  1
  F  F4  1  0.732626  0.806986  0.599980  1
  F  F5  1  0.806986  0.732626  0.099980  1
  F  F6  1  0.803223  0.178186  0.005287  1
  F  F7  1  0.620376  0.379624  0.750000  1
  F  F8  1  0.821814  0.196777  0.494713  1
  F  F9  1  0.178186  0.803223  0.505287  1
  F  F10  1  0.379624  0.620376  0.250000  1
  F  F11  1  0.196777  0.821814  0.994713  1
  F  F12  1  0.193014  0.267374  0.900020  1
  F  F13  1  0.267374  0.193014  0.400020  1
