# generated using pymatgen
data_LaNd4Pt19
_symmetry_space_group_name_H-M   'P 1'
_cell_length_a   5.46599132
_cell_length_b   5.46599116
_cell_length_c   18.09502326
_cell_angle_alpha   81.31305037
_cell_angle_beta   81.31305030
_cell_angle_gamma   59.99999396
_symmetry_Int_Tables_number   1
_chemical_formula_structural   LaNd4Pt19
_chemical_formula_sum   'La1 Nd4 Pt19'
_cell_volume   461.02067477
_cell_formula_units_Z   1
loop_
 _symmetry_equiv_pos_site_id
 _symmetry_equiv_pos_as_xyz
  1  'x, y, z'
loop_
 _atom_site_type_symbol
 _atom_site_label
 _atom_site_symmetry_multiplicity
 _atom_site_fract_x
 _atom_site_fract_y
 _atom_site_fract_z
 _atom_site_occupancy
  La  La0  1  0.000000  0.000000  0.000000  1
  Nd  Nd1  1  0.077380  0.077380  0.767858  1
  Nd  Nd2  1  0.922620  0.922620  0.232142  1
  Nd  Nd3  1  0.152095  0.152095  0.543713  1
  Nd  Nd4  1  0.847905  0.847905  0.456287  1
  Pt  Pt5  1  0.500000  0.500000  0.500000  1
  Pt  Pt6  1  0.250064  0.250064  0.249807  1
  Pt  Pt7  1  0.749936  0.749936  0.750193  1
  Pt  Pt8  1  0.333246  0.333246  0.000263  1
  Pt  Pt9  1  0.666754  0.666754  0.999737  1
  Pt  Pt10  1  0.416267  0.416267  0.751200  1
  Pt  Pt11  1  0.583733  0.583733  0.248800  1
  Pt  Pt12  1  0.122317  0.626500  0.624683  1
  Pt  Pt13  1  0.626500  0.626500  0.624683  1
  Pt  Pt14  1  0.626500  0.122317  0.624683  1
  Pt  Pt15  1  0.877683  0.373500  0.375317  1
  Pt  Pt16  1  0.373500  0.373500  0.375317  1
  Pt  Pt17  1  0.373500  0.877683  0.375317  1
  Pt  Pt18  1  0.041298  0.541309  0.876084  1
  Pt  Pt19  1  0.541309  0.541309  0.876084  1
  Pt  Pt20  1  0.541309  0.041298  0.876084  1
  Pt  Pt21  1  0.958702  0.458691  0.123916  1
  Pt  Pt22  1  0.458691  0.458691  0.123916  1
  Pt  Pt23  1  0.458691  0.958702  0.123916  1
