# generated using pymatgen
data_La2Gd3DyTa2O14
_symmetry_space_group_name_H-M   'P 1'
_cell_length_a   6.58753317
_cell_length_b   6.57849604
_cell_length_c   7.67538200
_cell_angle_alpha   90.00000000
_cell_angle_beta   90.00000000
_cell_angle_gamma   110.17351781
_symmetry_Int_Tables_number   1
_chemical_formula_structural   La2Gd3DyTa2O14
_chemical_formula_sum   'La2 Gd3 Dy1 Ta2 O14'
_cell_volume   312.21537245
_cell_formula_units_Z   1
loop_
 _symmetry_equiv_pos_site_id
 _symmetry_equiv_pos_as_xyz
  1  'x, y, z'
loop_
 _atom_site_type_symbol
 _atom_site_label
 _atom_site_symmetry_multiplicity
 _atom_site_fract_x
 _atom_site_fract_y
 _atom_site_fract_z
 _atom_site_occupancy
  La  La0  1  0.999731  0.999552  0.999185  1
  La  La1  1  0.999731  0.999552  0.500815  1
  Gd  Gd2  1  0.516163  0.055286  0.250000  1
  Gd  Gd3  1  0.944386  0.483791  0.750000  1
  Gd  Gd4  1  0.055466  0.515943  0.250000  1
  Dy  Dy5  1  0.484996  0.947218  0.750000  1
  Ta  Ta6  1  0.499632  0.499965  0.999356  1
  Ta  Ta7  1  0.499632  0.499965  0.500644  1
  O  O8  1  0.882123  0.156701  0.250000  1
  O  O9  1  0.839762  0.115982  0.750000  1
  O  O10  1  0.816807  0.560187  0.033521  1
  O  O11  1  0.816807  0.560187  0.466479  1
  O  O12  1  0.442303  0.183333  0.963396  1
  O  O13  1  0.442303  0.183333  0.536604  1
  O  O14  1  0.571075  0.573069  0.750000  1
  O  O15  1  0.429963  0.428592  0.250000  1
  O  O16  1  0.557507  0.817601  0.030561  1
  O  O17  1  0.182208  0.438533  0.533090  1
  O  O18  1  0.557507  0.817601  0.469439  1
  O  O19  1  0.182208  0.438533  0.966910  1
  O  O20  1  0.121797  0.842121  0.750000  1
  O  O21  1  0.157892  0.882953  0.250000  1
