# generated using pymatgen
data_RbLuMnS3
_symmetry_space_group_name_H-M   'P 1'
_cell_length_a   7.72274715
_cell_length_b   7.72274656
_cell_length_c   10.47839400
_cell_angle_alpha   90.00000000
_cell_angle_beta   90.00000000
_cell_angle_gamma   149.91460382
_symmetry_Int_Tables_number   1
_chemical_formula_structural   RbLuMnS3
_chemical_formula_sum   'Rb2 Lu2 Mn2 S6'
_cell_volume   313.27630170
_cell_formula_units_Z   2
loop_
 _symmetry_equiv_pos_site_id
 _symmetry_equiv_pos_as_xyz
  1  'x, y, z'
loop_
 _atom_site_type_symbol
 _atom_site_label
 _atom_site_symmetry_multiplicity
 _atom_site_fract_x
 _atom_site_fract_y
 _atom_site_fract_z
 _atom_site_occupancy
  Rb  Rb0  1  0.760941  0.239060  0.250000  1
  Rb  Rb1  1  0.239060  0.760941  0.750000  1
  Lu  Lu2  1  0.500001  0.500001  0.000000  1
  Lu  Lu3  1  0.500001  0.500001  0.500000  1
  Mn  Mn4  1  0.040090  0.959911  0.250000  1
  Mn  Mn5  1  0.959911  0.040090  0.750000  1
  S  S6  1  0.116527  0.883475  0.055330  1
  S  S7  1  0.446507  0.553494  0.250000  1
  S  S8  1  0.116527  0.883475  0.444670  1
  S  S9  1  0.883475  0.116527  0.555330  1
  S  S10  1  0.553494  0.446507  0.750000  1
  S  S11  1  0.883475  0.116527  0.944670  1
