# generated using pymatgen
data_Sr10AlRe3N14
_symmetry_space_group_name_H-M   'P 1'
_cell_length_a   6.45283821
_cell_length_b   9.27504504
_cell_length_c   9.30088552
_cell_angle_alpha   114.09819505
_cell_angle_beta   97.87559657
_cell_angle_gamma   89.75057522
_symmetry_Int_Tables_number   1
_chemical_formula_structural   Sr10AlRe3N14
_chemical_formula_sum   'Sr10 Al1 Re3 N14'
_cell_volume   502.53381065
_cell_formula_units_Z   1
loop_
 _symmetry_equiv_pos_site_id
 _symmetry_equiv_pos_as_xyz
  1  'x, y, z'
loop_
 _atom_site_type_symbol
 _atom_site_label
 _atom_site_symmetry_multiplicity
 _atom_site_fract_x
 _atom_site_fract_y
 _atom_site_fract_z
 _atom_site_occupancy
  Sr  Sr0  1  0.854245  0.578576  0.340174  1
  Sr  Sr1  1  0.263628  0.994672  0.557123  1
  Sr  Sr2  1  0.696447  0.406567  0.835761  1
  Sr  Sr3  1  0.299871  0.584713  0.154939  1
  Sr  Sr4  1  0.398368  0.782132  0.904590  1
  Sr  Sr5  1  0.606519  0.214409  0.108185  1
  Sr  Sr6  1  0.153462  0.403416  0.651120  1
  Sr  Sr7  1  0.882124  0.848793  0.759782  1
  Sr  Sr8  1  0.118553  0.159099  0.251481  1
  Sr  Sr9  1  0.731687  0.034407  0.436664  1
  Al  Al10  1  0.580366  0.356385  0.475352  1
  Re  Re11  1  0.418006  0.655786  0.526801  1
  Re  Re12  1  0.123080  0.216570  0.917364  1
  Re  Re13  1  0.875670  0.776445  0.082576  1
  N  N14  1  0.535290  0.544260  0.661657  1
  N  N15  1  0.468620  0.453459  0.338265  1
  N  N16  1  0.157813  0.717064  0.576162  1
  N  N17  1  0.849888  0.295886  0.424170  1
  N  N18  1  0.412809  0.191425  0.479265  1
  N  N19  1  0.585264  0.811117  0.520790  1
  N  N20  1  0.952304  0.139353  0.723034  1
  N  N21  1  0.041260  0.850030  0.277651  1
  N  N22  1  0.228163  0.054565  0.965610  1
  N  N23  1  0.766569  0.941596  0.039662  1
  N  N24  1  0.351228  0.328770  0.908541  1
  N  N25  1  0.972323  0.345181  0.072852  1
  N  N26  1  0.027550  0.655869  0.923509  1
  N  N27  1  0.648895  0.659454  0.086920  1
