# generated using pymatgen
data_ErTh3Zn4Ru3Rh
_symmetry_space_group_name_H-M   'P 1'
_cell_length_a   3.98474100
_cell_length_b   7.06331272
_cell_length_c   8.44513971
_cell_angle_alpha   90.25513153
_cell_angle_beta   90.00000000
_cell_angle_gamma   90.00000000
_symmetry_Int_Tables_number   1
_chemical_formula_structural   ErTh3Zn4Ru3Rh
_chemical_formula_sum   'Er1 Th3 Zn4 Ru3 Rh1'
_cell_volume   237.69008487
_cell_formula_units_Z   1
loop_
 _symmetry_equiv_pos_site_id
 _symmetry_equiv_pos_as_xyz
  1  'x, y, z'
loop_
 _atom_site_type_symbol
 _atom_site_label
 _atom_site_symmetry_multiplicity
 _atom_site_fract_x
 _atom_site_fract_y
 _atom_site_fract_z
 _atom_site_occupancy
  Er  Er0  1  0.250000  0.046105  0.314001  1
  Th  Th1  1  0.250000  0.541186  0.184864  1
  Th  Th2  1  0.750000  0.461067  0.813764  1
  Th  Th3  1  0.750000  0.959253  0.682972  1
  Zn  Zn4  1  0.250000  0.622978  0.553652  1
  Zn  Zn5  1  0.750000  0.358054  0.442191  1
  Zn  Zn6  1  0.750000  0.883249  0.063302  1
  Zn  Zn7  1  0.250000  0.126823  0.950121  1
  Ru  Ru8  1  0.250000  0.747858  0.866178  1
  Ru  Ru9  1  0.750000  0.268563  0.127947  1
  Ru  Ru10  1  0.250000  0.237743  0.634580  1
  Rh  Rh11  1  0.750000  0.747119  0.366430  1
