# generated using pymatgen
data_Ac3Si2S8I
_symmetry_space_group_name_H-M   'P 1'
_cell_length_a   9.29703504
_cell_length_b   9.29703488
_cell_length_c   11.18057355
_cell_angle_alpha   83.03659926
_cell_angle_beta   96.96340092
_cell_angle_gamma   127.67150752
_symmetry_Int_Tables_number   1
_chemical_formula_structural   Ac3Si2S8I
_chemical_formula_sum   'Ac6 Si4 S16 I2'
_cell_volume   757.91496604
_cell_formula_units_Z   2
loop_
 _symmetry_equiv_pos_site_id
 _symmetry_equiv_pos_as_xyz
  1  'x, y, z'
loop_
 _atom_site_type_symbol
 _atom_site_label
 _atom_site_symmetry_multiplicity
 _atom_site_fract_x
 _atom_site_fract_y
 _atom_site_fract_z
 _atom_site_occupancy
  Ac  Ac0  1  0.590652  0.590652  0.750000  1
  Ac  Ac1  1  0.409347  0.409347  0.250000  1
  Ac  Ac2  1  0.316690  0.923973  0.679481  1
  Ac  Ac3  1  0.923973  0.316689  0.820519  1
  Ac  Ac4  1  0.683310  0.076026  0.320519  1
  Ac  Ac5  1  0.076026  0.683310  0.179480  1
  Si  Si6  1  0.621509  0.301265  0.031314  1
  Si  Si7  1  0.301265  0.621509  0.468685  1
  Si  Si8  1  0.378492  0.698735  0.968685  1
  Si  Si9  1  0.698735  0.378492  0.531314  1
  S  S10  1  0.845228  0.291291  0.085389  1
  S  S11  1  0.291290  0.845229  0.414610  1
  S  S12  1  0.154771  0.708709  0.914610  1
  S  S13  1  0.708709  0.154771  0.585390  1
  S  S14  1  0.407193  0.114472  0.146713  1
  S  S15  1  0.114472  0.407192  0.353287  1
  S  S16  1  0.592807  0.885527  0.853287  1
  S  S17  1  0.885527  0.592807  0.646713  1
  S  S18  1  0.552298  0.249168  0.845056  1
  S  S19  1  0.249167  0.552298  0.654944  1
  S  S20  1  0.447702  0.750833  0.154944  1
  S  S21  1  0.750833  0.447702  0.345056  1
  S  S22  1  0.714805  0.573047  0.044696  1
  S  S23  1  0.573047  0.714805  0.455303  1
  S  S24  1  0.285194  0.426953  0.955303  1
  S  S25  1  0.426953  0.285194  0.544697  1
  I  I26  1  0.987944  0.987943  0.250000  1
  I  I27  1  0.012057  0.012057  0.750000  1
