# generated using pymatgen
data_K5TiAs3
_symmetry_space_group_name_H-M   'P 1'
_cell_length_a   8.41299800
_cell_length_b   9.05450576
_cell_length_c   17.58633033
_cell_angle_alpha   60.14526524
_cell_angle_beta   90.00000000
_cell_angle_gamma   90.00000000
_symmetry_Int_Tables_number   1
_chemical_formula_structural   K5TiAs3
_chemical_formula_sum   'K20 Ti4 As12'
_cell_volume   1161.86387678
_cell_formula_units_Z   4
loop_
 _symmetry_equiv_pos_site_id
 _symmetry_equiv_pos_as_xyz
  1  'x, y, z'
loop_
 _atom_site_type_symbol
 _atom_site_label
 _atom_site_symmetry_multiplicity
 _atom_site_fract_x
 _atom_site_fract_y
 _atom_site_fract_z
 _atom_site_occupancy
  K  K0  1  0.167964  0.841494  0.739728  1
  K  K1  1  0.667964  0.158506  0.760272  1
  K  K2  1  0.832036  0.158506  0.260272  1
  K  K3  1  0.332036  0.841494  0.239728  1
  K  K4  1  0.171547  0.161461  0.419747  1
  K  K5  1  0.671547  0.838539  0.080253  1
  K  K6  1  0.828453  0.838539  0.580253  1
  K  K7  1  0.328453  0.161461  0.919747  1
  K  K8  1  0.004758  0.094235  0.089952  1
  K  K9  1  0.504758  0.905765  0.410048  1
  K  K10  1  0.995242  0.905765  0.910048  1
  K  K11  1  0.495242  0.094235  0.589952  1
  K  K12  1  0.517908  0.269367  0.076619  1
  K  K13  1  0.017908  0.730633  0.423381  1
  K  K14  1  0.482092  0.730633  0.923381  1
  K  K15  1  0.982092  0.269367  0.576619  1
  K  K16  1  0.985740  0.547303  0.254847  1
  K  K17  1  0.485740  0.452697  0.245153  1
  K  K18  1  0.014260  0.452697  0.745153  1
  K  K19  1  0.514260  0.547303  0.754847  1
  Ti  Ti20  1  0.368811  0.492388  0.579983  1
  Ti  Ti21  1  0.868811  0.507612  0.920017  1
  Ti  Ti22  1  0.631189  0.507612  0.420017  1
  Ti  Ti23  1  0.131189  0.492388  0.079983  1
  As  As24  1  0.328110  0.488343  0.436555  1
  As  As25  1  0.828110  0.511657  0.063445  1
  As  As26  1  0.671890  0.511657  0.563445  1
  As  As27  1  0.171890  0.488343  0.936555  1
  As  As28  1  0.213737  0.221663  0.214445  1
  As  As29  1  0.713737  0.778337  0.285555  1
  As  As30  1  0.786263  0.778337  0.785555  1
  As  As31  1  0.286263  0.221663  0.714445  1
  As  As32  1  0.252135  0.748706  0.077963  1
  As  As33  1  0.752135  0.251294  0.422037  1
  As  As34  1  0.747865  0.251294  0.922037  1
  As  As35  1  0.247865  0.748706  0.577963  1
