# generated using pymatgen
data_HoTm3Ga3Si
_symmetry_space_group_name_H-M   'P 1'
_cell_length_a   3.93172400
_cell_length_b   4.29536100
_cell_length_c   10.69553600
_cell_angle_alpha   90.00000000
_cell_angle_beta   90.00000000
_cell_angle_gamma   90.00000000
_symmetry_Int_Tables_number   1
_chemical_formula_structural   HoTm3Ga3Si
_chemical_formula_sum   'Ho1 Tm3 Ga3 Si1'
_cell_volume   180.62807227
_cell_formula_units_Z   1
loop_
 _symmetry_equiv_pos_site_id
 _symmetry_equiv_pos_as_xyz
  1  'x, y, z'
loop_
 _atom_site_type_symbol
 _atom_site_label
 _atom_site_symmetry_multiplicity
 _atom_site_fract_x
 _atom_site_fract_y
 _atom_site_fract_z
 _atom_site_occupancy
  Ho  Ho0  1  0.500000  0.500000  0.360725  1
  Tm  Tm1  1  0.000000  0.000000  0.143207  1
  Tm  Tm2  1  0.000000  0.500000  0.637738  1
  Tm  Tm3  1  0.500000  0.000000  0.858609  1
  Ga  Ga4  1  0.000000  0.500000  0.920435  1
  Ga  Ga5  1  0.500000  0.500000  0.080551  1
  Ga  Ga6  1  0.500000  0.000000  0.575216  1
  Si  Si7  1  0.000000  0.000000  0.423517  1
