# generated using pymatgen
data_Dy4Ho4Tc3B24Ru
_symmetry_space_group_name_H-M   'P 1'
_cell_length_a   3.67143400
_cell_length_b   9.14918427
_cell_length_c   11.54020000
_cell_angle_alpha   89.91977283
_cell_angle_beta   90.00000000
_cell_angle_gamma   90.00000000
_symmetry_Int_Tables_number   1
_chemical_formula_structural   Dy4Ho4Tc3B24Ru
_chemical_formula_sum   'Dy4 Ho4 Tc3 B24 Ru1'
_cell_volume   387.64216464
_cell_formula_units_Z   1
loop_
 _symmetry_equiv_pos_site_id
 _symmetry_equiv_pos_as_xyz
  1  'x, y, z'
loop_
 _atom_site_type_symbol
 _atom_site_label
 _atom_site_symmetry_multiplicity
 _atom_site_fract_x
 _atom_site_fract_y
 _atom_site_fract_z
 _atom_site_occupancy
  Dy  Dy0  1  0.000000  0.323690  0.413863  1
  Dy  Dy1  1  0.000000  0.675067  0.584014  1
  Dy  Dy2  1  0.000000  0.823092  0.087284  1
  Dy  Dy3  1  0.000000  0.177783  0.914593  1
  Ho  Ho4  1  0.000000  0.942816  0.370219  1
  Ho  Ho5  1  0.000000  0.057565  0.630634  1
  Ho  Ho6  1  0.000000  0.443241  0.130036  1
  Ho  Ho7  1  0.000000  0.557664  0.869194  1
  Tc  Tc8  1  0.000000  0.638080  0.320616  1
  Tc  Tc9  1  0.000000  0.361782  0.679903  1
  Tc  Tc10  1  0.000000  0.137842  0.178491  1
  B  B11  1  0.500000  0.553185  0.432705  1
  B  B12  1  0.500000  0.446468  0.566954  1
  B  B13  1  0.500000  0.053232  0.066923  1
  B  B14  1  0.500000  0.945967  0.932742  1
  B  B15  1  0.500000  0.748707  0.418775  1
  B  B16  1  0.500000  0.250907  0.581417  1
  B  B17  1  0.500000  0.249280  0.081223  1
  B  B18  1  0.500000  0.751536  0.918476  1
  B  B19  1  0.500000  0.791863  0.265577  1
  B  B20  1  0.500000  0.208404  0.735118  1
  B  B21  1  0.500000  0.291781  0.234483  1
  B  B22  1  0.500000  0.709196  0.765352  1
  B  B23  1  0.500000  0.631120  0.185552  1
  B  B24  1  0.500000  0.369137  0.814830  1
  B  B25  1  0.500000  0.130523  0.314091  1
  B  B26  1  0.500000  0.868883  0.685780  1
  B  B27  1  0.500000  0.982011  0.212030  1
  B  B28  1  0.500000  0.016571  0.788267  1
  B  B29  1  0.500000  0.482367  0.287733  1
  B  B30  1  0.500000  0.517425  0.711778  1
  B  B31  1  0.500000  0.602273  0.028045  1
  B  B32  1  0.500000  0.399283  0.971551  1
  B  B33  1  0.500000  0.101491  0.472108  1
  B  B34  1  0.500000  0.898079  0.528766  1
  Ru  Ru35  1  0.000000  0.861691  0.820876  1
