# generated using pymatgen
data_BeS23
_symmetry_space_group_name_H-M   'P 1'
_cell_length_a   5.61904033
_cell_length_b   9.54313380
_cell_length_c   15.24647840
_cell_angle_alpha   88.98743865
_cell_angle_beta   87.04386984
_cell_angle_gamma   90.07409837
_symmetry_Int_Tables_number   1
_chemical_formula_structural   BeS23
_chemical_formula_sum   'Be1 S23'
_cell_volume   816.34836853
_cell_formula_units_Z   1
loop_
 _symmetry_equiv_pos_site_id
 _symmetry_equiv_pos_as_xyz
  1  'x, y, z'
loop_
 _atom_site_type_symbol
 _atom_site_label
 _atom_site_symmetry_multiplicity
 _atom_site_fract_x
 _atom_site_fract_y
 _atom_site_fract_z
 _atom_site_occupancy
  Be  Be0  1  0.482163  0.267746  0.439156  1
  S  S1  1  0.508409  0.793498  0.390046  1
  S  S2  1  0.996258  0.304197  0.112777  1
  S  S3  1  0.780477  0.245093  0.495084  1
  S  S4  1  0.305353  0.765920  0.505297  1
  S  S5  1  0.189455  0.262080  0.997368  1
  S  S6  1  0.801357  0.736969  0.004300  1
  S  S7  1  0.259758  0.348294  0.359914  1
  S  S8  1  0.683868  0.603910  0.363489  1
  S  S9  1  0.800979  0.127997  0.151266  1
  S  S10  1  0.199315  0.867838  0.137029  1
  S  S11  1  0.708264  0.627826  0.636297  1
  S  S12  1  0.302471  0.384540  0.616784  1
  S  S13  1  0.201349  0.874436  0.857154  1
  S  S14  1  0.797221  0.131258  0.861095  1
  S  S15  1  0.000497  0.692427  0.111358  1
  S  S16  1  0.507601  0.803733  0.612422  1
  S  S17  1  0.472462  0.196860  0.572987  1
  S  S18  1  0.004556  0.696916  0.890683  1
  S  S19  1  0.988952  0.307760  0.890624  1
  S  S20  1  0.498139  0.478778  0.285059  1
  S  S21  1  0.008993  0.995296  0.223280  1
  S  S22  1  0.497679  0.481823  0.707229  1
  S  S23  1  0.004422  0.004805  0.779304  1
