# generated using pymatgen
data_HoSc2Co(BIr2)2
_symmetry_space_group_name_H-M   'P 1'
_cell_length_a   3.09887000
_cell_length_b   9.54427623
_cell_length_c   9.54427623
_cell_angle_alpha   88.96508986
_cell_angle_beta   90.00000000
_cell_angle_gamma   90.00000000
_symmetry_Int_Tables_number   1
_chemical_formula_structural   HoSc2Co(BIr2)2
_chemical_formula_sum   'Ho2 Sc4 Co2 B4 Ir8'
_cell_volume   282.23996435
_cell_formula_units_Z   2
loop_
 _symmetry_equiv_pos_site_id
 _symmetry_equiv_pos_as_xyz
  1  'x, y, z'
loop_
 _atom_site_type_symbol
 _atom_site_label
 _atom_site_symmetry_multiplicity
 _atom_site_fract_x
 _atom_site_fract_y
 _atom_site_fract_z
 _atom_site_occupancy
  Ho  Ho0  1  0.000000  0.177257  0.677257  1
  Ho  Ho1  1  0.000000  0.822743  0.322743  1
  Sc  Sc2  1  0.000000  0.325053  0.174947  1
  Sc  Sc3  1  0.000000  0.674947  0.825053  1
  Sc  Sc4  1  0.000000  0.000000  0.000000  1
  Sc  Sc5  1  0.000000  0.500000  0.500000  1
  Co  Co6  1  0.500000  0.000000  0.500000  1
  Co  Co7  1  0.500000  0.500000  0.000000  1
  B  B8  1  0.000000  0.608905  0.108905  1
  B  B9  1  0.000000  0.391095  0.891095  1
  B  B10  1  0.000000  0.888123  0.611877  1
  B  B11  1  0.000000  0.111877  0.388123  1
  Ir  Ir12  1  0.500000  0.070768  0.226746  1
  Ir  Ir13  1  0.500000  0.929232  0.773254  1
  Ir  Ir14  1  0.500000  0.767511  0.058082  1
  Ir  Ir15  1  0.500000  0.441918  0.732489  1
  Ir  Ir16  1  0.500000  0.232489  0.941918  1
  Ir  Ir17  1  0.500000  0.558082  0.267511  1
  Ir  Ir18  1  0.500000  0.726746  0.570768  1
  Ir  Ir19  1  0.500000  0.273254  0.429232  1
