# generated using pymatgen
data_Er10Al3Os
_symmetry_space_group_name_H-M   'P 1'
_cell_length_a   9.42248800
_cell_length_b   9.42248802
_cell_length_c   9.57348700
_cell_angle_alpha   90.00000000
_cell_angle_beta   90.00000000
_cell_angle_gamma   119.99999992
_symmetry_Int_Tables_number   1
_chemical_formula_structural   Er10Al3Os
_chemical_formula_sum   'Er20 Al6 Os2'
_cell_volume   736.09178512
_cell_formula_units_Z   2
loop_
 _symmetry_equiv_pos_site_id
 _symmetry_equiv_pos_as_xyz
  1  'x, y, z'
loop_
 _atom_site_type_symbol
 _atom_site_label
 _atom_site_symmetry_multiplicity
 _atom_site_fract_x
 _atom_site_fract_y
 _atom_site_fract_z
 _atom_site_occupancy
  Er  Er0  1  0.000000  0.000000  0.500000  1
  Er  Er1  1  0.000000  0.000000  0.000000  1
  Er  Er2  1  0.207007  0.792993  0.441287  1
  Er  Er3  1  0.207007  0.414013  0.441287  1
  Er  Er4  1  0.585987  0.792993  0.441287  1
  Er  Er5  1  0.792993  0.207007  0.558713  1
  Er  Er6  1  0.792993  0.585987  0.558713  1
  Er  Er7  1  0.414013  0.207007  0.558713  1
  Er  Er8  1  0.792993  0.207007  0.941287  1
  Er  Er9  1  0.792993  0.585987  0.941287  1
  Er  Er10  1  0.414013  0.207007  0.941287  1
  Er  Er11  1  0.207007  0.792993  0.058713  1
  Er  Er12  1  0.207007  0.414013  0.058713  1
  Er  Er13  1  0.585987  0.792993  0.058713  1
  Er  Er14  1  0.538688  0.461312  0.250000  1
  Er  Er15  1  0.538688  0.077375  0.250000  1
  Er  Er16  1  0.922625  0.461312  0.250000  1
  Er  Er17  1  0.461312  0.538688  0.750000  1
  Er  Er18  1  0.461312  0.922625  0.750000  1
  Er  Er19  1  0.077375  0.538688  0.750000  1
  Al  Al20  1  0.888978  0.111022  0.250000  1
  Al  Al21  1  0.888978  0.777957  0.250000  1
  Al  Al22  1  0.222043  0.111022  0.250000  1
  Al  Al23  1  0.111022  0.888978  0.750000  1
  Al  Al24  1  0.111022  0.222043  0.750000  1
  Al  Al25  1  0.777957  0.888978  0.750000  1
  Os  Os26  1  0.333333  0.666667  0.250000  1
  Os  Os27  1  0.666667  0.333333  0.750000  1
