# generated using pymatgen
data_Pr5Sm2ThSe12
_symmetry_space_group_name_H-M   'P 1'
_cell_length_a   4.19752900
_cell_length_b   11.19361716
_cell_length_c   11.49182988
_cell_angle_alpha   90.43834334
_cell_angle_beta   90.00000000
_cell_angle_gamma   90.00000000
_symmetry_Int_Tables_number   1
_chemical_formula_structural   Pr5Sm2ThSe12
_chemical_formula_sum   'Pr5 Sm2 Th1 Se12'
_cell_volume   539.93394605
_cell_formula_units_Z   1
loop_
 _symmetry_equiv_pos_site_id
 _symmetry_equiv_pos_as_xyz
  1  'x, y, z'
loop_
 _atom_site_type_symbol
 _atom_site_label
 _atom_site_symmetry_multiplicity
 _atom_site_fract_x
 _atom_site_fract_y
 _atom_site_fract_z
 _atom_site_occupancy
  Pr  Pr0  1  0.250000  0.002242  0.696115  1
  Pr  Pr1  1  0.750000  0.001529  0.302939  1
  Pr  Pr2  1  0.750000  0.493113  0.809744  1
  Pr  Pr3  1  0.250000  0.503678  0.192833  1
  Pr  Pr4  1  0.250000  0.311373  0.511680  1
  Sm  Sm5  1  0.750000  0.812979  0.986531  1
  Sm  Sm6  1  0.250000  0.186854  0.013851  1
  Th  Th7  1  0.750000  0.687605  0.488484  1
  Se  Se8  1  0.750000  0.054002  0.884121  1
  Se  Se9  1  0.250000  0.944068  0.115641  1
  Se  Se10  1  0.250000  0.557452  0.621621  1
  Se  Se11  1  0.750000  0.447030  0.379147  1
  Se  Se12  1  0.250000  0.870915  0.453413  1
  Se  Se13  1  0.750000  0.123953  0.544446  1
  Se  Se14  1  0.750000  0.370698  0.046619  1
  Se  Se15  1  0.250000  0.630017  0.953874  1
  Se  Se16  1  0.250000  0.296424  0.773330  1
  Se  Se17  1  0.750000  0.705320  0.230378  1
  Se  Se18  1  0.750000  0.800622  0.725182  1
  Se  Se19  1  0.250000  0.200125  0.270053  1
