# generated using pymatgen
data_Cs4TiSnSe6
_symmetry_space_group_name_H-M   'P 1'
_cell_length_a   8.40144733
_cell_length_b   8.40144654
_cell_length_c   10.75206484
_cell_angle_alpha   58.84318350
_cell_angle_beta   58.84318568
_cell_angle_gamma   54.05193730
_symmetry_Int_Tables_number   1
_chemical_formula_structural   Cs4TiSnSe6
_chemical_formula_sum   'Cs4 Ti1 Sn1 Se6'
_cell_volume   500.13857693
_cell_formula_units_Z   1
loop_
 _symmetry_equiv_pos_site_id
 _symmetry_equiv_pos_as_xyz
  1  'x, y, z'
loop_
 _atom_site_type_symbol
 _atom_site_label
 _atom_site_symmetry_multiplicity
 _atom_site_fract_x
 _atom_site_fract_y
 _atom_site_fract_z
 _atom_site_occupancy
  Cs  Cs0  1  0.308642  0.308642  0.317416  1
  Cs  Cs1  1  0.689129  0.689129  0.685974  1
  Cs  Cs2  1  0.086440  0.086440  0.133394  1
  Cs  Cs3  1  0.916366  0.916366  0.867195  1
  Ti  Ti4  1  0.388504  0.388504  0.670738  1
  Sn  Sn5  1  0.616575  0.616575  0.319517  1
  Se  Se6  1  0.384173  0.384173  0.892669  1
  Se  Se7  1  0.609609  0.609609  0.092750  1
  Se  Se8  1  0.211261  0.211261  0.726870  1
  Se  Se9  1  0.799740  0.799740  0.278078  1
  Se  Se10  1  0.751246  0.238317  0.507699  1
  Se  Se11  1  0.238317  0.751246  0.507699  1
