# generated using pymatgen
data_Dy5Sc3P12(Ir7Ru)2
_symmetry_space_group_name_H-M   'P 1'
_cell_length_a   12.80843760
_cell_length_b   12.86408067
_cell_length_c   3.97433100
_cell_angle_alpha   90.00000000
_cell_angle_beta   90.00000000
_cell_angle_gamma   120.05682896
_symmetry_Int_Tables_number   1
_chemical_formula_structural   Dy5Sc3P12(Ir7Ru)2
_chemical_formula_sum   'Dy5 Sc3 P12 Ir14 Ru2'
_cell_volume   566.78793304
_cell_formula_units_Z   1
loop_
 _symmetry_equiv_pos_site_id
 _symmetry_equiv_pos_as_xyz
  1  'x, y, z'
loop_
 _atom_site_type_symbol
 _atom_site_label
 _atom_site_symmetry_multiplicity
 _atom_site_fract_x
 _atom_site_fract_y
 _atom_site_fract_z
 _atom_site_occupancy
  Dy  Dy0  1  0.333875  0.666886  0.500000  1
  Dy  Dy1  1  0.666660  0.333454  0.500000  1
  Dy  Dy2  1  0.999889  0.811626  0.000000  1
  Dy  Dy3  1  0.188211  0.188637  0.000000  1
  Dy  Dy4  1  0.811688  0.000153  0.000000  1
  Sc  Sc5  1  0.999383  0.443588  0.500000  1
  Sc  Sc6  1  0.555626  0.556750  0.500000  1
  Sc  Sc7  1  0.443988  0.000138  0.500000  1
  P  P8  1  0.004383  0.647426  0.500000  1
  P  P9  1  0.355121  0.355068  0.500000  1
  P  P10  1  0.643094  0.994969  0.500000  1
  P  P11  1  0.520168  0.690871  0.000000  1
  P  P12  1  0.310211  0.830345  0.000000  1
  P  P13  1  0.169526  0.483219  0.000000  1
  P  P14  1  0.482494  0.170243  0.000000  1
  P  P15  1  0.687732  0.517737  0.000000  1
  P  P16  1  0.830254  0.312699  0.000000  1
  P  P17  1  0.999587  0.176605  0.500000  1
  P  P18  1  0.819769  0.821979  0.500000  1
  P  P19  1  0.176980  0.996202  0.500000  1
  Ir  Ir20  1  0.511882  0.871389  0.000000  1
  Ir  Ir21  1  0.129134  0.641649  0.000000  1
  Ir  Ir22  1  0.358779  0.492085  0.000000  1
  Ir  Ir23  1  0.490157  0.358068  0.000000  1
  Ir  Ir24  1  0.866841  0.508370  0.000000  1
  Ir  Ir25  1  0.641939  0.134332  0.000000  1
  Ir  Ir26  1  0.000164  0.278016  0.000000  1
  Ir  Ir27  1  0.723497  0.721426  0.000000  1
  Ir  Ir28  1  0.278277  0.002107  0.000000  1
  Ir  Ir29  1  0.179577  0.371722  0.500000  1
  Ir  Ir30  1  0.372446  0.180173  0.500000  1
  Ir  Ir31  1  0.808494  0.627352  0.500000  1
  Ir  Ir32  1  0.819269  0.190676  0.500000  1
  Ir  Ir33  1  0.999699  0.998936  0.500000  1
  Ru  Ru34  1  0.625294  0.803792  0.500000  1
  Ru  Ru35  1  0.195911  0.821311  0.500000  1
