# generated using pymatgen
data_Na4TmHf3(Ni4As3)4
_symmetry_space_group_name_H-M   'P 1'
_cell_length_a   12.74512144
_cell_length_b   12.74512158
_cell_length_c   3.89093100
_cell_angle_alpha   90.00000000
_cell_angle_beta   90.00000000
_cell_angle_gamma   119.80289692
_symmetry_Int_Tables_number   1
_chemical_formula_structural   Na4TmHf3(Ni4As3)4
_chemical_formula_sum   'Na4 Tm1 Hf3 Ni16 As12'
_cell_volume   548.44271262
_cell_formula_units_Z   1
loop_
 _symmetry_equiv_pos_site_id
 _symmetry_equiv_pos_as_xyz
  1  'x, y, z'
loop_
 _atom_site_type_symbol
 _atom_site_label
 _atom_site_symmetry_multiplicity
 _atom_site_fract_x
 _atom_site_fract_y
 _atom_site_fract_z
 _atom_site_occupancy
  Na  Na0  1  0.818361  0.999500  0.500000  1
  Na  Na1  1  0.999500  0.818361  0.500000  1
  Na  Na2  1  0.332950  0.666091  0.000000  1
  Na  Na3  1  0.666091  0.332950  0.000000  1
  Tm  Tm4  1  0.181205  0.181205  0.500000  1
  Hf  Hf5  1  0.561760  0.561760  0.000000  1
  Hf  Hf6  1  0.438980  0.000446  0.000000  1
  Hf  Hf7  1  0.000446  0.438980  0.000000  1
  Ni  Ni8  1  0.721939  0.721939  0.500000  1
  Ni  Ni9  1  0.278962  0.001303  0.500000  1
  Ni  Ni10  1  0.001303  0.278962  0.500000  1
  Ni  Ni11  1  0.180726  0.373998  0.000000  1
  Ni  Ni12  1  0.622535  0.804093  0.000000  1
  Ni  Ni13  1  0.196097  0.815530  0.000000  1
  Ni  Ni14  1  0.804093  0.622535  0.000000  1
  Ni  Ni15  1  0.815530  0.196097  0.000000  1
  Ni  Ni16  1  0.373998  0.180726  0.000000  1
  Ni  Ni17  1  0.360609  0.480375  0.500000  1
  Ni  Ni18  1  0.519642  0.879806  0.500000  1
  Ni  Ni19  1  0.119968  0.640093  0.500000  1
  Ni  Ni20  1  0.879806  0.519642  0.500000  1
  Ni  Ni21  1  0.640093  0.119968  0.500000  1
  Ni  Ni22  1  0.480375  0.360609  0.500000  1
  Ni  Ni23  1  0.003074  0.003074  0.000000  1
  As  As24  1  0.823493  0.823493  0.000000  1
  As  As25  1  0.177883  0.998157  0.000000  1
  As  As26  1  0.998157  0.177883  0.000000  1
  As  As27  1  0.172535  0.480973  0.500000  1
  As  As28  1  0.518400  0.691106  0.500000  1
  As  As29  1  0.309429  0.827927  0.500000  1
  As  As30  1  0.691106  0.518400  0.500000  1
  As  As31  1  0.827927  0.309429  0.500000  1
  As  As32  1  0.480973  0.172535  0.500000  1
  As  As33  1  0.354295  0.354295  0.000000  1
  As  As34  1  0.647867  0.999895  0.000000  1
  As  As35  1  0.999895  0.647867  0.000000  1
