# generated using pymatgen
data_Tb4Yb3Ho5(SiPd)12
_symmetry_space_group_name_H-M   'P 1'
_cell_length_a   4.33152100
_cell_length_b   7.43331501
_cell_length_c   21.13872263
_cell_angle_alpha   90.01132048
_cell_angle_beta   90.00000000
_cell_angle_gamma   90.00000000
_symmetry_Int_Tables_number   1
_chemical_formula_structural   Tb4Yb3Ho5(SiPd)12
_chemical_formula_sum   'Tb4 Yb3 Ho5 Si12 Pd12'
_cell_volume   680.61527804
_cell_formula_units_Z   1
loop_
 _symmetry_equiv_pos_site_id
 _symmetry_equiv_pos_as_xyz
  1  'x, y, z'
loop_
 _atom_site_type_symbol
 _atom_site_label
 _atom_site_symmetry_multiplicity
 _atom_site_fract_x
 _atom_site_fract_y
 _atom_site_fract_z
 _atom_site_occupancy
  Tb  Tb0  1  0.250000  0.798355  0.166215  1
  Tb  Tb1  1  0.250000  0.703371  0.665932  1
  Tb  Tb2  1  0.250000  0.708010  0.000959  1
  Tb  Tb3  1  0.250000  0.794655  0.500273  1
  Yb  Yb4  1  0.250000  0.703368  0.332419  1
  Yb  Yb5  1  0.750000  0.294841  0.667498  1
  Yb  Yb6  1  0.750000  0.203384  0.167516  1
  Ho  Ho7  1  0.250000  0.797225  0.832383  1
  Ho  Ho8  1  0.750000  0.204335  0.833505  1
  Ho  Ho9  1  0.750000  0.296145  0.333818  1
  Ho  Ho10  1  0.750000  0.290708  0.999796  1
  Ho  Ho11  1  0.750000  0.207765  0.499043  1
  Si  Si12  1  0.250000  0.089520  0.065593  1
  Si  Si13  1  0.750000  0.910798  0.927869  1
  Si  Si14  1  0.750000  0.586163  0.433778  1
  Si  Si15  1  0.250000  0.411757  0.565809  1
  Si  Si16  1  0.250000  0.088005  0.274677  1
  Si  Si17  1  0.750000  0.911541  0.728390  1
  Si  Si18  1  0.750000  0.586948  0.226102  1
  Si  Si19  1  0.250000  0.413632  0.774473  1
  Si  Si20  1  0.250000  0.090448  0.395254  1
  Si  Si21  1  0.750000  0.911076  0.605557  1
  Si  Si22  1  0.750000  0.588478  0.104660  1
  Si  Si23  1  0.250000  0.410267  0.895545  1
  Pd  Pd24  1  0.250000  0.415302  0.237121  1
  Pd  Pd25  1  0.750000  0.583017  0.764197  1
  Pd  Pd26  1  0.750000  0.916066  0.263328  1
  Pd  Pd27  1  0.250000  0.085016  0.737196  1
  Pd  Pd28  1  0.250000  0.416615  0.436720  1
  Pd  Pd29  1  0.750000  0.582300  0.563090  1
  Pd  Pd30  1  0.750000  0.917379  0.063626  1
  Pd  Pd31  1  0.250000  0.083696  0.937855  1
  Pd  Pd32  1  0.250000  0.418030  0.093848  1
  Pd  Pd33  1  0.750000  0.580229  0.905869  1
  Pd  Pd34  1  0.750000  0.917985  0.406663  1
  Pd  Pd35  1  0.250000  0.083569  0.593422  1
