# generated using pymatgen
data_Dy9Tm(SiSb)4
_symmetry_space_group_name_H-M   'P 1'
_cell_length_a   8.51949179
_cell_length_b   8.51949244
_cell_length_c   7.85908105
_cell_angle_alpha   89.99430996
_cell_angle_beta   89.99431225
_cell_angle_gamma   125.28040839
_symmetry_Int_Tables_number   1
_chemical_formula_structural   Dy9Tm(SiSb)4
_chemical_formula_sum   'Dy9 Tm1 Si4 Sb4'
_cell_volume   465.65863038
_cell_formula_units_Z   1
loop_
 _symmetry_equiv_pos_site_id
 _symmetry_equiv_pos_as_xyz
  1  'x, y, z'
loop_
 _atom_site_type_symbol
 _atom_site_label
 _atom_site_symmetry_multiplicity
 _atom_site_fract_x
 _atom_site_fract_y
 _atom_site_fract_z
 _atom_site_occupancy
  Dy  Dy0  1  0.040374  0.292627  0.333994  1
  Dy  Dy1  1  0.959626  0.707373  0.666006  1
  Dy  Dy2  1  0.459308  0.207016  0.834235  1
  Dy  Dy3  1  0.792984  0.540692  0.165765  1
  Dy  Dy4  1  0.540692  0.792984  0.165765  1
  Dy  Dy5  1  0.207016  0.459308  0.834235  1
  Dy  Dy6  1  0.707373  0.959626  0.666006  1
  Dy  Dy7  1  0.292627  0.040374  0.333994  1
  Dy  Dy8  1  0.500000  0.500000  0.500000  1
  Tm  Tm9  1  0.000000  0.000000  0.000000  1
  Si  Si10  1  0.367764  0.367764  0.130598  1
  Si  Si11  1  0.632236  0.632236  0.869402  1
  Si  Si12  1  0.131587  0.131587  0.631327  1
  Si  Si13  1  0.868413  0.868413  0.368673  1
  Sb  Sb14  1  0.794626  0.205374  0.000000  1
  Sb  Sb15  1  0.205374  0.794626  0.000000  1
  Sb  Sb16  1  0.705879  0.294121  0.500000  1
  Sb  Sb17  1  0.294121  0.705879  0.500000  1
