# generated using pymatgen
data_Pr3NdPb3
_symmetry_space_group_name_H-M   'P 1'
_cell_length_a   8.46716346
_cell_length_b   8.46716235
_cell_length_c   8.46790502
_cell_angle_alpha   109.46903194
_cell_angle_beta   109.46902908
_cell_angle_gamma   109.46624554
_symmetry_Int_Tables_number   1
_chemical_formula_structural   Pr3NdPb3
_chemical_formula_sum   'Pr6 Nd2 Pb6'
_cell_volume   467.39068264
_cell_formula_units_Z   2
loop_
 _symmetry_equiv_pos_site_id
 _symmetry_equiv_pos_as_xyz
  1  'x, y, z'
loop_
 _atom_site_type_symbol
 _atom_site_label
 _atom_site_symmetry_multiplicity
 _atom_site_fract_x
 _atom_site_fract_y
 _atom_site_fract_z
 _atom_site_occupancy
  Pr  Pr0  1  0.499889  0.999686  0.360459  1
  Pr  Pr1  1  0.499686  0.999889  0.860459  1
  Pr  Pr2  1  0.639515  0.639504  0.639268  1
  Pr  Pr3  1  0.000155  0.360595  0.500245  1
  Pr  Pr4  1  0.139504  0.139515  0.139268  1
  Pr  Pr5  1  0.860595  0.500155  0.000245  1
  Nd  Nd6  1  0.000005  0.860931  0.500031  1
  Nd  Nd7  1  0.360931  0.500005  0.000031  1
  Pb  Pb8  1  0.124974  0.749978  0.875016  1
  Pb  Pb9  1  0.875200  0.124951  0.749876  1
  Pb  Pb10  1  0.624951  0.375200  0.249876  1
  Pb  Pb11  1  0.374748  0.249868  0.625105  1
  Pb  Pb12  1  0.749868  0.874748  0.125105  1
  Pb  Pb13  1  0.249978  0.624974  0.375016  1
