# generated using pymatgen
data_NdAlBRh3
_symmetry_space_group_name_H-M   'P 1'
_cell_length_a   5.57416800
_cell_length_b   5.57416705
_cell_length_c   6.98793300
_cell_angle_alpha   90.00000000
_cell_angle_beta   90.00000000
_cell_angle_gamma   120.00000562
_symmetry_Int_Tables_number   1
_chemical_formula_structural   NdAlBRh3
_chemical_formula_sum   'Nd2 Al2 B2 Rh6'
_cell_volume   188.03529392
_cell_formula_units_Z   2
loop_
 _symmetry_equiv_pos_site_id
 _symmetry_equiv_pos_as_xyz
  1  'x, y, z'
loop_
 _atom_site_type_symbol
 _atom_site_label
 _atom_site_symmetry_multiplicity
 _atom_site_fract_x
 _atom_site_fract_y
 _atom_site_fract_z
 _atom_site_occupancy
  Nd  Nd0  1  0.000000  0.000000  0.000000  1
  Nd  Nd1  1  0.000000  0.000000  0.500000  1
  Al  Al2  1  0.333333  0.666667  0.000000  1
  Al  Al3  1  0.666667  0.333333  0.000000  1
  B  B4  1  0.333333  0.666667  0.500000  1
  B  B5  1  0.666667  0.333333  0.500000  1
  Rh  Rh6  1  0.500000  0.000000  0.711077  1
  Rh  Rh7  1  0.000000  0.500000  0.288923  1
  Rh  Rh8  1  0.500000  0.000000  0.288923  1
  Rh  Rh9  1  0.500000  0.500000  0.711077  1
  Rh  Rh10  1  0.500000  0.500000  0.288923  1
  Rh  Rh11  1  0.000000  0.500000  0.711077  1
