# generated using pymatgen
data_HfZr3Sb4(RuPt)2
_symmetry_space_group_name_H-M   'P 1'
_cell_length_a   6.37594659
_cell_length_b   6.37564678
_cell_length_c   7.78914424
_cell_angle_alpha   65.85782757
_cell_angle_beta   65.84012615
_cell_angle_gamma   89.99999841
_symmetry_Int_Tables_number   1
_chemical_formula_structural   HfZr3Sb4(RuPt)2
_chemical_formula_sum   'Hf1 Zr3 Sb4 Ru2 Pt2'
_cell_volume   258.24741445
_cell_formula_units_Z   1
loop_
 _symmetry_equiv_pos_site_id
 _symmetry_equiv_pos_as_xyz
  1  'x, y, z'
loop_
 _atom_site_type_symbol
 _atom_site_label
 _atom_site_symmetry_multiplicity
 _atom_site_fract_x
 _atom_site_fract_y
 _atom_site_fract_z
 _atom_site_occupancy
  Hf  Hf0  1  0.878088  0.374999  0.750000  1
  Zr  Zr1  1  0.124840  0.121578  0.249988  1
  Zr  Zr2  1  0.624828  0.628423  0.250013  1
  Zr  Zr3  1  0.371380  0.875000  0.749999  1
  Sb  Sb4  1  0.625396  0.115387  0.249379  1
  Sb  Sb5  1  0.124773  0.634612  0.250622  1
  Sb  Sb6  1  0.364029  0.375001  0.749999  1
  Sb  Sb7  1  0.885181  0.875001  0.750000  1
  Ru  Ru8  1  0.999416  0.001787  0.998770  1
  Ru  Ru9  1  0.248186  0.748213  0.501229  1
  Pt  Pt10  1  0.502904  0.498978  0.998080  1
  Pt  Pt11  1  0.750985  0.251021  0.501919  1
