# generated using pymatgen
data_Sm7Zr(Si4Mo3)4
_symmetry_space_group_name_H-M   'P 1'
_cell_length_a   6.83525337
_cell_length_b   6.98490382
_cell_length_c   13.03716516
_cell_angle_alpha   89.81975601
_cell_angle_beta   90.05393382
_cell_angle_gamma   90.10777506
_symmetry_Int_Tables_number   1
_chemical_formula_structural   Sm7Zr(Si4Mo3)4
_chemical_formula_sum   'Sm7 Zr1 Si16 Mo12'
_cell_volume   622.43658005
_cell_formula_units_Z   1
loop_
 _symmetry_equiv_pos_site_id
 _symmetry_equiv_pos_as_xyz
  1  'x, y, z'
loop_
 _atom_site_type_symbol
 _atom_site_label
 _atom_site_symmetry_multiplicity
 _atom_site_fract_x
 _atom_site_fract_y
 _atom_site_fract_z
 _atom_site_occupancy
  Sm  Sm0  1  0.997303  0.164513  0.094480  1
  Sm  Sm1  1  0.003125  0.835047  0.903910  1
  Sm  Sm2  1  0.503378  0.664271  0.906088  1
  Sm  Sm3  1  0.004170  0.834570  0.593472  1
  Sm  Sm4  1  0.497041  0.334341  0.094489  1
  Sm  Sm5  1  0.998639  0.166442  0.407759  1
  Sm  Sm6  1  0.498424  0.334187  0.407775  1
  Zr  Zr7  1  0.504706  0.670365  0.598762  1
  Si  Si8  1  0.035570  0.140836  0.748275  1
  Si  Si9  1  0.962338  0.860734  0.250908  1
  Si  Si10  1  0.463175  0.637654  0.250094  1
  Si  Si11  1  0.535466  0.365387  0.746384  1
  Si  Si12  1  0.308429  0.871617  0.747794  1
  Si  Si13  1  0.693913  0.122588  0.251364  1
  Si  Si14  1  0.195033  0.375103  0.250899  1
  Si  Si15  1  0.800341  0.626881  0.747927  1
  Si  Si16  1  0.167787  0.460273  0.547278  1
  Si  Si17  1  0.838940  0.545450  0.456410  1
  Si  Si18  1  0.344460  0.949916  0.456275  1
  Si  Si19  1  0.844036  0.545339  0.047724  1
  Si  Si20  1  0.654893  0.039388  0.547699  1
  Si  Si21  1  0.154565  0.454199  0.950664  1
  Si  Si22  1  0.655484  0.045537  0.950853  1
  Si  Si23  1  0.343787  0.955089  0.047691  1
  Mo  Mo24  1  0.166647  0.503309  0.746163  1
  Mo  Mo25  1  0.834730  0.501135  0.252089  1
  Mo  Mo26  1  0.334054  0.996672  0.250984  1
  Mo  Mo27  1  0.664820  0.997647  0.747094  1
  Mo  Mo28  1  0.332471  0.163848  0.625195  1
  Mo  Mo29  1  0.665871  0.831054  0.376903  1
  Mo  Mo30  1  0.168415  0.664656  0.375123  1
  Mo  Mo31  1  0.666862  0.833976  0.126504  1
  Mo  Mo32  1  0.831511  0.340736  0.624680  1
  Mo  Mo33  1  0.332585  0.166770  0.871874  1
  Mo  Mo34  1  0.829628  0.336602  0.872734  1
  Mo  Mo35  1  0.167403  0.663866  0.125686  1
