# generated using pymatgen
data_Dy12Er3Th5Sn16
_symmetry_space_group_name_H-M   'P 1'
_cell_length_a   8.10190898
_cell_length_b   8.20675486
_cell_length_c   15.52996366
_cell_angle_alpha   90.05118977
_cell_angle_beta   89.56040725
_cell_angle_gamma   89.83964859
_symmetry_Int_Tables_number   1
_chemical_formula_structural   Dy12Er3Th5Sn16
_chemical_formula_sum   'Dy12 Er3 Th5 Sn16'
_cell_volume   1032.55833139
_cell_formula_units_Z   1
loop_
 _symmetry_equiv_pos_site_id
 _symmetry_equiv_pos_as_xyz
  1  'x, y, z'
loop_
 _atom_site_type_symbol
 _atom_site_label
 _atom_site_symmetry_multiplicity
 _atom_site_fract_x
 _atom_site_fract_y
 _atom_site_fract_z
 _atom_site_occupancy
  Dy  Dy0  1  0.359641  0.834664  0.876108  1
  Dy  Dy1  1  0.863410  0.663971  0.623012  1
  Dy  Dy2  1  0.635910  0.165182  0.377391  1
  Dy  Dy3  1  0.136748  0.335767  0.123348  1
  Dy  Dy4  1  0.639376  0.162165  0.124039  1
  Dy  Dy5  1  0.133926  0.337302  0.377820  1
  Dy  Dy6  1  0.366365  0.838721  0.623567  1
  Dy  Dy7  1  0.862366  0.661334  0.875462  1
  Dy  Dy8  1  0.525533  0.323409  0.899542  1
  Dy  Dy9  1  0.028863  0.175597  0.600987  1
  Dy  Dy10  1  0.470842  0.676171  0.400136  1
  Dy  Dy11  1  0.193484  0.500061  0.749429  1
  Er  Er12  1  0.694084  0.999651  0.750346  1
  Er  Er13  1  0.806779  0.500197  0.250469  1
  Er  Er14  1  0.306485  0.999944  0.250811  1
  Th  Th15  1  0.980097  0.820563  0.096719  1
  Th  Th16  1  0.482350  0.678290  0.095954  1
  Th  Th17  1  0.981145  0.822992  0.403625  1
  Th  Th18  1  0.517501  0.322274  0.596249  1
  Th  Th19  1  0.015422  0.177755  0.905055  1
  Sn  Sn20  1  0.299957  0.036382  0.042458  1
  Sn  Sn21  1  0.789288  0.470351  0.455907  1
  Sn  Sn22  1  0.710202  0.970347  0.544046  1
  Sn  Sn23  1  0.205411  0.533204  0.957290  1
  Sn  Sn24  1  0.696658  0.958748  0.958252  1
  Sn  Sn25  1  0.202636  0.542340  0.540795  1
  Sn  Sn26  1  0.296766  0.039990  0.459093  1
  Sn  Sn27  1  0.797740  0.458010  0.040173  1
  Sn  Sn28  1  0.560075  0.621240  0.748724  1
  Sn  Sn29  1  0.059215  0.879246  0.750158  1
  Sn  Sn30  1  0.439788  0.377331  0.249440  1
  Sn  Sn31  1  0.940869  0.121699  0.250634  1
  Sn  Sn32  1  0.328150  0.145612  0.752605  1
  Sn  Sn33  1  0.828333  0.352518  0.747844  1
  Sn  Sn34  1  0.670040  0.853815  0.252453  1
  Sn  Sn35  1  0.174541  0.643158  0.250061  1
