# generated using pymatgen
data_Lu4ScNiBiP
_symmetry_space_group_name_H-M   'P 1'
_cell_length_a   8.20343667
_cell_length_b   8.20343643
_cell_length_c   8.54426576
_cell_angle_alpha   125.83426749
_cell_angle_beta   125.83426796
_cell_angle_gamma   77.31844767
_symmetry_Int_Tables_number   1
_chemical_formula_structural   Lu4ScNiBiP
_chemical_formula_sum   'Lu8 Sc2 Ni2 Bi2 P2'
_cell_volume   371.22157415
_cell_formula_units_Z   2
loop_
 _symmetry_equiv_pos_site_id
 _symmetry_equiv_pos_as_xyz
  1  'x, y, z'
loop_
 _atom_site_type_symbol
 _atom_site_label
 _atom_site_symmetry_multiplicity
 _atom_site_fract_x
 _atom_site_fract_y
 _atom_site_fract_z
 _atom_site_occupancy
  Lu  Lu0  1  0.776248  0.276248  0.786836  1
  Lu  Lu1  1  0.223752  0.723752  0.213164  1
  Lu  Lu2  1  0.489413  0.989413  0.213164  1
  Lu  Lu3  1  0.293584  0.467036  0.500000  1
  Lu  Lu4  1  0.032964  0.206416  0.500000  1
  Lu  Lu5  1  0.510587  0.010587  0.786836  1
  Lu  Lu6  1  0.706416  0.532964  0.500000  1
  Lu  Lu7  1  0.967036  0.793584  0.500000  1
  Sc  Sc8  1  0.000000  0.000000  0.000000  1
  Sc  Sc9  1  0.500000  0.500000  0.000000  1
  Ni  Ni10  1  0.636352  0.863648  0.500000  1
  Ni  Ni11  1  0.363648  0.136352  0.500000  1
  Bi  Bi12  1  0.250000  0.250000  0.000000  1
  Bi  Bi13  1  0.750000  0.750000  0.000000  1
  P  P14  1  0.156556  0.656556  0.813113  1
  P  P15  1  0.843444  0.343444  0.186887  1
