# generated using pymatgen
data_Ba14LuSb11
_symmetry_space_group_name_H-M   'P 1'
_cell_length_a   17.95679926
_cell_length_b   17.95679972
_cell_length_c   17.95680000
_cell_angle_alpha   117.88730670
_cell_angle_beta   117.88730748
_cell_angle_gamma   93.69997918
_symmetry_Int_Tables_number   1
_chemical_formula_structural   Ba14LuSb11
_chemical_formula_sum   'Ba56 Lu4 Sb44'
_cell_volume   4215.46026347
_cell_formula_units_Z   4
loop_
 _symmetry_equiv_pos_site_id
 _symmetry_equiv_pos_as_xyz
  1  'x, y, z'
loop_
 _atom_site_type_symbol
 _atom_site_label
 _atom_site_symmetry_multiplicity
 _atom_site_fract_x
 _atom_site_fract_y
 _atom_site_fract_z
 _atom_site_occupancy
  Ba  Ba0  1  0.626635  0.286034  0.975936  1
  Ba  Ba1  1  0.900690  0.060095  0.524067  1
  Ba  Ba2  1  0.131453  0.498205  0.723003  1
  Ba  Ba3  1  0.658447  0.525201  0.777007  1
  Ba  Ba4  1  0.400691  0.876626  0.840597  1
  Ba  Ba5  1  0.810099  0.786034  0.659400  1
  Ba  Ba6  1  0.036028  0.560095  0.159405  1
  Ba  Ba7  1  0.126629  0.150698  0.340596  1
  Ba  Ba8  1  0.893677  0.744265  0.893431  1
  Ba  Ba9  1  0.158447  0.381446  0.133249  1
  Ba  Ba10  1  0.250237  0.600825  0.606559  1
  Ba  Ba11  1  0.275203  0.998205  0.366753  1
  Ba  Ba12  1  0.755725  0.606317  0.106551  1
  Ba  Ba13  1  0.310102  0.650698  0.024069  1
  Ba  Ba14  1  0.899178  0.249752  0.393428  1
  Ba  Ba15  1  0.248193  0.025201  0.866754  1
  Ba  Ba16  1  0.981357  0.875000  0.606357  1
  Ba  Ba17  1  0.536030  0.376626  0.475936  1
  Ba  Ba18  1  0.631451  0.908455  0.633254  1
  Ba  Ba19  1  0.624997  0.018638  0.893637  1
  Ba  Ba20  1  0.494266  0.100825  0.350587  1
  Ba  Ba21  1  0.393675  0.500248  0.149425  1
  Ba  Ba22  1  0.625001  0.518638  0.393641  1
  Ba  Ba23  1  0.481356  0.875000  0.106356  1
  Ba  Ba24  1  0.750234  0.143683  0.649408  1
  Ba  Ba25  1  0.001803  0.368554  0.277001  1
  Ba  Ba26  1  0.775202  0.408455  0.277004  1
  Ba  Ba27  1  0.350834  0.244265  0.850587  1
  Ba  Ba28  1  0.399166  0.005735  0.649413  1
  Ba  Ba29  1  0.974798  0.841545  0.222996  1
  Ba  Ba30  1  0.748197  0.881446  0.222999  1
  Ba  Ba31  1  0.999766  0.106317  0.850592  1
  Ba  Ba32  1  0.268644  0.375000  0.393644  1
  Ba  Ba33  1  0.124999  0.731362  0.106359  1
  Ba  Ba34  1  0.356325  0.749752  0.350575  1
  Ba  Ba35  1  0.255734  0.149175  0.149413  1
  Ba  Ba36  1  0.125003  0.231362  0.606363  1
  Ba  Ba37  1  0.118549  0.341545  0.866746  1
  Ba  Ba38  1  0.213970  0.873374  0.024064  1
  Ba  Ba39  1  0.768643  0.375000  0.893643  1
  Ba  Ba40  1  0.501807  0.224799  0.633246  1
  Ba  Ba41  1  0.850822  0.000248  0.106572  1
  Ba  Ba42  1  0.439898  0.599302  0.475931  1
  Ba  Ba43  1  0.994275  0.643683  0.393449  1
  Ba  Ba44  1  0.474797  0.251795  0.133247  1
  Ba  Ba45  1  0.499763  0.649175  0.893441  1
  Ba  Ba46  1  0.591553  0.868554  0.366751  1
  Ba  Ba47  1  0.856323  0.505735  0.606569  1
  Ba  Ba48  1  0.623371  0.099302  0.159404  1
  Ba  Ba49  1  0.713972  0.689905  0.340595  1
  Ba  Ba50  1  0.939901  0.463966  0.840600  1
  Ba  Ba51  1  0.349309  0.373374  0.659403  1
  Ba  Ba52  1  0.091553  0.724799  0.722993  1
  Ba  Ba53  1  0.618547  0.751795  0.776997  1
  Ba  Ba54  1  0.849310  0.189905  0.975933  1
  Ba  Ba55  1  0.123365  0.963966  0.524064  1
  Lu  Lu56  1  0.249989  0.750004  0.499995  1
  Lu  Lu57  1  0.750010  0.250004  0.500015  1
  Lu  Lu58  1  0.500011  0.499996  0.000005  1
  Lu  Lu59  1  0.999990  0.999996  0.999985  1
  Sb  Sb60  1  0.853626  0.445722  0.142414  1
  Sb  Sb61  1  0.961216  0.053311  0.357594  1
  Sb  Sb62  1  0.195717  0.553311  0.092095  1
  Sb  Sb63  1  0.353625  0.211216  0.407904  1
  Sb  Sb64  1  0.190187  0.551529  0.366594  1
  Sb  Sb65  1  0.073602  0.934936  0.133414  1
  Sb  Sb66  1  0.301521  0.434936  0.861334  1
  Sb  Sb67  1  0.690190  0.323591  0.638647  1
  Sb  Sb68  1  0.573598  0.440190  0.138665  1
  Sb  Sb69  1  0.684936  0.051529  0.361341  1
  Sb  Sb70  1  0.370607  0.870603  0.241205  1
  Sb  Sb71  1  0.250000  0.250001  0.000002  1
  Sb  Sb72  1  0.120606  0.120603  0.741202  1
  Sb  Sb73  1  0.461217  0.103617  0.907907  1
  Sb  Sb74  1  0.803307  0.945722  0.592096  1
  Sb  Sb75  1  0.184944  0.823591  0.633401  1
  Sb  Sb76  1  0.801525  0.940190  0.866593  1
  Sb  Sb77  1  0.620601  0.879397  0.000004  1
  Sb  Sb78  1  0.870597  0.629397  0.500003  1
  Sb  Sb79  1  0.054290  0.646383  0.857599  1
  Sb  Sb80  1  0.446688  0.538784  0.642409  1
  Sb  Sb81  1  0.749999  0.750001  0.000001  1
  Sb  Sb82  1  0.000001  0.499999  0.499999  1
  Sb  Sb83  1  0.303312  0.711216  0.857591  1
  Sb  Sb84  1  0.695710  0.603617  0.642401  1
  Sb  Sb85  1  0.879403  0.620603  0.999997  1
  Sb  Sb86  1  0.129399  0.370603  0.499996  1
  Sb  Sb87  1  0.948475  0.309810  0.633407  1
  Sb  Sb88  1  0.565056  0.426409  0.866599  1
  Sb  Sb89  1  0.946693  0.304278  0.907904  1
  Sb  Sb90  1  0.288783  0.146383  0.592093  1
  Sb  Sb91  1  0.629394  0.129397  0.758798  1
  Sb  Sb92  1  0.500000  0.999999  0.499998  1
  Sb  Sb93  1  0.379393  0.379397  0.258795  1
  Sb  Sb94  1  0.065064  0.198471  0.138659  1
  Sb  Sb95  1  0.176402  0.809810  0.361335  1
  Sb  Sb96  1  0.059810  0.926409  0.861353  1
  Sb  Sb97  1  0.448479  0.815064  0.638666  1
  Sb  Sb98  1  0.676398  0.315064  0.366586  1
  Sb  Sb99  1  0.559813  0.698471  0.133406  1
  Sb  Sb100  1  0.396375  0.038784  0.092096  1
  Sb  Sb101  1  0.554283  0.696689  0.407905  1
  Sb  Sb102  1  0.788784  0.196689  0.142406  1
  Sb  Sb103  1  0.896374  0.804278  0.357586  1
