# generated using pymatgen
data_Tm10Zn3Bi2Pd
_symmetry_space_group_name_H-M   'P 1'
_cell_length_a   8.55178600
_cell_length_b   8.55178521
_cell_length_c   8.57035990
_cell_angle_alpha   124.11275547
_cell_angle_beta   124.11274605
_cell_angle_gamma   82.87220951
_symmetry_Int_Tables_number   1
_chemical_formula_structural   Tm10Zn3Bi2Pd
_chemical_formula_sum   'Tm10 Zn3 Bi2 Pd1'
_cell_volume   412.72727756
_cell_formula_units_Z   1
loop_
 _symmetry_equiv_pos_site_id
 _symmetry_equiv_pos_as_xyz
  1  'x, y, z'
loop_
 _atom_site_type_symbol
 _atom_site_label
 _atom_site_symmetry_multiplicity
 _atom_site_fract_x
 _atom_site_fract_y
 _atom_site_fract_z
 _atom_site_occupancy
  Tm  Tm0  1  0.003314  0.000903  0.004217  1
  Tm  Tm1  1  0.499097  0.496686  0.995783  1
  Tm  Tm2  1  0.790135  0.294694  0.802585  1
  Tm  Tm3  1  0.205306  0.709865  0.197415  1
  Tm  Tm4  1  0.487550  0.992109  0.197415  1
  Tm  Tm5  1  0.296975  0.482644  0.500000  1
  Tm  Tm6  1  0.017356  0.203025  0.500000  1
  Tm  Tm7  1  0.507891  0.012450  0.802585  1
  Tm  Tm8  1  0.705801  0.512834  0.500000  1
  Tm  Tm9  1  0.987166  0.794199  0.500000  1
  Zn  Zn10  1  0.137338  0.639684  0.777024  1
  Zn  Zn11  1  0.860316  0.362662  0.222976  1
  Zn  Zn12  1  0.637718  0.862282  0.500000  1
  Bi  Bi13  1  0.247350  0.252650  0.000000  1
  Bi  Bi14  1  0.747350  0.752650  0.000000  1
  Pd  Pd15  1  0.369338  0.130662  0.500000  1
