# generated using pymatgen
data_Sc2CuNiPt4
_symmetry_space_group_name_H-M   'P 1'
_cell_length_a   5.50385226
_cell_length_b   5.50385150
_cell_length_c   5.58824900
_cell_angle_alpha   59.49143091
_cell_angle_beta   59.49143558
_cell_angle_gamma   61.01713406
_symmetry_Int_Tables_number   1
_chemical_formula_structural   Sc2CuNiPt4
_chemical_formula_sum   'Sc2 Cu1 Ni1 Pt4'
_cell_volume   119.64284813
_cell_formula_units_Z   1
loop_
 _symmetry_equiv_pos_site_id
 _symmetry_equiv_pos_as_xyz
  1  'x, y, z'
loop_
 _atom_site_type_symbol
 _atom_site_label
 _atom_site_symmetry_multiplicity
 _atom_site_fract_x
 _atom_site_fract_y
 _atom_site_fract_z
 _atom_site_occupancy
  Sc  Sc0  1  0.000000  0.000000  0.500000  1
  Sc  Sc1  1  0.500000  0.500000  0.000000  1
  Cu  Cu2  1  0.500000  0.500000  0.500000  1
  Ni  Ni3  1  0.000000  0.000000  0.000000  1
  Pt  Pt4  1  0.000000  0.500000  0.000000  1
  Pt  Pt5  1  0.500000  0.000000  0.000000  1
  Pt  Pt6  1  0.000000  0.500000  0.500000  1
  Pt  Pt7  1  0.500000  0.000000  0.500000  1
