# generated using pymatgen
data_Zr9NbCoRe3
_symmetry_space_group_name_H-M   'P 1'
_cell_length_a   8.74569400
_cell_length_b   8.74570920
_cell_length_c   8.53854600
_cell_angle_alpha   90.00000000
_cell_angle_beta   90.00000000
_cell_angle_gamma   119.99999795
_symmetry_Int_Tables_number   1
_chemical_formula_structural   Zr9NbCoRe3
_chemical_formula_sum   'Zr18 Nb2 Co2 Re6'
_cell_volume   565.59280208
_cell_formula_units_Z   2
loop_
 _symmetry_equiv_pos_site_id
 _symmetry_equiv_pos_as_xyz
  1  'x, y, z'
loop_
 _atom_site_type_symbol
 _atom_site_label
 _atom_site_symmetry_multiplicity
 _atom_site_fract_x
 _atom_site_fract_y
 _atom_site_fract_z
 _atom_site_occupancy
  Zr  Zr0  1  0.201063  0.798937  0.440497  1
  Zr  Zr1  1  0.201063  0.402128  0.440497  1
  Zr  Zr2  1  0.597872  0.798937  0.440497  1
  Zr  Zr3  1  0.798937  0.201063  0.559503  1
  Zr  Zr4  1  0.798937  0.597872  0.559503  1
  Zr  Zr5  1  0.402128  0.201063  0.559503  1
  Zr  Zr6  1  0.798937  0.201063  0.940497  1
  Zr  Zr7  1  0.798937  0.597872  0.940497  1
  Zr  Zr8  1  0.402128  0.201063  0.940497  1
  Zr  Zr9  1  0.201063  0.798937  0.059503  1
  Zr  Zr10  1  0.201063  0.402128  0.059503  1
  Zr  Zr11  1  0.597872  0.798937  0.059503  1
  Zr  Zr12  1  0.542536  0.457464  0.250000  1
  Zr  Zr13  1  0.542536  0.085073  0.250000  1
  Zr  Zr14  1  0.914928  0.457464  0.250000  1
  Zr  Zr15  1  0.457464  0.542536  0.750000  1
  Zr  Zr16  1  0.457464  0.914927  0.750000  1
  Zr  Zr17  1  0.085072  0.542536  0.750000  1
  Nb  Nb18  1  0.000000  0.000000  0.500000  1
  Nb  Nb19  1  0.000000  0.000000  0.000000  1
  Co  Co20  1  0.333333  0.666667  0.250000  1
  Co  Co21  1  0.666667  0.333333  0.750000  1
  Re  Re22  1  0.887804  0.112195  0.250000  1
  Re  Re23  1  0.887804  0.775609  0.250000  1
  Re  Re24  1  0.224392  0.112196  0.250000  1
  Re  Re25  1  0.112196  0.887805  0.750000  1
  Re  Re26  1  0.112196  0.224391  0.750000  1
  Re  Re27  1  0.775608  0.887804  0.750000  1
