# generated using pymatgen
data_Sc4CrTc6W
_symmetry_space_group_name_H-M   'P 1'
_cell_length_a   5.22261075
_cell_length_b   5.22261154
_cell_length_c   8.58108000
_cell_angle_alpha   90.00000000
_cell_angle_beta   90.00000000
_cell_angle_gamma   119.36036513
_symmetry_Int_Tables_number   1
_chemical_formula_structural   Sc4CrTc6W
_chemical_formula_sum   'Sc4 Cr1 Tc6 W1'
_cell_volume   203.99110479
_cell_formula_units_Z   1
loop_
 _symmetry_equiv_pos_site_id
 _symmetry_equiv_pos_as_xyz
  1  'x, y, z'
loop_
 _atom_site_type_symbol
 _atom_site_label
 _atom_site_symmetry_multiplicity
 _atom_site_fract_x
 _atom_site_fract_y
 _atom_site_fract_z
 _atom_site_occupancy
  Sc  Sc0  1  0.333187  0.666813  0.437083  1
  Sc  Sc1  1  0.667518  0.332482  0.559944  1
  Sc  Sc2  1  0.667518  0.332482  0.940056  1
  Sc  Sc3  1  0.333187  0.666813  0.062917  1
  Cr  Cr4  1  0.830447  0.169553  0.250000  1
  Tc  Tc5  1  0.997596  0.002404  0.490466  1
  Tc  Tc6  1  0.997596  0.002404  0.009534  1
  Tc  Tc7  1  0.826811  0.649369  0.250000  1
  Tc  Tc8  1  0.350631  0.173189  0.250000  1
  Tc  Tc9  1  0.171455  0.342696  0.750000  1
  Tc  Tc10  1  0.657304  0.828545  0.750000  1
  W  W11  1  0.166752  0.833248  0.750000  1
