# generated using pymatgen
data_Hf10ZnGaSb4
_symmetry_space_group_name_H-M   'P 1'
_cell_length_a   5.54464030
_cell_length_b   8.25136433
_cell_length_c   8.25136530
_cell_angle_alpha   83.50176319
_cell_angle_beta   70.34926994
_cell_angle_gamma   70.34925425
_symmetry_Int_Tables_number   1
_chemical_formula_structural   Hf10ZnGaSb4
_chemical_formula_sum   'Hf10 Zn1 Ga1 Sb4'
_cell_volume   334.81542501
_cell_formula_units_Z   1
loop_
 _symmetry_equiv_pos_site_id
 _symmetry_equiv_pos_as_xyz
  1  'x, y, z'
loop_
 _atom_site_type_symbol
 _atom_site_label
 _atom_site_symmetry_multiplicity
 _atom_site_fract_x
 _atom_site_fract_y
 _atom_site_fract_z
 _atom_site_occupancy
  Hf  Hf0  1  0.074951  0.139553  0.710583  1
  Hf  Hf1  1  0.924913  0.860449  0.289374  1
  Hf  Hf2  1  0.785391  0.289367  0.139534  1
  Hf  Hf3  1  0.425049  0.289417  0.860447  1
  Hf  Hf4  1  0.214394  0.710628  0.860484  1
  Hf  Hf5  1  0.575087  0.710626  0.139551  1
  Hf  Hf6  1  0.714609  0.860466  0.710633  1
  Hf  Hf7  1  0.285606  0.139516  0.289372  1
  Hf  Hf8  1  0.250000  0.499954  0.500046  1
  Hf  Hf9  1  0.750000  0.500019  0.499981  1
  Zn  Zn10  1  0.750000  0.999977  0.000023  1
  Ga  Ga11  1  0.250000  0.000034  0.999966  1
  Sb  Sb12  1  0.164603  0.499999  0.170828  1
  Sb  Sb13  1  0.835413  0.499994  0.829173  1
  Sb  Sb14  1  0.335397  0.829172  0.500001  1
  Sb  Sb15  1  0.664587  0.170827  0.500006  1
