# generated using pymatgen
data_DyY4Zr3(P3Ir4)4
_symmetry_space_group_name_H-M   'P 1'
_cell_length_a   12.88989500
_cell_length_b   12.88989566
_cell_length_c   3.98938600
_cell_angle_alpha   90.00000000
_cell_angle_beta   90.00000000
_cell_angle_gamma   120.00000086
_symmetry_Int_Tables_number   1
_chemical_formula_structural   DyY4Zr3(P3Ir4)4
_chemical_formula_sum   'Dy1 Y4 Zr3 P12 Ir16'
_cell_volume   574.03116144
_cell_formula_units_Z   1
loop_
 _symmetry_equiv_pos_site_id
 _symmetry_equiv_pos_as_xyz
  1  'x, y, z'
loop_
 _atom_site_type_symbol
 _atom_site_label
 _atom_site_symmetry_multiplicity
 _atom_site_fract_x
 _atom_site_fract_y
 _atom_site_fract_z
 _atom_site_occupancy
  Dy  Dy0  1  0.666667  0.333333  0.500000  1
  Y  Y1  1  0.333333  0.666667  0.500000  1
  Y  Y2  1  0.999993  0.815068  0.000000  1
  Y  Y3  1  0.184932  0.184926  0.000000  1
  Y  Y4  1  0.815074  0.000007  0.000000  1
  Zr  Zr5  1  0.999979  0.449240  0.500000  1
  Zr  Zr6  1  0.550760  0.550739  0.500000  1
  Zr  Zr7  1  0.449261  0.000021  0.500000  1
  P  P8  1  0.000006  0.649179  0.500000  1
  P  P9  1  0.350821  0.350827  0.500000  1
  P  P10  1  0.649173  0.999994  0.500000  1
  P  P11  1  0.517224  0.686523  0.000000  1
  P  P12  1  0.313477  0.830701  0.000000  1
  P  P13  1  0.169299  0.482776  0.000000  1
  P  P14  1  0.482861  0.169377  0.000000  1
  P  P15  1  0.686516  0.517139  0.000000  1
  P  P16  1  0.830623  0.313484  0.000000  1
  P  P17  1  0.000001  0.176068  0.500000  1
  P  P18  1  0.823932  0.823932  0.500000  1
  P  P19  1  0.176068  0.999999  0.500000  1
  Ir  Ir20  1  0.507734  0.864048  0.000000  1
  Ir  Ir21  1  0.135952  0.643687  0.000000  1
  Ir  Ir22  1  0.356313  0.492266  0.000000  1
  Ir  Ir23  1  0.492392  0.356300  0.000000  1
  Ir  Ir24  1  0.863909  0.507608  0.000000  1
  Ir  Ir25  1  0.643700  0.136091  0.000000  1
  Ir  Ir26  1  0.999993  0.278857  0.000000  1
  Ir  Ir27  1  0.721143  0.721136  0.000000  1
  Ir  Ir28  1  0.278864  0.000007  0.000000  1
  Ir  Ir29  1  0.628950  0.807056  0.500000  1
  Ir  Ir30  1  0.192944  0.821893  0.500000  1
  Ir  Ir31  1  0.178107  0.371050  0.500000  1
  Ir  Ir32  1  0.371111  0.178144  0.500000  1
  Ir  Ir33  1  0.807033  0.628889  0.500000  1
  Ir  Ir34  1  0.821856  0.192967  0.500000  1
  Ir  Ir35  1  0.000000  0.000000  0.500000  1
