# generated using pymatgen
data_Tm9Sc3Sn10
_symmetry_space_group_name_H-M   'P 1'
_cell_length_a   11.34087208
_cell_length_b   11.34087175
_cell_length_c   11.34620500
_cell_angle_alpha   148.16472588
_cell_angle_beta   132.08165552
_cell_angle_gamma   58.63608922
_symmetry_Int_Tables_number   1
_chemical_formula_structural   Tm9Sc3Sn10
_chemical_formula_sum   'Tm9 Sc3 Sn10'
_cell_volume   566.82563492
_cell_formula_units_Z   1
loop_
 _symmetry_equiv_pos_site_id
 _symmetry_equiv_pos_as_xyz
  1  'x, y, z'
loop_
 _atom_site_type_symbol
 _atom_site_label
 _atom_site_symmetry_multiplicity
 _atom_site_fract_x
 _atom_site_fract_y
 _atom_site_fract_z
 _atom_site_occupancy
  Tm  Tm0  1  0.304706  0.054706  0.750000  1
  Tm  Tm1  1  0.676301  0.438020  0.237058  1
  Tm  Tm2  1  0.324191  0.561889  0.762301  1
  Tm  Tm3  1  0.200961  0.939243  0.262942  1
  Tm  Tm4  1  0.799588  0.061891  0.737699  1
  Tm  Tm5  1  0.256915  0.143288  0.116087  1
  Tm  Tm6  1  0.742844  0.855623  0.883678  1
  Tm  Tm7  1  0.027201  0.640828  0.383913  1
  Tm  Tm8  1  0.971945  0.359165  0.616322  1
  Sc  Sc9  1  0.307967  0.557967  0.250000  1
  Sc  Sc10  1  0.691957  0.441957  0.750000  1
  Sc  Sc11  1  0.693790  0.943790  0.250000  1
  Sn  Sn12  1  0.594260  0.293355  0.308738  1
  Sn  Sn13  1  0.410462  0.700884  0.691707  1
  Sn  Sn14  1  0.984617  0.785522  0.191262  1
  Sn  Sn15  1  0.009178  0.218756  0.808293  1
  Sn  Sn16  1  0.000357  0.250357  0.250000  1
  Sn  Sn17  1  0.999794  0.749794  0.750000  1
  Sn  Sn18  1  0.480289  0.071310  0.402508  1
  Sn  Sn19  1  0.522519  0.921910  0.590553  1
  Sn  Sn20  1  0.668801  0.577780  0.097492  1
  Sn  Sn21  1  0.331356  0.431967  0.909447  1
