# generated using pymatgen
data_Sr4Yb4Si3Pb
_symmetry_space_group_name_H-M   'P 1'
_cell_length_a   4.99456500
_cell_length_b   8.14503973
_cell_length_c   9.28491445
_cell_angle_alpha   89.42561966
_cell_angle_beta   90.00000000
_cell_angle_gamma   90.00000000
_symmetry_Int_Tables_number   1
_chemical_formula_structural   Sr4Yb4Si3Pb
_chemical_formula_sum   'Sr4 Yb4 Si3 Pb1'
_cell_volume   377.69997833
_cell_formula_units_Z   1
loop_
 _symmetry_equiv_pos_site_id
 _symmetry_equiv_pos_as_xyz
  1  'x, y, z'
loop_
 _atom_site_type_symbol
 _atom_site_label
 _atom_site_symmetry_multiplicity
 _atom_site_fract_x
 _atom_site_fract_y
 _atom_site_fract_z
 _atom_site_occupancy
  Sr  Sr0  1  0.750000  0.978891  0.673758  1
  Sr  Sr1  1  0.250000  0.024259  0.323122  1
  Sr  Sr2  1  0.750000  0.471276  0.817391  1
  Sr  Sr3  1  0.250000  0.516352  0.185029  1
  Yb  Yb4  1  0.750000  0.859172  0.083883  1
  Yb  Yb5  1  0.250000  0.158964  0.929868  1
  Yb  Yb6  1  0.750000  0.352638  0.427931  1
  Yb  Yb7  1  0.250000  0.641997  0.561875  1
  Si  Si8  1  0.750000  0.730844  0.393084  1
  Si  Si9  1  0.250000  0.266551  0.604441  1
  Si  Si10  1  0.750000  0.234372  0.111122  1
  Pb  Pb11  1  0.250000  0.764683  0.888496  1
