# generated using pymatgen
data_Y3Er5(MnS4)4
_symmetry_space_group_name_H-M   'P 1'
_cell_length_a   6.41900500
_cell_length_b   7.93018600
_cell_length_c   13.55230500
_cell_angle_alpha   90.00000000
_cell_angle_beta   90.00214223
_cell_angle_gamma   90.00000000
_symmetry_Int_Tables_number   1
_chemical_formula_structural   Y3Er5(MnS4)4
_chemical_formula_sum   'Y3 Er5 Mn4 S16'
_cell_volume   689.86522707
_cell_formula_units_Z   1
loop_
 _symmetry_equiv_pos_site_id
 _symmetry_equiv_pos_as_xyz
  1  'x, y, z'
loop_
 _atom_site_type_symbol
 _atom_site_label
 _atom_site_symmetry_multiplicity
 _atom_site_fract_x
 _atom_site_fract_y
 _atom_site_fract_z
 _atom_site_occupancy
  Y  Y0  1  0.994785  0.750000  0.265951  1
  Y  Y1  1  0.505258  0.750000  0.766009  1
  Y  Y2  1  0.005204  0.250000  0.734057  1
  Er  Er3  1  0.999984  0.499818  0.000185  1
  Er  Er4  1  0.499986  0.000109  0.499905  1
  Er  Er5  1  0.999984  0.000182  0.000185  1
  Er  Er6  1  0.499986  0.499891  0.499905  1
  Er  Er7  1  0.494996  0.250000  0.234281  1
  Mn  Mn8  1  0.411573  0.750000  0.092361  1
  Mn  Mn9  1  0.088336  0.750000  0.592327  1
  Mn  Mn10  1  0.588260  0.250000  0.907825  1
  Mn  Mn11  1  0.911918  0.250000  0.407670  1
  S  S12  1  0.780796  0.750000  0.089068  1
  S  S13  1  0.719494  0.750000  0.588981  1
  S  S14  1  0.219320  0.250000  0.910978  1
  S  S15  1  0.281419  0.250000  0.409979  1
  S  S16  1  0.246703  0.750000  0.430700  1
  S  S17  1  0.253099  0.750000  0.930712  1
  S  S18  1  0.753244  0.250000  0.569356  1
  S  S19  1  0.745474  0.250000  0.070126  1
  S  S20  1  0.740018  0.486149  0.331558  1
  S  S21  1  0.758823  0.012856  0.832234  1
  S  S22  1  0.258822  0.987174  0.667812  1
  S  S23  1  0.242428  0.511744  0.168115  1
  S  S24  1  0.258822  0.512826  0.667812  1
  S  S25  1  0.242428  0.988256  0.168115  1
  S  S26  1  0.740018  0.013851  0.331558  1
  S  S27  1  0.758823  0.487144  0.832234  1
