# generated using pymatgen
data_Tb20Cd5InNi2
_symmetry_space_group_name_H-M   'P 1'
_cell_length_a   9.64232017
_cell_length_b   9.64232091
_cell_length_c   9.87636800
_cell_angle_alpha   90.00000000
_cell_angle_beta   90.00000000
_cell_angle_gamma   120.16645709
_symmetry_Int_Tables_number   1
_chemical_formula_structural   Tb20Cd5InNi2
_chemical_formula_sum   'Tb20 Cd5 In1 Ni2'
_cell_volume   793.88961731
_cell_formula_units_Z   1
loop_
 _symmetry_equiv_pos_site_id
 _symmetry_equiv_pos_as_xyz
  1  'x, y, z'
loop_
 _atom_site_type_symbol
 _atom_site_label
 _atom_site_symmetry_multiplicity
 _atom_site_fract_x
 _atom_site_fract_y
 _atom_site_fract_z
 _atom_site_occupancy
  Tb  Tb0  1  0.001332  0.998668  0.501601  1
  Tb  Tb1  1  0.001332  0.998668  0.998399  1
  Tb  Tb2  1  0.542973  0.457027  0.250000  1
  Tb  Tb3  1  0.540528  0.086411  0.250000  1
  Tb  Tb4  1  0.913589  0.459472  0.250000  1
  Tb  Tb5  1  0.456325  0.543675  0.750000  1
  Tb  Tb6  1  0.456466  0.912993  0.750000  1
  Tb  Tb7  1  0.087007  0.543534  0.750000  1
  Tb  Tb8  1  0.210271  0.789729  0.437062  1
  Tb  Tb9  1  0.209829  0.419894  0.436602  1
  Tb  Tb10  1  0.580106  0.790171  0.436602  1
  Tb  Tb11  1  0.789618  0.210382  0.562261  1
  Tb  Tb12  1  0.789163  0.579070  0.563562  1
  Tb  Tb13  1  0.420930  0.210837  0.563562  1
  Tb  Tb14  1  0.789618  0.210382  0.937739  1
  Tb  Tb15  1  0.789163  0.579070  0.936438  1
  Tb  Tb16  1  0.420930  0.210837  0.936438  1
  Tb  Tb17  1  0.210271  0.789729  0.062938  1
  Tb  Tb18  1  0.209829  0.419894  0.063398  1
  Tb  Tb19  1  0.580106  0.790171  0.063398  1
  Cd  Cd20  1  0.885670  0.770090  0.250000  1
  Cd  Cd21  1  0.229910  0.114330  0.250000  1
  Cd  Cd22  1  0.115434  0.884566  0.750000  1
  Cd  Cd23  1  0.114607  0.229926  0.750000  1
  Cd  Cd24  1  0.770074  0.885393  0.750000  1
  In  In25  1  0.885074  0.114926  0.250000  1
  Ni  Ni26  1  0.333000  0.667000  0.250000  1
  Ni  Ni27  1  0.666842  0.333158  0.750000  1
