# generated using pymatgen
data_Hf2Zr(SiRu)3
_symmetry_space_group_name_H-M   'P 1'
_cell_length_a   7.62813493
_cell_length_b   7.62813442
_cell_length_c   7.62813471
_cell_angle_alpha   127.94557134
_cell_angle_beta   121.99621798
_cell_angle_gamma   81.67569196
_symmetry_Int_Tables_number   1
_chemical_formula_structural   Hf2Zr(SiRu)3
_chemical_formula_sum   'Hf4 Zr2 Si6 Ru6'
_cell_volume   285.77355769
_cell_formula_units_Z   2
loop_
 _symmetry_equiv_pos_site_id
 _symmetry_equiv_pos_as_xyz
  1  'x, y, z'
loop_
 _atom_site_type_symbol
 _atom_site_label
 _atom_site_symmetry_multiplicity
 _atom_site_fract_x
 _atom_site_fract_y
 _atom_site_fract_z
 _atom_site_occupancy
  Hf  Hf0  1  0.747323  0.831780  0.584458  1
  Hf  Hf1  1  0.252677  0.837134  0.084458  1
  Hf  Hf2  1  0.052516  0.256705  0.704188  1
  Hf  Hf3  1  0.947484  0.651672  0.204188  1
  Zr  Zr4  1  0.470299  0.698241  0.727942  1
  Zr  Zr5  1  0.529701  0.257643  0.227942  1
  Si  Si6  1  0.275330  0.268866  0.493536  1
  Si  Si7  1  0.724670  0.218205  0.993536  1
  Si  Si8  1  0.326134  0.588012  0.248623  1
  Si  Si9  1  0.673866  0.922489  0.261878  1
  Si  Si10  1  0.160610  0.922489  0.748623  1
  Si  Si11  1  0.839390  0.588012  0.761878  1
  Ru  Ru12  1  0.500000  0.500124  0.000124  1
  Ru  Ru13  1  0.000000  0.500124  0.500124  1
  Ru  Ru14  1  0.094191  0.253056  0.100187  1
  Ru  Ru15  1  0.905809  0.005997  0.158866  1
  Ru  Ru16  1  0.347130  0.005997  0.600187  1
  Ru  Ru17  1  0.652870  0.253056  0.658866  1
