# generated using pymatgen
data_Cs3K4TaIn3As5
_symmetry_space_group_name_H-M   'P 1'
_cell_length_a   8.55495128
_cell_length_b   9.51509758
_cell_length_c   14.76486898
_cell_angle_alpha   85.15050416
_cell_angle_beta   83.07849799
_cell_angle_gamma   87.39495175
_symmetry_Int_Tables_number   1
_chemical_formula_structural   Cs3K4TaIn3As5
_chemical_formula_sum   'Cs6 K8 Ta2 In6 As10'
_cell_volume   1188.09211156
_cell_formula_units_Z   2
loop_
 _symmetry_equiv_pos_site_id
 _symmetry_equiv_pos_as_xyz
  1  'x, y, z'
loop_
 _atom_site_type_symbol
 _atom_site_label
 _atom_site_symmetry_multiplicity
 _atom_site_fract_x
 _atom_site_fract_y
 _atom_site_fract_z
 _atom_site_occupancy
  Cs  Cs0  1  0.690671  0.658110  0.395461  1
  Cs  Cs1  1  0.309329  0.341890  0.604539  1
  Cs  Cs2  1  0.754153  0.985654  0.534300  1
  Cs  Cs3  1  0.245847  0.014346  0.465700  1
  Cs  Cs4  1  0.821429  0.364841  0.648860  1
  Cs  Cs5  1  0.178571  0.635159  0.351140  1
  K  K6  1  0.820400  0.807420  0.129192  1
  K  K7  1  0.179600  0.192580  0.870808  1
  K  K8  1  0.274502  0.256258  0.240028  1
  K  K9  1  0.725498  0.743742  0.759972  1
  K  K10  1  0.739780  0.498246  0.973749  1
  K  K11  1  0.260220  0.501754  0.026251  1
  K  K12  1  0.678493  0.083790  0.889010  1
  K  K13  1  0.321507  0.916210  0.110990  1
  Ta  Ta14  1  0.650533  0.394170  0.213886  1
  Ta  Ta15  1  0.349467  0.605830  0.786114  1
  In  In16  1  0.911488  0.274693  0.364492  1
  In  In17  1  0.088512  0.725307  0.635508  1
  In  In18  1  0.956945  0.181264  0.117984  1
  In  In19  1  0.043055  0.818736  0.882016  1
  In  In20  1  0.637064  0.041149  0.288307  1
  In  In21  1  0.362936  0.958851  0.711693  1
  As  As22  1  0.492297  0.602945  0.174138  1
  As  As23  1  0.507703  0.397055  0.825862  1
  As  As24  1  0.936319  0.453683  0.196646  1
  As  As25  1  0.063681  0.546317  0.803354  1
  As  As26  1  0.574933  0.297315  0.378167  1
  As  As27  1  0.425067  0.702685  0.621833  1
  As  As28  1  0.622998  0.194148  0.113597  1
  As  As29  1  0.377002  0.805852  0.886403  1
  As  As30  1  0.981268  0.998485  0.287228  1
  As  As31  1  0.018732  0.001515  0.712772  1
