# generated using pymatgen
data_Er5Sc3(OsI4)2
_symmetry_space_group_name_H-M   'P 1'
_cell_length_a   11.16788121
_cell_length_b   11.08530422
_cell_length_c   6.00653058
_cell_angle_alpha   90.01354889
_cell_angle_beta   89.80379178
_cell_angle_gamma   89.71427585
_symmetry_Int_Tables_number   1
_chemical_formula_structural   Er5Sc3(OsI4)2
_chemical_formula_sum   'Er5 Sc3 Os2 I8'
_cell_volume   743.59101520
_cell_formula_units_Z   1
loop_
 _symmetry_equiv_pos_site_id
 _symmetry_equiv_pos_as_xyz
  1  'x, y, z'
loop_
 _atom_site_type_symbol
 _atom_site_label
 _atom_site_symmetry_multiplicity
 _atom_site_fract_x
 _atom_site_fract_y
 _atom_site_fract_z
 _atom_site_occupancy
  Er  Er0  1  0.915294  0.201692  0.500817  1
  Er  Er1  1  0.799873  0.920138  0.501753  1
  Er  Er2  1  0.200284  0.080246  0.498892  1
  Er  Er3  1  0.082090  0.199704  0.999665  1
  Er  Er4  1  0.921326  0.798540  0.001055  1
  Sc  Sc5  1  0.185670  0.919759  0.998626  1
  Sc  Sc6  1  0.813283  0.076921  0.002065  1
  Sc  Sc7  1  0.078552  0.813691  0.500093  1
  Os  Os8  1  0.999807  0.000559  0.249696  1
  Os  Os9  1  0.999665  0.000631  0.750917  1
  I  I10  1  0.345987  0.841368  0.502506  1
  I  I11  1  0.640671  0.150920  0.496701  1
  I  I12  1  0.156775  0.650145  0.998659  1
  I  I13  1  0.842785  0.350433  0.999205  1
  I  I14  1  0.355443  0.133976  0.000009  1
  I  I15  1  0.646876  0.858420  0.999798  1
  I  I16  1  0.863997  0.642948  0.499533  1
  I  I17  1  0.151623  0.359908  0.500010  1
