# generated using pymatgen
data_Y8TmThIr4
_symmetry_space_group_name_H-M   'P 1'
_cell_length_a   6.51286011
_cell_length_b   7.23201654
_cell_length_c   8.64874810
_cell_angle_alpha   96.89458381
_cell_angle_beta   112.11832186
_cell_angle_gamma   89.99999495
_symmetry_Int_Tables_number   1
_chemical_formula_structural   Y8TmThIr4
_chemical_formula_sum   'Y8 Tm1 Th1 Ir4'
_cell_volume   374.20520688
_cell_formula_units_Z   1
loop_
 _symmetry_equiv_pos_site_id
 _symmetry_equiv_pos_as_xyz
  1  'x, y, z'
loop_
 _atom_site_type_symbol
 _atom_site_label
 _atom_site_symmetry_multiplicity
 _atom_site_fract_x
 _atom_site_fract_y
 _atom_site_fract_z
 _atom_site_occupancy
  Y  Y0  1  0.975133  0.922272  0.185306  1
  Y  Y1  1  0.789826  0.577728  0.814694  1
  Y  Y2  1  0.021147  0.085068  0.815983  1
  Y  Y3  1  0.205166  0.414932  0.184017  1
  Y  Y4  1  0.658956  0.816227  0.446108  1
  Y  Y5  1  0.212847  0.683773  0.553892  1
  Y  Y6  1  0.351762  0.184301  0.561444  1
  Y  Y7  1  0.790317  0.315699  0.438556  1
  Tm  Tm8  1  0.569288  0.250000  0.000000  1
  Th  Th9  1  0.423948  0.750000  0.000000  1
  Ir  Ir10  1  0.814982  0.573649  0.214726  1
  Ir  Ir11  1  0.600256  0.926351  0.785274  1
  Ir  Ir12  1  0.185032  0.430620  0.783692  1
  Ir  Ir13  1  0.401340  0.069380  0.216308  1
