# generated using pymatgen
data_USnI5Br
_symmetry_space_group_name_H-M   'P 1'
_cell_length_a   7.81034050
_cell_length_b   7.63648262
_cell_length_c   14.09942835
_cell_angle_alpha   89.73778125
_cell_angle_beta   91.19146701
_cell_angle_gamma   120.76391617
_symmetry_Int_Tables_number   1
_chemical_formula_structural   USnI5Br
_chemical_formula_sum   'U2 Sn2 I10 Br2'
_cell_volume   722.43028766
_cell_formula_units_Z   2
loop_
 _symmetry_equiv_pos_site_id
 _symmetry_equiv_pos_as_xyz
  1  'x, y, z'
loop_
 _atom_site_type_symbol
 _atom_site_label
 _atom_site_symmetry_multiplicity
 _atom_site_fract_x
 _atom_site_fract_y
 _atom_site_fract_z
 _atom_site_occupancy
  U  U0  1  0.000000  0.000000  0.500000  1
  U  U1  1  0.000000  0.000000  0.000000  1
  Sn  Sn2  1  0.675507  0.347004  0.746398  1
  Sn  Sn3  1  0.324493  0.652996  0.253602  1
  I  I4  1  0.012142  0.679027  0.626379  1
  I  I5  1  0.667469  0.669906  0.870228  1
  I  I6  1  0.987858  0.320973  0.373621  1
  I  I7  1  0.332531  0.330094  0.129772  1
  I  I8  1  0.332787  0.341033  0.620527  1
  I  I9  1  0.012986  0.328142  0.877250  1
  I  I10  1  0.667213  0.658967  0.379473  1
  I  I11  1  0.987014  0.671858  0.122750  1
  I  I12  1  0.314792  0.000361  0.884671  1
  I  I13  1  0.685208  0.999639  0.115329  1
  Br  Br14  1  0.726362  0.014284  0.610132  1
  Br  Br15  1  0.273638  0.985716  0.389868  1
