# generated using pymatgen
data_DyEr3Al4Pt3Rh
_symmetry_space_group_name_H-M   'P 1'
_cell_length_a   4.39715700
_cell_length_b   6.78929161
_cell_length_c   7.78963602
_cell_angle_alpha   90.14914502
_cell_angle_beta   90.00000000
_cell_angle_gamma   90.00000000
_symmetry_Int_Tables_number   1
_chemical_formula_structural   DyEr3Al4Pt3Rh
_chemical_formula_sum   'Dy1 Er3 Al4 Pt3 Rh1'
_cell_volume   232.54774317
_cell_formula_units_Z   1
loop_
 _symmetry_equiv_pos_site_id
 _symmetry_equiv_pos_as_xyz
  1  'x, y, z'
loop_
 _atom_site_type_symbol
 _atom_site_label
 _atom_site_symmetry_multiplicity
 _atom_site_fract_x
 _atom_site_fract_y
 _atom_site_fract_z
 _atom_site_occupancy
  Dy  Dy0  1  0.750000  0.531966  0.818712  1
  Er  Er1  1  0.250000  0.467738  0.180118  1
  Er  Er2  1  0.750000  0.029145  0.679126  1
  Er  Er3  1  0.250000  0.966084  0.322778  1
  Al  Al4  1  0.250000  0.855803  0.938486  1
  Al  Al5  1  0.750000  0.142741  0.061334  1
  Al  Al6  1  0.750000  0.642906  0.439556  1
  Al  Al7  1  0.250000  0.361897  0.561552  1
  Pt  Pt8  1  0.750000  0.268282  0.379495  1
  Pt  Pt9  1  0.750000  0.768915  0.121633  1
  Pt  Pt10  1  0.250000  0.228150  0.879567  1
  Rh  Rh11  1  0.250000  0.736371  0.617643  1
