# generated using pymatgen
data_Ta12ReTc5(B2Ru)6
_symmetry_space_group_name_H-M   'P 1'
_cell_length_a   3.16026800
_cell_length_b   9.05867986
_cell_length_c   15.64201343
_cell_angle_alpha   90.16312935
_cell_angle_beta   90.00000000
_cell_angle_gamma   90.00000000
_symmetry_Int_Tables_number   1
_chemical_formula_structural   Ta12ReTc5(B2Ru)6
_chemical_formula_sum   'Ta12 Re1 Tc5 B12 Ru6'
_cell_volume   447.79549470
_cell_formula_units_Z   1
loop_
 _symmetry_equiv_pos_site_id
 _symmetry_equiv_pos_as_xyz
  1  'x, y, z'
loop_
 _atom_site_type_symbol
 _atom_site_label
 _atom_site_symmetry_multiplicity
 _atom_site_fract_x
 _atom_site_fract_y
 _atom_site_fract_z
 _atom_site_occupancy
  Ta  Ta0  1  0.000000  0.800547  0.494547  1
  Ta  Ta1  1  0.000000  0.199159  0.505401  1
  Ta  Ta2  1  0.000000  0.303056  0.006739  1
  Ta  Ta3  1  0.000000  0.696652  0.993747  1
  Ta  Ta4  1  0.000000  0.514196  0.594797  1
  Ta  Ta5  1  0.000000  0.485738  0.405128  1
  Ta  Ta6  1  0.000000  0.015673  0.905180  1
  Ta  Ta7  1  0.000000  0.985132  0.095019  1
  Ta  Ta8  1  0.000000  0.682077  0.204773  1
  Ta  Ta9  1  0.000000  0.316848  0.794836  1
  Ta  Ta10  1  0.000000  0.184208  0.293150  1
  Ta  Ta11  1  0.000000  0.815419  0.706570  1
  Re  Re12  1  0.500000  0.480564  0.903772  1
  Tc  Tc13  1  0.500000  0.719614  0.358435  1
  Tc  Tc14  1  0.500000  0.280050  0.641415  1
  Tc  Tc15  1  0.500000  0.217721  0.143757  1
  Tc  Tc16  1  0.500000  0.782884  0.856303  1
  Tc  Tc17  1  0.500000  0.519780  0.096240  1
  B  B18  1  0.500000  0.605006  0.496191  1
  B  B19  1  0.500000  0.395059  0.503815  1
  B  B20  1  0.500000  0.104467  0.004607  1
  B  B21  1  0.500000  0.895716  0.995585  1
  B  B22  1  0.000000  0.611089  0.834272  1
  B  B23  1  0.000000  0.389337  0.165678  1
  B  B24  1  0.000000  0.112351  0.667306  1
  B  B25  1  0.000000  0.887230  0.332641  1
  B  B26  1  0.500000  0.714146  0.600468  1
  B  B27  1  0.500000  0.285860  0.399486  1
  B  B28  1  0.500000  0.215626  0.899530  1
  B  B29  1  0.500000  0.785411  0.100808  1
  Ru  Ru30  1  0.500000  0.019701  0.404738  1
  Ru  Ru31  1  0.500000  0.980151  0.595287  1
  Ru  Ru32  1  0.500000  0.567578  0.731313  1
  Ru  Ru33  1  0.500000  0.432422  0.268453  1
  Ru  Ru34  1  0.500000  0.066363  0.765912  1
  Ru  Ru35  1  0.500000  0.933169  0.234102  1
