# generated using pymatgen
data_Y3HoAl18Ir5Au
_symmetry_space_group_name_H-M   'P 1'
_cell_length_a   7.58331920
_cell_length_b   7.58317066
_cell_length_c   9.47457130
_cell_angle_alpha   89.95939925
_cell_angle_beta   89.94318883
_cell_angle_gamma   119.54104300
_symmetry_Int_Tables_number   1
_chemical_formula_structural   Y3HoAl18Ir5Au
_chemical_formula_sum   'Y3 Ho1 Al18 Ir5 Au1'
_cell_volume   474.01242669
_cell_formula_units_Z   1
loop_
 _symmetry_equiv_pos_site_id
 _symmetry_equiv_pos_as_xyz
  1  'x, y, z'
loop_
 _atom_site_type_symbol
 _atom_site_label
 _atom_site_symmetry_multiplicity
 _atom_site_fract_x
 _atom_site_fract_y
 _atom_site_fract_z
 _atom_site_occupancy
  Y  Y0  1  0.004269  0.326689  0.748965  1
  Y  Y1  1  0.673335  0.995697  0.251035  1
  Y  Y2  1  0.326677  0.004278  0.748962  1
  Ho  Ho3  1  0.995775  0.673298  0.251174  1
  Al  Al4  1  0.135188  0.134988  0.256293  1
  Al  Al5  1  0.864781  0.864779  0.743689  1
  Al  Al6  1  0.001566  0.344469  0.079114  1
  Al  Al7  1  0.998427  0.655790  0.921231  1
  Al  Al8  1  0.000149  0.664572  0.573260  1
  Al  Al9  1  0.335201  0.999616  0.426380  1
  Al  Al10  1  0.999844  0.335654  0.426384  1
  Al  Al11  1  0.664575  0.000158  0.573480  1
  Al  Al12  1  0.655767  0.998433  0.921036  1
  Al  Al13  1  0.343984  0.001347  0.079098  1
  Al  Al14  1  0.333264  0.333263  0.551886  1
  Al  Al15  1  0.666934  0.666740  0.447956  1
  Al  Al16  1  0.658235  0.658041  0.058598  1
  Al  Al17  1  0.341984  0.341983  0.941565  1
  Al  Al18  1  0.339014  0.549855  0.251282  1
  Al  Al19  1  0.660794  0.450160  0.748714  1
  Al  Al20  1  0.550109  0.339472  0.251285  1
  Al  Al21  1  0.450173  0.660787  0.748713  1
  Ir  Ir22  1  0.671863  0.328332  0.000101  1
  Ir  Ir23  1  0.328125  0.671771  0.000116  1
  Ir  Ir24  1  0.328115  0.671782  0.499877  1
  Ir  Ir25  1  0.671889  0.328362  0.499875  1
  Ir  Ir26  1  0.999971  0.999800  0.499855  1
  Au  Au27  1  0.999990  0.999884  0.000078  1
