# generated using pymatgen
data_DyErPu2(AlB4)4
_symmetry_space_group_name_H-M   'P 1'
_cell_length_a   3.57369500
_cell_length_b   5.94090414
_cell_length_c   11.51774424
_cell_angle_alpha   89.99936260
_cell_angle_beta   90.00000000
_cell_angle_gamma   90.00000000
_symmetry_Int_Tables_number   1
_chemical_formula_structural   DyErPu2(AlB4)4
_chemical_formula_sum   'Dy1 Er1 Pu2 Al4 B16'
_cell_volume   244.53299096
_cell_formula_units_Z   1
loop_
 _symmetry_equiv_pos_site_id
 _symmetry_equiv_pos_as_xyz
  1  'x, y, z'
loop_
 _atom_site_type_symbol
 _atom_site_label
 _atom_site_symmetry_multiplicity
 _atom_site_fract_x
 _atom_site_fract_y
 _atom_site_fract_z
 _atom_site_occupancy
  Dy  Dy0  1  0.500000  0.128424  0.650200  1
  Er  Er1  1  0.500000  0.871408  0.349736  1
  Pu  Pu2  1  0.500000  0.370425  0.150481  1
  Pu  Pu3  1  0.500000  0.629648  0.849684  1
  Al  Al4  1  0.500000  0.362386  0.408532  1
  Al  Al5  1  0.500000  0.637498  0.591260  1
  Al  Al6  1  0.500000  0.139326  0.910195  1
  Al  Al7  1  0.500000  0.860689  0.090054  1
  B  B8  1  0.000000  0.113407  0.047333  1
  B  B9  1  0.000000  0.886442  0.952849  1
  B  B10  1  0.000000  0.386057  0.545919  1
  B  B11  1  0.000000  0.614948  0.453393  1
  B  B12  1  0.000000  0.133080  0.468401  1
  B  B13  1  0.000000  0.866573  0.530631  1
  B  B14  1  0.000000  0.366987  0.968640  1
  B  B15  1  0.000000  0.633157  0.031514  1
  B  B16  1  0.000000  0.027034  0.193019  1
  B  B17  1  0.000000  0.972269  0.807461  1
  B  B18  1  0.000000  0.473577  0.692642  1
  B  B19  1  0.000000  0.527259  0.307451  1
  B  B20  1  0.000000  0.210537  0.312340  1
  B  B21  1  0.000000  0.788283  0.687830  1
  B  B22  1  0.000000  0.290599  0.812612  1
  B  B23  1  0.000000  0.709987  0.187825  1
