# generated using pymatgen
data_Dy12Nb5Re12(RuN16)3
_symmetry_space_group_name_H-M   'P 1'
_cell_length_a   11.08026812
_cell_length_b   11.07706385
_cell_length_c   11.08026806
_cell_angle_alpha   109.46535886
_cell_angle_beta   109.47707212
_cell_angle_gamma   109.46536351
_symmetry_Int_Tables_number   1
_chemical_formula_structural   Dy12Nb5Re12(RuN16)3
_chemical_formula_sum   'Dy12 Nb5 Re12 Ru3 N48'
_cell_volume   1046.97122191
_cell_formula_units_Z   1
loop_
 _symmetry_equiv_pos_site_id
 _symmetry_equiv_pos_as_xyz
  1  'x, y, z'
loop_
 _atom_site_type_symbol
 _atom_site_label
 _atom_site_symmetry_multiplicity
 _atom_site_fract_x
 _atom_site_fract_y
 _atom_site_fract_z
 _atom_site_occupancy
  Dy  Dy0  1  0.251141  0.378049  0.128583  1
  Dy  Dy1  1  0.371417  0.749467  0.122558  1
  Dy  Dy2  1  0.377442  0.126908  0.248859  1
  Dy  Dy3  1  0.876432  0.622380  0.247475  1
  Dy  Dy4  1  0.747475  0.125096  0.371043  1
  Dy  Dy5  1  0.128957  0.254053  0.376432  1
  Dy  Dy6  1  0.871043  0.745947  0.623568  1
  Dy  Dy7  1  0.252525  0.874904  0.628957  1
  Dy  Dy8  1  0.123568  0.377620  0.752525  1
  Dy  Dy9  1  0.622558  0.873092  0.751141  1
  Dy  Dy10  1  0.628583  0.250533  0.877442  1
  Dy  Dy11  1  0.748859  0.621951  0.871417  1
  Nb  Nb12  1  0.000000  0.000000  0.000000  1
  Nb  Nb13  1  0.500000  0.500000  0.000000  1
  Nb  Nb14  1  0.000000  0.000000  0.500000  1
  Nb  Nb15  1  0.500000  0.000000  0.500000  1
  Nb  Nb16  1  0.000000  0.500000  0.500000  1
  Re  Re17  1  0.873738  0.249881  0.123919  1
  Re  Re18  1  0.750017  0.876221  0.124444  1
  Re  Re19  1  0.623919  0.374037  0.250181  1
  Re  Re20  1  0.125573  0.873795  0.250016  1
  Re  Re21  1  0.249819  0.623856  0.373738  1
  Re  Re22  1  0.624443  0.748222  0.374427  1
  Re  Re23  1  0.375556  0.251778  0.625573  1
  Re  Re24  1  0.750181  0.376144  0.626261  1
  Re  Re25  1  0.874427  0.126205  0.749983  1
  Re  Re26  1  0.376081  0.625962  0.749819  1
  Re  Re27  1  0.249982  0.123779  0.875556  1
  Re  Re28  1  0.126262  0.750118  0.876081  1
  Ru  Ru29  1  0.500000  0.000000  0.000000  1
  Ru  Ru30  1  0.000000  0.500000  0.000000  1
  Ru  Ru31  1  0.500000  0.500000  0.500000  1
  N  N32  1  0.315545  0.899940  0.019957  1
  N  N33  1  0.206998  0.119564  0.021547  1
  N  N34  1  0.879794  0.400272  0.084949  1
  N  N35  1  0.705975  0.685743  0.086941  1
  N  N36  1  0.618935  0.413145  0.098542  1
  N  N37  1  0.984326  0.685727  0.099827  1
  N  N38  1  0.599827  0.914099  0.115499  1
  N  N39  1  0.020392  0.205790  0.118935  1
  N  N40  1  0.204412  0.584395  0.184455  1
  N  N41  1  0.478454  0.598019  0.185451  1
  N  N42  1  0.119034  0.020232  0.205976  1
  N  N43  1  0.584948  0.184676  0.205154  1
  N  N44  1  0.480043  0.379983  0.295588  1
  N  N45  1  0.314549  0.912566  0.293003  1
  N  N46  1  0.901639  0.023416  0.315913  1
  N  N47  1  0.913739  0.294337  0.314741  1
  N  N48  1  0.294846  0.479522  0.379795  1
  N  N49  1  0.586940  0.901198  0.380967  1
  N  N50  1  0.814741  0.520404  0.401002  1
  N  N51  1  0.085727  0.878223  0.401639  1
  N  N52  1  0.098998  0.619403  0.413739  1
  N  N53  1  0.815912  0.792496  0.414273  1
  N  N54  1  0.598543  0.185397  0.479609  1
  N  N55  1  0.384501  0.298600  0.484327  1
  N  N56  1  0.615499  0.701400  0.515673  1
  N  N57  1  0.401458  0.814603  0.520391  1
  N  N58  1  0.184087  0.207503  0.585726  1
  N  N59  1  0.901002  0.380598  0.586260  1
  N  N60  1  0.914273  0.121776  0.598360  1
  N  N61  1  0.185259  0.479596  0.598999  1
  N  N62  1  0.413059  0.098802  0.619034  1
  N  N63  1  0.705154  0.520478  0.620205  1
  N  N64  1  0.086261  0.705663  0.685259  1
  N  N65  1  0.098360  0.976583  0.684087  1
  N  N66  1  0.685451  0.087434  0.706997  1
  N  N67  1  0.519957  0.620017  0.704412  1
  N  N68  1  0.415051  0.815323  0.794845  1
  N  N69  1  0.880967  0.979769  0.794025  1
  N  N70  1  0.521546  0.401982  0.814549  1
  N  N71  1  0.795587  0.415604  0.815544  1
  N  N72  1  0.400172  0.085901  0.884500  1
  N  N73  1  0.979609  0.794211  0.881066  1
  N  N74  1  0.015673  0.314273  0.900172  1
  N  N75  1  0.381066  0.586854  0.901458  1
  N  N76  1  0.294025  0.314257  0.913059  1
  N  N77  1  0.120205  0.599727  0.915051  1
  N  N78  1  0.684455  0.100059  0.980042  1
  N  N79  1  0.793003  0.880437  0.978454  1
