# generated using pymatgen
data_YHoRe7Si4W
_symmetry_space_group_name_H-M   'P 1'
_cell_length_a   7.16444621
_cell_length_b   7.67555391
_cell_length_c   4.16647600
_cell_angle_alpha   90.00000000
_cell_angle_beta   90.00000000
_cell_angle_gamma   90.05089236
_symmetry_Int_Tables_number   1
_chemical_formula_structural   YHoRe7Si4W
_chemical_formula_sum   'Y1 Ho1 Re7 Si4 W1'
_cell_volume   229.11897945
_cell_formula_units_Z   1
loop_
 _symmetry_equiv_pos_site_id
 _symmetry_equiv_pos_as_xyz
  1  'x, y, z'
loop_
 _atom_site_type_symbol
 _atom_site_label
 _atom_site_symmetry_multiplicity
 _atom_site_fract_x
 _atom_site_fract_y
 _atom_site_fract_z
 _atom_site_occupancy
  Y  Y0  1  0.999388  0.999726  0.500000  1
  Ho  Ho1  1  0.500793  0.498011  0.000000  1
  Re  Re2  1  0.155762  0.604351  0.500000  1
  Re  Re3  1  0.083492  0.341080  0.000000  1
  Re  Re4  1  0.917761  0.658800  0.000000  1
  Re  Re5  1  0.417397  0.839431  0.500000  1
  Re  Re6  1  0.582949  0.163867  0.500000  1
  Re  Re7  1  0.342152  0.106828  0.000000  1
  Re  Re8  1  0.846451  0.394168  0.500000  1
  Si  Si9  1  0.222655  0.805412  0.000000  1
  Si  Si10  1  0.779807  0.196900  0.000000  1
  Si  Si11  1  0.722971  0.692400  0.500000  1
  Si  Si12  1  0.278092  0.304665  0.500000  1
  W  W13  1  0.650332  0.894360  0.000000  1
