# generated using pymatgen
data_Ta2VFe3
_symmetry_space_group_name_H-M   'P 1'
_cell_length_a   4.77830972
_cell_length_b   4.77830911
_cell_length_c   4.77830852
_cell_angle_alpha   62.06020825
_cell_angle_beta   62.06021348
_cell_angle_gamma   62.06020881
_symmetry_Int_Tables_number   1
_chemical_formula_structural   Ta2VFe3
_chemical_formula_sum   'Ta2 V1 Fe3'
_cell_volume   80.69842228
_cell_formula_units_Z   1
loop_
 _symmetry_equiv_pos_site_id
 _symmetry_equiv_pos_as_xyz
  1  'x, y, z'
loop_
 _atom_site_type_symbol
 _atom_site_label
 _atom_site_symmetry_multiplicity
 _atom_site_fract_x
 _atom_site_fract_y
 _atom_site_fract_z
 _atom_site_occupancy
  Ta  Ta0  1  0.249980  0.249980  0.249980  1
  Ta  Ta1  1  0.000020  0.000020  0.000020  1
  V  V2  1  0.625000  0.625000  0.625000  1
  Fe  Fe3  1  0.625000  0.625000  0.125000  1
  Fe  Fe4  1  0.625000  0.125000  0.625000  1
  Fe  Fe5  1  0.125000  0.625000  0.625000  1
