# generated using pymatgen
data_Sc2Pd9Au5
_symmetry_space_group_name_H-M   'P 1'
_cell_length_a   7.02326554
_cell_length_b   7.02326660
_cell_length_c   7.02326658
_cell_angle_alpha   108.87901755
_cell_angle_beta   107.70591152
_cell_angle_gamma   111.85738872
_symmetry_Int_Tables_number   1
_chemical_formula_structural   Sc2Pd9Au5
_chemical_formula_sum   'Sc2 Pd9 Au5'
_cell_volume   266.30789529
_cell_formula_units_Z   1
loop_
 _symmetry_equiv_pos_site_id
 _symmetry_equiv_pos_as_xyz
  1  'x, y, z'
loop_
 _atom_site_type_symbol
 _atom_site_label
 _atom_site_symmetry_multiplicity
 _atom_site_fract_x
 _atom_site_fract_y
 _atom_site_fract_z
 _atom_site_occupancy
  Sc  Sc0  1  0.000000  0.500000  0.500000  1
  Sc  Sc1  1  0.500000  0.500000  0.000000  1
  Pd  Pd2  1  0.502069  0.253848  0.248220  1
  Pd  Pd3  1  0.497931  0.746152  0.751780  1
  Pd  Pd4  1  0.005628  0.253848  0.751780  1
  Pd  Pd5  1  0.250070  0.001592  0.751522  1
  Pd  Pd6  1  0.994372  0.746152  0.248220  1
  Pd  Pd7  1  0.749930  0.998408  0.248478  1
  Pd  Pd8  1  0.250070  0.498549  0.248478  1
  Pd  Pd9  1  0.749930  0.501451  0.751522  1
  Pd  Pd10  1  0.000000  0.000000  0.000000  1
  Au  Au11  1  0.500000  0.000000  0.500000  1
  Au  Au12  1  0.247236  0.248096  0.495334  1
  Au  Au13  1  0.752764  0.751904  0.504666  1
  Au  Au14  1  0.247236  0.751904  0.999141  1
  Au  Au15  1  0.752764  0.248096  0.000859  1
