# generated using pymatgen
data_Th3Zn(CoSb2)2
_symmetry_space_group_name_H-M   'P 1'
_cell_length_a   8.40835190
_cell_length_b   8.42050537
_cell_length_c   8.42050453
_cell_angle_alpha   109.29006542
_cell_angle_beta   109.58602809
_cell_angle_gamma   109.58602538
_symmetry_Int_Tables_number   1
_chemical_formula_structural   Th3Zn(CoSb2)2
_chemical_formula_sum   'Th6 Zn2 Co4 Sb8'
_cell_volume   458.67215424
_cell_formula_units_Z   2
loop_
 _symmetry_equiv_pos_site_id
 _symmetry_equiv_pos_as_xyz
  1  'x, y, z'
loop_
 _atom_site_type_symbol
 _atom_site_label
 _atom_site_symmetry_multiplicity
 _atom_site_fract_x
 _atom_site_fract_y
 _atom_site_fract_z
 _atom_site_occupancy
  Th  Th0  1  0.380476  0.262910  0.636649  1
  Th  Th1  1  0.740015  0.883545  0.108801  1
  Th  Th2  1  0.240015  0.608801  0.383545  1
  Th  Th3  1  0.626831  0.362748  0.241914  1
  Th  Th4  1  0.880476  0.136649  0.762910  1
  Th  Th5  1  0.126831  0.741914  0.862748  1
  Zn  Zn6  1  0.123012  0.873188  0.247774  1
  Zn  Zn7  1  0.623012  0.747774  0.373188  1
  Co  Co8  1  0.875675  0.249662  0.126156  1
  Co  Co9  1  0.251918  0.126749  0.876979  1
  Co  Co10  1  0.751918  0.376979  0.626749  1
  Co  Co11  1  0.375675  0.626156  0.749662  1
  Sb  Sb12  1  0.996418  0.330527  0.500632  1
  Sb  Sb13  1  0.831199  0.491346  0.992835  1
  Sb  Sb14  1  0.496418  0.000632  0.830527  1
  Sb  Sb15  1  0.664107  0.657500  0.668020  1
  Sb  Sb16  1  0.164107  0.168020  0.157500  1
  Sb  Sb17  1  0.331199  0.492835  0.991346  1
  Sb  Sb18  1  0.510349  0.014597  0.347468  1
  Sb  Sb19  1  0.010349  0.847468  0.514597  1
