# generated using pymatgen
data_Pr3ZrIn2Ir3
_symmetry_space_group_name_H-M   'P 1'
_cell_length_a   7.56929416
_cell_length_b   7.56929501
_cell_length_c   4.32877700
_cell_angle_alpha   90.00000000
_cell_angle_beta   90.00000000
_cell_angle_gamma   121.94198369
_symmetry_Int_Tables_number   1
_chemical_formula_structural   Pr3ZrIn2Ir3
_chemical_formula_sum   'Pr3 Zr1 In2 Ir3'
_cell_volume   210.46069145
_cell_formula_units_Z   1
loop_
 _symmetry_equiv_pos_site_id
 _symmetry_equiv_pos_as_xyz
  1  'x, y, z'
loop_
 _atom_site_type_symbol
 _atom_site_label
 _atom_site_symmetry_multiplicity
 _atom_site_fract_x
 _atom_site_fract_y
 _atom_site_fract_z
 _atom_site_occupancy
  Pr  Pr0  1  0.007022  0.582341  0.500000  1
  Pr  Pr1  1  0.397751  0.397751  0.500000  1
  Pr  Pr2  1  0.582341  0.007022  0.500000  1
  Zr  Zr3  1  0.758755  0.758755  0.000000  1
  In  In4  1  0.998250  0.246595  0.000000  1
  In  In5  1  0.246595  0.998250  0.000000  1
  Ir  Ir6  1  0.357187  0.674283  0.000000  1
  Ir  Ir7  1  0.977815  0.977815  0.500000  1
  Ir  Ir8  1  0.674283  0.357187  0.000000  1
