# generated using pymatgen
data_ErLu7(Ga3Pt)4
_symmetry_space_group_name_H-M   'P 1'
_cell_length_a   8.80022301
_cell_length_b   8.80022373
_cell_length_c   6.91014300
_cell_angle_alpha   90.00000000
_cell_angle_beta   90.00000000
_cell_angle_gamma   120.00555104
_symmetry_Int_Tables_number   1
_chemical_formula_structural   ErLu7(Ga3Pt)4
_chemical_formula_sum   'Er1 Lu7 Ga12 Pt4'
_cell_volume   463.42639141
_cell_formula_units_Z   1
loop_
 _symmetry_equiv_pos_site_id
 _symmetry_equiv_pos_as_xyz
  1  'x, y, z'
loop_
 _atom_site_type_symbol
 _atom_site_label
 _atom_site_symmetry_multiplicity
 _atom_site_fract_x
 _atom_site_fract_y
 _atom_site_fract_z
 _atom_site_occupancy
  Er  Er0  1  0.000133  0.999867  0.250000  1
  Lu  Lu1  1  0.999866  0.000134  0.750000  1
  Lu  Lu2  1  0.520557  0.041217  0.250000  1
  Lu  Lu3  1  0.520430  0.479570  0.250000  1
  Lu  Lu4  1  0.958783  0.479443  0.250000  1
  Lu  Lu5  1  0.479418  0.958753  0.750000  1
  Lu  Lu6  1  0.479558  0.520442  0.750000  1
  Lu  Lu7  1  0.041247  0.520582  0.750000  1
  Ga  Ga8  1  0.166654  0.333453  0.047133  1
  Ga  Ga9  1  0.166883  0.833117  0.452855  1
  Ga  Ga10  1  0.666547  0.833346  0.452867  1
  Ga  Ga11  1  0.666547  0.833346  0.047133  1
  Ga  Ga12  1  0.166883  0.833117  0.047145  1
  Ga  Ga13  1  0.833629  0.667112  0.952330  1
  Ga  Ga14  1  0.833402  0.166598  0.952336  1
  Ga  Ga15  1  0.332888  0.166371  0.952330  1
  Ga  Ga16  1  0.166654  0.333453  0.452867  1
  Ga  Ga17  1  0.332888  0.166371  0.547670  1
  Ga  Ga18  1  0.833629  0.667112  0.547670  1
  Ga  Ga19  1  0.833402  0.166598  0.547664  1
  Pt  Pt20  1  0.333401  0.666599  0.028007  1
  Pt  Pt21  1  0.333401  0.666599  0.471993  1
  Pt  Pt22  1  0.666599  0.333401  0.971934  1
  Pt  Pt23  1  0.666599  0.333401  0.528066  1
