# generated using pymatgen
data_Zr6Al6PtRhAu4
_symmetry_space_group_name_H-M   'P 1'
_cell_length_a   6.82590100
_cell_length_b   6.82590104
_cell_length_c   8.26421300
_cell_angle_alpha   90.00000000
_cell_angle_beta   90.00000000
_cell_angle_gamma   119.99999498
_symmetry_Int_Tables_number   1
_chemical_formula_structural   Zr6Al6PtRhAu4
_chemical_formula_sum   'Zr6 Al6 Pt1 Rh1 Au4'
_cell_volume   333.46643633
_cell_formula_units_Z   1
loop_
 _symmetry_equiv_pos_site_id
 _symmetry_equiv_pos_as_xyz
  1  'x, y, z'
loop_
 _atom_site_type_symbol
 _atom_site_label
 _atom_site_symmetry_multiplicity
 _atom_site_fract_x
 _atom_site_fract_y
 _atom_site_fract_z
 _atom_site_occupancy
  Zr  Zr0  1  0.999485  0.587634  0.750000  1
  Zr  Zr1  1  0.000516  0.593483  0.250000  1
  Zr  Zr2  1  0.592967  0.999484  0.250000  1
  Zr  Zr3  1  0.588148  0.000515  0.750000  1
  Zr  Zr4  1  0.406517  0.407033  0.250000  1
  Zr  Zr5  1  0.412366  0.411852  0.750000  1
  Al  Al6  1  0.000011  0.241639  0.497521  1
  Al  Al7  1  0.758361  0.758372  0.002479  1
  Al  Al8  1  0.000011  0.241639  0.002479  1
  Al  Al9  1  0.241628  0.999989  0.497521  1
  Al  Al10  1  0.241628  0.999989  0.002479  1
  Al  Al11  1  0.758361  0.758372  0.497521  1
  Pt  Pt12  1  0.000000  0.000000  0.750000  1
  Rh  Rh13  1  0.000000  0.000000  0.250000  1
  Au  Au14  1  0.333333  0.666667  0.501288  1
  Au  Au15  1  0.666667  0.333333  0.499904  1
  Au  Au16  1  0.666667  0.333333  0.000096  1
  Au  Au17  1  0.333333  0.666667  0.998712  1
