# generated using pymatgen
data_Hf4TiV3As4
_symmetry_space_group_name_H-M   'P 1'
_cell_length_a   3.56118100
_cell_length_b   6.82424819
_cell_length_c   8.20162416
_cell_angle_alpha   90.07487551
_cell_angle_beta   90.00000000
_cell_angle_gamma   90.00000000
_symmetry_Int_Tables_number   1
_chemical_formula_structural   Hf4TiV3As4
_chemical_formula_sum   'Hf4 Ti1 V3 As4'
_cell_volume   199.31884132
_cell_formula_units_Z   1
loop_
 _symmetry_equiv_pos_site_id
 _symmetry_equiv_pos_as_xyz
  1  'x, y, z'
loop_
 _atom_site_type_symbol
 _atom_site_label
 _atom_site_symmetry_multiplicity
 _atom_site_fract_x
 _atom_site_fract_y
 _atom_site_fract_z
 _atom_site_occupancy
  Hf  Hf0  1  0.250000  0.043561  0.835654  1
  Hf  Hf1  1  0.250000  0.546013  0.666043  1
  Hf  Hf2  1  0.750000  0.954372  0.164776  1
  Hf  Hf3  1  0.750000  0.460033  0.330388  1
  Ti  Ti4  1  0.250000  0.129209  0.440784  1
  V  V5  1  0.250000  0.629295  0.057661  1
  V  V6  1  0.750000  0.864284  0.561550  1
  V  V7  1  0.750000  0.373226  0.941538  1
  As  As8  1  0.250000  0.758340  0.360975  1
  As  As9  1  0.250000  0.259441  0.135963  1
  As  As10  1  0.750000  0.241097  0.642844  1
  As  As11  1  0.750000  0.741129  0.861826  1
