# generated using pymatgen
data_TmZr5Fe7Co16
_symmetry_space_group_name_H-M   'P 1'
_cell_length_a   8.21592627
_cell_length_b   8.19733306
_cell_length_c   8.19436005
_cell_angle_alpha   60.13737196
_cell_angle_beta   59.94295306
_cell_angle_gamma   59.88580396
_symmetry_Int_Tables_number   1
_chemical_formula_structural   TmZr5Fe7Co16
_chemical_formula_sum   'Tm1 Zr5 Fe7 Co16'
_cell_volume   390.13360129
_cell_formula_units_Z   1
loop_
 _symmetry_equiv_pos_site_id
 _symmetry_equiv_pos_as_xyz
  1  'x, y, z'
loop_
 _atom_site_type_symbol
 _atom_site_label
 _atom_site_symmetry_multiplicity
 _atom_site_fract_x
 _atom_site_fract_y
 _atom_site_fract_z
 _atom_site_occupancy
  Tm  Tm0  1  0.706676  0.293703  0.293442  1
  Zr  Zr1  1  0.287289  0.287931  0.713156  1
  Zr  Zr2  1  0.289599  0.709940  0.710348  1
  Zr  Zr3  1  0.711152  0.713743  0.288406  1
  Zr  Zr4  1  0.286410  0.712978  0.288762  1
  Zr  Zr5  1  0.711885  0.288659  0.712943  1
  Fe  Fe6  1  0.000972  0.501104  0.999002  1
  Fe  Fe7  1  0.000980  0.999088  0.501024  1
  Fe  Fe8  1  0.999483  0.000507  0.000519  1
  Fe  Fe9  1  0.498927  0.501043  0.999093  1
  Fe  Fe10  1  0.498983  0.999045  0.501029  1
  Fe  Fe11  1  0.499597  0.000411  0.000376  1
  Fe  Fe12  1  0.999614  0.500382  0.500381  1
  Co  Co13  1  0.122453  0.120474  0.635199  1
  Co  Co14  1  0.674106  0.974395  0.676637  1
  Co  Co15  1  0.364720  0.877624  0.878577  1
  Co  Co16  1  0.026774  0.324915  0.325150  1
  Co  Co17  1  0.976561  0.674624  0.674306  1
  Co  Co18  1  0.325749  0.325556  0.022857  1
  Co  Co19  1  0.674744  0.676797  0.973774  1
  Co  Co20  1  0.633949  0.120790  0.119784  1
  Co  Co21  1  0.674345  0.674254  0.674187  1
  Co  Co22  1  0.879165  0.874889  0.366085  1
  Co  Co23  1  0.126395  0.119316  0.120328  1
  Co  Co24  1  0.880592  0.366194  0.873792  1
  Co  Co25  1  0.878029  0.879064  0.878140  1
  Co  Co26  1  0.323384  0.325183  0.325375  1
  Co  Co27  1  0.121073  0.635033  0.121734  1
  Co  Co28  1  0.326391  0.022357  0.325595  1
