# generated using pymatgen
data_Dy2Zr3Sc3(P3Ir4)4
_symmetry_space_group_name_H-M   'P 1'
_cell_length_a   12.82860100
_cell_length_b   12.82859957
_cell_length_c   3.94012400
_cell_angle_alpha   90.00000000
_cell_angle_beta   90.00000000
_cell_angle_gamma   120.00000111
_symmetry_Int_Tables_number   1
_chemical_formula_structural   Dy2Zr3Sc3(P3Ir4)4
_chemical_formula_sum   'Dy2 Zr3 Sc3 P12 Ir16'
_cell_volume   561.56374776
_cell_formula_units_Z   1
loop_
 _symmetry_equiv_pos_site_id
 _symmetry_equiv_pos_as_xyz
  1  'x, y, z'
loop_
 _atom_site_type_symbol
 _atom_site_label
 _atom_site_symmetry_multiplicity
 _atom_site_fract_x
 _atom_site_fract_y
 _atom_site_fract_z
 _atom_site_occupancy
  Dy  Dy0  1  0.333333  0.666667  0.000000  1
  Dy  Dy1  1  0.666667  0.333333  0.000000  1
  Zr  Zr2  1  0.449571  0.000000  0.000000  1
  Zr  Zr3  1  0.000000  0.449571  0.000000  1
  Zr  Zr4  1  0.550429  0.550429  0.000000  1
  Sc  Sc5  1  0.816178  0.000000  0.500000  1
  Sc  Sc6  1  0.000000  0.816178  0.500000  1
  Sc  Sc7  1  0.183822  0.183822  0.500000  1
  P  P8  1  0.173267  0.000000  0.000000  1
  P  P9  1  0.000000  0.173267  0.000000  1
  P  P10  1  0.826733  0.826733  0.000000  1
  P  P11  1  0.169408  0.481676  0.500000  1
  P  P12  1  0.518324  0.687731  0.500000  1
  P  P13  1  0.312269  0.830592  0.500000  1
  P  P14  1  0.687731  0.518324  0.500000  1
  P  P15  1  0.830592  0.312269  0.500000  1
  P  P16  1  0.481676  0.169408  0.500000  1
  P  P17  1  0.652758  0.000000  0.000000  1
  P  P18  1  0.000000  0.652758  0.000000  1
  P  P19  1  0.347242  0.347242  0.000000  1
  Ir  Ir20  1  0.357240  0.492738  0.500000  1
  Ir  Ir21  1  0.507262  0.864502  0.500000  1
  Ir  Ir22  1  0.135498  0.642760  0.500000  1
  Ir  Ir23  1  0.864502  0.507262  0.500000  1
  Ir  Ir24  1  0.642760  0.135498  0.500000  1
  Ir  Ir25  1  0.492738  0.357240  0.500000  1
  Ir  Ir26  1  0.177736  0.367378  0.000000  1
  Ir  Ir27  1  0.632622  0.810359  0.000000  1
  Ir  Ir28  1  0.189641  0.822264  0.000000  1
  Ir  Ir29  1  0.810359  0.632622  0.000000  1
  Ir  Ir30  1  0.822264  0.189641  0.000000  1
  Ir  Ir31  1  0.367378  0.177736  0.000000  1
  Ir  Ir32  1  0.275830  0.000000  0.500000  1
  Ir  Ir33  1  0.000000  0.275830  0.500000  1
  Ir  Ir34  1  0.724170  0.724170  0.500000  1
  Ir  Ir35  1  0.000000  0.000000  0.000000  1
