# generated using pymatgen
data_Y8AsPd11Pt13
_symmetry_space_group_name_H-M   'P 1'
_cell_length_a   8.35392000
_cell_length_b   8.37602400
_cell_length_c   8.40350700
_cell_angle_alpha   90.00000000
_cell_angle_beta   90.00000000
_cell_angle_gamma   90.00000000
_symmetry_Int_Tables_number   1
_chemical_formula_structural   Y8AsPd11Pt13
_chemical_formula_sum   'Y8 As1 Pd11 Pt13'
_cell_volume   588.01552311
_cell_formula_units_Z   1
loop_
 _symmetry_equiv_pos_site_id
 _symmetry_equiv_pos_as_xyz
  1  'x, y, z'
loop_
 _atom_site_type_symbol
 _atom_site_label
 _atom_site_symmetry_multiplicity
 _atom_site_fract_x
 _atom_site_fract_y
 _atom_site_fract_z
 _atom_site_occupancy
  Y  Y0  1  0.253622  0.254205  0.254296  1
  Y  Y1  1  0.746164  0.745564  0.745639  1
  Y  Y2  1  0.746378  0.745795  0.254296  1
  Y  Y3  1  0.746164  0.254436  0.745639  1
  Y  Y4  1  0.253836  0.254436  0.745639  1
  Y  Y5  1  0.253622  0.745795  0.254296  1
  Y  Y6  1  0.253836  0.745564  0.745639  1
  Y  Y7  1  0.746378  0.254205  0.254296  1
  As  As8  1  0.000000  0.000000  0.000300  1
  Pd  Pd9  1  0.500000  0.000000  0.261276  1
  Pd  Pd10  1  0.259738  0.000000  0.500120  1
  Pd  Pd11  1  0.500000  0.000000  0.738586  1
  Pd  Pd12  1  0.740262  0.000000  0.500120  1
  Pd  Pd13  1  0.000000  0.500000  0.259159  1
  Pd  Pd14  1  0.000000  0.500000  0.740761  1
  Pd  Pd15  1  0.500000  0.500000  0.746622  1
  Pd  Pd16  1  0.000000  0.289120  0.999806  1
  Pd  Pd17  1  0.000000  0.710880  0.999806  1
  Pd  Pd18  1  0.000000  0.000000  0.288799  1
  Pd  Pd19  1  0.000000  0.000000  0.711785  1
  Pt  Pt20  1  0.259469  0.500000  0.000196  1
  Pt  Pt21  1  0.740531  0.500000  0.000196  1
  Pt  Pt22  1  0.000000  0.259837  0.500213  1
  Pt  Pt23  1  0.500000  0.259791  0.000241  1
  Pt  Pt24  1  0.000000  0.740163  0.500213  1
  Pt  Pt25  1  0.500000  0.740209  0.000241  1
  Pt  Pt26  1  0.252031  0.500000  0.499717  1
  Pt  Pt27  1  0.747969  0.500000  0.499717  1
  Pt  Pt28  1  0.500000  0.253139  0.499794  1
  Pt  Pt29  1  0.500000  0.746861  0.499794  1
  Pt  Pt30  1  0.500000  0.500000  0.253384  1
  Pt  Pt31  1  0.289342  0.000000  0.999707  1
  Pt  Pt32  1  0.710658  0.000000  0.999707  1
