# generated using pymatgen
data_DyGa3NiAg
_symmetry_space_group_name_H-M   'P 1'
_cell_length_a   4.11113933
_cell_length_b   6.54822400
_cell_length_c   8.05242449
_cell_angle_alpha   90.00000000
_cell_angle_beta   104.78977754
_cell_angle_gamma   90.00000000
_symmetry_Int_Tables_number   1
_chemical_formula_structural   DyGa3NiAg
_chemical_formula_sum   'Dy2 Ga6 Ni2 Ag2'
_cell_volume   209.59455511
_cell_formula_units_Z   2
loop_
 _symmetry_equiv_pos_site_id
 _symmetry_equiv_pos_as_xyz
  1  'x, y, z'
loop_
 _atom_site_type_symbol
 _atom_site_label
 _atom_site_symmetry_multiplicity
 _atom_site_fract_x
 _atom_site_fract_y
 _atom_site_fract_z
 _atom_site_occupancy
  Dy  Dy0  1  0.372797  0.750000  0.745595  1
  Dy  Dy1  1  0.627203  0.250000  0.254405  1
  Ga  Ga2  1  0.569525  0.750000  0.139051  1
  Ga  Ga3  1  0.430475  0.250000  0.860949  1
  Ga  Ga4  1  0.185250  0.550243  0.370499  1
  Ga  Ga5  1  0.814750  0.449757  0.629501  1
  Ga  Ga6  1  0.185250  0.949757  0.370499  1
  Ga  Ga7  1  0.814750  0.050243  0.629501  1
  Ni  Ni8  1  0.723110  0.750000  0.446222  1
  Ni  Ni9  1  0.276890  0.250000  0.553778  1
  Ag  Ag10  1  0.000000  0.500000  0.000000  1
  Ag  Ag11  1  0.000000  0.000000  0.000000  1
