# generated using pymatgen
data_Sr2Ni3Sb4Pt
_symmetry_space_group_name_H-M   'P 1'
_cell_length_a   4.56148200
_cell_length_b   4.56148200
_cell_length_c   10.53268100
_cell_angle_alpha   90.00000000
_cell_angle_beta   90.00000000
_cell_angle_gamma   90.00000000
_symmetry_Int_Tables_number   1
_chemical_formula_structural   Sr2Ni3Sb4Pt
_chemical_formula_sum   'Sr2 Ni3 Sb4 Pt1'
_cell_volume   219.15473681
_cell_formula_units_Z   1
loop_
 _symmetry_equiv_pos_site_id
 _symmetry_equiv_pos_as_xyz
  1  'x, y, z'
loop_
 _atom_site_type_symbol
 _atom_site_label
 _atom_site_symmetry_multiplicity
 _atom_site_fract_x
 _atom_site_fract_y
 _atom_site_fract_z
 _atom_site_occupancy
  Sr  Sr0  1  0.000000  0.500000  0.763583  1
  Sr  Sr1  1  0.500000  0.000000  0.240042  1
  Ni  Ni2  1  0.000000  0.000000  0.996514  1
  Ni  Ni3  1  0.500000  0.500000  0.996514  1
  Ni  Ni4  1  0.500000  0.000000  0.626338  1
  Sb  Sb5  1  0.000000  0.000000  0.509540  1
  Sb  Sb6  1  0.500000  0.500000  0.509540  1
  Sb  Sb7  1  0.000000  0.500000  0.115358  1
  Sb  Sb8  1  0.500000  0.000000  0.873280  1
  Pt  Pt9  1  0.000000  0.500000  0.369288  1
