# generated using pymatgen
data_Cr2NiPbO8
_symmetry_space_group_name_H-M   'P 1'
_cell_length_a   5.20971802
_cell_length_b   7.08272662
_cell_length_c   5.20971733
_cell_angle_alpha   90.83633065
_cell_angle_beta   113.97040487
_cell_angle_gamma   89.16367136
_symmetry_Int_Tables_number   1
_chemical_formula_structural   Cr2NiPbO8
_chemical_formula_sum   'Cr2 Ni1 Pb1 O8'
_cell_volume   175.62770318
_cell_formula_units_Z   1
loop_
 _symmetry_equiv_pos_site_id
 _symmetry_equiv_pos_as_xyz
  1  'x, y, z'
loop_
 _atom_site_type_symbol
 _atom_site_label
 _atom_site_symmetry_multiplicity
 _atom_site_fract_x
 _atom_site_fract_y
 _atom_site_fract_z
 _atom_site_occupancy
  Cr  Cr0  1  0.636771  0.727172  0.363229  1
  Cr  Cr1  1  0.363229  0.272828  0.636771  1
  Ni  Ni2  1  0.000000  0.500000  0.000000  1
  Pb  Pb3  1  0.000000  0.000000  0.000000  1
  O  O4  1  0.281764  0.707493  0.225098  1
  O  O5  1  0.718236  0.292507  0.774902  1
  O  O6  1  0.225098  0.292507  0.281764  1
  O  O7  1  0.774902  0.707493  0.718236  1
  O  O8  1  0.711054  0.939729  0.288946  1
  O  O9  1  0.227983  0.435033  0.772017  1
  O  O10  1  0.288946  0.060271  0.711054  1
  O  O11  1  0.772017  0.564967  0.227983  1
