# generated using pymatgen
data_Tb2HoHf(Co4P3)2
_symmetry_space_group_name_H-M   'P 1'
_cell_length_a   3.72089800
_cell_length_b   10.68781500
_cell_length_c   12.40663400
_cell_angle_alpha   90.00000000
_cell_angle_beta   90.00000000
_cell_angle_gamma   90.00000000
_symmetry_Int_Tables_number   1
_chemical_formula_structural   Tb2HoHf(Co4P3)2
_chemical_formula_sum   'Tb4 Ho2 Hf2 Co16 P12'
_cell_volume   493.39036398
_cell_formula_units_Z   2
loop_
 _symmetry_equiv_pos_site_id
 _symmetry_equiv_pos_as_xyz
  1  'x, y, z'
loop_
 _atom_site_type_symbol
 _atom_site_label
 _atom_site_symmetry_multiplicity
 _atom_site_fract_x
 _atom_site_fract_y
 _atom_site_fract_z
 _atom_site_occupancy
  Tb  Tb0  1  0.000000  0.500000  0.528481  1
  Tb  Tb1  1  0.500000  0.000000  0.471208  1
  Tb  Tb2  1  0.000000  0.678351  0.795340  1
  Tb  Tb3  1  0.000000  0.321649  0.795340  1
  Ho  Ho4  1  0.500000  0.821888  0.204396  1
  Ho  Ho5  1  0.500000  0.178112  0.204396  1
  Hf  Hf6  1  0.500000  0.500000  0.157028  1
  Hf  Hf7  1  0.000000  0.000000  0.843298  1
  Co  Co8  1  0.500000  0.500000  0.703219  1
  Co  Co9  1  0.000000  0.000000  0.296059  1
  Co  Co10  1  0.000000  0.500000  0.987425  1
  Co  Co11  1  0.500000  0.000000  0.013824  1
  Co  Co12  1  0.500000  0.331871  0.994078  1
  Co  Co13  1  0.500000  0.668129  0.994078  1
  Co  Co14  1  0.000000  0.167727  0.007245  1
  Co  Co15  1  0.000000  0.832273  0.007245  1
  Co  Co16  1  0.500000  0.294987  0.432269  1
  Co  Co17  1  0.500000  0.705013  0.432269  1
  Co  Co18  1  0.000000  0.204530  0.566533  1
  Co  Co19  1  0.000000  0.795470  0.566533  1
  Co  Co20  1  0.500000  0.878253  0.703009  1
  Co  Co21  1  0.500000  0.121747  0.703009  1
  Co  Co22  1  0.000000  0.622289  0.296448  1
  Co  Co23  1  0.000000  0.377711  0.296448  1
  P  P24  1  0.500000  0.500000  0.884289  1
  P  P25  1  0.000000  0.000000  0.116904  1
  P  P26  1  0.500000  0.500000  0.361032  1
  P  P27  1  0.000000  0.000000  0.638952  1
  P  P28  1  0.500000  0.309251  0.615059  1
  P  P29  1  0.500000  0.690749  0.615059  1
  P  P30  1  0.000000  0.190067  0.383594  1
  P  P31  1  0.000000  0.809933  0.383594  1
  P  P32  1  0.500000  0.838890  0.893910  1
  P  P33  1  0.500000  0.161110  0.893910  1
  P  P34  1  0.000000  0.661713  0.107260  1
  P  P35  1  0.000000  0.338287  0.107260  1
