# generated using pymatgen
data_La6OsBr10
_symmetry_space_group_name_H-M   'P 1'
_cell_length_a   7.87786576
_cell_length_b   9.52943175
_cell_length_c   9.88723350
_cell_angle_alpha   108.50976620
_cell_angle_beta   97.19169858
_cell_angle_gamma   105.89981497
_symmetry_Int_Tables_number   1
_chemical_formula_structural   La6OsBr10
_chemical_formula_sum   'La6 Os1 Br10'
_cell_volume   658.35335247
_cell_formula_units_Z   1
loop_
 _symmetry_equiv_pos_site_id
 _symmetry_equiv_pos_as_xyz
  1  'x, y, z'
loop_
 _atom_site_type_symbol
 _atom_site_label
 _atom_site_symmetry_multiplicity
 _atom_site_fract_x
 _atom_site_fract_y
 _atom_site_fract_z
 _atom_site_occupancy
  La  La0  1  0.533391  0.215504  0.413831  1
  La  La1  1  0.466609  0.784496  0.586169  1
  La  La2  1  0.126832  0.353290  0.309525  1
  La  La3  1  0.873168  0.646710  0.690475  1
  La  La4  1  0.633821  0.554399  0.249735  1
  La  La5  1  0.366179  0.445601  0.750265  1
  Os  Os6  1  0.500000  0.500000  0.500000  1
  Br  Br7  1  0.151958  0.040908  0.227474  1
  Br  Br8  1  0.848042  0.959092  0.772526  1
  Br  Br9  1  0.253087  0.417960  0.049027  1
  Br  Br10  1  0.746913  0.582040  0.950973  1
  Br  Br11  1  0.705214  0.246145  0.155440  1
  Br  Br12  1  0.294786  0.753855  0.844560  1
  Br  Br13  1  0.047827  0.673726  0.420832  1
  Br  Br14  1  0.952173  0.326274  0.579168  1
  Br  Br15  1  0.413914  0.129778  0.670166  1
  Br  Br16  1  0.586086  0.870222  0.329834  1
