# generated using pymatgen
data_Y10Er5Th(CdPt)4
_symmetry_space_group_name_H-M   'P 1'
_cell_length_a   9.67629870
_cell_length_b   9.69115072
_cell_length_c   9.69115156
_cell_angle_alpha   60.20343737
_cell_angle_beta   60.40584964
_cell_angle_gamma   60.40585137
_symmetry_Int_Tables_number   1
_chemical_formula_structural   Y10Er5Th(CdPt)4
_chemical_formula_sum   'Y10 Er5 Th1 Cd4 Pt4'
_cell_volume   647.52039739
_cell_formula_units_Z   1
loop_
 _symmetry_equiv_pos_site_id
 _symmetry_equiv_pos_as_xyz
  1  'x, y, z'
loop_
 _atom_site_type_symbol
 _atom_site_label
 _atom_site_symmetry_multiplicity
 _atom_site_fract_x
 _atom_site_fract_y
 _atom_site_fract_z
 _atom_site_occupancy
  Y  Y0  1  0.189460  0.812432  0.189298  1
  Y  Y1  1  0.810583  0.191221  0.810522  1
  Y  Y2  1  0.189460  0.189298  0.812432  1
  Y  Y3  1  0.810583  0.810522  0.191221  1
  Y  Y4  1  0.936407  0.566100  0.566100  1
  Y  Y5  1  0.563312  0.937448  0.937448  1
  Y  Y6  1  0.565672  0.936552  0.565699  1
  Y  Y7  1  0.937925  0.562944  0.937763  1
  Y  Y8  1  0.565672  0.565699  0.936552  1
  Y  Y9  1  0.937925  0.937763  0.562944  1
  Er  Er10  1  0.353540  0.353698  0.939990  1
  Er  Er11  1  0.353540  0.939990  0.353698  1
  Er  Er12  1  0.939799  0.353587  0.353587  1
  Er  Er13  1  0.812261  0.189664  0.189664  1
  Er  Er14  1  0.191585  0.810337  0.810337  1
  Th  Th15  1  0.348767  0.348764  0.348764  1
  Cd  Cd16  1  0.581348  0.581309  0.581309  1
  Cd  Cd17  1  0.582278  0.582404  0.253498  1
  Cd  Cd18  1  0.582278  0.253498  0.582404  1
  Cd  Cd19  1  0.253684  0.582212  0.582212  1
  Pt  Pt20  1  0.142199  0.146298  0.146298  1
  Pt  Pt21  1  0.141217  0.137711  0.569147  1
  Pt  Pt22  1  0.141217  0.569147  0.137711  1
  Pt  Pt23  1  0.569284  0.141401  0.141401  1
