# generated using pymatgen
data_Sr4Gd7BiS16
_symmetry_space_group_name_H-M   'P 1'
_cell_length_a   4.01030000
_cell_length_b   12.38022335
_cell_length_c   14.51885500
_cell_angle_alpha   90.33399601
_cell_angle_beta   90.00000000
_cell_angle_gamma   90.00000000
_symmetry_Int_Tables_number   1
_chemical_formula_structural   Sr4Gd7BiS16
_chemical_formula_sum   'Sr4 Gd7 Bi1 S16'
_cell_volume   720.82581380
_cell_formula_units_Z   1
loop_
 _symmetry_equiv_pos_site_id
 _symmetry_equiv_pos_as_xyz
  1  'x, y, z'
loop_
 _atom_site_type_symbol
 _atom_site_label
 _atom_site_symmetry_multiplicity
 _atom_site_fract_x
 _atom_site_fract_y
 _atom_site_fract_z
 _atom_site_occupancy
  Sr  Sr0  1  0.750000  0.742026  0.164736  1
  Sr  Sr1  1  0.750000  0.241393  0.338850  1
  Sr  Sr2  1  0.250000  0.256783  0.835438  1
  Sr  Sr3  1  0.250000  0.758501  0.663426  1
  Gd  Gd4  1  0.750000  0.060557  0.113560  1
  Gd  Gd5  1  0.750000  0.563517  0.389543  1
  Gd  Gd6  1  0.250000  0.938051  0.888481  1
  Gd  Gd7  1  0.250000  0.437851  0.612018  1
  Gd  Gd8  1  0.750000  0.085575  0.599992  1
  Gd  Gd9  1  0.750000  0.586815  0.898960  1
  Gd  Gd10  1  0.250000  0.913324  0.401393  1
  Bi  Bi11  1  0.250000  0.414446  0.097497  1
  S  S12  1  0.750000  0.297414  0.674373  1
  S  S13  1  0.750000  0.797701  0.824579  1
  S  S14  1  0.250000  0.702307  0.325103  1
  S  S15  1  0.250000  0.199431  0.179659  1
  S  S16  1  0.750000  0.375186  0.957732  1
  S  S17  1  0.750000  0.873084  0.532140  1
  S  S18  1  0.250000  0.627674  0.032536  1
  S  S19  1  0.250000  0.126067  0.468936  1
  S  S20  1  0.750000  0.470447  0.216817  1
  S  S21  1  0.750000  0.965584  0.284450  1
  S  S22  1  0.250000  0.535987  0.781159  1
  S  S23  1  0.250000  0.031776  0.717130  1
  S  S24  1  0.750000  0.087954  0.925135  1
  S  S25  1  0.750000  0.589214  0.576919  1
  S  S26  1  0.250000  0.909412  0.076953  1
  S  S27  1  0.250000  0.411926  0.422479  1
