# generated using pymatgen
data_Eu2InWO7
_symmetry_space_group_name_H-M   'P 1'
_cell_length_a   7.61966918
_cell_length_b   7.61967021
_cell_length_c   7.61967066
_cell_angle_alpha   121.15595032
_cell_angle_beta   119.66538380
_cell_angle_gamma   89.29507674
_symmetry_Int_Tables_number   1
_chemical_formula_structural   Eu2InWO7
_chemical_formula_sum   'Eu4 In2 W2 O14'
_cell_volume   310.78524643
_cell_formula_units_Z   2
loop_
 _symmetry_equiv_pos_site_id
 _symmetry_equiv_pos_as_xyz
  1  'x, y, z'
loop_
 _atom_site_type_symbol
 _atom_site_label
 _atom_site_symmetry_multiplicity
 _atom_site_fract_x
 _atom_site_fract_y
 _atom_site_fract_z
 _atom_site_occupancy
  Eu  Eu0  1  0.500000  0.500000  0.500000  1
  Eu  Eu1  1  0.500000  0.000000  0.000000  1
  Eu  Eu2  1  0.500000  0.500000  0.000000  1
  Eu  Eu3  1  0.000000  0.500000  0.500000  1
  In  In4  1  0.000000  0.000000  0.500000  1
  In  In5  1  0.000000  0.500000  0.000000  1
  W  W6  1  0.000000  0.000000  0.000000  1
  W  W7  1  0.500000  0.000000  0.500000  1
  O  O8  1  0.378548  0.628548  0.750000  1
  O  O9  1  0.621452  0.371452  0.250000  1
  O  O10  1  0.295486  0.045486  0.250000  1
  O  O11  1  0.904946  0.654946  0.250000  1
  O  O12  1  0.347691  0.691420  0.282628  1
  O  O13  1  0.908792  0.065063  0.217372  1
  O  O14  1  0.347691  0.065063  0.656272  1
  O  O15  1  0.908792  0.691420  0.843728  1
  O  O16  1  0.704514  0.954514  0.750000  1
  O  O17  1  0.095054  0.345054  0.750000  1
  O  O18  1  0.652309  0.308580  0.717372  1
  O  O19  1  0.091208  0.934937  0.782628  1
  O  O20  1  0.652309  0.934937  0.343728  1
  O  O21  1  0.091208  0.308580  0.156272  1
