# generated using pymatgen
data_YTm7(ScBi3)2
_symmetry_space_group_name_H-M   'P 1'
_cell_length_a   8.06648500
_cell_length_b   9.35314700
_cell_length_c   11.85590700
_cell_angle_alpha   90.00000000
_cell_angle_beta   90.00000000
_cell_angle_gamma   90.00000000
_symmetry_Int_Tables_number   1
_chemical_formula_structural   YTm7(ScBi3)2
_chemical_formula_sum   'Y2 Tm14 Sc4 Bi12'
_cell_volume   894.49285229
_cell_formula_units_Z   2
loop_
 _symmetry_equiv_pos_site_id
 _symmetry_equiv_pos_as_xyz
  1  'x, y, z'
loop_
 _atom_site_type_symbol
 _atom_site_label
 _atom_site_symmetry_multiplicity
 _atom_site_fract_x
 _atom_site_fract_y
 _atom_site_fract_z
 _atom_site_occupancy
  Y  Y0  1  0.644974  0.250000  0.784223  1
  Y  Y1  1  0.144974  0.250000  0.715777  1
  Tm  Tm2  1  0.186151  0.750000  0.719192  1
  Tm  Tm3  1  0.686151  0.750000  0.780808  1
  Tm  Tm4  1  0.812969  0.250000  0.280490  1
  Tm  Tm5  1  0.312969  0.250000  0.219510  1
  Tm  Tm6  1  0.303669  0.433842  0.941959  1
  Tm  Tm7  1  0.803669  0.066158  0.558041  1
  Tm  Tm8  1  0.695752  0.933428  0.059386  1
  Tm  Tm9  1  0.195752  0.566572  0.440614  1
  Tm  Tm10  1  0.695752  0.566572  0.059386  1
  Tm  Tm11  1  0.195752  0.933428  0.440614  1
  Tm  Tm12  1  0.303669  0.066158  0.941959  1
  Tm  Tm13  1  0.803669  0.433842  0.558041  1
  Tm  Tm14  1  0.356000  0.750000  0.216668  1
  Tm  Tm15  1  0.856000  0.750000  0.283332  1
  Sc  Sc16  1  0.024936  0.750000  0.988281  1
  Sc  Sc17  1  0.524936  0.750000  0.511719  1
  Sc  Sc18  1  0.975430  0.250000  0.013418  1
  Sc  Sc19  1  0.475430  0.250000  0.486582  1
  Bi  Bi20  1  0.433392  0.002138  0.669216  1
  Bi  Bi21  1  0.933392  0.497862  0.830784  1
  Bi  Bi22  1  0.566929  0.504171  0.329919  1
  Bi  Bi23  1  0.066929  0.995829  0.170081  1
  Bi  Bi24  1  0.566929  0.995829  0.329919  1
  Bi  Bi25  1  0.066929  0.504171  0.170081  1
  Bi  Bi26  1  0.433392  0.497862  0.669216  1
  Bi  Bi27  1  0.933392  0.002138  0.830784  1
  Bi  Bi28  1  0.402973  0.750000  0.957185  1
  Bi  Bi29  1  0.902973  0.750000  0.542815  1
  Bi  Bi30  1  0.597086  0.250000  0.044901  1
  Bi  Bi31  1  0.097086  0.250000  0.455099  1
