# generated using pymatgen
data_Tm4Si3Ir4
_symmetry_space_group_name_H-M   'P 1'
_cell_length_a   10.66968191
_cell_length_b   10.66968022
_cell_length_c   7.67395500
_cell_angle_alpha   71.78058567
_cell_angle_beta   71.78058865
_cell_angle_gamma   29.82666175
_symmetry_Int_Tables_number   1
_chemical_formula_structural   Tm4Si3Ir4
_chemical_formula_sum   'Tm8 Si6 Ir8'
_cell_volume   411.14558521
_cell_formula_units_Z   2
loop_
 _symmetry_equiv_pos_site_id
 _symmetry_equiv_pos_as_xyz
  1  'x, y, z'
loop_
 _atom_site_type_symbol
 _atom_site_label
 _atom_site_symmetry_multiplicity
 _atom_site_fract_x
 _atom_site_fract_y
 _atom_site_fract_z
 _atom_site_occupancy
  Tm  Tm0  1  0.209170  0.449077  0.401320  1
  Tm  Tm1  1  0.550923  0.790830  0.098680  1
  Tm  Tm2  1  0.449077  0.209170  0.901320  1
  Tm  Tm3  1  0.926539  0.212232  0.329640  1
  Tm  Tm4  1  0.787768  0.073461  0.170360  1
  Tm  Tm5  1  0.073461  0.787768  0.670360  1
  Tm  Tm6  1  0.212232  0.926539  0.829640  1
  Tm  Tm7  1  0.790830  0.550923  0.598680  1
  Si  Si8  1  0.607488  0.392512  0.750000  1
  Si  Si9  1  0.392512  0.607488  0.250000  1
  Si  Si10  1  0.301491  0.041391  0.443836  1
  Si  Si11  1  0.958609  0.698509  0.056164  1
  Si  Si12  1  0.698509  0.958609  0.556164  1
  Si  Si13  1  0.041391  0.301491  0.943836  1
  Ir  Ir14  1  0.285864  0.590296  0.025105  1
  Ir  Ir15  1  0.590296  0.285864  0.525105  1
  Ir  Ir16  1  0.714136  0.409704  0.974895  1
  Ir  Ir17  1  0.070040  0.368993  0.193740  1
  Ir  Ir18  1  0.631007  0.929960  0.306260  1
  Ir  Ir19  1  0.409704  0.714136  0.474895  1
  Ir  Ir20  1  0.929960  0.631007  0.806260  1
  Ir  Ir21  1  0.368993  0.070040  0.693740  1
