# generated using pymatgen
data_Zr18Co2Re7W
_symmetry_space_group_name_H-M   'P 1'
_cell_length_a   8.68733600
_cell_length_b   8.68733542
_cell_length_c   8.51745700
_cell_angle_alpha   90.00000000
_cell_angle_beta   90.00000000
_cell_angle_gamma   120.00000220
_symmetry_Int_Tables_number   1
_chemical_formula_structural   Zr18Co2Re7W
_chemical_formula_sum   'Zr18 Co2 Re7 W1'
_cell_volume   556.69046272
_cell_formula_units_Z   1
loop_
 _symmetry_equiv_pos_site_id
 _symmetry_equiv_pos_as_xyz
  1  'x, y, z'
loop_
 _atom_site_type_symbol
 _atom_site_label
 _atom_site_symmetry_multiplicity
 _atom_site_fract_x
 _atom_site_fract_y
 _atom_site_fract_z
 _atom_site_occupancy
  Zr  Zr0  1  0.541900  0.083800  0.249619  1
  Zr  Zr1  1  0.458100  0.916200  0.750381  1
  Zr  Zr2  1  0.916200  0.458100  0.249619  1
  Zr  Zr3  1  0.541900  0.458100  0.249619  1
  Zr  Zr4  1  0.458100  0.541900  0.750381  1
  Zr  Zr5  1  0.083800  0.541900  0.750381  1
  Zr  Zr6  1  0.199121  0.398243  0.058474  1
  Zr  Zr7  1  0.800153  0.600307  0.558109  1
  Zr  Zr8  1  0.601757  0.800879  0.058474  1
  Zr  Zr9  1  0.199121  0.800879  0.058474  1
  Zr  Zr10  1  0.800153  0.199847  0.558109  1
  Zr  Zr11  1  0.399693  0.199847  0.558109  1
  Zr  Zr12  1  0.800879  0.601757  0.941526  1
  Zr  Zr13  1  0.800879  0.199121  0.941526  1
  Zr  Zr14  1  0.398243  0.199121  0.941526  1
  Zr  Zr15  1  0.600307  0.800153  0.441891  1
  Zr  Zr16  1  0.199847  0.800153  0.441891  1
  Zr  Zr17  1  0.199847  0.399693  0.441891  1
  Co  Co18  1  0.333333  0.666667  0.249243  1
  Co  Co19  1  0.666667  0.333333  0.750757  1
  Re  Re20  1  0.000000  0.000000  0.000000  1
  Re  Re21  1  0.891116  0.782231  0.250099  1
  Re  Re22  1  0.108884  0.217769  0.749901  1
  Re  Re23  1  0.217769  0.108884  0.250099  1
  Re  Re24  1  0.891116  0.108884  0.250099  1
  Re  Re25  1  0.108884  0.891116  0.749901  1
  Re  Re26  1  0.782231  0.891116  0.749901  1
  W  W27  1  0.000000  0.000000  0.500000  1
