# generated using pymatgen
data_Th3MnIr8
_symmetry_space_group_name_H-M   'P 1'
_cell_length_a   9.33534123
_cell_length_b   9.33534018
_cell_length_c   9.33534038
_cell_angle_alpha   33.55854683
_cell_angle_beta   33.55854583
_cell_angle_gamma   33.55853981
_symmetry_Int_Tables_number   1
_chemical_formula_structural   Th3MnIr8
_chemical_formula_sum   'Th3 Mn1 Ir8'
_cell_volume   221.43828598
_cell_formula_units_Z   1
loop_
 _symmetry_equiv_pos_site_id
 _symmetry_equiv_pos_as_xyz
  1  'x, y, z'
loop_
 _atom_site_type_symbol
 _atom_site_label
 _atom_site_symmetry_multiplicity
 _atom_site_fract_x
 _atom_site_fract_y
 _atom_site_fract_z
 _atom_site_occupancy
  Th  Th0  1  0.860898  0.860898  0.860898  1
  Th  Th1  1  0.137896  0.137896  0.137896  1
  Th  Th2  1  0.999582  0.999582  0.999582  1
  Mn  Mn3  1  0.334149  0.334149  0.334149  1
  Ir  Ir4  1  0.417022  0.922208  0.417022  1
  Ir  Ir5  1  0.417022  0.417022  0.922208  1
  Ir  Ir6  1  0.922208  0.417022  0.417022  1
  Ir  Ir7  1  0.581334  0.081373  0.581334  1
  Ir  Ir8  1  0.581334  0.581334  0.081373  1
  Ir  Ir9  1  0.081373  0.581334  0.581334  1
  Ir  Ir10  1  0.666425  0.666425  0.666425  1
  Ir  Ir11  1  0.500757  0.500757  0.500757  1
