# generated using pymatgen
data_Cs2BaAs6Ru5Pt
_symmetry_space_group_name_H-M   'P 1'
_cell_length_a   9.27393852
_cell_length_b   9.27393857
_cell_length_c   7.50807299
_cell_angle_alpha   68.01617518
_cell_angle_beta   68.01617302
_cell_angle_gamma   36.77740698
_symmetry_Int_Tables_number   1
_chemical_formula_structural   Cs2BaAs6Ru5Pt
_chemical_formula_sum   'Cs2 Ba1 As6 Ru5 Pt1'
_cell_volume   355.25531189
_cell_formula_units_Z   1
loop_
 _symmetry_equiv_pos_site_id
 _symmetry_equiv_pos_as_xyz
  1  'x, y, z'
loop_
 _atom_site_type_symbol
 _atom_site_label
 _atom_site_symmetry_multiplicity
 _atom_site_fract_x
 _atom_site_fract_y
 _atom_site_fract_z
 _atom_site_occupancy
  Cs  Cs0  1  0.672242  0.666727  0.004000  1
  Cs  Cs1  1  0.333273  0.327758  0.996000  1
  Ba  Ba2  1  0.995501  0.004499  0.000000  1
  As  As3  1  0.891712  0.872646  0.688631  1
  As  As4  1  0.218160  0.218756  0.687641  1
  As  As5  1  0.544116  0.563466  0.693656  1
  As  As6  1  0.436534  0.455884  0.306344  1
  As  As7  1  0.781244  0.781840  0.312359  1
  As  As8  1  0.127354  0.108288  0.311369  1
  Ru  Ru9  1  0.082557  0.583049  0.496542  1
  Ru  Ru10  1  0.416951  0.917443  0.503458  1
  Ru  Ru11  1  0.585889  0.085543  0.496195  1
  Ru  Ru12  1  0.914457  0.414111  0.503805  1
  Ru  Ru13  1  0.250228  0.749772  0.500000  1
  Pt  Pt14  1  0.749780  0.250220  0.500000  1
