# generated using pymatgen
data_Tb2Er2Al17NiPd6
_symmetry_space_group_name_H-M   'P 1'
_cell_length_a   7.58462048
_cell_length_b   7.58462077
_cell_length_c   9.37824100
_cell_angle_alpha   90.00000000
_cell_angle_beta   90.00000000
_cell_angle_gamma   118.60559119
_symmetry_Int_Tables_number   1
_chemical_formula_structural   Tb2Er2Al17NiPd6
_chemical_formula_sum   'Tb2 Er2 Al17 Ni1 Pd6'
_cell_volume   473.64406562
_cell_formula_units_Z   1
loop_
 _symmetry_equiv_pos_site_id
 _symmetry_equiv_pos_as_xyz
  1  'x, y, z'
loop_
 _atom_site_type_symbol
 _atom_site_label
 _atom_site_symmetry_multiplicity
 _atom_site_fract_x
 _atom_site_fract_y
 _atom_site_fract_z
 _atom_site_occupancy
  Tb  Tb0  1  0.007622  0.324748  0.750000  1
  Tb  Tb1  1  0.324748  0.007622  0.750000  1
  Er  Er2  1  0.989022  0.676313  0.250000  1
  Er  Er3  1  0.676313  0.989022  0.250000  1
  Al  Al4  1  0.863299  0.863299  0.750000  1
  Al  Al5  1  0.004433  0.327104  0.090495  1
  Al  Al6  1  0.999211  0.661159  0.922847  1
  Al  Al7  1  0.999211  0.661159  0.577153  1
  Al  Al8  1  0.327104  0.004433  0.409505  1
  Al  Al9  1  0.004433  0.327104  0.409505  1
  Al  Al10  1  0.661159  0.999211  0.577153  1
  Al  Al11  1  0.661159  0.999211  0.922847  1
  Al  Al12  1  0.327104  0.004433  0.090495  1
  Al  Al13  1  0.329326  0.329326  0.531725  1
  Al  Al14  1  0.666951  0.666951  0.446310  1
  Al  Al15  1  0.666951  0.666951  0.053690  1
  Al  Al16  1  0.329326  0.329326  0.968275  1
  Al  Al17  1  0.340129  0.546085  0.250000  1
  Al  Al18  1  0.654365  0.447480  0.750000  1
  Al  Al19  1  0.546085  0.340129  0.250000  1
  Al  Al20  1  0.447480  0.654365  0.750000  1
  Ni  Ni21  1  0.175511  0.175511  0.250000  1
  Pd  Pd22  1  0.678073  0.327806  0.000936  1
  Pd  Pd23  1  0.327806  0.678073  0.000936  1
  Pd  Pd24  1  0.327806  0.678073  0.499064  1
  Pd  Pd25  1  0.678073  0.327806  0.499064  1
  Pd  Pd26  1  0.993649  0.993649  0.996379  1
  Pd  Pd27  1  0.993649  0.993649  0.503621  1
