# generated using pymatgen
data_Tb4Ni3Os2Ru3
_symmetry_space_group_name_H-M   'P 1'
_cell_length_a   5.26609154
_cell_length_b   5.11998924
_cell_length_c   8.77082200
_cell_angle_alpha   90.00000000
_cell_angle_beta   90.00000000
_cell_angle_gamma   119.08641762
_symmetry_Int_Tables_number   1
_chemical_formula_structural   Tb4Ni3Os2Ru3
_chemical_formula_sum   'Tb4 Ni3 Os2 Ru3'
_cell_volume   206.65849906
_cell_formula_units_Z   1
loop_
 _symmetry_equiv_pos_site_id
 _symmetry_equiv_pos_as_xyz
  1  'x, y, z'
loop_
 _atom_site_type_symbol
 _atom_site_label
 _atom_site_symmetry_multiplicity
 _atom_site_fract_x
 _atom_site_fract_y
 _atom_site_fract_z
 _atom_site_occupancy
  Tb  Tb0  1  0.325293  0.662647  0.437189  1
  Tb  Tb1  1  0.660700  0.330349  0.566744  1
  Tb  Tb2  1  0.660700  0.330349  0.933256  1
  Tb  Tb3  1  0.325293  0.662647  0.062811  1
  Ni  Ni4  1  0.337882  0.168941  0.250000  1
  Ni  Ni5  1  0.180776  0.837224  0.750000  1
  Ni  Ni6  1  0.180776  0.343552  0.750000  1
  Os  Os7  1  0.832552  0.171300  0.250000  1
  Os  Os8  1  0.832552  0.661252  0.250000  1
  Ru  Ru9  1  0.989699  0.994849  0.503836  1
  Ru  Ru10  1  0.989699  0.994849  0.996164  1
  Ru  Ru11  1  0.684080  0.842040  0.750000  1
