# generated using pymatgen
data_Yb2PaP3
_symmetry_space_group_name_H-M   'P 1'
_cell_length_a   7.09609146
_cell_length_b   7.09608838
_cell_length_c   7.00846464
_cell_angle_alpha   99.71342510
_cell_angle_beta   99.71341837
_cell_angle_gamma   119.99790002
_symmetry_Int_Tables_number   1
_chemical_formula_structural   Yb2PaP3
_chemical_formula_sum   'Yb4 Pa2 P6'
_cell_volume   287.70828466
_cell_formula_units_Z   2
loop_
 _symmetry_equiv_pos_site_id
 _symmetry_equiv_pos_as_xyz
  1  'x, y, z'
loop_
 _atom_site_type_symbol
 _atom_site_label
 _atom_site_symmetry_multiplicity
 _atom_site_fract_x
 _atom_site_fract_y
 _atom_site_fract_z
 _atom_site_occupancy
  Yb  Yb0  1  0.837639  0.162361  0.500000  1
  Yb  Yb1  1  0.162361  0.837639  0.500000  1
  Yb  Yb2  1  0.500000  0.500000  0.500000  1
  Yb  Yb3  1  0.000000  0.000000  0.000000  1
  Pa  Pa4  1  0.332561  0.667439  0.000000  1
  Pa  Pa5  1  0.667439  0.332561  0.000000  1
  P  P6  1  0.428191  0.077437  0.231786  1
  P  P7  1  0.922563  0.571809  0.768214  1
  P  P8  1  0.571809  0.922563  0.768214  1
  P  P9  1  0.077437  0.428191  0.231786  1
  P  P10  1  0.727479  0.727479  0.233275  1
  P  P11  1  0.272521  0.272521  0.766725  1
