# generated using pymatgen
data_Y5Er15Cd6RuRh
_symmetry_space_group_name_H-M   'P 1'
_cell_length_a   9.58549593
_cell_length_b   9.58549485
_cell_length_c   9.72208600
_cell_angle_alpha   90.00000000
_cell_angle_beta   90.00000000
_cell_angle_gamma   119.87251412
_symmetry_Int_Tables_number   1
_chemical_formula_structural   Y5Er15Cd6RuRh
_chemical_formula_sum   'Y5 Er15 Cd6 Ru1 Rh1'
_cell_volume   774.59678817
_cell_formula_units_Z   1
loop_
 _symmetry_equiv_pos_site_id
 _symmetry_equiv_pos_as_xyz
  1  'x, y, z'
loop_
 _atom_site_type_symbol
 _atom_site_label
 _atom_site_symmetry_multiplicity
 _atom_site_fract_x
 _atom_site_fract_y
 _atom_site_fract_z
 _atom_site_occupancy
  Y  Y0  1  0.541798  0.458202  0.250000  1
  Y  Y1  1  0.541814  0.083462  0.250000  1
  Y  Y2  1  0.916538  0.458186  0.250000  1
  Y  Y3  1  0.459151  0.918030  0.750000  1
  Y  Y4  1  0.081970  0.540849  0.750000  1
  Er  Er5  1  0.999937  0.000063  0.499667  1
  Er  Er6  1  0.999937  0.000063  0.000333  1
  Er  Er7  1  0.209410  0.790590  0.440179  1
  Er  Er8  1  0.209563  0.418938  0.440309  1
  Er  Er9  1  0.581062  0.790437  0.440309  1
  Er  Er10  1  0.790105  0.209895  0.560360  1
  Er  Er11  1  0.789938  0.580314  0.560405  1
  Er  Er12  1  0.419686  0.210062  0.560405  1
  Er  Er13  1  0.790105  0.209895  0.939640  1
  Er  Er14  1  0.789938  0.580314  0.939595  1
  Er  Er15  1  0.419686  0.210062  0.939595  1
  Er  Er16  1  0.209410  0.790590  0.059821  1
  Er  Er17  1  0.209563  0.418938  0.059691  1
  Er  Er18  1  0.581062  0.790437  0.059691  1
  Er  Er19  1  0.459304  0.540696  0.750000  1
  Cd  Cd20  1  0.885446  0.114554  0.250000  1
  Cd  Cd21  1  0.885045  0.770845  0.250000  1
  Cd  Cd22  1  0.229155  0.114955  0.250000  1
  Cd  Cd23  1  0.114275  0.885725  0.750000  1
  Cd  Cd24  1  0.115537  0.229516  0.750000  1
  Cd  Cd25  1  0.770484  0.884463  0.750000  1
  Ru  Ru26  1  0.666542  0.333458  0.750000  1
  Rh  Rh27  1  0.333542  0.666458  0.250000  1
