# generated using pymatgen
data_Co6Si2IrW3
_symmetry_space_group_name_H-M   'P 1'
_cell_length_a   4.75544100
_cell_length_b   4.75544050
_cell_length_c   7.37445000
_cell_angle_alpha   90.00000000
_cell_angle_beta   90.00000000
_cell_angle_gamma   119.99998261
_symmetry_Int_Tables_number   1
_chemical_formula_structural   Co6Si2IrW3
_chemical_formula_sum   'Co6 Si2 Ir1 W3'
_cell_volume   144.42483933
_cell_formula_units_Z   1
loop_
 _symmetry_equiv_pos_site_id
 _symmetry_equiv_pos_as_xyz
  1  'x, y, z'
loop_
 _atom_site_type_symbol
 _atom_site_label
 _atom_site_symmetry_multiplicity
 _atom_site_fract_x
 _atom_site_fract_y
 _atom_site_fract_z
 _atom_site_occupancy
  Co  Co0  1  0.829606  0.170394  0.247060  1
  Co  Co1  1  0.829606  0.659212  0.247060  1
  Co  Co2  1  0.340788  0.170394  0.247060  1
  Co  Co3  1  0.171910  0.828090  0.751774  1
  Co  Co4  1  0.171910  0.343822  0.751774  1
  Co  Co5  1  0.656178  0.828090  0.751774  1
  Si  Si6  1  0.000000  0.000000  0.499967  1
  Si  Si7  1  0.000000  0.000000  0.997067  1
  Ir  Ir8  1  0.333333  0.666667  0.438798  1
  W  W9  1  0.666667  0.333333  0.564392  1
  W  W10  1  0.666667  0.333333  0.931042  1
  W  W11  1  0.333333  0.666667  0.072234  1
