# generated using pymatgen
data_Na6Cd16Pd7
_symmetry_space_group_name_H-M   'P 1'
_cell_length_a   9.63847681
_cell_length_b   9.63847725
_cell_length_c   9.63847700
_cell_angle_alpha   60.00000428
_cell_angle_beta   60.00000276
_cell_angle_gamma   60.00000138
_symmetry_Int_Tables_number   1
_chemical_formula_structural   Na6Cd16Pd7
_chemical_formula_sum   'Na6 Cd16 Pd7'
_cell_volume   633.15534622
_cell_formula_units_Z   1
loop_
 _symmetry_equiv_pos_site_id
 _symmetry_equiv_pos_as_xyz
  1  'x, y, z'
loop_
 _atom_site_type_symbol
 _atom_site_label
 _atom_site_symmetry_multiplicity
 _atom_site_fract_x
 _atom_site_fract_y
 _atom_site_fract_z
 _atom_site_occupancy
  Na  Na0  1  0.291684  0.708316  0.708316  1
  Na  Na1  1  0.708316  0.291684  0.291684  1
  Na  Na2  1  0.708316  0.291684  0.708316  1
  Na  Na3  1  0.708316  0.708316  0.291684  1
  Na  Na4  1  0.291684  0.708316  0.291684  1
  Na  Na5  1  0.291684  0.291684  0.708316  1
  Cd  Cd6  1  0.357779  0.880741  0.880741  1
  Cd  Cd7  1  0.880741  0.357779  0.880741  1
  Cd  Cd8  1  0.880741  0.880741  0.880741  1
  Cd  Cd9  1  0.880741  0.880741  0.357779  1
  Cd  Cd10  1  0.119259  0.642221  0.119259  1
  Cd  Cd11  1  0.642221  0.119259  0.119259  1
  Cd  Cd12  1  0.119259  0.119259  0.119259  1
  Cd  Cd13  1  0.119259  0.119259  0.642221  1
  Cd  Cd14  1  0.661974  0.661974  0.014077  1
  Cd  Cd15  1  0.661974  0.661974  0.661974  1
  Cd  Cd16  1  0.661974  0.014077  0.661974  1
  Cd  Cd17  1  0.014077  0.661974  0.661974  1
  Cd  Cd18  1  0.338026  0.338026  0.985923  1
  Cd  Cd19  1  0.338026  0.338026  0.338026  1
  Cd  Cd20  1  0.985923  0.338026  0.338026  1
  Cd  Cd21  1  0.338026  0.985923  0.338026  1
  Pd  Pd22  1  0.000000  0.000000  0.000000  1
  Pd  Pd23  1  0.500000  0.500000  0.000000  1
  Pd  Pd24  1  0.000000  0.000000  0.500000  1
  Pd  Pd25  1  0.000000  0.500000  0.500000  1
  Pd  Pd26  1  0.500000  0.000000  0.500000  1
  Pd  Pd27  1  0.500000  0.000000  0.000000  1
  Pd  Pd28  1  0.000000  0.500000  0.000000  1
