# generated using pymatgen
data_Tb3Co7(P3Ir)2
_symmetry_space_group_name_H-M   'P 1'
_cell_length_a   3.74116000
_cell_length_b   10.65710200
_cell_length_c   12.40620300
_cell_angle_alpha   90.00000000
_cell_angle_beta   90.00000000
_cell_angle_gamma   90.00000000
_symmetry_Int_Tables_number   1
_chemical_formula_structural   Tb3Co7(P3Ir)2
_chemical_formula_sum   'Tb6 Co14 P12 Ir4'
_cell_volume   494.63436724
_cell_formula_units_Z   2
loop_
 _symmetry_equiv_pos_site_id
 _symmetry_equiv_pos_as_xyz
  1  'x, y, z'
loop_
 _atom_site_type_symbol
 _atom_site_label
 _atom_site_symmetry_multiplicity
 _atom_site_fract_x
 _atom_site_fract_y
 _atom_site_fract_z
 _atom_site_occupancy
  Tb  Tb0  1  0.750000  0.250000  0.479977  1
  Tb  Tb1  1  0.250000  0.750000  0.520023  1
  Tb  Tb2  1  0.250000  0.936736  0.794102  1
  Tb  Tb3  1  0.250000  0.563264  0.794102  1
  Tb  Tb4  1  0.750000  0.063264  0.205898  1
  Tb  Tb5  1  0.750000  0.436736  0.205898  1
  Co  Co6  1  0.750000  0.250000  0.011697  1
  Co  Co7  1  0.250000  0.750000  0.988303  1
  Co  Co8  1  0.250000  0.417439  0.006633  1
  Co  Co9  1  0.250000  0.082561  0.006633  1
  Co  Co10  1  0.750000  0.582561  0.993367  1
  Co  Co11  1  0.750000  0.917439  0.993367  1
  Co  Co12  1  0.250000  0.450069  0.571143  1
  Co  Co13  1  0.250000  0.049931  0.571143  1
  Co  Co14  1  0.750000  0.549931  0.428857  1
  Co  Co15  1  0.750000  0.950069  0.428857  1
  Co  Co16  1  0.250000  0.868954  0.288902  1
  Co  Co17  1  0.250000  0.631046  0.288902  1
  Co  Co18  1  0.750000  0.131046  0.711098  1
  Co  Co19  1  0.750000  0.368954  0.711098  1
  P  P20  1  0.250000  0.250000  0.110358  1
  P  P21  1  0.750000  0.750000  0.889642  1
  P  P22  1  0.250000  0.250000  0.649712  1
  P  P23  1  0.750000  0.750000  0.350288  1
  P  P24  1  0.250000  0.448100  0.387218  1
  P  P25  1  0.250000  0.051900  0.387218  1
  P  P26  1  0.750000  0.551900  0.612782  1
  P  P27  1  0.750000  0.948100  0.612782  1
  P  P28  1  0.250000  0.904771  0.104921  1
  P  P29  1  0.250000  0.595229  0.104921  1
  P  P30  1  0.750000  0.095229  0.895079  1
  P  P31  1  0.750000  0.404771  0.895079  1
  Ir  Ir32  1  0.250000  0.250000  0.839217  1
  Ir  Ir33  1  0.750000  0.750000  0.160783  1
  Ir  Ir34  1  0.250000  0.250000  0.297068  1
  Ir  Ir35  1  0.750000  0.750000  0.702932  1
