# generated using pymatgen
data_Ba5Ge(Br3O2)2
_symmetry_space_group_name_H-M   'P 1'
_cell_length_a   9.24486648
_cell_length_b   9.24486587
_cell_length_c   12.32562566
_cell_angle_alpha   82.26505458
_cell_angle_beta   82.26505606
_cell_angle_gamma   114.24122007
_symmetry_Int_Tables_number   1
_chemical_formula_structural   Ba5Ge(Br3O2)2
_chemical_formula_sum   'Ba10 Ge2 Br12 O8'
_cell_volume   930.56509709
_cell_formula_units_Z   2
loop_
 _symmetry_equiv_pos_site_id
 _symmetry_equiv_pos_as_xyz
  1  'x, y, z'
loop_
 _atom_site_type_symbol
 _atom_site_label
 _atom_site_symmetry_multiplicity
 _atom_site_fract_x
 _atom_site_fract_y
 _atom_site_fract_z
 _atom_site_occupancy
  Ba  Ba0  1  0.681692  0.433246  0.515745  1
  Ba  Ba1  1  0.793016  0.206984  0.250000  1
  Ba  Ba2  1  0.759980  0.916761  0.635808  1
  Ba  Ba3  1  0.083239  0.240020  0.864192  1
  Ba  Ba4  1  0.318308  0.566754  0.484255  1
  Ba  Ba5  1  0.206984  0.793016  0.750000  1
  Ba  Ba6  1  0.916761  0.759980  0.135808  1
  Ba  Ba7  1  0.240020  0.083239  0.364192  1
  Ba  Ba8  1  0.433246  0.681692  0.015745  1
  Ba  Ba9  1  0.566754  0.318308  0.984255  1
  Ge  Ge10  1  0.425251  0.574749  0.750000  1
  Ge  Ge11  1  0.574749  0.425251  0.250000  1
  Br  Br12  1  0.205157  0.145654  0.634414  1
  Br  Br13  1  0.020013  0.719837  0.548575  1
  Br  Br14  1  0.719837  0.020013  0.048575  1
  Br  Br15  1  0.794843  0.854346  0.365586  1
  Br  Br16  1  0.854346  0.794843  0.865586  1
  Br  Br17  1  0.756525  0.243475  0.750000  1
  Br  Br18  1  0.979987  0.280163  0.451425  1
  Br  Br19  1  0.145654  0.205157  0.134414  1
  Br  Br20  1  0.243475  0.756525  0.250000  1
  Br  Br21  1  0.000000  0.500000  0.000000  1
  Br  Br22  1  0.280163  0.979987  0.951425  1
  Br  Br23  1  0.500000  0.000000  0.500000  1
  O  O24  1  0.399461  0.437202  0.875150  1
  O  O25  1  0.231204  0.521432  0.712481  1
  O  O26  1  0.562798  0.600539  0.624850  1
  O  O27  1  0.521432  0.231204  0.212481  1
  O  O28  1  0.478568  0.768796  0.787519  1
  O  O29  1  0.437202  0.399461  0.375150  1
  O  O30  1  0.768796  0.478568  0.287519  1
  O  O31  1  0.600539  0.562798  0.124850  1
