# generated using pymatgen
data_Nd16MgTl(AgPt2)2
_symmetry_space_group_name_H-M   'P 1'
_cell_length_a   9.97092285
_cell_length_b   10.01305421
_cell_length_c   10.01305283
_cell_angle_alpha   60.22256396
_cell_angle_beta   60.12769518
_cell_angle_gamma   60.12769449
_symmetry_Int_Tables_number   1
_chemical_formula_structural   Nd16MgTl(AgPt2)2
_chemical_formula_sum   'Nd16 Mg1 Tl1 Ag2 Pt4'
_cell_volume   709.44211972
_cell_formula_units_Z   1
loop_
 _symmetry_equiv_pos_site_id
 _symmetry_equiv_pos_as_xyz
  1  'x, y, z'
loop_
 _atom_site_type_symbol
 _atom_site_label
 _atom_site_symmetry_multiplicity
 _atom_site_fract_x
 _atom_site_fract_y
 _atom_site_fract_z
 _atom_site_occupancy
  Nd  Nd0  1  0.349523  0.349008  0.349008  1
  Nd  Nd1  1  0.351706  0.351087  0.946359  1
  Nd  Nd2  1  0.351706  0.946359  0.351086  1
  Nd  Nd3  1  0.937754  0.354004  0.354004  1
  Nd  Nd4  1  0.810120  0.191429  0.191430  1
  Nd  Nd5  1  0.189640  0.808907  0.808907  1
  Nd  Nd6  1  0.188436  0.812192  0.190229  1
  Nd  Nd7  1  0.806394  0.192066  0.807567  1
  Nd  Nd8  1  0.188436  0.190228  0.812193  1
  Nd  Nd9  1  0.806394  0.807566  0.192067  1
  Nd  Nd10  1  0.940019  0.564446  0.564447  1
  Nd  Nd11  1  0.561708  0.937047  0.937046  1
  Nd  Nd12  1  0.562277  0.944379  0.564616  1
  Nd  Nd13  1  0.935056  0.563030  0.937075  1
  Nd  Nd14  1  0.562277  0.564617  0.944379  1
  Nd  Nd15  1  0.935056  0.937075  0.563029  1
  Mg  Mg16  1  0.286718  0.568265  0.568265  1
  Tl  Tl17  1  0.582878  0.583487  0.583487  1
  Ag  Ag18  1  0.579980  0.585269  0.247114  1
  Ag  Ag19  1  0.579981  0.247114  0.585268  1
  Pt  Pt20  1  0.141567  0.145168  0.145168  1
  Pt  Pt21  1  0.141195  0.144213  0.569768  1
  Pt  Pt22  1  0.141195  0.569767  0.144213  1
  Pt  Pt23  1  0.569984  0.143281  0.143280  1
