# generated using pymatgen
data_Dy3Ho5(Si3Pt)4
_symmetry_space_group_name_H-M   'P 1'
_cell_length_a   8.18546522
_cell_length_b   8.18546597
_cell_length_c   7.91436300
_cell_angle_alpha   90.00000000
_cell_angle_beta   90.00000000
_cell_angle_gamma   120.02668674
_symmetry_Int_Tables_number   1
_chemical_formula_structural   Dy3Ho5(Si3Pt)4
_chemical_formula_sum   'Dy3 Ho5 Si12 Pt4'
_cell_volume   459.10975639
_cell_formula_units_Z   1
loop_
 _symmetry_equiv_pos_site_id
 _symmetry_equiv_pos_as_xyz
  1  'x, y, z'
loop_
 _atom_site_type_symbol
 _atom_site_label
 _atom_site_symmetry_multiplicity
 _atom_site_fract_x
 _atom_site_fract_y
 _atom_site_fract_z
 _atom_site_occupancy
  Dy  Dy0  1  0.000006  0.999994  0.250000  1
  Dy  Dy1  1  0.000005  0.999995  0.750000  1
  Dy  Dy2  1  0.510079  0.489921  0.250000  1
  Ho  Ho3  1  0.509981  0.019930  0.250000  1
  Ho  Ho4  1  0.980070  0.490019  0.250000  1
  Ho  Ho5  1  0.490002  0.509998  0.750000  1
  Ho  Ho6  1  0.489991  0.979995  0.750000  1
  Ho  Ho7  1  0.020005  0.510009  0.750000  1
  Si  Si8  1  0.165341  0.834659  0.499244  1
  Si  Si9  1  0.165266  0.330663  0.499278  1
  Si  Si10  1  0.669337  0.834734  0.499278  1
  Si  Si11  1  0.834653  0.165347  0.500781  1
  Si  Si12  1  0.834793  0.669381  0.500875  1
  Si  Si13  1  0.330619  0.165207  0.500875  1
  Si  Si14  1  0.834653  0.165347  0.999219  1
  Si  Si15  1  0.834793  0.669381  0.999125  1
  Si  Si16  1  0.330619  0.165207  0.999125  1
  Si  Si17  1  0.165341  0.834659  0.000756  1
  Si  Si18  1  0.165266  0.330663  0.000722  1
  Si  Si19  1  0.669337  0.834734  0.000722  1
  Pt  Pt20  1  0.333159  0.666841  0.465129  1
  Pt  Pt21  1  0.666763  0.333237  0.535273  1
  Pt  Pt22  1  0.666763  0.333237  0.964727  1
  Pt  Pt23  1  0.333159  0.666841  0.034871  1
