# generated using pymatgen
data_Tb4Lu2NiTe2
_symmetry_space_group_name_H-M   'P 1'
_cell_length_a   8.23972200
_cell_length_b   8.40364575
_cell_length_c   3.93841800
_cell_angle_alpha   90.00000000
_cell_angle_beta   90.00000000
_cell_angle_gamma   119.35680871
_symmetry_Int_Tables_number   1
_chemical_formula_structural   Tb4Lu2NiTe2
_chemical_formula_sum   'Tb4 Lu2 Ni1 Te2'
_cell_volume   237.69013888
_cell_formula_units_Z   1
loop_
 _symmetry_equiv_pos_site_id
 _symmetry_equiv_pos_as_xyz
  1  'x, y, z'
loop_
 _atom_site_type_symbol
 _atom_site_label
 _atom_site_symmetry_multiplicity
 _atom_site_fract_x
 _atom_site_fract_y
 _atom_site_fract_z
 _atom_site_occupancy
  Tb  Tb0  1  0.000015  0.403414  0.500000  1
  Tb  Tb1  1  0.596601  0.596586  0.500000  1
  Tb  Tb2  1  0.392268  0.000000  0.500000  1
  Tb  Tb3  1  0.762801  0.000000  0.000000  1
  Lu  Lu4  1  0.994293  0.763723  0.000000  1
  Lu  Lu5  1  0.230570  0.236277  0.000000  1
  Ni  Ni6  1  0.027137  0.000000  0.500000  1
  Te  Te7  1  0.330734  0.665156  0.000000  1
  Te  Te8  1  0.665580  0.334844  0.000000  1
