# generated using pymatgen
data_Dy4AlGa17Ir6
_symmetry_space_group_name_H-M   'P 1'
_cell_length_a   7.58980167
_cell_length_b   7.58980165
_cell_length_c   9.49533250
_cell_angle_alpha   89.93841422
_cell_angle_beta   89.93841325
_cell_angle_gamma   119.88317933
_symmetry_Int_Tables_number   1
_chemical_formula_structural   Dy4AlGa17Ir6
_chemical_formula_sum   'Dy4 Al1 Ga17 Ir6'
_cell_volume   474.25366373
_cell_formula_units_Z   1
loop_
 _symmetry_equiv_pos_site_id
 _symmetry_equiv_pos_as_xyz
  1  'x, y, z'
loop_
 _atom_site_type_symbol
 _atom_site_label
 _atom_site_symmetry_multiplicity
 _atom_site_fract_x
 _atom_site_fract_y
 _atom_site_fract_z
 _atom_site_occupancy
  Dy  Dy0  1  0.998212  0.669048  0.749690  1
  Dy  Dy1  1  0.001676  0.330362  0.249343  1
  Dy  Dy2  1  0.669048  0.998212  0.749690  1
  Dy  Dy3  1  0.330362  0.001676  0.249343  1
  Al  Al4  1  0.335365  0.335365  0.449620  1
  Ga  Ga5  1  0.126816  0.126816  0.749435  1
  Ga  Ga6  1  0.872813  0.872813  0.249326  1
  Ga  Ga7  1  0.998742  0.334322  0.579859  1
  Ga  Ga8  1  0.000180  0.665007  0.418806  1
  Ga  Ga9  1  0.999905  0.664981  0.080736  1
  Ga  Ga10  1  0.334607  0.999647  0.918443  1
  Ga  Ga11  1  0.999647  0.334607  0.918443  1
  Ga  Ga12  1  0.664981  0.999905  0.080736  1
  Ga  Ga13  1  0.665007  0.000180  0.418806  1
  Ga  Ga14  1  0.334322  0.998742  0.579859  1
  Ga  Ga15  1  0.331804  0.331804  0.063578  1
  Ga  Ga16  1  0.667751  0.667751  0.936259  1
  Ga  Ga17  1  0.670896  0.670896  0.563629  1
  Ga  Ga18  1  0.340679  0.547947  0.749780  1
  Ga  Ga19  1  0.656082  0.451142  0.250242  1
  Ga  Ga20  1  0.547947  0.340679  0.749780  1
  Ga  Ga21  1  0.451142  0.656082  0.250242  1
  Ir  Ir22  1  0.669095  0.328284  0.499061  1
  Ir  Ir23  1  0.328284  0.669095  0.499061  1
  Ir  Ir24  1  0.328425  0.671824  0.999699  1
  Ir  Ir25  1  0.671824  0.328425  0.999699  1
  Ir  Ir26  1  0.004547  0.004547  0.497491  1
  Ir  Ir27  1  0.999844  0.999844  0.999347  1
