# generated using pymatgen
data_SrTb2Nd4RuI12
_symmetry_space_group_name_H-M   'P 1'
_cell_length_a   10.06715262
_cell_length_b   9.98085171
_cell_length_c   9.98411703
_cell_angle_alpha   106.18578857
_cell_angle_beta   106.26544876
_cell_angle_gamma   106.71037962
_symmetry_Int_Tables_number   1
_chemical_formula_structural   SrTb2Nd4RuI12
_chemical_formula_sum   'Sr1 Tb2 Nd4 Ru1 I12'
_cell_volume   849.03043700
_cell_formula_units_Z   1
loop_
 _symmetry_equiv_pos_site_id
 _symmetry_equiv_pos_as_xyz
  1  'x, y, z'
loop_
 _atom_site_type_symbol
 _atom_site_label
 _atom_site_symmetry_multiplicity
 _atom_site_fract_x
 _atom_site_fract_y
 _atom_site_fract_z
 _atom_site_occupancy
  Sr  Sr0  1  0.499399  0.498360  0.500468  1
  Tb  Tb1  1  0.019082  0.092988  0.287716  1
  Tb  Tb2  1  0.299766  0.022671  0.096703  1
  Nd  Nd3  1  0.908436  0.705845  0.980095  1
  Nd  Nd4  1  0.979433  0.905777  0.703794  1
  Nd  Nd5  1  0.691707  0.978435  0.904197  1
  Nd  Nd6  1  0.096079  0.295696  0.020504  1
  Ru  Ru7  1  0.000579  0.000733  0.999398  1
  I  I8  1  0.628652  0.857855  0.548378  1
  I  I9  1  0.548646  0.625933  0.858854  1
  I  I10  1  0.856589  0.546207  0.627372  1
  I  I11  1  0.361066  0.135996  0.443262  1
  I  I12  1  0.453520  0.365890  0.142358  1
  I  I13  1  0.140020  0.446161  0.371502  1
  I  I14  1  0.684222  0.076175  0.232341  1
  I  I15  1  0.232473  0.688589  0.078351  1
  I  I16  1  0.075209  0.226094  0.676318  1
  I  I17  1  0.321488  0.927083  0.781058  1
  I  I18  1  0.775751  0.321272  0.925991  1
  I  I19  1  0.927886  0.782240  0.321341  1
