# generated using pymatgen
data_NdSm3V4F28
_symmetry_space_group_name_H-M   'P 1'
_cell_length_a   5.60359647
_cell_length_b   9.02984563
_cell_length_c   12.02668712
_cell_angle_alpha   62.85245962
_cell_angle_beta   90.04242998
_cell_angle_gamma   90.00125811
_symmetry_Int_Tables_number   1
_chemical_formula_structural   NdSm3V4F28
_chemical_formula_sum   'Nd1 Sm3 V4 F28'
_cell_volume   541.50477828
_cell_formula_units_Z   1
loop_
 _symmetry_equiv_pos_site_id
 _symmetry_equiv_pos_as_xyz
  1  'x, y, z'
loop_
 _atom_site_type_symbol
 _atom_site_label
 _atom_site_symmetry_multiplicity
 _atom_site_fract_x
 _atom_site_fract_y
 _atom_site_fract_z
 _atom_site_occupancy
  Nd  Nd0  1  0.758160  0.807922  0.768668  1
  Sm  Sm1  1  0.258746  0.194869  0.730657  1
  Sm  Sm2  1  0.241474  0.193134  0.231014  1
  Sm  Sm3  1  0.741588  0.807856  0.268816  1
  V  V4  1  0.753372  0.272736  0.956398  1
  V  V5  1  0.253025  0.725625  0.542602  1
  V  V6  1  0.245876  0.725757  0.045777  1
  V  V7  1  0.745946  0.275311  0.455067  1
  F  F8  1  0.445034  0.706736  0.925863  1
  F  F9  1  0.947351  0.292827  0.575003  1
  F  F10  1  0.552458  0.291999  0.075648  1
  F  F11  1  0.053598  0.706872  0.422659  1
  F  F12  1  0.467909  0.286613  0.543533  1
  F  F13  1  0.967790  0.712939  0.958754  1
  F  F14  1  0.532948  0.713769  0.455494  1
  F  F15  1  0.031822  0.285104  0.044518  1
  F  F16  1  0.765245  0.501129  0.864157  1
  F  F17  1  0.263723  0.496578  0.634952  1
  F  F18  1  0.236868  0.496692  0.137817  1
  F  F19  1  0.735683  0.503587  0.363022  1
  F  F20  1  0.758238  0.045763  0.046684  1
  F  F21  1  0.258479  0.952699  0.452915  1
  F  F22  1  0.241138  0.952540  0.954745  1
  F  F23  1  0.740908  0.047849  0.545507  1
  F  F24  1  0.980923  0.731030  0.634202  1
  F  F25  1  0.481871  0.268106  0.863434  1
  F  F26  1  0.016453  0.267765  0.362521  1
  F  F27  1  0.518238  0.732303  0.137918  1
  F  F28  1  0.046904  0.745664  0.167602  1
  F  F29  1  0.545216  0.254613  0.333777  1
  F  F30  1  0.953971  0.253153  0.834566  1
  F  F31  1  0.449689  0.743920  0.665665  1
  F  F32  1  0.416506  0.972232  0.230106  1
  F  F33  1  0.916570  0.028580  0.269906  1
  F  F34  1  0.585483  0.033073  0.770856  1
  F  F35  1  0.090798  0.972655  0.729179  1
