# generated using pymatgen
data_LiCa3FeO6
_symmetry_space_group_name_H-M   'P 1'
_cell_length_a   6.36763822
_cell_length_b   6.36763734
_cell_length_c   6.36763762
_cell_angle_alpha   91.68615348
_cell_angle_beta   91.68615267
_cell_angle_gamma   91.68614594
_symmetry_Int_Tables_number   1
_chemical_formula_structural   LiCa3FeO6
_chemical_formula_sum   'Li2 Ca6 Fe2 O12'
_cell_volume   257.84528261
_cell_formula_units_Z   2
loop_
 _symmetry_equiv_pos_site_id
 _symmetry_equiv_pos_as_xyz
  1  'x, y, z'
loop_
 _atom_site_type_symbol
 _atom_site_label
 _atom_site_symmetry_multiplicity
 _atom_site_fract_x
 _atom_site_fract_y
 _atom_site_fract_z
 _atom_site_occupancy
  Li  Li0  1  0.250000  0.250000  0.250000  1
  Li  Li1  1  0.750000  0.750000  0.750000  1
  Ca  Ca2  1  0.609254  0.890746  0.250000  1
  Ca  Ca3  1  0.250000  0.609254  0.890746  1
  Ca  Ca4  1  0.890746  0.250000  0.609254  1
  Ca  Ca5  1  0.750000  0.390746  0.109254  1
  Ca  Ca6  1  0.109254  0.750000  0.390746  1
  Ca  Ca7  1  0.390746  0.109254  0.750000  1
  Fe  Fe8  1  0.000000  0.000000  0.000000  1
  Fe  Fe9  1  0.500000  0.500000  0.500000  1
  O  O10  1  0.283102  0.949809  0.077252  1
  O  O11  1  0.077252  0.283102  0.949809  1
  O  O12  1  0.949809  0.077252  0.283102  1
  O  O13  1  0.577252  0.449809  0.783102  1
  O  O14  1  0.783102  0.577252  0.449809  1
  O  O15  1  0.449809  0.783102  0.577252  1
  O  O16  1  0.716898  0.050191  0.922748  1
  O  O17  1  0.922748  0.716898  0.050191  1
  O  O18  1  0.050191  0.922748  0.716898  1
  O  O19  1  0.422748  0.550191  0.216898  1
  O  O20  1  0.216898  0.422748  0.550191  1
  O  O21  1  0.550191  0.216898  0.422748  1
