# generated using pymatgen
data_Sr2Ti13O22
_symmetry_space_group_name_H-M   'P 1'
_cell_length_a   7.67994700
_cell_length_b   7.67994738
_cell_length_c   14.05668100
_cell_angle_alpha   90.00000000
_cell_angle_beta   90.00000000
_cell_angle_gamma   97.84195645
_symmetry_Int_Tables_number   1
_chemical_formula_structural   Sr2Ti13O22
_chemical_formula_sum   'Sr4 Ti26 O44'
_cell_volume   821.33193337
_cell_formula_units_Z   2
loop_
 _symmetry_equiv_pos_site_id
 _symmetry_equiv_pos_as_xyz
  1  'x, y, z'
loop_
 _atom_site_type_symbol
 _atom_site_label
 _atom_site_symmetry_multiplicity
 _atom_site_fract_x
 _atom_site_fract_y
 _atom_site_fract_z
 _atom_site_occupancy
  Sr  Sr0  1  0.665370  0.665370  0.911295  1
  Sr  Sr1  1  0.165370  0.165370  0.588705  1
  Sr  Sr2  1  0.834630  0.834630  0.411295  1
  Sr  Sr3  1  0.334630  0.334630  0.088705  1
  Ti  Ti4  1  0.058121  0.798239  0.174794  1
  Ti  Ti5  1  0.201761  0.941879  0.825206  1
  Ti  Ti6  1  0.243421  0.756579  0.500000  1
  Ti  Ti7  1  0.071587  0.574560  0.652647  1
  Ti  Ti8  1  0.425440  0.928413  0.347353  1
  Ti  Ti9  1  0.074560  0.571587  0.847353  1
  Ti  Ti10  1  0.428413  0.925440  0.152647  1
  Ti  Ti11  1  0.256579  0.743421  0.000000  1
  Ti  Ti12  1  0.298239  0.558121  0.325206  1
  Ti  Ti13  1  0.441879  0.701761  0.674794  1
  Ti  Ti14  1  0.000000  0.000000  0.000000  1
  Ti  Ti15  1  0.333775  0.333775  0.834696  1
  Ti  Ti16  1  0.833775  0.833775  0.665304  1
  Ti  Ti17  1  0.500000  0.500000  0.500000  1
  Ti  Ti18  1  0.666225  0.666225  0.165304  1
  Ti  Ti19  1  0.166225  0.166225  0.334696  1
  Ti  Ti20  1  0.701761  0.441879  0.674794  1
  Ti  Ti21  1  0.558121  0.298239  0.325206  1
  Ti  Ti22  1  0.743421  0.256579  0.000000  1
  Ti  Ti23  1  0.571587  0.074560  0.847353  1
  Ti  Ti24  1  0.925440  0.428413  0.152647  1
  Ti  Ti25  1  0.928413  0.425440  0.347353  1
  Ti  Ti26  1  0.574560  0.071587  0.652647  1
  Ti  Ti27  1  0.756579  0.243421  0.500000  1
  Ti  Ti28  1  0.941879  0.201761  0.825206  1
  Ti  Ti29  1  0.798239  0.058121  0.174794  1
  O  O30  1  0.025375  0.786082  0.577286  1
  O  O31  1  0.213918  0.974625  0.422713  1
  O  O32  1  0.031283  0.785736  0.919726  1
  O  O33  1  0.214264  0.968717  0.080274  1
  O  O34  1  0.103698  0.595673  0.090293  1
  O  O35  1  0.404327  0.896302  0.909707  1
  O  O36  1  0.226834  0.726834  0.750000  1
  O  O37  1  0.273166  0.773166  0.250000  1
  O  O38  1  0.095673  0.603698  0.409707  1
  O  O39  1  0.396302  0.904327  0.590293  1
  O  O40  1  0.120101  0.373369  0.750787  1
  O  O41  1  0.126631  0.379899  0.250787  1
  O  O42  1  0.620101  0.873369  0.749213  1
  O  O43  1  0.626631  0.879899  0.249213  1
  O  O44  1  0.285736  0.531283  0.580274  1
  O  O45  1  0.468717  0.714264  0.419726  1
  O  O46  1  0.286082  0.525375  0.922713  1
  O  O47  1  0.474625  0.713918  0.077287  1
  O  O48  1  0.157667  0.157667  0.905678  1
  O  O49  1  0.499768  0.499768  0.756086  1
  O  O50  1  0.999768  0.999768  0.743914  1
  O  O51  1  0.657667  0.657667  0.594322  1
  O  O52  1  0.342333  0.342333  0.405678  1
  O  O53  1  0.500232  0.500232  0.243914  1
  O  O54  1  0.842333  0.842333  0.094322  1
  O  O55  1  0.000232  0.000232  0.256086  1
  O  O56  1  0.525375  0.286082  0.922713  1
  O  O57  1  0.713918  0.474625  0.077287  1
  O  O58  1  0.531283  0.285736  0.580274  1
  O  O59  1  0.714264  0.468717  0.419726  1
  O  O60  1  0.873369  0.620101  0.749213  1
  O  O61  1  0.879899  0.626631  0.249213  1
  O  O62  1  0.373369  0.120101  0.750787  1
  O  O63  1  0.379899  0.126631  0.250787  1
  O  O64  1  0.904327  0.396302  0.590293  1
  O  O65  1  0.603698  0.095673  0.409707  1
  O  O66  1  0.726834  0.226834  0.750000  1
  O  O67  1  0.773166  0.273166  0.250000  1
  O  O68  1  0.896302  0.404327  0.909707  1
  O  O69  1  0.595673  0.103698  0.090293  1
  O  O70  1  0.785736  0.031283  0.919726  1
  O  O71  1  0.968717  0.214264  0.080274  1
  O  O72  1  0.786082  0.025375  0.577286  1
  O  O73  1  0.974625  0.213918  0.422713  1
