# generated using pymatgen
data_NaGaPbF6
_symmetry_space_group_name_H-M   'P 1'
_cell_length_a   5.51014400
_cell_length_b   9.49448000
_cell_length_c   10.52808700
_cell_angle_alpha   90.00000000
_cell_angle_beta   90.00000000
_cell_angle_gamma   90.00000000
_symmetry_Int_Tables_number   1
_chemical_formula_structural   NaGaPbF6
_chemical_formula_sum   'Na4 Ga4 Pb4 F24'
_cell_volume   550.78689420
_cell_formula_units_Z   4
loop_
 _symmetry_equiv_pos_site_id
 _symmetry_equiv_pos_as_xyz
  1  'x, y, z'
loop_
 _atom_site_type_symbol
 _atom_site_label
 _atom_site_symmetry_multiplicity
 _atom_site_fract_x
 _atom_site_fract_y
 _atom_site_fract_z
 _atom_site_occupancy
  Na  Na0  1  0.042772  0.648298  0.085756  1
  Na  Na1  1  0.457228  0.351702  0.585756  1
  Na  Na2  1  0.957228  0.148298  0.414244  1
  Na  Na3  1  0.542772  0.851702  0.914244  1
  Ga  Ga4  1  0.035904  0.999312  0.126468  1
  Ga  Ga5  1  0.464096  0.000688  0.626468  1
  Ga  Ga6  1  0.964096  0.499312  0.373532  1
  Ga  Ga7  1  0.535904  0.500688  0.873532  1
  Pb  Pb8  1  0.507992  0.319286  0.174311  1
  Pb  Pb9  1  0.992008  0.680714  0.674311  1
  Pb  Pb10  1  0.492008  0.819286  0.325689  1
  Pb  Pb11  1  0.007992  0.180714  0.825689  1
  F  F12  1  0.223613  0.138506  0.578743  1
  F  F13  1  0.276387  0.861494  0.078743  1
  F  F14  1  0.776387  0.638506  0.921257  1
  F  F15  1  0.723613  0.361494  0.421257  1
  F  F16  1  0.200696  0.620993  0.297137  1
  F  F17  1  0.299304  0.379007  0.797137  1
  F  F18  1  0.799304  0.120993  0.202863  1
  F  F19  1  0.700696  0.879007  0.702863  1
  F  F20  1  0.213530  0.154929  0.050382  1
  F  F21  1  0.286470  0.845071  0.550382  1
  F  F22  1  0.786470  0.654929  0.449618  1
  F  F23  1  0.713530  0.345071  0.949618  1
  F  F24  1  0.155906  0.340526  0.318617  1
  F  F25  1  0.344094  0.659474  0.818617  1
  F  F26  1  0.844094  0.840526  0.181383  1
  F  F27  1  0.655906  0.159474  0.681383  1
  F  F28  1  0.362485  0.506700  0.032995  1
  F  F29  1  0.137515  0.493300  0.532995  1
  F  F30  1  0.637515  0.006700  0.467005  1
  F  F31  1  0.862485  0.993300  0.967005  1
  F  F32  1  0.213388  0.016826  0.284064  1
  F  F33  1  0.286612  0.983174  0.784064  1
  F  F34  1  0.786612  0.516826  0.215936  1
  F  F35  1  0.713388  0.483174  0.715936  1
