# generated using pymatgen
data_Tb3Pr(Tl2Br5)4
_symmetry_space_group_name_H-M   'P 1'
_cell_length_a   8.63143543
_cell_length_b   9.06716300
_cell_length_c   13.81780700
_cell_angle_alpha   90.00000000
_cell_angle_beta   90.71625611
_cell_angle_gamma   90.00000000
_symmetry_Int_Tables_number   1
_chemical_formula_structural   Tb3Pr(Tl2Br5)4
_chemical_formula_sum   'Tb3 Pr1 Tl8 Br20'
_cell_volume   1081.33344565
_cell_formula_units_Z   1
loop_
 _symmetry_equiv_pos_site_id
 _symmetry_equiv_pos_as_xyz
  1  'x, y, z'
loop_
 _atom_site_type_symbol
 _atom_site_label
 _atom_site_symmetry_multiplicity
 _atom_site_fract_x
 _atom_site_fract_y
 _atom_site_fract_z
 _atom_site_occupancy
  Tb  Tb0  1  0.926967  0.750000  0.504332  1
  Tb  Tb1  1  0.072028  0.250000  0.495521  1
  Tb  Tb2  1  0.425110  0.250000  0.995444  1
  Pr  Pr3  1  0.575653  0.750000  0.005991  1
  Tl  Tl4  1  0.944936  0.003953  0.825496  1
  Tl  Tl5  1  0.055634  0.998566  0.174506  1
  Tl  Tl6  1  0.443888  0.997827  0.670676  1
  Tl  Tl7  1  0.055634  0.501434  0.174506  1
  Tl  Tl8  1  0.556200  0.003233  0.329274  1
  Tl  Tl9  1  0.944936  0.496047  0.825496  1
  Tl  Tl10  1  0.556200  0.496767  0.329274  1
  Tl  Tl11  1  0.443888  0.502173  0.670676  1
  Br  Br12  1  0.116544  0.750000  0.676531  1
  Br  Br13  1  0.883198  0.250000  0.323696  1
  Br  Br14  1  0.615509  0.250000  0.825412  1
  Br  Br15  1  0.376054  0.750000  0.180857  1
  Br  Br16  1  0.836676  0.044862  0.570445  1
  Br  Br17  1  0.162151  0.955175  0.429957  1
  Br  Br18  1  0.334570  0.960266  0.924188  1
  Br  Br19  1  0.162151  0.544825  0.429957  1
  Br  Br20  1  0.665360  0.050094  0.075451  1
  Br  Br21  1  0.836676  0.455138  0.570445  1
  Br  Br22  1  0.665360  0.449906  0.075451  1
  Br  Br23  1  0.334570  0.539734  0.924188  1
  Br  Br24  1  0.589233  0.750000  0.510701  1
  Br  Br25  1  0.409955  0.250000  0.488053  1
  Br  Br26  1  0.085901  0.250000  0.989731  1
  Br  Br27  1  0.922739  0.750000  0.009909  1
  Br  Br28  1  0.657950  0.750000  0.797497  1
  Br  Br29  1  0.345016  0.250000  0.197036  1
  Br  Br30  1  0.156571  0.250000  0.697235  1
  Br  Br31  1  0.842741  0.750000  0.302067  1
