# generated using pymatgen
data_Yb3(InP2)2
_symmetry_space_group_name_H-M   'P 1'
_cell_length_a   4.21011600
_cell_length_b   6.47145200
_cell_length_c   15.68737200
_cell_angle_alpha   90.00000000
_cell_angle_beta   90.00000000
_cell_angle_gamma   90.00000000
_symmetry_Int_Tables_number   1
_chemical_formula_structural   Yb3(InP2)2
_chemical_formula_sum   'Yb6 In4 P8'
_cell_volume   427.41129168
_cell_formula_units_Z   2
loop_
 _symmetry_equiv_pos_site_id
 _symmetry_equiv_pos_as_xyz
  1  'x, y, z'
loop_
 _atom_site_type_symbol
 _atom_site_label
 _atom_site_symmetry_multiplicity
 _atom_site_fract_x
 _atom_site_fract_y
 _atom_site_fract_z
 _atom_site_occupancy
  Yb  Yb0  1  0.000000  0.211309  0.303369  1
  Yb  Yb1  1  0.000000  0.788691  0.696631  1
  Yb  Yb2  1  0.500000  0.288691  0.803369  1
  Yb  Yb3  1  0.500000  0.711309  0.196631  1
  Yb  Yb4  1  0.500000  0.000000  0.000000  1
  Yb  Yb5  1  0.000000  0.500000  0.500000  1
  In  In6  1  0.500000  0.859805  0.412279  1
  In  In7  1  0.500000  0.140195  0.587721  1
  In  In8  1  0.000000  0.640195  0.912279  1
  In  In9  1  0.000000  0.359805  0.087721  1
  P  P10  1  0.500000  0.230949  0.172478  1
  P  P11  1  0.500000  0.769051  0.827522  1
  P  P12  1  0.000000  0.269051  0.672478  1
  P  P13  1  0.000000  0.730949  0.327522  1
  P  P14  1  0.000000  0.756404  0.071504  1
  P  P15  1  0.000000  0.243596  0.928496  1
  P  P16  1  0.500000  0.743596  0.571504  1
  P  P17  1  0.500000  0.256404  0.428496  1
