# generated using pymatgen
data_Zn6Ni8Sb3AsO24
_symmetry_space_group_name_H-M   'P 1'
_cell_length_a   6.08867053
_cell_length_b   6.08398292
_cell_length_c   13.41937008
_cell_angle_alpha   77.87726140
_cell_angle_beta   77.81063403
_cell_angle_gamma   90.11573612
_symmetry_Int_Tables_number   1
_chemical_formula_structural   Zn6Ni8Sb3AsO24
_chemical_formula_sum   'Zn6 Ni8 Sb3 As1 O24'
_cell_volume   474.49687417
_cell_formula_units_Z   1
loop_
 _symmetry_equiv_pos_site_id
 _symmetry_equiv_pos_as_xyz
  1  'x, y, z'
loop_
 _atom_site_type_symbol
 _atom_site_label
 _atom_site_symmetry_multiplicity
 _atom_site_fract_x
 _atom_site_fract_y
 _atom_site_fract_z
 _atom_site_occupancy
  Zn  Zn0  1  0.638781  0.358471  0.747247  1
  Zn  Zn1  1  0.297293  0.011931  0.429499  1
  Zn  Zn2  1  0.987180  0.701247  0.073794  1
  Zn  Zn3  1  0.361729  0.638068  0.250633  1
  Zn  Zn4  1  0.016698  0.301600  0.921317  1
  Zn  Zn5  1  0.697859  0.988893  0.577670  1
  Ni  Ni6  1  0.501901  0.501334  0.997603  1
  Ni  Ni7  1  0.174740  0.662687  0.663350  1
  Ni  Ni8  1  0.823733  0.336521  0.337356  1
  Ni  Ni9  1  0.501314  0.000358  0.999116  1
  Ni  Ni10  1  0.496231  0.494469  0.502871  1
  Ni  Ni11  1  0.000463  0.493914  0.502979  1
  Ni  Ni12  1  0.664390  0.175827  0.162895  1
  Ni  Ni13  1  0.336016  0.830559  0.834077  1
  Sb  Sb14  1  0.820635  0.830620  0.339560  1
  Sb  Sb15  1  0.168864  0.178027  0.163148  1
  Sb  Sb16  1  0.835348  0.827765  0.832729  1
  As  As17  1  0.178768  0.170085  0.663449  1
  O  O18  1  0.247168  0.710618  0.509147  1
  O  O19  1  0.921165  0.392755  0.172784  1
  O  O20  1  0.596676  0.051408  0.835627  1
  O  O21  1  0.238911  0.240806  0.519850  1
  O  O22  1  0.918673  0.931616  0.176432  1
  O  O23  1  0.598855  0.605102  0.826524  1
  O  O24  1  0.960932  0.386279  0.665139  1
  O  O25  1  0.605510  0.078208  0.329448  1
  O  O26  1  0.286221  0.752639  0.990213  1
  O  O27  1  0.386238  0.387655  0.668739  1
  O  O28  1  0.067745  0.081156  0.326412  1
  O  O29  1  0.752303  0.757664  0.988227  1
  O  O30  1  0.750671  0.285209  0.493189  1
  O  O31  1  0.404501  0.949811  0.162844  1
  O  O32  1  0.080839  0.610711  0.825539  1
  O  O33  1  0.752746  0.747073  0.495004  1
  O  O34  1  0.405967  0.401684  0.165866  1
  O  O35  1  0.086047  0.074810  0.817959  1
  O  O36  1  0.049679  0.595430  0.338899  1
  O  O37  1  0.717810  0.249596  0.006298  1
  O  O38  1  0.377973  0.937869  0.671172  1
  O  O39  1  0.597949  0.594142  0.335174  1
  O  O40  1  0.250995  0.244824  0.008031  1
  O  O41  1  0.942482  0.930560  0.672192  1
