# generated using pymatgen
data_Er4MnV(B8Ir)2
_symmetry_space_group_name_H-M   'P 1'
_cell_length_a   3.49304900
_cell_length_b   5.93974566
_cell_length_c   11.51435918
_cell_angle_alpha   89.54994140
_cell_angle_beta   90.00000000
_cell_angle_gamma   90.00000000
_symmetry_Int_Tables_number   1
_chemical_formula_structural   Er4MnV(B8Ir)2
_chemical_formula_sum   'Er4 Mn1 V1 B16 Ir2'
_cell_volume   238.89051180
_cell_formula_units_Z   1
loop_
 _symmetry_equiv_pos_site_id
 _symmetry_equiv_pos_as_xyz
  1  'x, y, z'
loop_
 _atom_site_type_symbol
 _atom_site_label
 _atom_site_symmetry_multiplicity
 _atom_site_fract_x
 _atom_site_fract_y
 _atom_site_fract_z
 _atom_site_occupancy
  Er  Er0  1  0.000000  0.626326  0.353060  1
  Er  Er1  1  0.000000  0.376023  0.647018  1
  Er  Er2  1  0.000000  0.129661  0.152892  1
  Er  Er3  1  0.000000  0.869274  0.846235  1
  Mn  Mn4  1  0.000000  0.877153  0.582010  1
  V  V5  1  0.000000  0.124226  0.418848  1
  B  B6  1  0.500000  0.788647  0.189393  1
  B  B7  1  0.500000  0.210480  0.809908  1
  B  B8  1  0.500000  0.286832  0.315723  1
  B  B9  1  0.500000  0.716988  0.681801  1
  B  B10  1  0.500000  0.865081  0.030229  1
  B  B11  1  0.500000  0.135197  0.970038  1
  B  B12  1  0.500000  0.365134  0.469201  1
  B  B13  1  0.500000  0.637771  0.533230  1
  B  B14  1  0.500000  0.884550  0.456048  1
  B  B15  1  0.500000  0.110184  0.548022  1
  B  B16  1  0.500000  0.386600  0.048186  1
  B  B17  1  0.500000  0.613578  0.951567  1
  B  B18  1  0.500000  0.976607  0.309277  1
  B  B19  1  0.500000  0.019649  0.690027  1
  B  B20  1  0.500000  0.473906  0.194655  1
  B  B21  1  0.500000  0.528028  0.804847  1
  Ir  Ir22  1  0.000000  0.643400  0.094513  1
  Ir  Ir23  1  0.000000  0.354705  0.903274  1
