# generated using pymatgen
data_K2PrU(CuSe3)2
_symmetry_space_group_name_H-M   'P 1'
_cell_length_a   4.16372600
_cell_length_b   7.70797111
_cell_length_c   10.82268687
_cell_angle_alpha   90.31337174
_cell_angle_beta   90.00000000
_cell_angle_gamma   74.33024566
_symmetry_Int_Tables_number   1
_chemical_formula_structural   K2PrU(CuSe3)2
_chemical_formula_sum   'K2 Pr1 U1 Cu2 Se6'
_cell_volume   334.42746069
_cell_formula_units_Z   1
loop_
 _symmetry_equiv_pos_site_id
 _symmetry_equiv_pos_as_xyz
  1  'x, y, z'
loop_
 _atom_site_type_symbol
 _atom_site_label
 _atom_site_symmetry_multiplicity
 _atom_site_fract_x
 _atom_site_fract_y
 _atom_site_fract_z
 _atom_site_occupancy
  K  K0  1  0.255400  0.489201  0.231898  1
  K  K1  1  0.744601  0.510800  0.768102  1
  Pr  Pr2  1  0.000000  0.000000  0.000000  1
  U  U3  1  0.000000  0.000000  0.500000  1
  Cu  Cu4  1  0.533310  0.933382  0.254132  1
  Cu  Cu5  1  0.466691  0.066617  0.745868  1
  Se  Se6  1  0.630376  0.739250  0.072818  1
  Se  Se7  1  0.935127  0.129746  0.264411  1
  Se  Se8  1  0.621284  0.757433  0.442880  1
  Se  Se9  1  0.378717  0.242567  0.557121  1
  Se  Se10  1  0.064874  0.870253  0.735589  1
  Se  Se11  1  0.369625  0.260750  0.927182  1
