# generated using pymatgen
data_CaSn6RuRh3
_symmetry_space_group_name_H-M   'P 1'
_cell_length_a   6.98772787
_cell_length_b   6.98772759
_cell_length_c   6.96092294
_cell_angle_alpha   119.83673854
_cell_angle_beta   119.83673591
_cell_angle_gamma   90.63115048
_symmetry_Int_Tables_number   1
_chemical_formula_structural   CaSn6RuRh3
_chemical_formula_sum   'Ca1 Sn6 Ru1 Rh3'
_cell_volume   240.18307043
_cell_formula_units_Z   1
loop_
 _symmetry_equiv_pos_site_id
 _symmetry_equiv_pos_as_xyz
  1  'x, y, z'
loop_
 _atom_site_type_symbol
 _atom_site_label
 _atom_site_symmetry_multiplicity
 _atom_site_fract_x
 _atom_site_fract_y
 _atom_site_fract_z
 _atom_site_occupancy
  Ca  Ca0  1  0.997420  0.997420  0.994011  1
  Sn  Sn1  1  0.875963  0.538131  0.004492  1
  Sn  Sn2  1  0.538131  0.875963  0.004492  1
  Sn  Sn3  1  0.123804  0.123804  0.660299  1
  Sn  Sn4  1  0.002372  0.505179  0.501680  1
  Sn  Sn5  1  0.466413  0.466413  0.341019  1
  Sn  Sn6  1  0.505179  0.002372  0.501680  1
  Ru  Ru7  1  0.750896  0.750896  0.348466  1
  Rh  Rh8  1  0.240393  0.599705  0.998547  1
  Rh  Rh9  1  0.399724  0.399724  0.646769  1
  Rh  Rh10  1  0.599705  0.240393  0.998547  1
