# generated using pymatgen
data_BaSr2(H6Rh)2
_symmetry_space_group_name_H-M   'P 1'
_cell_length_a   5.16384100
_cell_length_b   5.16384169
_cell_length_c   8.45357500
_cell_angle_alpha   90.00000000
_cell_angle_beta   90.00000000
_cell_angle_gamma   120.00000196
_symmetry_Int_Tables_number   1
_chemical_formula_structural   BaSr2(H6Rh)2
_chemical_formula_sum   'Ba1 Sr2 H12 Rh2'
_cell_volume   195.21663139
_cell_formula_units_Z   1
loop_
 _symmetry_equiv_pos_site_id
 _symmetry_equiv_pos_as_xyz
  1  'x, y, z'
loop_
 _atom_site_type_symbol
 _atom_site_label
 _atom_site_symmetry_multiplicity
 _atom_site_fract_x
 _atom_site_fract_y
 _atom_site_fract_z
 _atom_site_occupancy
  Ba  Ba0  1  0.000000  0.000000  0.000000  1
  Sr  Sr1  1  0.666667  0.333333  0.363085  1
  Sr  Sr2  1  0.333333  0.666667  0.636915  1
  H  H3  1  0.178497  0.821503  0.364050  1
  H  H4  1  0.643006  0.821503  0.364050  1
  H  H5  1  0.178497  0.356994  0.364050  1
  H  H6  1  0.821503  0.178497  0.635950  1
  H  H7  1  0.356994  0.178497  0.635950  1
  H  H8  1  0.821503  0.643006  0.635950  1
  H  H9  1  0.518032  0.036063  0.865196  1
  H  H10  1  0.518032  0.481968  0.865196  1
  H  H11  1  0.963937  0.481968  0.865196  1
  H  H12  1  0.481968  0.963937  0.134804  1
  H  H13  1  0.481968  0.518032  0.134804  1
  H  H14  1  0.036063  0.518032  0.134804  1
  Rh  Rh15  1  0.666667  0.333333  0.748136  1
  Rh  Rh16  1  0.333333  0.666667  0.251864  1
