# generated using pymatgen
data_NdHo2TaO7
_symmetry_space_group_name_H-M   'P 1'
_cell_length_a   6.49994182
_cell_length_b   6.49994158
_cell_length_c   7.58405800
_cell_angle_alpha   90.00000000
_cell_angle_beta   90.00000000
_cell_angle_gamma   109.11476462
_symmetry_Int_Tables_number   1
_chemical_formula_structural   NdHo2TaO7
_chemical_formula_sum   'Nd2 Ho4 Ta2 O14'
_cell_volume   302.75416584
_cell_formula_units_Z   2
loop_
 _symmetry_equiv_pos_site_id
 _symmetry_equiv_pos_as_xyz
  1  'x, y, z'
loop_
 _atom_site_type_symbol
 _atom_site_label
 _atom_site_symmetry_multiplicity
 _atom_site_fract_x
 _atom_site_fract_y
 _atom_site_fract_z
 _atom_site_occupancy
  Nd  Nd0  1  0.514249  0.514249  0.500000  1
  Nd  Nd1  1  0.485751  0.485751  0.000000  1
  Ho  Ho2  1  0.001025  0.533332  0.245618  1
  Ho  Ho3  1  0.998975  0.466668  0.745618  1
  Ho  Ho4  1  0.533332  0.001025  0.754382  1
  Ho  Ho5  1  0.466668  0.998975  0.254382  1
  Ta  Ta6  1  0.001651  0.001651  0.500000  1
  Ta  Ta7  1  0.998349  0.998349  0.000000  1
  O  O8  1  0.934913  0.065087  0.750000  1
  O  O9  1  0.065087  0.934913  0.250000  1
  O  O10  1  0.356298  0.643702  0.250000  1
  O  O11  1  0.643702  0.356298  0.750000  1
  O  O12  1  0.363039  0.636961  0.750000  1
  O  O13  1  0.636961  0.363039  0.250000  1
  O  O14  1  0.323673  0.072960  0.971973  1
  O  O15  1  0.676327  0.927040  0.471973  1
  O  O16  1  0.315587  0.061913  0.538025  1
  O  O17  1  0.684413  0.938087  0.038025  1
  O  O18  1  0.061913  0.315587  0.461975  1
  O  O19  1  0.938087  0.684413  0.961975  1
  O  O20  1  0.927040  0.676327  0.528027  1
  O  O21  1  0.072960  0.323673  0.028027  1
