# generated using pymatgen
data_Sr4Tc3NiO12
_symmetry_space_group_name_H-M   'P 1'
_cell_length_a   5.63397850
_cell_length_b   5.63624903
_cell_length_c   9.76200070
_cell_angle_alpha   89.79557842
_cell_angle_beta   106.41438986
_cell_angle_gamma   59.77359845
_symmetry_Int_Tables_number   1
_chemical_formula_structural   Sr4Tc3NiO12
_chemical_formula_sum   'Sr4 Tc3 Ni1 O12'
_cell_volume   252.91818738
_cell_formula_units_Z   1
loop_
 _symmetry_equiv_pos_site_id
 _symmetry_equiv_pos_as_xyz
  1  'x, y, z'
loop_
 _atom_site_type_symbol
 _atom_site_label
 _atom_site_symmetry_multiplicity
 _atom_site_fract_x
 _atom_site_fract_y
 _atom_site_fract_z
 _atom_site_occupancy
  Sr  Sr0  1  0.739850  0.380215  0.359969  1
  Sr  Sr1  1  0.260077  0.619804  0.639843  1
  Sr  Sr2  1  0.758901  0.870484  0.888026  1
  Sr  Sr3  1  0.241020  0.129587  0.111816  1
  Tc  Tc4  1  0.001434  0.749584  0.252310  1
  Tc  Tc5  1  0.500078  0.999892  0.500109  1
  Tc  Tc6  1  0.998471  0.250385  0.747715  1
  Ni  Ni7  1  0.499731  0.500229  0.999817  1
  O  O8  1  0.250864  0.874096  0.376971  1
  O  O9  1  0.749420  0.125435  0.623355  1
  O  O10  1  0.242207  0.373294  0.869486  1
  O  O11  1  0.757376  0.627281  0.130288  1
  O  O12  1  0.748924  0.625440  0.622460  1
  O  O13  1  0.243229  0.884038  0.869373  1
  O  O14  1  0.757118  0.116085  0.130652  1
  O  O15  1  0.251049  0.374413  0.377653  1
  O  O16  1  0.751343  0.874240  0.377363  1
  O  O17  1  0.248928  0.125623  0.622836  1
  O  O18  1  0.753137  0.373723  0.869162  1
  O  O19  1  0.246843  0.626154  0.130794  1
