# generated using pymatgen
data_Tb10Bi6PS
_symmetry_space_group_name_H-M   'P 1'
_cell_length_a   9.25541100
_cell_length_b   9.25541257
_cell_length_c   6.63467700
_cell_angle_alpha   90.00000000
_cell_angle_beta   90.00000000
_cell_angle_gamma   120.00000510
_symmetry_Int_Tables_number   1
_chemical_formula_structural   Tb10Bi6PS
_chemical_formula_sum   'Tb10 Bi6 P1 S1'
_cell_volume   492.20031345
_cell_formula_units_Z   1
loop_
 _symmetry_equiv_pos_site_id
 _symmetry_equiv_pos_as_xyz
  1  'x, y, z'
loop_
 _atom_site_type_symbol
 _atom_site_label
 _atom_site_symmetry_multiplicity
 _atom_site_fract_x
 _atom_site_fract_y
 _atom_site_fract_z
 _atom_site_occupancy
  Tb  Tb0  1  0.666667  0.333333  0.500000  1
  Tb  Tb1  1  0.333333  0.666667  0.500000  1
  Tb  Tb2  1  0.333333  0.666667  0.000000  1
  Tb  Tb3  1  0.666667  0.333333  0.000000  1
  Tb  Tb4  1  0.758104  0.758104  0.252931  1
  Tb  Tb5  1  0.241896  0.000000  0.252931  1
  Tb  Tb6  1  0.000000  0.241896  0.252931  1
  Tb  Tb7  1  0.241896  0.241896  0.747069  1
  Tb  Tb8  1  0.758104  0.000000  0.747069  1
  Tb  Tb9  1  0.000000  0.758104  0.747069  1
  Bi  Bi10  1  0.397837  0.397837  0.250181  1
  Bi  Bi11  1  0.602163  0.000000  0.250181  1
  Bi  Bi12  1  0.000000  0.602163  0.250181  1
  Bi  Bi13  1  0.602163  0.602163  0.749819  1
  Bi  Bi14  1  0.397837  0.000000  0.749819  1
  Bi  Bi15  1  0.000000  0.397837  0.749819  1
  P  P16  1  0.000000  0.000000  0.500000  1
  S  S17  1  0.000000  0.000000  0.000000  1
