# generated using pymatgen
data_SmEr3(CuP)6
_symmetry_space_group_name_H-M   'P 1'
_cell_length_a   3.85078600
_cell_length_b   10.66314400
_cell_length_c   12.92860400
_cell_angle_alpha   90.00000000
_cell_angle_beta   90.00000000
_cell_angle_gamma   90.00000000
_symmetry_Int_Tables_number   1
_chemical_formula_structural   SmEr3(CuP)6
_chemical_formula_sum   'Sm2 Er6 Cu12 P12'
_cell_volume   530.86768738
_cell_formula_units_Z   2
loop_
 _symmetry_equiv_pos_site_id
 _symmetry_equiv_pos_as_xyz
  1  'x, y, z'
loop_
 _atom_site_type_symbol
 _atom_site_label
 _atom_site_symmetry_multiplicity
 _atom_site_fract_x
 _atom_site_fract_y
 _atom_site_fract_z
 _atom_site_occupancy
  Sm  Sm0  1  0.250000  0.932219  0.792758  1
  Sm  Sm1  1  0.750000  0.432219  0.707242  1
  Er  Er2  1  0.250000  0.568656  0.292072  1
  Er  Er3  1  0.750000  0.068656  0.207928  1
  Er  Er4  1  0.250000  0.841127  0.502076  1
  Er  Er5  1  0.750000  0.341127  0.997924  1
  Er  Er6  1  0.250000  0.657994  0.004284  1
  Er  Er7  1  0.750000  0.157994  0.495716  1
  Cu  Cu8  1  0.250000  0.403787  0.511353  1
  Cu  Cu9  1  0.750000  0.903787  0.988647  1
  Cu  Cu10  1  0.250000  0.095976  0.013771  1
  Cu  Cu11  1  0.750000  0.595976  0.486229  1
  Cu  Cu12  1  0.250000  0.271040  0.331230  1
  Cu  Cu13  1  0.750000  0.771040  0.168770  1
  Cu  Cu14  1  0.250000  0.229953  0.832240  1
  Cu  Cu15  1  0.750000  0.729953  0.667760  1
  Cu  Cu16  1  0.250000  0.859373  0.280988  1
  Cu  Cu17  1  0.750000  0.359373  0.219012  1
  Cu  Cu18  1  0.250000  0.641252  0.782184  1
  Cu  Cu19  1  0.750000  0.141252  0.717816  1
  P  P20  1  0.250000  0.239522  0.641137  1
  P  P21  1  0.750000  0.739522  0.858863  1
  P  P22  1  0.250000  0.256955  0.142713  1
  P  P23  1  0.750000  0.756955  0.357287  1
  P  P24  1  0.250000  0.607113  0.600982  1
  P  P25  1  0.750000  0.107113  0.899018  1
  P  P26  1  0.250000  0.894955  0.101794  1
  P  P27  1  0.750000  0.394955  0.398206  1
  P  P28  1  0.250000  0.055926  0.369121  1
  P  P29  1  0.750000  0.555926  0.130879  1
  P  P30  1  0.250000  0.444152  0.873200  1
  P  P31  1  0.750000  0.944152  0.626800  1
