# generated using pymatgen
data_Hf4In2Pt3Rh7
_symmetry_space_group_name_H-M   'P 1'
_cell_length_a   4.18169200
_cell_length_b   5.62488948
_cell_length_c   11.19074014
_cell_angle_alpha   89.61583337
_cell_angle_beta   90.00000000
_cell_angle_gamma   90.00000000
_symmetry_Int_Tables_number   1
_chemical_formula_structural   Hf4In2Pt3Rh7
_chemical_formula_sum   'Hf4 In2 Pt3 Rh7'
_cell_volume   263.21769681
_cell_formula_units_Z   1
loop_
 _symmetry_equiv_pos_site_id
 _symmetry_equiv_pos_as_xyz
  1  'x, y, z'
loop_
 _atom_site_type_symbol
 _atom_site_label
 _atom_site_symmetry_multiplicity
 _atom_site_fract_x
 _atom_site_fract_y
 _atom_site_fract_z
 _atom_site_occupancy
  Hf  Hf0  1  0.500000  0.180550  0.639587  1
  Hf  Hf1  1  0.500000  0.813007  0.365440  1
  Hf  Hf2  1  0.500000  0.694211  0.860827  1
  Hf  Hf3  1  0.500000  0.313630  0.134272  1
  In  In4  1  0.000000  0.497763  0.501273  1
  In  In5  1  0.000000  0.000301  0.997965  1
  Pt  Pt6  1  0.000000  0.444353  0.750674  1
  Pt  Pt7  1  0.000000  0.554764  0.249953  1
  Pt  Pt8  1  0.000000  0.054864  0.249392  1
  Rh  Rh9  1  0.500000  0.212478  0.882817  1
  Rh  Rh10  1  0.500000  0.790667  0.118573  1
  Rh  Rh11  1  0.500000  0.709113  0.617100  1
  Rh  Rh12  1  0.500000  0.289784  0.381678  1
  Rh  Rh13  1  0.000000  0.998618  0.500033  1
  Rh  Rh14  1  0.000000  0.501571  0.999898  1
  Rh  Rh15  1  0.000000  0.944324  0.750518  1
