# generated using pymatgen
data_YbPa2Co7C2
_symmetry_space_group_name_H-M   'P 1'
_cell_length_a   4.98476300
_cell_length_b   4.98476118
_cell_length_c   13.82132200
_cell_angle_alpha   90.00000000
_cell_angle_beta   90.00000000
_cell_angle_gamma   120.00001871
_symmetry_Int_Tables_number   1
_chemical_formula_structural   YbPa2Co7C2
_chemical_formula_sum   'Yb2 Pa4 Co14 C4'
_cell_volume   297.41920305
_cell_formula_units_Z   2
loop_
 _symmetry_equiv_pos_site_id
 _symmetry_equiv_pos_as_xyz
  1  'x, y, z'
loop_
 _atom_site_type_symbol
 _atom_site_label
 _atom_site_symmetry_multiplicity
 _atom_site_fract_x
 _atom_site_fract_y
 _atom_site_fract_z
 _atom_site_occupancy
  Yb  Yb0  1  0.666667  0.333333  0.750000  1
  Yb  Yb1  1  0.333333  0.666667  0.250000  1
  Pa  Pa2  1  0.666667  0.333333  0.534672  1
  Pa  Pa3  1  0.333333  0.666667  0.465328  1
  Pa  Pa4  1  0.333333  0.666667  0.034672  1
  Pa  Pa5  1  0.666667  0.333333  0.965328  1
  Co  Co6  1  0.166024  0.332048  0.653861  1
  Co  Co7  1  0.332048  0.166024  0.346139  1
  Co  Co8  1  0.332048  0.166024  0.153861  1
  Co  Co9  1  0.166024  0.833976  0.846139  1
  Co  Co10  1  0.833976  0.667952  0.346139  1
  Co  Co11  1  0.833976  0.166024  0.153861  1
  Co  Co12  1  0.667952  0.833976  0.653861  1
  Co  Co13  1  0.667952  0.833976  0.846139  1
  Co  Co14  1  0.166024  0.833976  0.653861  1
  Co  Co15  1  0.833976  0.667952  0.153861  1
  Co  Co16  1  0.000000  0.000000  0.000000  1
  Co  Co17  1  0.166024  0.332048  0.846139  1
  Co  Co18  1  0.833976  0.166024  0.346139  1
  Co  Co19  1  0.000000  0.000000  0.500000  1
  C  C20  1  0.666667  0.333333  0.250000  1
  C  C21  1  0.000000  0.000000  0.750000  1
  C  C22  1  0.333333  0.666667  0.750000  1
  C  C23  1  0.000000  0.000000  0.250000  1
