# generated using pymatgen
data_La2Sm3Zn2Ru3
_symmetry_space_group_name_H-M   'P 1'
_cell_length_a   8.50105479
_cell_length_b   8.56903390
_cell_length_c   8.56910100
_cell_angle_alpha   109.30665934
_cell_angle_beta   109.30419219
_cell_angle_gamma   109.13663520
_symmetry_Int_Tables_number   1
_chemical_formula_structural   La2Sm3Zn2Ru3
_chemical_formula_sum   'La4 Sm6 Zn4 Ru6'
_cell_volume   484.43660002
_cell_formula_units_Z   2
loop_
 _symmetry_equiv_pos_site_id
 _symmetry_equiv_pos_as_xyz
  1  'x, y, z'
loop_
 _atom_site_type_symbol
 _atom_site_label
 _atom_site_symmetry_multiplicity
 _atom_site_fract_x
 _atom_site_fract_y
 _atom_site_fract_z
 _atom_site_occupancy
  La  La0  1  0.250936  0.689176  0.439558  1
  La  La1  1  0.753093  0.813373  0.061793  1
  La  La2  1  0.439944  0.249361  0.687939  1
  La  La3  1  0.690007  0.438690  0.251370  1
  Sm  Sm4  1  0.068118  0.751663  0.818528  1
  Sm  Sm5  1  0.819765  0.068041  0.751442  1
  Sm  Sm6  1  0.219767  0.221149  0.218925  1
  Sm  Sm7  1  0.499623  0.996185  0.277687  1
  Sm  Sm8  1  0.278314  0.500934  0.998666  1
  Sm  Sm9  1  0.999650  0.280101  0.503096  1
  Zn  Zn10  1  0.589526  0.587912  0.587544  1
  Zn  Zn11  1  0.499645  0.001559  0.915395  1
  Zn  Zn12  1  0.916679  0.497504  0.997650  1
  Zn  Zn13  1  0.998678  0.915299  0.501928  1
  Ru  Ru14  1  0.246303  0.130624  0.871093  1
  Ru  Ru15  1  0.741433  0.363693  0.623393  1
  Ru  Ru16  1  0.873841  0.253014  0.132793  1
  Ru  Ru17  1  0.123447  0.872903  0.243310  1
  Ru  Ru18  1  0.620695  0.741005  0.367672  1
  Ru  Ru19  1  0.370536  0.627809  0.750217  1
