# generated using pymatgen
data_Y13Er7(GaBi2)4
_symmetry_space_group_name_H-M   'P 1'
_cell_length_a   8.09517345
_cell_length_b   9.27866152
_cell_length_c   12.11704535
_cell_angle_alpha   89.96177029
_cell_angle_beta   89.96173716
_cell_angle_gamma   90.00016499
_symmetry_Int_Tables_number   1
_chemical_formula_structural   Y13Er7(GaBi2)4
_chemical_formula_sum   'Y13 Er7 Ga4 Bi8'
_cell_volume   910.13964103
_cell_formula_units_Z   1
loop_
 _symmetry_equiv_pos_site_id
 _symmetry_equiv_pos_as_xyz
  1  'x, y, z'
loop_
 _atom_site_type_symbol
 _atom_site_label
 _atom_site_symmetry_multiplicity
 _atom_site_fract_x
 _atom_site_fract_y
 _atom_site_fract_z
 _atom_site_occupancy
  Y  Y0  1  0.669138  0.750406  0.715686  1
  Y  Y1  1  0.331021  0.249687  0.284468  1
  Y  Y2  1  0.169139  0.249472  0.784349  1
  Y  Y3  1  0.830619  0.750236  0.215867  1
  Y  Y4  1  0.143213  0.750462  0.793887  1
  Y  Y5  1  0.856541  0.249129  0.205773  1
  Y  Y6  1  0.643469  0.249255  0.705634  1
  Y  Y7  1  0.356766  0.750329  0.294733  1
  Y  Y8  1  0.817615  0.447639  0.936070  1
  Y  Y9  1  0.182143  0.551962  0.063969  1
  Y  Y10  1  0.317801  0.552293  0.563773  1
  Y  Y11  1  0.181556  0.948103  0.063744  1
  Y  Y12  1  0.682092  0.447551  0.436221  1
  Er  Er13  1  0.540480  0.750511  0.002408  1
  Er  Er14  1  0.460622  0.249502  0.997397  1
  Er  Er15  1  0.039697  0.249053  0.497465  1
  Er  Er16  1  0.960102  0.750833  0.502563  1
  Er  Er17  1  0.819039  0.052904  0.936322  1
  Er  Er18  1  0.680293  0.052884  0.436676  1
  Er  Er19  1  0.319689  0.947338  0.563218  1
  Ga  Ga20  1  0.907589  0.751024  0.975260  1
  Ga  Ga21  1  0.091555  0.249567  0.024185  1
  Ga  Ga22  1  0.408024  0.248528  0.524481  1
  Ga  Ga23  1  0.592009  0.751595  0.475522  1
  Bi  Bi24  1  0.935893  0.008810  0.673045  1
  Bi  Bi25  1  0.063711  0.991179  0.327310  1
  Bi  Bi26  1  0.435804  0.991211  0.826730  1
  Bi  Bi27  1  0.064239  0.508650  0.327013  1
  Bi  Bi28  1  0.564532  0.008768  0.173311  1
  Bi  Bi29  1  0.935663  0.491219  0.672960  1
  Bi  Bi30  1  0.564216  0.491193  0.173028  1
  Bi  Bi31  1  0.435732  0.508708  0.826929  1
