# generated using pymatgen
data_YbGd3Re2(B8Mo)2
_symmetry_space_group_name_H-M   'P 1'
_cell_length_a   3.62660800
_cell_length_b   6.02458796
_cell_length_c   11.64905822
_cell_angle_alpha   90.14035820
_cell_angle_beta   90.00000000
_cell_angle_gamma   90.00000000
_symmetry_Int_Tables_number   1
_chemical_formula_structural   YbGd3Re2(B8Mo)2
_chemical_formula_sum   'Yb1 Gd3 Re2 B16 Mo2'
_cell_volume   254.51739946
_cell_formula_units_Z   1
loop_
 _symmetry_equiv_pos_site_id
 _symmetry_equiv_pos_as_xyz
  1  'x, y, z'
loop_
 _atom_site_type_symbol
 _atom_site_label
 _atom_site_symmetry_multiplicity
 _atom_site_fract_x
 _atom_site_fract_y
 _atom_site_fract_z
 _atom_site_occupancy
  Yb  Yb0  1  0.000000  0.627712  0.350279  1
  Gd  Gd1  1  0.000000  0.373193  0.649082  1
  Gd  Gd2  1  0.000000  0.127537  0.151793  1
  Gd  Gd3  1  0.000000  0.873591  0.849884  1
  Re  Re4  1  0.000000  0.132563  0.416400  1
  Re  Re5  1  0.000000  0.868380  0.583884  1
  B  B6  1  0.500000  0.785837  0.187267  1
  B  B7  1  0.500000  0.212986  0.813392  1
  B  B8  1  0.500000  0.283968  0.316217  1
  B  B9  1  0.500000  0.716037  0.683141  1
  B  B10  1  0.500000  0.865918  0.032714  1
  B  B11  1  0.500000  0.133766  0.967945  1
  B  B12  1  0.500000  0.363214  0.467631  1
  B  B13  1  0.500000  0.636817  0.530701  1
  B  B14  1  0.500000  0.885314  0.452093  1
  B  B15  1  0.500000  0.111986  0.546323  1
  B  B16  1  0.500000  0.385783  0.047625  1
  B  B17  1  0.500000  0.613918  0.952813  1
  B  B18  1  0.500000  0.977123  0.309276  1
  B  B19  1  0.500000  0.022589  0.690599  1
  B  B20  1  0.500000  0.476056  0.194395  1
  B  B21  1  0.500000  0.524688  0.806195  1
  Mo  Mo22  1  0.000000  0.629310  0.084793  1
  Mo  Mo23  1  0.000000  0.371712  0.915559  1
