# generated using pymatgen
data_Ca3Si2AsRh6
_symmetry_space_group_name_H-M   'P 1'
_cell_length_a   5.65367600
_cell_length_b   5.65367460
_cell_length_c   15.10439200
_cell_angle_alpha   90.00000000
_cell_angle_beta   90.00000000
_cell_angle_gamma   119.99999650
_symmetry_Int_Tables_number   1
_chemical_formula_structural   Ca3Si2AsRh6
_chemical_formula_sum   'Ca6 Si4 As2 Rh12'
_cell_volume   418.11487686
_cell_formula_units_Z   2
loop_
 _symmetry_equiv_pos_site_id
 _symmetry_equiv_pos_as_xyz
  1  'x, y, z'
loop_
 _atom_site_type_symbol
 _atom_site_label
 _atom_site_symmetry_multiplicity
 _atom_site_fract_x
 _atom_site_fract_y
 _atom_site_fract_z
 _atom_site_occupancy
  Ca  Ca0  1  0.333333  0.666667  0.040478  1
  Ca  Ca1  1  0.333333  0.666667  0.250000  1
  Ca  Ca2  1  0.333333  0.666667  0.459522  1
  Ca  Ca3  1  0.666667  0.333334  0.540478  1
  Ca  Ca4  1  0.666667  0.333334  0.750000  1
  Ca  Ca5  1  0.666667  0.333334  0.959522  1
  Si  Si6  1  0.000000  0.000000  0.250000  1
  Si  Si7  1  0.666667  0.333334  0.250000  1
  Si  Si8  1  0.000000  0.000000  0.750000  1
  Si  Si9  1  0.333333  0.666667  0.750000  1
  As  As10  1  0.000000  0.000000  0.000000  1
  As  As11  1  0.000000  0.000000  0.500000  1
  Rh  Rh12  1  0.331892  0.165946  0.134829  1
  Rh  Rh13  1  0.834054  0.165946  0.134829  1
  Rh  Rh14  1  0.834054  0.668108  0.134829  1
  Rh  Rh15  1  0.331892  0.165946  0.365171  1
  Rh  Rh16  1  0.834054  0.165946  0.365171  1
  Rh  Rh17  1  0.834054  0.668108  0.365171  1
  Rh  Rh18  1  0.165946  0.331893  0.634830  1
  Rh  Rh19  1  0.165946  0.834054  0.634830  1
  Rh  Rh20  1  0.668108  0.834054  0.634830  1
  Rh  Rh21  1  0.165946  0.331893  0.865171  1
  Rh  Rh22  1  0.165946  0.834054  0.865171  1
  Rh  Rh23  1  0.668108  0.834054  0.865171  1
