# generated using pymatgen
data_Nb4Ga2Fe3B4Ru7
_symmetry_space_group_name_H-M   'P 1'
_cell_length_a   9.14465449
_cell_length_b   9.12106751
_cell_length_c   2.98928900
_cell_angle_alpha   90.00000000
_cell_angle_beta   90.00000000
_cell_angle_gamma   90.08480029
_symmetry_Int_Tables_number   1
_chemical_formula_structural   Nb4Ga2Fe3B4Ru7
_chemical_formula_sum   'Nb4 Ga2 Fe3 B4 Ru7'
_cell_volume   249.33336591
_cell_formula_units_Z   1
loop_
 _symmetry_equiv_pos_site_id
 _symmetry_equiv_pos_as_xyz
  1  'x, y, z'
loop_
 _atom_site_type_symbol
 _atom_site_label
 _atom_site_symmetry_multiplicity
 _atom_site_fract_x
 _atom_site_fract_y
 _atom_site_fract_z
 _atom_site_occupancy
  Nb  Nb0  1  0.822051  0.674018  0.000000  1
  Nb  Nb1  1  0.173937  0.325889  0.000000  1
  Nb  Nb2  1  0.333287  0.823089  0.000000  1
  Nb  Nb3  1  0.672127  0.172106  0.000000  1
  Ga  Ga4  1  0.503279  0.511243  0.000000  1
  Ga  Ga5  1  0.998073  0.999813  0.000000  1
  Fe  Fe6  1  0.566615  0.723222  0.500000  1
  Fe  Fe7  1  0.499544  0.996085  0.500000  1
  Fe  Fe8  1  0.000549  0.500297  0.500000  1
  B  B9  1  0.613805  0.873691  0.000000  1
  B  B10  1  0.384151  0.117951  0.000000  1
  B  B11  1  0.117412  0.617889  0.000000  1
  B  B12  1  0.882188  0.383512  0.000000  1
  Ru  Ru13  1  0.436408  0.282362  0.500000  1
  Ru  Ru14  1  0.064771  0.781289  0.500000  1
  Ru  Ru15  1  0.933583  0.219105  0.500000  1
  Ru  Ru16  1  0.282665  0.566173  0.500000  1
  Ru  Ru17  1  0.718330  0.437636  0.500000  1
  Ru  Ru18  1  0.219515  0.063178  0.500000  1
  Ru  Ru19  1  0.777712  0.931452  0.500000  1
