# generated using pymatgen
data_Ho2Mg2SnPb
_symmetry_space_group_name_H-M   'P 1'
_cell_length_a   4.41833102
_cell_length_b   4.41831433
_cell_length_c   8.53834258
_cell_angle_alpha   104.75686420
_cell_angle_beta   104.75583336
_cell_angle_gamma   90.06549768
_symmetry_Int_Tables_number   1
_chemical_formula_structural   Ho2Mg2SnPb
_chemical_formula_sum   'Ho2 Mg2 Sn1 Pb1'
_cell_volume   155.47918253
_cell_formula_units_Z   1
loop_
 _symmetry_equiv_pos_site_id
 _symmetry_equiv_pos_as_xyz
  1  'x, y, z'
loop_
 _atom_site_type_symbol
 _atom_site_label
 _atom_site_symmetry_multiplicity
 _atom_site_fract_x
 _atom_site_fract_y
 _atom_site_fract_z
 _atom_site_occupancy
  Ho  Ho0  1  0.666831  0.666836  0.334084  1
  Ho  Ho1  1  0.335031  0.335016  0.669475  1
  Mg  Mg2  1  0.498650  0.998619  0.997304  1
  Mg  Mg3  1  0.998622  0.498651  0.997310  1
  Sn  Sn4  1  0.862904  0.862897  0.726462  1
  Pb  Pb5  1  0.137959  0.137977  0.275363  1
