# generated using pymatgen
data_Tb19YSi15Au
_symmetry_space_group_name_H-M   'P 1'
_cell_length_a   7.49189081
_cell_length_b   7.72879811
_cell_length_c   14.73187217
_cell_angle_alpha   90.15285016
_cell_angle_beta   90.50706415
_cell_angle_gamma   90.17608419
_symmetry_Int_Tables_number   1
_chemical_formula_structural   Tb19YSi15Au
_chemical_formula_sum   'Tb19 Y1 Si15 Au1'
_cell_volume   852.98365269
_cell_formula_units_Z   1
loop_
 _symmetry_equiv_pos_site_id
 _symmetry_equiv_pos_as_xyz
  1  'x, y, z'
loop_
 _atom_site_type_symbol
 _atom_site_label
 _atom_site_symmetry_multiplicity
 _atom_site_fract_x
 _atom_site_fract_y
 _atom_site_fract_z
 _atom_site_occupancy
  Tb  Tb0  1  0.679975  0.173976  0.623205  1
  Tb  Tb1  1  0.182876  0.321683  0.877385  1
  Tb  Tb2  1  0.318259  0.819460  0.121330  1
  Tb  Tb3  1  0.823630  0.677367  0.377560  1
  Tb  Tb4  1  0.318980  0.824830  0.377859  1
  Tb  Tb5  1  0.817436  0.678667  0.121825  1
  Tb  Tb6  1  0.680912  0.179615  0.877616  1
  Tb  Tb7  1  0.178313  0.321488  0.623405  1
  Tb  Tb8  1  0.526016  0.679362  0.601045  1
  Tb  Tb9  1  0.028918  0.816349  0.901150  1
  Tb  Tb10  1  0.469969  0.317716  0.098669  1
  Tb  Tb11  1  0.976472  0.182164  0.399676  1
  Tb  Tb12  1  0.470767  0.321725  0.399987  1
  Tb  Tb13  1  0.970030  0.183517  0.098383  1
  Tb  Tb14  1  0.530610  0.683042  0.900098  1
  Tb  Tb15  1  0.025397  0.817654  0.600904  1
  Tb  Tb16  1  0.851581  0.508592  0.749963  1
  Tb  Tb17  1  0.349749  0.988683  0.748749  1
  Tb  Tb18  1  0.149862  0.488495  0.250081  1
  Y  Y19  1  0.651602  0.011417  0.250688  1
  Si  Si20  1  0.144764  0.527949  0.040061  1
  Si  Si21  1  0.354147  0.029349  0.960081  1
  Si  Si22  1  0.851231  0.471706  0.541669  1
  Si  Si23  1  0.342184  0.028001  0.542722  1
  Si  Si24  1  0.855375  0.471276  0.959356  1
  Si  Si25  1  0.644195  0.971058  0.039366  1
  Si  Si26  1  0.148166  0.530661  0.461257  1
  Si  Si27  1  0.477807  0.395488  0.750310  1
  Si  Si28  1  0.976067  0.103943  0.752101  1
  Si  Si29  1  0.523365  0.607041  0.248654  1
  Si  Si30  1  0.025167  0.895263  0.247206  1
  Si  Si31  1  0.734399  0.871573  0.752320  1
  Si  Si32  1  0.234130  0.626495  0.751226  1
  Si  Si33  1  0.267675  0.125972  0.247016  1
  Si  Si34  1  0.765273  0.375161  0.248673  1
  Au  Au35  1  0.654698  0.973263  0.458405  1
