# generated using pymatgen
data_K3Ac(U2S5)4
_symmetry_space_group_name_H-M   'P 1'
_cell_length_a   7.40429452
_cell_length_b   8.27926365
_cell_length_c   11.61595200
_cell_angle_alpha   89.80053304
_cell_angle_beta   90.02137286
_cell_angle_gamma   90.05965210
_symmetry_Int_Tables_number   1
_chemical_formula_structural   K3Ac(U2S5)4
_chemical_formula_sum   'K3 Ac1 U8 S20'
_cell_volume   712.07757595
_cell_formula_units_Z   1
loop_
 _symmetry_equiv_pos_site_id
 _symmetry_equiv_pos_as_xyz
  1  'x, y, z'
loop_
 _atom_site_type_symbol
 _atom_site_label
 _atom_site_symmetry_multiplicity
 _atom_site_fract_x
 _atom_site_fract_y
 _atom_site_fract_z
 _atom_site_occupancy
  K  K0  1  0.553380  0.509629  0.163119  1
  K  K1  1  0.949212  0.507764  0.674804  1
  K  K2  1  0.450213  0.490208  0.825551  1
  Ac  Ac3  1  0.051451  0.492603  0.338663  1
  U  U4  1  0.024118  0.998145  0.319536  1
  U  U5  1  0.520865  0.998553  0.178796  1
  U  U6  1  0.975270  0.000432  0.681880  1
  U  U7  1  0.474857  0.000379  0.819178  1
  U  U8  1  0.072055  0.749586  0.006566  1
  U  U9  1  0.573011  0.249141  0.487174  1
  U  U10  1  0.927212  0.247954  0.994068  1
  U  U11  1  0.431971  0.758288  0.511471  1
  S  S12  1  0.663987  0.954033  0.401187  1
  S  S13  1  0.160544  0.043341  0.097975  1
  S  S14  1  0.335429  0.049388  0.594052  1
  S  S15  1  0.836565  0.954393  0.904587  1
  S  S16  1  0.448825  0.793082  0.002141  1
  S  S17  1  0.953892  0.210011  0.495294  1
  S  S18  1  0.550190  0.205574  0.998176  1
  S  S19  1  0.047436  0.790807  0.500587  1
  S  S20  1  0.846757  0.775971  0.191730  1
  S  S21  1  0.332124  0.214521  0.311227  1
  S  S22  1  0.162118  0.210303  0.816956  1
  S  S23  1  0.664703  0.790109  0.686155  1
  S  S24  1  0.309343  0.771192  0.287430  1
  S  S25  1  0.809883  0.229221  0.220122  1
  S  S26  1  0.689755  0.219827  0.710553  1
  S  S27  1  0.192784  0.779697  0.782257  1
  S  S28  1  0.162473  0.461589  0.090277  1
  S  S29  1  0.683455  0.543900  0.429426  1
  S  S30  1  0.832136  0.539272  0.926218  1
  S  S31  1  0.313983  0.461087  0.552843  1
