# generated using pymatgen
data_ErTa5(B2Ru5)2
_symmetry_space_group_name_H-M   'P 1'
_cell_length_a   9.50263908
_cell_length_b   9.50263994
_cell_length_c   3.06038100
_cell_angle_alpha   90.00000000
_cell_angle_beta   90.00000000
_cell_angle_gamma   90.30509104
_symmetry_Int_Tables_number   1
_chemical_formula_structural   ErTa5(B2Ru5)2
_chemical_formula_sum   'Er1 Ta5 B4 Ru10'
_cell_volume   276.34896887
_cell_formula_units_Z   1
loop_
 _symmetry_equiv_pos_site_id
 _symmetry_equiv_pos_as_xyz
  1  'x, y, z'
loop_
 _atom_site_type_symbol
 _atom_site_label
 _atom_site_symmetry_multiplicity
 _atom_site_fract_x
 _atom_site_fract_y
 _atom_site_fract_z
 _atom_site_occupancy
  Er  Er0  1  0.824380  0.675620  0.000000  1
  Ta  Ta1  1  0.178113  0.321887  0.000000  1
  Ta  Ta2  1  0.324210  0.823430  0.000000  1
  Ta  Ta3  1  0.676570  0.175790  0.000000  1
  Ta  Ta4  1  0.501379  0.500896  0.000000  1
  Ta  Ta5  1  0.999104  0.998621  0.000000  1
  B  B6  1  0.618800  0.881200  0.000000  1
  B  B7  1  0.377023  0.122977  0.000000  1
  B  B8  1  0.123025  0.619842  0.000000  1
  B  B9  1  0.880158  0.376975  0.000000  1
  Ru  Ru10  1  0.559584  0.723934  0.500000  1
  Ru  Ru11  1  0.426877  0.283285  0.500000  1
  Ru  Ru12  1  0.081301  0.782800  0.500000  1
  Ru  Ru13  1  0.930624  0.215850  0.500000  1
  Ru  Ru14  1  0.284150  0.569376  0.500000  1
  Ru  Ru15  1  0.717200  0.418699  0.500000  1
  Ru  Ru16  1  0.216715  0.073123  0.500000  1
  Ru  Ru17  1  0.776066  0.940416  0.500000  1
  Ru  Ru18  1  0.496249  0.003751  0.500000  1
  Ru  Ru19  1  0.008473  0.491527  0.500000  1
