# generated using pymatgen
data_NdY6Sn23Ru6
_symmetry_space_group_name_H-M   'P 1'
_cell_length_a   9.88011400
_cell_length_b   9.88011611
_cell_length_c   10.12835900
_cell_angle_alpha   90.00000000
_cell_angle_beta   90.00000000
_cell_angle_gamma   120.00000632
_symmetry_Int_Tables_number   1
_chemical_formula_structural   NdY6Sn23Ru6
_chemical_formula_sum   'Nd1 Y6 Sn23 Ru6'
_cell_volume   856.23641621
_cell_formula_units_Z   1
loop_
 _symmetry_equiv_pos_site_id
 _symmetry_equiv_pos_as_xyz
  1  'x, y, z'
loop_
 _atom_site_type_symbol
 _atom_site_label
 _atom_site_symmetry_multiplicity
 _atom_site_fract_x
 _atom_site_fract_y
 _atom_site_fract_z
 _atom_site_occupancy
  Nd  Nd0  1  0.000000  0.000000  0.000000  1
  Y  Y1  1  0.033637  0.516818  0.303291  1
  Y  Y2  1  0.483182  0.966363  0.303291  1
  Y  Y3  1  0.483182  0.516818  0.303291  1
  Y  Y4  1  0.966363  0.483182  0.696709  1
  Y  Y5  1  0.516818  0.033637  0.696709  1
  Y  Y6  1  0.516818  0.483182  0.696709  1
  Sn  Sn7  1  0.000000  0.000000  0.500000  1
  Sn  Sn8  1  0.118319  0.881681  0.274723  1
  Sn  Sn9  1  0.763363  0.881681  0.274723  1
  Sn  Sn10  1  0.118319  0.236637  0.274723  1
  Sn  Sn11  1  0.881681  0.118319  0.725277  1
  Sn  Sn12  1  0.236637  0.118319  0.725277  1
  Sn  Sn13  1  0.881681  0.763363  0.725277  1
  Sn  Sn14  1  0.349436  0.000000  0.000000  1
  Sn  Sn15  1  0.650564  0.650564  0.000000  1
  Sn  Sn16  1  0.000000  0.349436  0.000000  1
  Sn  Sn17  1  0.349436  0.349436  0.000000  1
  Sn  Sn18  1  0.000000  0.650564  0.000000  1
  Sn  Sn19  1  0.650564  0.000000  0.000000  1
  Sn  Sn20  1  0.779821  0.559640  0.460350  1
  Sn  Sn21  1  0.779821  0.220179  0.460350  1
  Sn  Sn22  1  0.440360  0.220179  0.460350  1
  Sn  Sn23  1  0.220179  0.440360  0.539650  1
  Sn  Sn24  1  0.220179  0.779821  0.539650  1
  Sn  Sn25  1  0.559640  0.779821  0.539650  1
  Sn  Sn26  1  0.666667  0.333333  0.178385  1
  Sn  Sn27  1  0.333333  0.666667  0.821615  1
  Sn  Sn28  1  0.666667  0.333333  0.875309  1
  Sn  Sn29  1  0.333333  0.666667  0.124691  1
  Ru  Ru30  1  0.170133  0.829867  0.797732  1
  Ru  Ru31  1  0.659735  0.829867  0.797732  1
  Ru  Ru32  1  0.170133  0.340265  0.797732  1
  Ru  Ru33  1  0.829867  0.170133  0.202268  1
  Ru  Ru34  1  0.340265  0.170133  0.202268  1
  Ru  Ru35  1  0.829867  0.659735  0.202268  1
