# generated using pymatgen
data_Sm6Co16Si7Mo2P5
_symmetry_space_group_name_H-M   'P 1'
_cell_length_a   3.80590400
_cell_length_b   10.78150516
_cell_length_c   12.49858000
_cell_angle_alpha   90.02652881
_cell_angle_beta   90.00000000
_cell_angle_gamma   90.00000000
_symmetry_Int_Tables_number   1
_chemical_formula_structural   Sm6Co16Si7Mo2P5
_chemical_formula_sum   'Sm6 Co16 Si7 Mo2 P5'
_cell_volume   512.85884761
_cell_formula_units_Z   1
loop_
 _symmetry_equiv_pos_site_id
 _symmetry_equiv_pos_as_xyz
  1  'x, y, z'
loop_
 _atom_site_type_symbol
 _atom_site_label
 _atom_site_symmetry_multiplicity
 _atom_site_fract_x
 _atom_site_fract_y
 _atom_site_fract_z
 _atom_site_occupancy
  Sm  Sm0  1  0.000000  0.499606  0.523282  1
  Sm  Sm1  1  0.500000  0.000168  0.475490  1
  Sm  Sm2  1  0.500000  0.821104  0.204157  1
  Sm  Sm3  1  0.500000  0.181333  0.202575  1
  Sm  Sm4  1  0.000000  0.678646  0.797003  1
  Sm  Sm5  1  0.000000  0.321074  0.795437  1
  Co  Co6  1  0.500000  0.499902  0.702707  1
  Co  Co7  1  0.000000  0.000058  0.298173  1
  Co  Co8  1  0.000000  0.496575  0.984572  1
  Co  Co9  1  0.500000  0.001508  0.018900  1
  Co  Co10  1  0.500000  0.333766  0.994280  1
  Co  Co11  1  0.500000  0.664488  0.993584  1
  Co  Co12  1  0.000000  0.169129  0.009264  1
  Co  Co13  1  0.000000  0.834468  0.007445  1
  Co  Co14  1  0.500000  0.304432  0.427886  1
  Co  Co15  1  0.500000  0.695940  0.429365  1
  Co  Co16  1  0.000000  0.196515  0.569944  1
  Co  Co17  1  0.000000  0.803724  0.570871  1
  Co  Co18  1  0.500000  0.883323  0.706019  1
  Co  Co19  1  0.500000  0.117404  0.705706  1
  Co  Co20  1  0.000000  0.615751  0.293603  1
  Co  Co21  1  0.000000  0.381607  0.289453  1
  Si  Si22  1  0.500000  0.302575  0.611949  1
  Si  Si23  1  0.500000  0.697614  0.613015  1
  Si  Si24  1  0.000000  0.197766  0.386389  1
  Si  Si25  1  0.000000  0.801886  0.387307  1
  Si  Si26  1  0.500000  0.846973  0.895950  1
  Si  Si27  1  0.500000  0.153606  0.895029  1
  Si  Si28  1  0.000000  0.653697  0.105259  1
  Mo  Mo29  1  0.500000  0.497994  0.152494  1
  Mo  Mo30  1  0.000000  0.000970  0.847594  1
  P  P31  1  0.500000  0.499486  0.886185  1
  P  P32  1  0.000000  0.000222  0.114615  1
  P  P33  1  0.500000  0.500244  0.343309  1
  P  P34  1  0.000000  0.000048  0.656474  1
  P  P35  1  0.000000  0.346396  0.104712  1
