# generated using pymatgen
data_Ho5ErReB14Ru
_symmetry_space_group_name_H-M   'P 1'
_cell_length_a   8.02258823
_cell_length_b   8.02258692
_cell_length_c   9.30491628
_cell_angle_alpha   89.97276056
_cell_angle_beta   90.02723991
_cell_angle_gamma   154.66158097
_symmetry_Int_Tables_number   1
_chemical_formula_structural   Ho5ErReB14Ru
_chemical_formula_sum   'Ho5 Er1 Re1 B14 Ru1'
_cell_volume   256.29998365
_cell_formula_units_Z   1
loop_
 _symmetry_equiv_pos_site_id
 _symmetry_equiv_pos_as_xyz
  1  'x, y, z'
loop_
 _atom_site_type_symbol
 _atom_site_label
 _atom_site_symmetry_multiplicity
 _atom_site_fract_x
 _atom_site_fract_y
 _atom_site_fract_z
 _atom_site_occupancy
  Ho  Ho0  1  0.894388  0.105612  0.440134  1
  Ho  Ho1  1  0.105760  0.894240  0.560702  1
  Ho  Ho2  1  0.894374  0.105626  0.059846  1
  Ho  Ho3  1  0.243446  0.756554  0.249969  1
  Ho  Ho4  1  0.756513  0.243487  0.750056  1
  Er  Er5  1  0.105675  0.894325  0.939507  1
  Re  Re6  1  0.947479  0.052521  0.750140  1
  B  B7  1  0.726957  0.273043  0.465355  1
  B  B8  1  0.272404  0.727596  0.533399  1
  B  B9  1  0.726832  0.273168  0.034570  1
  B  B10  1  0.272221  0.727779  0.966549  1
  B  B11  1  0.631552  0.368448  0.151153  1
  B  B12  1  0.367659  0.632341  0.849210  1
  B  B13  1  0.631553  0.368447  0.348597  1
  B  B14  1  0.367663  0.632337  0.650794  1
  B  B15  1  0.520389  0.479611  0.096054  1
  B  B16  1  0.479984  0.520016  0.904939  1
  B  B17  1  0.520340  0.479660  0.403745  1
  B  B18  1  0.479897  0.520103  0.595266  1
  B  B19  1  0.456229  0.543771  0.249970  1
  B  B20  1  0.544981  0.455019  0.750247  1
  Ru  Ru21  1  0.053704  0.946296  0.249796  1
