# generated using pymatgen
data_Dy2Ga5Rh3
_symmetry_space_group_name_H-M   'P 1'
_cell_length_a   8.59629555
_cell_length_b   8.59628960
_cell_length_c   5.67588359
_cell_angle_alpha   70.63198290
_cell_angle_beta   70.63194543
_cell_angle_gamma   96.49031505
_symmetry_Int_Tables_number   1
_chemical_formula_structural   Dy2Ga5Rh3
_chemical_formula_sum   'Dy4 Ga10 Rh6'
_cell_volume   361.38795770
_cell_formula_units_Z   2
loop_
 _symmetry_equiv_pos_site_id
 _symmetry_equiv_pos_as_xyz
  1  'x, y, z'
loop_
 _atom_site_type_symbol
 _atom_site_label
 _atom_site_symmetry_multiplicity
 _atom_site_fract_x
 _atom_site_fract_y
 _atom_site_fract_z
 _atom_site_occupancy
  Dy  Dy0  1  0.586871  0.866325  0.775019  1
  Dy  Dy1  1  0.133675  0.413129  0.724980  1
  Dy  Dy2  1  0.413129  0.133675  0.224981  1
  Dy  Dy3  1  0.866325  0.586871  0.275020  1
  Ga  Ga4  1  0.498847  0.501154  0.750000  1
  Ga  Ga5  1  0.501153  0.498846  0.250000  1
  Ga  Ga6  1  0.797836  0.202164  0.750000  1
  Ga  Ga7  1  0.202164  0.797836  0.250000  1
  Ga  Ga8  1  0.264838  0.089538  0.821885  1
  Ga  Ga9  1  0.910462  0.735163  0.678115  1
  Ga  Ga10  1  0.735162  0.910462  0.178115  1
  Ga  Ga11  1  0.089538  0.264837  0.321885  1
  Ga  Ga12  1  0.204462  0.795538  0.750000  1
  Ga  Ga13  1  0.795538  0.204462  0.250000  1
  Rh  Rh14  1  0.561076  0.261363  0.592310  1
  Rh  Rh15  1  0.738637  0.438925  0.907689  1
  Rh  Rh16  1  0.438924  0.738637  0.407690  1
  Rh  Rh17  1  0.261363  0.561075  0.092311  1
  Rh  Rh18  1  0.001025  0.998975  0.750000  1
  Rh  Rh19  1  0.998975  0.001025  0.250000  1
