# generated using pymatgen
data_Na4Bi3SbPt4
_symmetry_space_group_name_H-M   'P 1'
_cell_length_a   7.86324385
_cell_length_b   4.58138600
_cell_length_c   8.02932200
_cell_angle_alpha   90.00000000
_cell_angle_beta   91.33515198
_cell_angle_gamma   90.00000000
_symmetry_Int_Tables_number   1
_chemical_formula_structural   Na4Bi3SbPt4
_chemical_formula_sum   'Na4 Bi3 Sb1 Pt4'
_cell_volume   289.17422296
_cell_formula_units_Z   1
loop_
 _symmetry_equiv_pos_site_id
 _symmetry_equiv_pos_as_xyz
  1  'x, y, z'
loop_
 _atom_site_type_symbol
 _atom_site_label
 _atom_site_symmetry_multiplicity
 _atom_site_fract_x
 _atom_site_fract_y
 _atom_site_fract_z
 _atom_site_occupancy
  Na  Na0  1  0.018953  0.250000  0.167976  1
  Na  Na1  1  0.511718  0.250000  0.329088  1
  Na  Na2  1  0.483944  0.749999  0.668899  1
  Na  Na3  1  0.985971  0.749999  0.834388  1
  Bi  Bi4  1  0.836718  0.749999  0.422157  1
  Bi  Bi5  1  0.170261  0.250000  0.578049  1
  Bi  Bi6  1  0.666970  0.250000  0.921057  1
  Sb  Sb7  1  0.332583  0.749999  0.075626  1
  Pt  Pt8  1  0.679859  0.749999  0.110990  1
  Pt  Pt9  1  0.200825  0.749999  0.376066  1
  Pt  Pt10  1  0.808254  0.250000  0.611291  1
  Pt  Pt11  1  0.303939  0.250000  0.904415  1
