# generated using pymatgen
data_La7Tb2NdIr4
_symmetry_space_group_name_H-M   'P 1'
_cell_length_a   6.74528908
_cell_length_b   7.28269801
_cell_length_c   9.08242960
_cell_angle_alpha   95.71636381
_cell_angle_beta   111.42907292
_cell_angle_gamma   90.02960216
_symmetry_Int_Tables_number   1
_chemical_formula_structural   La7Tb2NdIr4
_chemical_formula_sum   'La7 Tb2 Nd1 Ir4'
_cell_volume   412.92777811
_cell_formula_units_Z   1
loop_
 _symmetry_equiv_pos_site_id
 _symmetry_equiv_pos_as_xyz
  1  'x, y, z'
loop_
 _atom_site_type_symbol
 _atom_site_label
 _atom_site_symmetry_multiplicity
 _atom_site_fract_x
 _atom_site_fract_y
 _atom_site_fract_z
 _atom_site_occupancy
  La  La0  1  0.977361  0.918213  0.180748  1
  La  La1  1  0.796503  0.580697  0.818149  1
  La  La2  1  0.020810  0.083369  0.819532  1
  La  La3  1  0.203739  0.416962  0.183171  1
  La  La4  1  0.645066  0.815089  0.426577  1
  La  La5  1  0.217193  0.683468  0.570624  1
  La  La6  1  0.354424  0.185624  0.572530  1
  Tb  Tb7  1  0.435587  0.751176  0.999395  1
  Tb  Tb8  1  0.566169  0.249585  0.002027  1
  Nd  Nd9  1  0.784045  0.314190  0.429994  1
  Ir  Ir10  1  0.811776  0.575177  0.213720  1
  Ir  Ir11  1  0.599622  0.926689  0.785815  1
  Ir  Ir12  1  0.187198  0.426152  0.784034  1
  Ir  Ir13  1  0.400505  0.073608  0.213684  1
