# generated using pymatgen
data_NpSn(PO5)2
_symmetry_space_group_name_H-M   'P 1'
_cell_length_a   5.69820987
_cell_length_b   5.34115787
_cell_length_c   7.72100600
_cell_angle_alpha   107.52746755
_cell_angle_beta   110.38165983
_cell_angle_gamma   94.38551073
_symmetry_Int_Tables_number   1
_chemical_formula_structural   NpSn(PO5)2
_chemical_formula_sum   'Np1 Sn1 P2 O10'
_cell_volume   205.68187635
_cell_formula_units_Z   1
loop_
 _symmetry_equiv_pos_site_id
 _symmetry_equiv_pos_as_xyz
  1  'x, y, z'
loop_
 _atom_site_type_symbol
 _atom_site_label
 _atom_site_symmetry_multiplicity
 _atom_site_fract_x
 _atom_site_fract_y
 _atom_site_fract_z
 _atom_site_occupancy
  Np  Np0  1  0.000000  0.500000  0.000000  1
  Sn  Sn1  1  0.000000  0.500000  0.500000  1
  P  P2  1  0.333806  0.126027  0.737735  1
  P  P3  1  0.666194  0.873973  0.262265  1
  O  O4  1  0.180018  0.187392  0.872598  1
  O  O5  1  0.303812  0.819765  0.643271  1
  O  O6  1  0.933010  0.573971  0.763962  1
  O  O7  1  0.245221  0.252983  0.576056  1
  O  O8  1  0.754779  0.747017  0.423944  1
  O  O9  1  0.621376  0.239687  0.866885  1
  O  O10  1  0.378624  0.760313  0.133115  1
  O  O11  1  0.066990  0.426029  0.236038  1
  O  O12  1  0.696188  0.180235  0.356729  1
  O  O13  1  0.819982  0.812608  0.127402  1
