# generated using pymatgen
data_Pr3Gd3Dy2(CdIr)2
_symmetry_space_group_name_H-M   'P 1'
_cell_length_a   9.79771107
_cell_length_b   9.79771045
_cell_length_c   9.79771100
_cell_angle_alpha   60.00000151
_cell_angle_beta   60.00000363
_cell_angle_gamma   59.99999835
_symmetry_Int_Tables_number   1
_chemical_formula_structural   Pr3Gd3Dy2(CdIr)2
_chemical_formula_sum   'Pr6 Gd6 Dy4 Cd4 Ir4'
_cell_volume   665.05699800
_cell_formula_units_Z   2
loop_
 _symmetry_equiv_pos_site_id
 _symmetry_equiv_pos_as_xyz
  1  'x, y, z'
loop_
 _atom_site_type_symbol
 _atom_site_label
 _atom_site_symmetry_multiplicity
 _atom_site_fract_x
 _atom_site_fract_y
 _atom_site_fract_z
 _atom_site_occupancy
  Pr  Pr0  1  0.940710  0.559290  0.559290  1
  Pr  Pr1  1  0.559290  0.940710  0.940710  1
  Pr  Pr2  1  0.559290  0.940710  0.559290  1
  Pr  Pr3  1  0.940710  0.559290  0.940710  1
  Pr  Pr4  1  0.559290  0.559290  0.940710  1
  Pr  Pr5  1  0.940710  0.940710  0.559290  1
  Gd  Gd6  1  0.810972  0.189028  0.189028  1
  Gd  Gd7  1  0.189028  0.810972  0.810972  1
  Gd  Gd8  1  0.189028  0.810972  0.189028  1
  Gd  Gd9  1  0.810972  0.189028  0.810972  1
  Gd  Gd10  1  0.189028  0.189028  0.810972  1
  Gd  Gd11  1  0.810972  0.810972  0.189028  1
  Dy  Dy12  1  0.346709  0.346709  0.346709  1
  Dy  Dy13  1  0.346709  0.346709  0.959871  1
  Dy  Dy14  1  0.346709  0.959871  0.346709  1
  Dy  Dy15  1  0.959871  0.346709  0.346709  1
  Cd  Cd16  1  0.579054  0.579054  0.579054  1
  Cd  Cd17  1  0.579054  0.579054  0.262839  1
  Cd  Cd18  1  0.579054  0.262839  0.579054  1
  Cd  Cd19  1  0.262839  0.579054  0.579054  1
  Ir  Ir20  1  0.141734  0.141734  0.141734  1
  Ir  Ir21  1  0.141734  0.141734  0.574798  1
  Ir  Ir22  1  0.141734  0.574798  0.141734  1
  Ir  Ir23  1  0.574798  0.141734  0.141734  1
