# generated using pymatgen
data_Rb3SmSi2O7
_symmetry_space_group_name_H-M   'P 1'
_cell_length_a   5.97976400
_cell_length_b   5.97976354
_cell_length_c   14.05889500
_cell_angle_alpha   90.00000000
_cell_angle_beta   90.00000000
_cell_angle_gamma   120.00000255
_symmetry_Int_Tables_number   1
_chemical_formula_structural   Rb3SmSi2O7
_chemical_formula_sum   'Rb6 Sm2 Si4 O14'
_cell_volume   435.36134180
_cell_formula_units_Z   2
loop_
 _symmetry_equiv_pos_site_id
 _symmetry_equiv_pos_as_xyz
  1  'x, y, z'
loop_
 _atom_site_type_symbol
 _atom_site_label
 _atom_site_symmetry_multiplicity
 _atom_site_fract_x
 _atom_site_fract_y
 _atom_site_fract_z
 _atom_site_occupancy
  Rb  Rb0  1  0.333334  0.666667  0.099295  1
  Rb  Rb1  1  0.000000  0.000000  0.250000  1
  Rb  Rb2  1  0.333334  0.666667  0.400706  1
  Rb  Rb3  1  0.666666  0.333334  0.599295  1
  Rb  Rb4  1  0.000000  0.000000  0.750000  1
  Rb  Rb5  1  0.666666  0.333334  0.900706  1
  Sm  Sm6  1  0.000000  0.000000  0.000000  1
  Sm  Sm7  1  0.000000  0.000000  0.500000  1
  Si  Si8  1  0.666666  0.333334  0.131916  1
  Si  Si9  1  0.666666  0.333334  0.368084  1
  Si  Si10  1  0.333334  0.666667  0.631916  1
  Si  Si11  1  0.333334  0.666667  0.868084  1
  O  O12  1  0.365622  0.182810  0.096046  1
  O  O13  1  0.817189  0.182810  0.096046  1
  O  O14  1  0.817189  0.634377  0.096046  1
  O  O15  1  0.666666  0.333334  0.250000  1
  O  O16  1  0.365622  0.182810  0.403954  1
  O  O17  1  0.817189  0.182810  0.403954  1
  O  O18  1  0.817189  0.634377  0.403954  1
  O  O19  1  0.182810  0.365621  0.596046  1
  O  O20  1  0.182811  0.817190  0.596046  1
  O  O21  1  0.634378  0.817190  0.596046  1
  O  O22  1  0.333334  0.666667  0.750000  1
  O  O23  1  0.182810  0.365621  0.903955  1
  O  O24  1  0.182811  0.817190  0.903955  1
  O  O25  1  0.634378  0.817190  0.903955  1
