# generated using pymatgen
data_Hf5Zn6GeRh12
_symmetry_space_group_name_H-M   'P 1'
_cell_length_a   4.43493900
_cell_length_b   6.23600900
_cell_length_c   13.24212800
_cell_angle_alpha   89.99999567
_cell_angle_beta   89.99989634
_cell_angle_gamma   89.99999081
_symmetry_Int_Tables_number   1
_chemical_formula_structural   Hf5Zn6GeRh12
_chemical_formula_sum   'Hf5 Zn6 Ge1 Rh12'
_cell_volume   366.22852307
_cell_formula_units_Z   1
loop_
 _symmetry_equiv_pos_site_id
 _symmetry_equiv_pos_as_xyz
  1  'x, y, z'
loop_
 _atom_site_type_symbol
 _atom_site_label
 _atom_site_symmetry_multiplicity
 _atom_site_fract_x
 _atom_site_fract_y
 _atom_site_fract_z
 _atom_site_occupancy
  Hf  Hf0  1  0.000004  0.000000  0.994880  1
  Hf  Hf1  1  0.500003  0.500000  0.165629  1
  Hf  Hf2  1  0.000003  0.999999  0.333370  1
  Hf  Hf3  1  0.499999  0.499999  0.501017  1
  Hf  Hf4  1  0.999998  0.000000  0.671803  1
  Zn  Zn5  1  0.000004  0.500000  0.005255  1
  Zn  Zn6  1  0.499995  0.000000  0.160779  1
  Zn  Zn7  1  0.999998  0.500000  0.333356  1
  Zn  Zn8  1  0.499995  0.000000  0.505900  1
  Zn  Zn9  1  0.999998  0.500000  0.661430  1
  Zn  Zn10  1  0.499995  0.000000  0.833340  1
  Ge  Ge11  1  0.500150  0.500000  0.833127  1
  Rh  Rh12  1  0.499994  0.260041  0.991002  1
  Rh  Rh13  1  0.499993  0.739960  0.991002  1
  Rh  Rh14  1  0.999990  0.247973  0.165434  1
  Rh  Rh15  1  0.999991  0.752028  0.165434  1
  Rh  Rh16  1  0.499980  0.249100  0.333315  1
  Rh  Rh17  1  0.499979  0.750901  0.333315  1
  Rh  Rh18  1  0.999992  0.247981  0.501284  1
  Rh  Rh19  1  0.999991  0.752019  0.501284  1
  Rh  Rh20  1  0.499984  0.259935  0.675657  1
  Rh  Rh21  1  0.499983  0.740067  0.675656  1
  Rh  Rh22  1  0.999992  0.267529  0.833365  1
  Rh  Rh23  1  0.999991  0.732471  0.833365  1
