# generated using pymatgen
data_LaMgSnH
_symmetry_space_group_name_H-M   'P 1'
_cell_length_a   4.58250700
_cell_length_b   8.18513000
_cell_length_c   9.13677600
_cell_angle_alpha   90.00000000
_cell_angle_beta   90.00000000
_cell_angle_gamma   90.00000000
_symmetry_Int_Tables_number   1
_chemical_formula_structural   LaMgSnH
_chemical_formula_sum   'La4 Mg4 Sn4 H4'
_cell_volume   342.70599073
_cell_formula_units_Z   4
loop_
 _symmetry_equiv_pos_site_id
 _symmetry_equiv_pos_as_xyz
  1  'x, y, z'
loop_
 _atom_site_type_symbol
 _atom_site_label
 _atom_site_symmetry_multiplicity
 _atom_site_fract_x
 _atom_site_fract_y
 _atom_site_fract_z
 _atom_site_occupancy
  La  La0  1  0.750000  0.489005  0.827408  1
  La  La1  1  0.250000  0.510995  0.172592  1
  La  La2  1  0.250000  0.010995  0.327408  1
  La  La3  1  0.750000  0.989005  0.672592  1
  Mg  Mg4  1  0.750000  0.325814  0.424418  1
  Mg  Mg5  1  0.250000  0.674186  0.575582  1
  Mg  Mg6  1  0.250000  0.174186  0.924418  1
  Mg  Mg7  1  0.750000  0.825814  0.075582  1
  Sn  Sn8  1  0.750000  0.198872  0.112306  1
  Sn  Sn9  1  0.250000  0.801128  0.887694  1
  Sn  Sn10  1  0.250000  0.301128  0.612306  1
  Sn  Sn11  1  0.750000  0.698872  0.387694  1
  H  H12  1  0.250000  0.932871  0.573708  1
  H  H13  1  0.750000  0.067129  0.426292  1
  H  H14  1  0.750000  0.567129  0.073708  1
  H  H15  1  0.250000  0.432871  0.926292  1
