# generated using pymatgen
data_GdY3(CBr)2
_symmetry_space_group_name_H-M   'P 1'
_cell_length_a   3.70334800
_cell_length_b   3.70334711
_cell_length_c   14.26461100
_cell_angle_alpha   90.00000000
_cell_angle_beta   90.00000000
_cell_angle_gamma   119.99999006
_symmetry_Int_Tables_number   1
_chemical_formula_structural   GdY3(CBr)2
_chemical_formula_sum   'Gd1 Y3 C2 Br2'
_cell_volume   169.42580288
_cell_formula_units_Z   1
loop_
 _symmetry_equiv_pos_site_id
 _symmetry_equiv_pos_as_xyz
  1  'x, y, z'
loop_
 _atom_site_type_symbol
 _atom_site_label
 _atom_site_symmetry_multiplicity
 _atom_site_fract_x
 _atom_site_fract_y
 _atom_site_fract_z
 _atom_site_occupancy
  Gd  Gd0  1  0.333333  0.666667  0.409689  1
  Y  Y1  1  0.333333  0.666667  0.089175  1
  Y  Y2  1  0.666667  0.333333  0.590593  1
  Y  Y3  1  0.666667  0.333333  0.910814  1
  C  C4  1  0.000000  0.000000  0.999897  1
  C  C5  1  0.000000  0.000000  0.501918  1
  Br  Br6  1  0.333333  0.666667  0.750258  1
  Br  Br7  1  0.666667  0.333333  0.247656  1
