# generated using pymatgen
data_Yb3(ZnRh)2
_symmetry_space_group_name_H-M   'P 1'
_cell_length_a   5.56707900
_cell_length_b   7.71582100
_cell_length_c   13.91078500
_cell_angle_alpha   90.00000000
_cell_angle_beta   90.00000000
_cell_angle_gamma   90.00000000
_symmetry_Int_Tables_number   1
_chemical_formula_structural   Yb3(ZnRh)2
_chemical_formula_sum   'Yb12 Zn8 Rh8'
_cell_volume   597.53199749
_cell_formula_units_Z   4
loop_
 _symmetry_equiv_pos_site_id
 _symmetry_equiv_pos_as_xyz
  1  'x, y, z'
loop_
 _atom_site_type_symbol
 _atom_site_label
 _atom_site_symmetry_multiplicity
 _atom_site_fract_x
 _atom_site_fract_y
 _atom_site_fract_z
 _atom_site_occupancy
  Yb  Yb0  1  0.617831  0.258159  0.250000  1
  Yb  Yb1  1  0.382169  0.741841  0.750000  1
  Yb  Yb2  1  0.382169  0.758159  0.250000  1
  Yb  Yb3  1  0.617831  0.241841  0.750000  1
  Yb  Yb4  1  0.150515  0.398955  0.092728  1
  Yb  Yb5  1  0.849485  0.601045  0.907272  1
  Yb  Yb6  1  0.849485  0.601045  0.592728  1
  Yb  Yb7  1  0.849485  0.898955  0.407272  1
  Yb  Yb8  1  0.150515  0.398955  0.407272  1
  Yb  Yb9  1  0.150515  0.101045  0.592728  1
  Yb  Yb10  1  0.150515  0.101045  0.907272  1
  Yb  Yb11  1  0.849485  0.898955  0.092728  1
  Zn  Zn12  1  0.136059  0.098648  0.250000  1
  Zn  Zn13  1  0.863941  0.901352  0.750000  1
  Zn  Zn14  1  0.863941  0.598648  0.250000  1
  Zn  Zn15  1  0.136059  0.401352  0.750000  1
  Zn  Zn16  1  0.625860  0.250000  0.000000  1
  Zn  Zn17  1  0.374140  0.750000  0.000000  1
  Zn  Zn18  1  0.374140  0.750000  0.500000  1
  Zn  Zn19  1  0.625860  0.250000  0.500000  1
  Rh  Rh20  1  0.355200  0.033355  0.094448  1
  Rh  Rh21  1  0.644800  0.966645  0.905552  1
  Rh  Rh22  1  0.644800  0.966645  0.594448  1
  Rh  Rh23  1  0.644800  0.533355  0.405552  1
  Rh  Rh24  1  0.355200  0.033355  0.405552  1
  Rh  Rh25  1  0.355200  0.466645  0.594448  1
  Rh  Rh26  1  0.355200  0.466645  0.905552  1
  Rh  Rh27  1  0.644800  0.533355  0.094448  1
