# generated using pymatgen
data_Y5Si9P3Rh19
_symmetry_space_group_name_H-M   'P 1'
_cell_length_a   12.81622000
_cell_length_b   12.81621941
_cell_length_c   3.92504200
_cell_angle_alpha   90.00000000
_cell_angle_beta   90.00000000
_cell_angle_gamma   119.99999635
_symmetry_Int_Tables_number   1
_chemical_formula_structural   Y5Si9P3Rh19
_chemical_formula_sum   'Y5 Si9 P3 Rh19'
_cell_volume   558.33498789
_cell_formula_units_Z   1
loop_
 _symmetry_equiv_pos_site_id
 _symmetry_equiv_pos_as_xyz
  1  'x, y, z'
loop_
 _atom_site_type_symbol
 _atom_site_label
 _atom_site_symmetry_multiplicity
 _atom_site_fract_x
 _atom_site_fract_y
 _atom_site_fract_z
 _atom_site_occupancy
  Y  Y0  1  0.333333  0.666667  0.500000  1
  Y  Y1  1  0.666667  0.333333  0.500000  1
  Y  Y2  1  0.000000  0.185994  0.000000  1
  Y  Y3  1  0.814006  0.814006  0.000000  1
  Y  Y4  1  0.185994  0.000000  0.000000  1
  Si  Si5  1  0.000000  0.369161  0.500000  1
  Si  Si6  1  0.630839  0.630839  0.500000  1
  Si  Si7  1  0.369161  0.000000  0.500000  1
  Si  Si8  1  0.520893  0.837441  0.000000  1
  Si  Si9  1  0.162559  0.683452  0.000000  1
  Si  Si10  1  0.316548  0.479107  0.000000  1
  Si  Si11  1  0.479107  0.316548  0.000000  1
  Si  Si12  1  0.837441  0.520893  0.000000  1
  Si  Si13  1  0.683452  0.162559  0.000000  1
  P  P14  1  0.000000  0.820149  0.500000  1
  P  P15  1  0.179851  0.179851  0.500000  1
  P  P16  1  0.820149  0.000000  0.500000  1
  Rh  Rh17  1  0.627827  0.821306  0.500000  1
  Rh  Rh18  1  0.178694  0.806521  0.500000  1
  Rh  Rh19  1  0.193479  0.372173  0.500000  1
  Rh  Rh20  1  0.372173  0.193479  0.500000  1
  Rh  Rh21  1  0.821306  0.627827  0.500000  1
  Rh  Rh22  1  0.806521  0.178694  0.500000  1
  Rh  Rh23  1  0.000000  0.553355  0.500000  1
  Rh  Rh24  1  0.446645  0.446645  0.500000  1
  Rh  Rh25  1  0.553355  0.000000  0.500000  1
  Rh  Rh26  1  0.515289  0.642708  0.000000  1
  Rh  Rh27  1  0.357292  0.872581  0.000000  1
  Rh  Rh28  1  0.127419  0.484711  0.000000  1
  Rh  Rh29  1  0.484711  0.127419  0.000000  1
  Rh  Rh30  1  0.642708  0.515289  0.000000  1
  Rh  Rh31  1  0.872581  0.357292  0.000000  1
  Rh  Rh32  1  0.000000  0.724213  0.000000  1
  Rh  Rh33  1  0.275787  0.275787  0.000000  1
  Rh  Rh34  1  0.724213  0.000000  0.000000  1
  Rh  Rh35  1  0.000000  0.000000  0.500000  1
