# generated using pymatgen
data_Dy7Lu3In8PtRh3
_symmetry_space_group_name_H-M   'P 1'
_cell_length_a   3.62048400
_cell_length_b   8.04677349
_cell_length_c   18.18334424
_cell_angle_alpha   90.03103540
_cell_angle_beta   90.00000000
_cell_angle_gamma   90.00000000
_symmetry_Int_Tables_number   1
_chemical_formula_structural   Dy7Lu3In8PtRh3
_chemical_formula_sum   'Dy7 Lu3 In8 Pt1 Rh3'
_cell_volume   529.73919372
_cell_formula_units_Z   1
loop_
 _symmetry_equiv_pos_site_id
 _symmetry_equiv_pos_as_xyz
  1  'x, y, z'
loop_
 _atom_site_type_symbol
 _atom_site_label
 _atom_site_symmetry_multiplicity
 _atom_site_fract_x
 _atom_site_fract_y
 _atom_site_fract_z
 _atom_site_occupancy
  Dy  Dy0  1  0.000000  0.618126  0.085203  1
  Dy  Dy1  1  0.000000  0.238979  0.221458  1
  Dy  Dy2  1  0.000000  0.756249  0.779412  1
  Dy  Dy3  1  0.000000  0.255763  0.720040  1
  Dy  Dy4  1  0.000000  0.748615  0.281391  1
  Dy  Dy5  1  0.000000  0.999698  0.999395  1
  Dy  Dy6  1  0.000000  0.500495  0.500210  1
  Lu  Lu7  1  0.000000  0.115675  0.411939  1
  Lu  Lu8  1  0.000000  0.884162  0.589336  1
  Lu  Lu9  1  0.000000  0.384266  0.910015  1
  In  In10  1  0.500000  0.419844  0.352027  1
  In  In11  1  0.500000  0.577194  0.650110  1
  In  In12  1  0.500000  0.077286  0.849411  1
  In  In13  1  0.500000  0.926835  0.150618  1
  In  In14  1  0.500000  0.292476  0.064556  1
  In  In15  1  0.500000  0.703407  0.932200  1
  In  In16  1  0.500000  0.201914  0.565533  1
  In  In17  1  0.500000  0.798558  0.434731  1
  Pt  Pt18  1  0.500000  0.524697  0.196854  1
  Rh  Rh19  1  0.500000  0.024849  0.306403  1
  Rh  Rh20  1  0.500000  0.976235  0.693642  1
  Rh  Rh21  1  0.500000  0.474677  0.805514  1
