# generated using pymatgen
data_Eu3BI3N2
_symmetry_space_group_name_H-M   'P 1'
_cell_length_a   10.95351368
_cell_length_b   10.95351430
_cell_length_c   10.95351423
_cell_angle_alpha   105.74574981
_cell_angle_beta   105.74574575
_cell_angle_gamma   105.74573663
_symmetry_Int_Tables_number   1
_chemical_formula_structural   Eu3BI3N2
_chemical_formula_sum   'Eu12 B4 I12 N8'
_cell_volume   1129.83392446
_cell_formula_units_Z   4
loop_
 _symmetry_equiv_pos_site_id
 _symmetry_equiv_pos_as_xyz
  1  'x, y, z'
loop_
 _atom_site_type_symbol
 _atom_site_label
 _atom_site_symmetry_multiplicity
 _atom_site_fract_x
 _atom_site_fract_y
 _atom_site_fract_z
 _atom_site_occupancy
  Eu  Eu0  1  0.977432  0.758956  0.735504  1
  Eu  Eu1  1  0.758956  0.735504  0.977432  1
  Eu  Eu2  1  0.735504  0.977432  0.758956  1
  Eu  Eu3  1  0.022568  0.264496  0.241044  1
  Eu  Eu4  1  0.241044  0.022568  0.264495  1
  Eu  Eu5  1  0.264496  0.241044  0.022568  1
  Eu  Eu6  1  0.500000  0.223705  0.776295  1
  Eu  Eu7  1  0.223705  0.776295  0.500000  1
  Eu  Eu8  1  0.776295  0.500000  0.223705  1
  Eu  Eu9  1  0.500000  0.011956  0.988044  1
  Eu  Eu10  1  0.011956  0.988044  0.500000  1
  Eu  Eu11  1  0.988044  0.500000  0.011956  1
  B  B12  1  0.000000  0.762736  0.237264  1
  B  B13  1  0.762736  0.237264  0.000000  1
  B  B14  1  0.237264  0.000000  0.762736  1
  B  B15  1  0.000000  0.000000  0.000000  1
  I  I16  1  0.746741  0.471774  0.735446  1
  I  I17  1  0.471774  0.735446  0.746741  1
  I  I18  1  0.735446  0.746741  0.471774  1
  I  I19  1  0.253259  0.264554  0.528226  1
  I  I20  1  0.528226  0.253259  0.264554  1
  I  I21  1  0.264554  0.528226  0.253259  1
  I  I22  1  0.000000  0.501988  0.498012  1
  I  I23  1  0.501988  0.498012  0.000000  1
  I  I24  1  0.498012  0.000000  0.501988  1
  I  I25  1  0.000000  0.228179  0.771821  1
  I  I26  1  0.228179  0.771821  0.000000  1
  I  I27  1  0.771821  0.000000  0.228179  1
  N  N28  1  0.897800  0.655508  0.131527  1
  N  N29  1  0.655508  0.131527  0.897800  1
  N  N30  1  0.131527  0.897800  0.655508  1
  N  N31  1  0.102200  0.868473  0.344492  1
  N  N32  1  0.344492  0.102200  0.868473  1
  N  N33  1  0.868473  0.344492  0.102200  1
  N  N34  1  0.894378  0.894378  0.894378  1
  N  N35  1  0.105622  0.105622  0.105622  1
