# generated using pymatgen
data_DyHo5Al17Si7Os8
_symmetry_space_group_name_H-M   'P 1'
_cell_length_a   8.69053800
_cell_length_b   8.68323524
_cell_length_c   9.49059600
_cell_angle_alpha   90.00000000
_cell_angle_beta   90.00000000
_cell_angle_gamma   120.06666156
_symmetry_Int_Tables_number   1
_chemical_formula_structural   DyHo5Al17Si7Os8
_chemical_formula_sum   'Dy1 Ho5 Al17 Si7 Os8'
_cell_volume   619.81235525
_cell_formula_units_Z   1
loop_
 _symmetry_equiv_pos_site_id
 _symmetry_equiv_pos_as_xyz
  1  'x, y, z'
loop_
 _atom_site_type_symbol
 _atom_site_label
 _atom_site_symmetry_multiplicity
 _atom_site_fract_x
 _atom_site_fract_y
 _atom_site_fract_z
 _atom_site_occupancy
  Dy  Dy0  1  0.803527  0.190887  0.750000  1
  Ho  Ho1  1  0.192739  0.388522  0.250000  1
  Ho  Ho2  1  0.806544  0.613339  0.750000  1
  Ho  Ho3  1  0.610474  0.807161  0.250000  1
  Ho  Ho4  1  0.388798  0.191505  0.750000  1
  Ho  Ho5  1  0.195715  0.805239  0.250000  1
  Al  Al6  1  0.164557  0.329831  0.577931  1
  Al  Al7  1  0.834022  0.671068  0.421284  1
  Al  Al8  1  0.671116  0.834763  0.577446  1
  Al  Al9  1  0.834022  0.671068  0.078716  1
  Al  Al10  1  0.329923  0.166319  0.422529  1
  Al  Al11  1  0.164557  0.329831  0.922069  1
  Al  Al12  1  0.163571  0.834236  0.576433  1
  Al  Al13  1  0.329923  0.166319  0.077471  1
  Al  Al14  1  0.835411  0.164391  0.421498  1
  Al  Al15  1  0.671116  0.834763  0.922554  1
  Al  Al16  1  0.835411  0.164391  0.078502  1
  Al  Al17  1  0.163571  0.834236  0.923567  1
  Al  Al18  1  0.125663  0.565582  0.750000  1
  Al  Al19  1  0.564422  0.435146  0.250000  1
  Al  Al20  1  0.438719  0.566401  0.750000  1
  Al  Al21  1  0.999476  0.999287  0.250000  1
  Al  Al22  1  0.001000  0.000225  0.750000  1
  Si  Si23  1  0.333330  0.664606  0.039130  1
  Si  Si24  1  0.666593  0.335668  0.960188  1
  Si  Si25  1  0.666593  0.335668  0.539812  1
  Si  Si26  1  0.333330  0.664606  0.460870  1
  Si  Si27  1  0.564470  0.124451  0.250000  1
  Si  Si28  1  0.436394  0.873135  0.750000  1
  Si  Si29  1  0.874696  0.434933  0.250000  1
  Os  Os30  1  0.500595  0.000855  0.001386  1
  Os  Os31  1  0.998624  0.499676  0.006839  1
  Os  Os32  1  0.500595  0.000855  0.498614  1
  Os  Os33  1  0.500587  0.500283  0.000372  1
  Os  Os34  1  0.998624  0.499676  0.493161  1
  Os  Os35  1  0.500587  0.500283  0.499628  1
  Os  Os36  1  0.000353  0.000394  0.000245  1
  Os  Os37  1  0.000353  0.000394  0.499755  1
