# generated using pymatgen
data_Nd5SiNiTe2
_symmetry_space_group_name_H-M   'P 1'
_cell_length_a   8.01513700
_cell_length_b   8.01513795
_cell_length_c   15.33972100
_cell_angle_alpha   90.00000000
_cell_angle_beta   90.00000000
_cell_angle_gamma   149.59152462
_symmetry_Int_Tables_number   1
_chemical_formula_structural   Nd5SiNiTe2
_chemical_formula_sum   'Nd10 Si2 Ni2 Te4'
_cell_volume   498.80223080
_cell_formula_units_Z   2
loop_
 _symmetry_equiv_pos_site_id
 _symmetry_equiv_pos_as_xyz
  1  'x, y, z'
loop_
 _atom_site_type_symbol
 _atom_site_label
 _atom_site_symmetry_multiplicity
 _atom_site_fract_x
 _atom_site_fract_y
 _atom_site_fract_z
 _atom_site_occupancy
  Nd  Nd0  1  0.963906  0.036094  0.118871  1
  Nd  Nd1  1  0.036094  0.963906  0.881129  1
  Nd  Nd2  1  0.036094  0.963906  0.618871  1
  Nd  Nd3  1  0.963906  0.036094  0.381129  1
  Nd  Nd4  1  0.742213  0.257787  0.627242  1
  Nd  Nd5  1  0.257787  0.742213  0.372758  1
  Nd  Nd6  1  0.257787  0.742213  0.127242  1
  Nd  Nd7  1  0.742213  0.257787  0.872758  1
  Nd  Nd8  1  0.608348  0.391652  0.250000  1
  Nd  Nd9  1  0.391652  0.608348  0.750000  1
  Si  Si10  1  0.410582  0.589418  0.250000  1
  Si  Si11  1  0.589418  0.410582  0.750000  1
  Ni  Ni12  1  0.820194  0.179806  0.250000  1
  Ni  Ni13  1  0.179806  0.820194  0.750000  1
  Te  Te14  1  0.615172  0.384828  0.039090  1
  Te  Te15  1  0.384828  0.615172  0.960910  1
  Te  Te16  1  0.384828  0.615172  0.539090  1
  Te  Te17  1  0.615172  0.384828  0.460910  1
