# generated using pymatgen
data_Fe3SiTcW
_symmetry_space_group_name_H-M   'P 1'
_cell_length_a   4.73409300
_cell_length_b   4.73409242
_cell_length_c   7.57154300
_cell_angle_alpha   90.00000000
_cell_angle_beta   90.00000000
_cell_angle_gamma   119.99998308
_symmetry_Int_Tables_number   1
_chemical_formula_structural   Fe3SiTcW
_chemical_formula_sum   'Fe6 Si2 Tc2 W2'
_cell_volume   146.95643785
_cell_formula_units_Z   2
loop_
 _symmetry_equiv_pos_site_id
 _symmetry_equiv_pos_as_xyz
  1  'x, y, z'
loop_
 _atom_site_type_symbol
 _atom_site_label
 _atom_site_symmetry_multiplicity
 _atom_site_fract_x
 _atom_site_fract_y
 _atom_site_fract_z
 _atom_site_occupancy
  Fe  Fe0  1  0.828659  0.171341  0.249777  1
  Fe  Fe1  1  0.828659  0.657318  0.249777  1
  Fe  Fe2  1  0.342682  0.171341  0.249777  1
  Fe  Fe3  1  0.171341  0.828659  0.750223  1
  Fe  Fe4  1  0.171341  0.342682  0.750223  1
  Fe  Fe5  1  0.657318  0.828659  0.750223  1
  Si  Si6  1  0.000000  0.000000  0.500000  1
  Si  Si7  1  0.000000  0.000000  0.000000  1
  Tc  Tc8  1  0.333333  0.666667  0.439434  1
  Tc  Tc9  1  0.666667  0.333333  0.560566  1
  W  W10  1  0.666667  0.333333  0.928442  1
  W  W11  1  0.333333  0.666667  0.071558  1
