# generated using pymatgen
data_Dy16In3Hg(IrRu)2
_symmetry_space_group_name_H-M   'P 1'
_cell_length_a   9.65610096
_cell_length_b   9.65610085
_cell_length_c   9.64982059
_cell_angle_alpha   59.81971409
_cell_angle_beta   59.81971057
_cell_angle_gamma   59.82078480
_symmetry_Int_Tables_number   1
_chemical_formula_structural   Dy16In3Hg(IrRu)2
_chemical_formula_sum   'Dy16 In3 Hg1 Ir2 Ru2'
_cell_volume   633.62238982
_cell_formula_units_Z   1
loop_
 _symmetry_equiv_pos_site_id
 _symmetry_equiv_pos_as_xyz
  1  'x, y, z'
loop_
 _atom_site_type_symbol
 _atom_site_label
 _atom_site_symmetry_multiplicity
 _atom_site_fract_x
 _atom_site_fract_y
 _atom_site_fract_z
 _atom_site_occupancy
  Dy  Dy0  1  0.598286  0.598286  0.599837  1
  Dy  Dy1  1  0.599782  0.599782  0.202396  1
  Dy  Dy2  1  0.598734  0.203448  0.599428  1
  Dy  Dy3  1  0.203448  0.598734  0.599428  1
  Dy  Dy4  1  0.059105  0.441439  0.441532  1
  Dy  Dy5  1  0.438377  0.059986  0.057437  1
  Dy  Dy6  1  0.441439  0.059105  0.441532  1
  Dy  Dy7  1  0.059986  0.438377  0.057437  1
  Dy  Dy8  1  0.441184  0.441184  0.058042  1
  Dy  Dy9  1  0.057886  0.057886  0.439356  1
  Dy  Dy10  1  0.187593  0.809239  0.811158  1
  Dy  Dy11  1  0.808049  0.190397  0.190604  1
  Dy  Dy12  1  0.809239  0.187593  0.811158  1
  Dy  Dy13  1  0.190397  0.808049  0.190604  1
  Dy  Dy14  1  0.810745  0.810745  0.187670  1
  Dy  Dy15  1  0.191030  0.191030  0.809028  1
  In  In16  1  0.831720  0.831720  0.503335  1
  In  In17  1  0.831917  0.502758  0.832020  1
  In  In18  1  0.502758  0.831917  0.832020  1
  Hg  Hg19  1  0.835203  0.835203  0.835640  1
  Ir  Ir20  1  0.391895  0.828017  0.391197  1
  Ir  Ir21  1  0.828017  0.391895  0.391197  1
  Ru  Ru22  1  0.391528  0.391528  0.388559  1
  Ru  Ru23  1  0.391682  0.391682  0.829387  1
