# generated using pymatgen
data_Sr6V3SbS16
_symmetry_space_group_name_H-M   'P 1'
_cell_length_a   10.95481381
_cell_length_b   10.95481293
_cell_length_c   10.95481400
_cell_angle_alpha   51.64257105
_cell_angle_beta   51.64256802
_cell_angle_gamma   51.64257234
_symmetry_Int_Tables_number   1
_chemical_formula_structural   Sr6V3SbS16
_chemical_formula_sum   'Sr6 V3 Sb1 S16'
_cell_volume   746.76778635
_cell_formula_units_Z   1
loop_
 _symmetry_equiv_pos_site_id
 _symmetry_equiv_pos_as_xyz
  1  'x, y, z'
loop_
 _atom_site_type_symbol
 _atom_site_label
 _atom_site_symmetry_multiplicity
 _atom_site_fract_x
 _atom_site_fract_y
 _atom_site_fract_z
 _atom_site_occupancy
  Sr  Sr0  1  0.740385  0.438892  0.068243  1
  Sr  Sr1  1  0.577610  0.928282  0.247991  1
  Sr  Sr2  1  0.068243  0.740385  0.438893  1
  Sr  Sr3  1  0.928283  0.247991  0.577610  1
  Sr  Sr4  1  0.438893  0.068244  0.740384  1
  Sr  Sr5  1  0.247991  0.577610  0.928283  1
  V  V6  1  0.340700  0.340700  0.340700  1
  V  V7  1  0.659448  0.659448  0.659448  1
  V  V8  1  0.840233  0.840233  0.840233  1
  Sb  Sb9  1  0.159718  0.159718  0.159718  1
  S  S10  1  0.616282  0.788187  0.039327  1
  S  S11  1  0.076551  0.076551  0.076551  1
  S  S12  1  0.543901  0.279674  0.122137  1
  S  S13  1  0.932134  0.392897  0.233993  1
  S  S14  1  0.122137  0.543900  0.279674  1
  S  S15  1  0.233992  0.932135  0.392897  1
  S  S16  1  0.417468  0.417468  0.417468  1
  S  S17  1  0.718938  0.879374  0.457559  1
  S  S18  1  0.279674  0.122137  0.543901  1
  S  S19  1  0.582843  0.582843  0.582843  1
  S  S20  1  0.788187  0.039327  0.616282  1
  S  S21  1  0.879374  0.457560  0.718938  1
  S  S22  1  0.039327  0.616282  0.788187  1
  S  S23  1  0.457560  0.718938  0.879374  1
  S  S24  1  0.917230  0.917230  0.917230  1
  S  S25  1  0.392898  0.233992  0.932134  1
