# generated using pymatgen
data_Er3UIn2Ru3
_symmetry_space_group_name_H-M   'P 1'
_cell_length_a   7.53555223
_cell_length_b   7.43842061
_cell_length_c   3.95759300
_cell_angle_alpha   90.00000000
_cell_angle_beta   90.00000000
_cell_angle_gamma   119.57451068
_symmetry_Int_Tables_number   1
_chemical_formula_structural   Er3UIn2Ru3
_chemical_formula_sum   'Er3 U1 In2 Ru3'
_cell_volume   192.93174780
_cell_formula_units_Z   1
loop_
 _symmetry_equiv_pos_site_id
 _symmetry_equiv_pos_as_xyz
  1  'x, y, z'
loop_
 _atom_site_type_symbol
 _atom_site_label
 _atom_site_symmetry_multiplicity
 _atom_site_fract_x
 _atom_site_fract_y
 _atom_site_fract_z
 _atom_site_occupancy
  Er  Er0  1  0.566859  0.596476  0.000000  1
  Er  Er1  1  0.433141  0.029616  0.000000  1
  Er  Er2  1  0.000000  0.366132  0.000000  1
  U  U3  1  0.000000  0.724713  0.500000  1
  In  In4  1  0.262622  0.253659  0.500000  1
  In  In5  1  0.737378  0.991037  0.500000  1
  Ru  Ru6  1  0.000000  0.968565  0.000000  1
  Ru  Ru7  1  0.707871  0.388835  0.500000  1
  Ru  Ru8  1  0.292129  0.680965  0.500000  1
