# generated using pymatgen
data_Er12TlSi4Hg
_symmetry_space_group_name_H-M   'P 1'
_cell_length_a   8.42552431
_cell_length_b   8.42552517
_cell_length_c   8.42552500
_cell_angle_alpha   112.65557276
_cell_angle_beta   110.84018645
_cell_angle_gamma   105.01350911
_symmetry_Int_Tables_number   1
_chemical_formula_structural   Er12TlSi4Hg
_chemical_formula_sum   'Er12 Tl1 Si4 Hg1'
_cell_volume   458.24160439
_cell_formula_units_Z   1
loop_
 _symmetry_equiv_pos_site_id
 _symmetry_equiv_pos_as_xyz
  1  'x, y, z'
loop_
 _atom_site_type_symbol
 _atom_site_label
 _atom_site_symmetry_multiplicity
 _atom_site_fract_x
 _atom_site_fract_y
 _atom_site_fract_z
 _atom_site_occupancy
  Er  Er0  1  0.185595  0.277291  0.462885  1
  Er  Er1  1  0.814405  0.722709  0.537115  1
  Er  Er2  1  0.185595  0.722709  0.908302  1
  Er  Er3  1  0.814405  0.277291  0.091698  1
  Er  Er4  1  0.320754  0.617024  0.296272  1
  Er  Er5  1  0.679246  0.382976  0.703728  1
  Er  Er6  1  0.320754  0.024482  0.703728  1
  Er  Er7  1  0.679246  0.975518  0.296272  1
  Er  Er8  1  0.440325  0.236631  0.203695  1
  Er  Er9  1  0.559675  0.763369  0.796305  1
  Er  Er10  1  0.032936  0.236631  0.796305  1
  Er  Er11  1  0.967064  0.763369  0.203695  1
  Tl  Tl12  1  0.500000  0.500000  0.000000  1
  Si  Si13  1  0.116815  0.616815  0.500000  1
  Si  Si14  1  0.883185  0.383185  0.500000  1
  Si  Si15  1  0.367584  0.000000  0.367584  1
  Si  Si16  1  0.632416  0.000000  0.632416  1
  Hg  Hg17  1  0.000000  0.000000  0.000000  1
