# generated using pymatgen
data_Dy3Y2Hf2P12Ir17
_symmetry_space_group_name_H-M   'P 1'
_cell_length_a   12.64612700
_cell_length_b   12.88032023
_cell_length_c   3.97907600
_cell_angle_alpha   90.00000000
_cell_angle_beta   90.00000000
_cell_angle_gamma   119.40033418
_symmetry_Int_Tables_number   1
_chemical_formula_structural   Dy3Y2Hf2P12Ir17
_chemical_formula_sum   'Dy3 Y2 Hf2 P12 Ir17'
_cell_volume   564.66355509
_cell_formula_units_Z   1
loop_
 _symmetry_equiv_pos_site_id
 _symmetry_equiv_pos_as_xyz
  1  'x, y, z'
loop_
 _atom_site_type_symbol
 _atom_site_label
 _atom_site_symmetry_multiplicity
 _atom_site_fract_x
 _atom_site_fract_y
 _atom_site_fract_z
 _atom_site_occupancy
  Dy  Dy0  1  0.330330  0.661648  0.500000  1
  Dy  Dy1  1  0.668683  0.338352  0.500000  1
  Dy  Dy2  1  0.812934  0.000000  0.000000  1
  Y  Y3  1  0.999996  0.815312  0.000000  1
  Y  Y4  1  0.184684  0.184688  0.000000  1
  Hf  Hf5  1  0.997615  0.446968  0.500000  1
  Hf  Hf6  1  0.550647  0.553032  0.500000  1
  P  P7  1  0.005387  0.650825  0.500000  1
  P  P8  1  0.354562  0.349175  0.500000  1
  P  P9  1  0.645259  0.000000  0.500000  1
  P  P10  1  0.514904  0.685876  0.000000  1
  P  P11  1  0.309725  0.825257  0.000000  1
  P  P12  1  0.164867  0.481091  0.000000  1
  P  P13  1  0.484468  0.174743  0.000000  1
  P  P14  1  0.683776  0.518909  0.000000  1
  P  P15  1  0.829029  0.314124  0.000000  1
  P  P16  1  0.999324  0.173919  0.500000  1
  P  P17  1  0.825406  0.826081  0.500000  1
  P  P18  1  0.181436  0.000000  0.500000  1
  Ir  Ir19  1  0.505031  0.864510  0.000000  1
  Ir  Ir20  1  0.127475  0.642665  0.000000  1
  Ir  Ir21  1  0.356133  0.495830  0.000000  1
  Ir  Ir22  1  0.484811  0.357335  0.000000  1
  Ir  Ir23  1  0.860304  0.504170  0.000000  1
  Ir  Ir24  1  0.640523  0.135490  0.000000  1
  Ir  Ir25  1  0.464997  0.000000  0.500000  1
  Ir  Ir26  1  0.997016  0.279695  0.000000  1
  Ir  Ir27  1  0.717320  0.720305  0.000000  1
  Ir  Ir28  1  0.289779  0.000000  0.000000  1
  Ir  Ir29  1  0.623811  0.807401  0.500000  1
  Ir  Ir30  1  0.203892  0.825373  0.500000  1
  Ir  Ir31  1  0.177393  0.367217  0.500000  1
  Ir  Ir32  1  0.378519  0.174627  0.500000  1
  Ir  Ir33  1  0.810176  0.632783  0.500000  1
  Ir  Ir34  1  0.816410  0.192599  0.500000  1
  Ir  Ir35  1  0.003378  0.000000  0.500000  1
