# generated using pymatgen
data_Li6TmSb5Rh12
_symmetry_space_group_name_H-M   'P 1'
_cell_length_a   4.40811700
_cell_length_b   6.17703100
_cell_length_c   13.24288600
_cell_angle_alpha   90.00059535
_cell_angle_beta   90.00075767
_cell_angle_gamma   90.00140683
_symmetry_Int_Tables_number   1
_chemical_formula_structural   Li6TmSb5Rh12
_chemical_formula_sum   'Li6 Tm1 Sb5 Rh12'
_cell_volume   360.59154081
_cell_formula_units_Z   1
loop_
 _symmetry_equiv_pos_site_id
 _symmetry_equiv_pos_as_xyz
  1  'x, y, z'
loop_
 _atom_site_type_symbol
 _atom_site_label
 _atom_site_symmetry_multiplicity
 _atom_site_fract_x
 _atom_site_fract_y
 _atom_site_fract_z
 _atom_site_occupancy
  Li  Li0  1  0.999999  0.500002  0.000000  1
  Li  Li1  1  0.499897  0.000002  0.166662  1
  Li  Li2  1  0.999863  0.500003  0.334455  1
  Li  Li3  1  0.500022  0.999999  0.500003  1
  Li  Li4  1  0.000136  0.500006  0.665530  1
  Li  Li5  1  0.500099  0.999993  0.833334  1
  Tm  Tm6  1  0.999996  0.999996  0.000002  1
  Sb  Sb7  1  0.499901  0.500000  0.166767  1
  Sb  Sb8  1  0.999876  0.000002  0.333273  1
  Sb  Sb9  1  0.500000  0.500000  0.500001  1
  Sb  Sb10  1  0.000120  0.000003  0.666728  1
  Sb  Sb11  1  0.500098  0.499997  0.833237  1
  Rh  Rh12  1  0.499989  0.261562  0.000001  1
  Rh  Rh13  1  0.500011  0.738442  0.000000  1
  Rh  Rh14  1  0.999907  0.255208  0.173239  1
  Rh  Rh15  1  0.999896  0.744785  0.173237  1
  Rh  Rh16  1  0.499904  0.250250  0.335214  1
  Rh  Rh17  1  0.499909  0.749755  0.335216  1
  Rh  Rh18  1  0.000006  0.249209  0.500001  1
  Rh  Rh19  1  0.999994  0.750798  0.500002  1
  Rh  Rh20  1  0.500090  0.250249  0.664792  1
  Rh  Rh21  1  0.500089  0.749751  0.664789  1
  Rh  Rh22  1  0.000103  0.255202  0.826758  1
  Rh  Rh23  1  0.000093  0.744786  0.826762  1
