# generated using pymatgen
data_Ba4InRhO8
_symmetry_space_group_name_H-M   'P 1'
_cell_length_a   7.29371521
_cell_length_b   7.29371504
_cell_length_c   5.96455900
_cell_angle_alpha   90.00000000
_cell_angle_beta   90.00000000
_cell_angle_gamma   132.09780733
_symmetry_Int_Tables_number   1
_chemical_formula_structural   Ba4InRhO8
_chemical_formula_sum   'Ba4 In1 Rh1 O8'
_cell_volume   235.44025229
_cell_formula_units_Z   1
loop_
 _symmetry_equiv_pos_site_id
 _symmetry_equiv_pos_as_xyz
  1  'x, y, z'
loop_
 _atom_site_type_symbol
 _atom_site_label
 _atom_site_symmetry_multiplicity
 _atom_site_fract_x
 _atom_site_fract_y
 _atom_site_fract_z
 _atom_site_occupancy
  Ba  Ba0  1  0.356579  0.643421  0.000000  1
  Ba  Ba1  1  0.856348  0.143652  0.500000  1
  Ba  Ba2  1  0.143652  0.856348  0.500000  1
  Ba  Ba3  1  0.643421  0.356579  0.000000  1
  In  In4  1  0.000000  0.000000  0.000000  1
  Rh  Rh5  1  0.500000  0.500000  0.500000  1
  O  O6  1  0.261178  0.261178  0.736366  1
  O  O7  1  0.738822  0.738822  0.263634  1
  O  O8  1  0.738822  0.738822  0.736366  1
  O  O9  1  0.261178  0.261178  0.263634  1
  O  O10  1  0.159884  0.840116  0.000000  1
  O  O11  1  0.652479  0.347521  0.500000  1
  O  O12  1  0.347521  0.652479  0.500000  1
  O  O13  1  0.840116  0.159884  0.000000  1
