# generated using pymatgen
data_Rb2Ti(AgTe2)2
_symmetry_space_group_name_H-M   'P 1'
_cell_length_a   6.52548000
_cell_length_b   6.52548000
_cell_length_c   15.00878400
_cell_angle_alpha   90.00000000
_cell_angle_beta   90.00000000
_cell_angle_gamma   90.00000000
_symmetry_Int_Tables_number   1
_chemical_formula_structural   Rb2Ti(AgTe2)2
_chemical_formula_sum   'Rb4 Ti2 Ag4 Te8'
_cell_volume   639.10237777
_cell_formula_units_Z   2
loop_
 _symmetry_equiv_pos_site_id
 _symmetry_equiv_pos_as_xyz
  1  'x, y, z'
loop_
 _atom_site_type_symbol
 _atom_site_label
 _atom_site_symmetry_multiplicity
 _atom_site_fract_x
 _atom_site_fract_y
 _atom_site_fract_z
 _atom_site_occupancy
  Rb  Rb0  1  0.259192  0.259192  0.000000  1
  Rb  Rb1  1  0.740808  0.740808  0.000000  1
  Rb  Rb2  1  0.740808  0.259192  0.500000  1
  Rb  Rb3  1  0.259192  0.740808  0.500000  1
  Ti  Ti4  1  0.000000  0.000000  0.250000  1
  Ti  Ti5  1  0.000000  0.000000  0.750000  1
  Ag  Ag6  1  0.000000  0.500000  0.250000  1
  Ag  Ag7  1  0.000000  0.500000  0.750000  1
  Ag  Ag8  1  0.500000  0.000000  0.750000  1
  Ag  Ag9  1  0.500000  0.000000  0.250000  1
  Te  Te10  1  0.228990  0.228990  0.357557  1
  Te  Te11  1  0.771010  0.771010  0.642443  1
  Te  Te12  1  0.771010  0.771010  0.357557  1
  Te  Te13  1  0.771010  0.228990  0.857557  1
  Te  Te14  1  0.771010  0.228990  0.142443  1
  Te  Te15  1  0.228990  0.228990  0.642443  1
  Te  Te16  1  0.228990  0.771010  0.142443  1
  Te  Te17  1  0.228990  0.771010  0.857557  1
