# generated using pymatgen
data_Nd12Fe2Br17
_symmetry_space_group_name_H-M   'P 1'
_cell_length_a   9.52391837
_cell_length_b   11.54301630
_cell_length_c   11.55674499
_cell_angle_alpha   73.87200641
_cell_angle_beta   75.02067972
_cell_angle_gamma   65.08047595
_symmetry_Int_Tables_number   1
_chemical_formula_structural   Nd12Fe2Br17
_chemical_formula_sum   'Nd12 Fe2 Br17'
_cell_volume   1092.17758195
_cell_formula_units_Z   1
loop_
 _symmetry_equiv_pos_site_id
 _symmetry_equiv_pos_as_xyz
  1  'x, y, z'
loop_
 _atom_site_type_symbol
 _atom_site_label
 _atom_site_symmetry_multiplicity
 _atom_site_fract_x
 _atom_site_fract_y
 _atom_site_fract_z
 _atom_site_occupancy
  Nd  Nd0  1  0.456432  0.482517  0.322368  1
  Nd  Nd1  1  0.560991  0.672196  0.003296  1
  Nd  Nd2  1  0.265390  0.993539  0.106362  1
  Nd  Nd3  1  0.864084  0.287163  0.852115  1
  Nd  Nd4  1  0.404044  0.240535  0.715548  1
  Nd  Nd5  1  0.734610  0.006461  0.893638  1
  Nd  Nd6  1  0.543568  0.517483  0.677632  1
  Nd  Nd7  1  0.439009  0.327804  0.996704  1
  Nd  Nd8  1  0.595956  0.759465  0.284452  1
  Nd  Nd9  1  0.829267  0.190675  0.576672  1
  Nd  Nd10  1  0.170733  0.809325  0.423328  1
  Nd  Nd11  1  0.135916  0.712837  0.147885  1
  Fe  Fe12  1  0.365845  0.738487  0.212755  1
  Fe  Fe13  1  0.634155  0.261513  0.787245  1
  Br  Br14  1  0.056626  0.096626  0.326102  1
  Br  Br15  1  0.466769  0.951712  0.850062  1
  Br  Br16  1  0.424561  0.812824  0.531190  1
  Br  Br17  1  0.575439  0.187176  0.468810  1
  Br  Br18  1  0.837939  0.706043  0.050914  1
  Br  Br19  1  0.222646  0.425708  0.242003  1
  Br  Br20  1  0.677925  0.373952  0.097458  1
  Br  Br21  1  0.533231  0.048288  0.149938  1
  Br  Br22  1  0.732240  0.474309  0.421711  1
  Br  Br23  1  0.893661  0.785936  0.362734  1
  Br  Br24  1  0.943374  0.903374  0.673898  1
  Br  Br25  1  0.162061  0.293957  0.949086  1
  Br  Br26  1  0.322075  0.626048  0.902542  1
  Br  Br27  1  0.000000  0.000000  0.000000  1
  Br  Br28  1  0.106339  0.214064  0.637266  1
  Br  Br29  1  0.777354  0.574292  0.757997  1
  Br  Br30  1  0.267760  0.525691  0.578289  1
