# generated using pymatgen
data_AuClF6
_symmetry_space_group_name_H-M   'P 1'
_cell_length_a   5.64937400
_cell_length_b   5.56940370
_cell_length_c   8.84741511
_cell_angle_alpha   77.66192336
_cell_angle_beta   90.00000000
_cell_angle_gamma   90.00000000
_symmetry_Int_Tables_number   1
_chemical_formula_structural   AuClF6
_chemical_formula_sum   'Au2 Cl2 F12'
_cell_volume   271.94258601
_cell_formula_units_Z   2
loop_
 _symmetry_equiv_pos_site_id
 _symmetry_equiv_pos_as_xyz
  1  'x, y, z'
loop_
 _atom_site_type_symbol
 _atom_site_label
 _atom_site_symmetry_multiplicity
 _atom_site_fract_x
 _atom_site_fract_y
 _atom_site_fract_z
 _atom_site_occupancy
  Au  Au0  1  0.245847  0.265979  0.903863  1
  Au  Au1  1  0.745847  0.734021  0.096137  1
  Cl  Cl2  1  0.260807  0.443092  0.330040  1
  Cl  Cl3  1  0.760807  0.556908  0.669960  1
  F  F4  1  0.598212  0.795119  0.586094  1
  F  F5  1  0.098212  0.204881  0.413906  1
  F  F6  1  0.010925  0.710775  0.625071  1
  F  F7  1  0.510925  0.289225  0.374929  1
  F  F8  1  0.548036  0.818019  0.913335  1
  F  F9  1  0.048036  0.181981  0.086665  1
  F  F10  1  0.016649  0.720900  0.963549  1
  F  F11  1  0.516649  0.279100  0.036451  1
  F  F12  1  0.944394  0.652688  0.289392  1
  F  F13  1  0.444394  0.347312  0.710608  1
  F  F14  1  0.465127  0.751216  0.233986  1
  F  F15  1  0.965127  0.248784  0.766014  1
