# generated using pymatgen
data_YEr3Sc6(GaSi3)2
_symmetry_space_group_name_H-M   'P 1'
_cell_length_a   7.10915372
_cell_length_b   7.39022865
_cell_length_c   14.11528879
_cell_angle_alpha   90.02401395
_cell_angle_beta   89.83079415
_cell_angle_gamma   90.16886495
_symmetry_Int_Tables_number   1
_chemical_formula_structural   YEr3Sc6(GaSi3)2
_chemical_formula_sum   'Y2 Er6 Sc12 Ga4 Si12'
_cell_volume   741.58635807
_cell_formula_units_Z   2
loop_
 _symmetry_equiv_pos_site_id
 _symmetry_equiv_pos_as_xyz
  1  'x, y, z'
loop_
 _atom_site_type_symbol
 _atom_site_label
 _atom_site_symmetry_multiplicity
 _atom_site_fract_x
 _atom_site_fract_y
 _atom_site_fract_z
 _atom_site_occupancy
  Y  Y0  1  0.012917  0.174970  0.096518  1
  Y  Y1  1  0.988830  0.824963  0.902172  1
  Er  Er2  1  0.487434  0.677282  0.901645  1
  Er  Er3  1  0.988783  0.827434  0.600745  1
  Er  Er4  1  0.510412  0.320922  0.096915  1
  Er  Er5  1  0.008725  0.175080  0.400084  1
  Er  Er6  1  0.510384  0.323955  0.400173  1
  Er  Er7  1  0.491209  0.676127  0.601116  1
  Sc  Sc8  1  0.163769  0.500852  0.751691  1
  Sc  Sc9  1  0.835722  0.498586  0.249885  1
  Sc  Sc10  1  0.335606  0.001701  0.248263  1
  Sc  Sc11  1  0.664107  0.998518  0.750141  1
  Sc  Sc12  1  0.334820  0.174574  0.628440  1
  Sc  Sc13  1  0.668093  0.826734  0.373312  1
  Sc  Sc14  1  0.169259  0.672950  0.372551  1
  Sc  Sc15  1  0.667947  0.826355  0.125476  1
  Sc  Sc16  1  0.829746  0.325067  0.627097  1
  Sc  Sc17  1  0.331203  0.175779  0.874563  1
  Sc  Sc18  1  0.829424  0.323864  0.874403  1
  Sc  Sc19  1  0.172900  0.674712  0.124303  1
  Ga  Ga20  1  0.163145  0.460814  0.539671  1
  Ga  Ga21  1  0.838151  0.538892  0.461891  1
  Ga  Ga22  1  0.337688  0.960733  0.462204  1
  Ga  Ga23  1  0.838132  0.538702  0.038446  1
  Si  Si24  1  0.033765  0.115907  0.751470  1
  Si  Si25  1  0.966502  0.884287  0.248802  1
  Si  Si26  1  0.466944  0.613220  0.248046  1
  Si  Si27  1  0.533889  0.386750  0.751708  1
  Si  Si28  1  0.287028  0.870872  0.751350  1
  Si  Si29  1  0.713639  0.129145  0.248323  1
  Si  Si30  1  0.213391  0.370681  0.248412  1
  Si  Si31  1  0.787285  0.629744  0.751728  1
  Si  Si32  1  0.659203  0.036593  0.539050  1
  Si  Si33  1  0.159138  0.463528  0.960698  1
  Si  Si34  1  0.656750  0.036188  0.961281  1
  Si  Si35  1  0.344061  0.963519  0.037427  1
