# generated using pymatgen
data_La5CeHo2(ZnRh)8
_symmetry_space_group_name_H-M   'P 1'
_cell_length_a   3.99385000
_cell_length_b   7.41463170
_cell_length_c   16.53306327
_cell_angle_alpha   90.22924032
_cell_angle_beta   90.00000000
_cell_angle_gamma   90.00000000
_symmetry_Int_Tables_number   1
_chemical_formula_structural   La5CeHo2(ZnRh)8
_chemical_formula_sum   'La5 Ce1 Ho2 Zn8 Rh8'
_cell_volume   489.58847367
_cell_formula_units_Z   1
loop_
 _symmetry_equiv_pos_site_id
 _symmetry_equiv_pos_as_xyz
  1  'x, y, z'
loop_
 _atom_site_type_symbol
 _atom_site_label
 _atom_site_symmetry_multiplicity
 _atom_site_fract_x
 _atom_site_fract_y
 _atom_site_fract_z
 _atom_site_occupancy
  La  La0  1  0.250000  0.548520  0.783050  1
  La  La1  1  0.250000  0.671434  0.561343  1
  La  La2  1  0.250000  0.168099  0.939995  1
  La  La3  1  0.750000  0.451893  0.215931  1
  La  La4  1  0.750000  0.949201  0.282231  1
  Ce  Ce5  1  0.750000  0.323841  0.441531  1
  Ho  Ho6  1  0.250000  0.052268  0.713877  1
  Ho  Ho7  1  0.750000  0.831398  0.059054  1
  Zn  Zn8  1  0.250000  0.114363  0.146936  1
  Zn  Zn9  1  0.250000  0.993389  0.440521  1
  Zn  Zn10  1  0.750000  0.880468  0.846570  1
  Zn  Zn11  1  0.750000  0.003145  0.562154  1
  Zn  Zn12  1  0.250000  0.506550  0.058241  1
  Zn  Zn13  1  0.750000  0.365961  0.650452  1
  Zn  Zn14  1  0.750000  0.506280  0.942625  1
  Zn  Zn15  1  0.250000  0.618402  0.350802  1
  Rh  Rh16  1  0.750000  0.250498  0.810988  1
  Rh  Rh17  1  0.250000  0.250237  0.324592  1
  Rh  Rh18  1  0.250000  0.748453  0.936369  1
  Rh  Rh19  1  0.250000  0.247196  0.559398  1
  Rh  Rh20  1  0.250000  0.746645  0.183345  1
  Rh  Rh21  1  0.750000  0.751144  0.435171  1
  Rh  Rh22  1  0.750000  0.252215  0.066354  1
  Rh  Rh23  1  0.750000  0.768399  0.688472  1
