# generated using pymatgen
data_Ca20Cd3(Cu2Au)3
_symmetry_space_group_name_H-M   'P 1'
_cell_length_a   7.96884822
_cell_length_b   7.96884853
_cell_length_c   14.58476900
_cell_angle_alpha   90.04272999
_cell_angle_beta   89.95727000
_cell_angle_gamma   89.77897576
_symmetry_Int_Tables_number   1
_chemical_formula_structural   Ca20Cd3(Cu2Au)3
_chemical_formula_sum   'Ca20 Cd3 Cu6 Au3'
_cell_volume   926.16253207
_cell_formula_units_Z   1
loop_
 _symmetry_equiv_pos_site_id
 _symmetry_equiv_pos_as_xyz
  1  'x, y, z'
loop_
 _atom_site_type_symbol
 _atom_site_label
 _atom_site_symmetry_multiplicity
 _atom_site_fract_x
 _atom_site_fract_y
 _atom_site_fract_z
 _atom_site_occupancy
  Ca  Ca0  1  0.675749  0.162576  0.107980  1
  Ca  Ca1  1  0.169187  0.668076  0.611878  1
  Ca  Ca2  1  0.325497  0.838523  0.107664  1
  Ca  Ca3  1  0.832076  0.333243  0.611519  1
  Ca  Ca4  1  0.835505  0.676443  0.108038  1
  Ca  Ca5  1  0.329972  0.169865  0.611787  1
  Ca  Ca6  1  0.163188  0.322505  0.108280  1
  Ca  Ca7  1  0.668816  0.828911  0.611892  1
  Ca  Ca8  1  0.838523  0.325497  0.892336  1
  Ca  Ca9  1  0.333243  0.832076  0.388481  1
  Ca  Ca10  1  0.162576  0.675749  0.892020  1
  Ca  Ca11  1  0.668076  0.169187  0.388122  1
  Ca  Ca12  1  0.676443  0.835505  0.891962  1
  Ca  Ca13  1  0.169865  0.329972  0.388213  1
  Ca  Ca14  1  0.322505  0.163188  0.891720  1
  Ca  Ca15  1  0.828911  0.668816  0.388108  1
  Ca  Ca16  1  0.499594  0.500240  0.754707  1
  Ca  Ca17  1  0.999685  0.000050  0.249746  1
  Ca  Ca18  1  0.000050  0.999685  0.750254  1
  Ca  Ca19  1  0.500240  0.499594  0.245293  1
  Cd  Cd20  1  0.499547  0.499547  0.500000  1
  Cd  Cd21  1  0.499492  0.499492  0.000000  1
  Cd  Cd22  1  0.999537  0.999537  0.500000  1
  Cu  Cu23  1  0.878465  0.379060  0.248675  1
  Cu  Cu24  1  0.379060  0.878465  0.751325  1
  Cu  Cu25  1  0.886724  0.613591  0.751587  1
  Cu  Cu26  1  0.387253  0.114128  0.248518  1
  Cu  Cu27  1  0.114128  0.387253  0.751482  1
  Cu  Cu28  1  0.613591  0.886724  0.248413  1
  Au  Au29  1  0.620926  0.121710  0.751648  1
  Au  Au30  1  0.121710  0.620926  0.248352  1
  Au  Au31  1  0.999868  0.999868  0.000000  1
