# generated using pymatgen
data_Sc2Si4NiOs3
_symmetry_space_group_name_H-M   'P 1'
_cell_length_a   7.70989700
_cell_length_b   7.38680000
_cell_length_c   5.14297800
_cell_angle_alpha   90.00000000
_cell_angle_beta   90.00000000
_cell_angle_gamma   90.00000000
_symmetry_Int_Tables_number   1
_chemical_formula_structural   Sc2Si4NiOs3
_chemical_formula_sum   'Sc4 Si8 Ni2 Os6'
_cell_volume   292.90014267
_cell_formula_units_Z   2
loop_
 _symmetry_equiv_pos_site_id
 _symmetry_equiv_pos_as_xyz
  1  'x, y, z'
loop_
 _atom_site_type_symbol
 _atom_site_label
 _atom_site_symmetry_multiplicity
 _atom_site_fract_x
 _atom_site_fract_y
 _atom_site_fract_z
 _atom_site_occupancy
  Sc  Sc0  1  0.258681  0.101002  0.244033  1
  Sc  Sc1  1  0.741318  0.898998  0.744033  1
  Sc  Sc2  1  0.258681  0.399000  0.755967  1
  Sc  Sc3  1  0.741318  0.601001  0.255967  1
  Si  Si4  1  0.423199  0.450578  0.251635  1
  Si  Si5  1  0.576801  0.549423  0.751635  1
  Si  Si6  1  0.423199  0.049422  0.748365  1
  Si  Si7  1  0.576801  0.950577  0.248365  1
  Si  Si8  1  0.956663  0.250001  0.000000  1
  Si  Si9  1  0.043337  0.750000  0.500000  1
  Si  Si10  1  0.039700  0.750000  0.000000  1
  Si  Si11  1  0.960300  0.250001  0.500000  1
  Ni  Ni12  1  0.381575  0.750000  0.000000  1
  Ni  Ni13  1  0.618426  0.250001  0.500000  1
  Os  Os14  1  0.606429  0.250001  0.000000  1
  Os  Os15  1  0.393572  0.750000  0.500000  1
  Os  Os16  1  0.121252  0.488050  0.250721  1
  Os  Os17  1  0.878749  0.511950  0.750721  1
  Os  Os18  1  0.121252  0.011951  0.749279  1
  Os  Os19  1  0.878749  0.988050  0.249279  1
