# generated using pymatgen
data_Hf4ZnIn2PdRh2
_symmetry_space_group_name_H-M   'P 1'
_cell_length_a   7.50950544
_cell_length_b   7.50950587
_cell_length_c   6.75312700
_cell_angle_alpha   90.00000000
_cell_angle_beta   90.00000000
_cell_angle_gamma   90.21533656
_symmetry_Int_Tables_number   1
_chemical_formula_structural   Hf4ZnIn2PdRh2
_chemical_formula_sum   'Hf8 Zn2 In4 Pd2 Rh4'
_cell_volume   380.82420769
_cell_formula_units_Z   2
loop_
 _symmetry_equiv_pos_site_id
 _symmetry_equiv_pos_as_xyz
  1  'x, y, z'
loop_
 _atom_site_type_symbol
 _atom_site_label
 _atom_site_symmetry_multiplicity
 _atom_site_fract_x
 _atom_site_fract_y
 _atom_site_fract_z
 _atom_site_occupancy
  Hf  Hf0  1  0.170072  0.161860  0.000000  1
  Hf  Hf1  1  0.838140  0.829928  0.000000  1
  Hf  Hf2  1  0.651478  0.348522  0.500000  1
  Hf  Hf3  1  0.346158  0.653842  0.500000  1
  Hf  Hf4  1  0.666774  0.333226  0.000000  1
  Hf  Hf5  1  0.330774  0.669226  0.000000  1
  Hf  Hf6  1  0.815266  0.811093  0.500000  1
  Hf  Hf7  1  0.188907  0.184734  0.500000  1
  Zn  Zn8  1  0.872322  0.127678  0.730009  1
  Zn  Zn9  1  0.872322  0.127678  0.269991  1
  In  In10  1  0.500973  0.999078  0.248606  1
  In  In11  1  0.500973  0.999078  0.751394  1
  In  In12  1  0.000922  0.499027  0.248606  1
  In  In13  1  0.000922  0.499027  0.751394  1
  Pd  Pd14  1  0.122909  0.877091  0.270686  1
  Pd  Pd15  1  0.122909  0.877091  0.729314  1
  Rh  Rh16  1  0.367326  0.368237  0.233247  1
  Rh  Rh17  1  0.631763  0.632674  0.766753  1
  Rh  Rh18  1  0.631763  0.632674  0.233247  1
  Rh  Rh19  1  0.367326  0.368237  0.766753  1
