# generated using pymatgen
data_NdGd3(ScIr)4
_symmetry_space_group_name_H-M   'P 1'
_cell_length_a   7.19511185
_cell_length_b   4.27166000
_cell_length_c   8.81034100
_cell_angle_alpha   90.00000000
_cell_angle_beta   89.40279250
_cell_angle_gamma   90.00000000
_symmetry_Int_Tables_number   1
_chemical_formula_structural   NdGd3(ScIr)4
_chemical_formula_sum   'Nd1 Gd3 Sc4 Ir4'
_cell_volume   270.77175089
_cell_formula_units_Z   1
loop_
 _symmetry_equiv_pos_site_id
 _symmetry_equiv_pos_as_xyz
  1  'x, y, z'
loop_
 _atom_site_type_symbol
 _atom_site_label
 _atom_site_symmetry_multiplicity
 _atom_site_fract_x
 _atom_site_fract_y
 _atom_site_fract_z
 _atom_site_occupancy
  Nd  Nd0  1  0.514156  0.750000  0.677491  1
  Gd  Gd1  1  0.981456  0.250000  0.176256  1
  Gd  Gd2  1  0.483686  0.250000  0.323128  1
  Gd  Gd3  1  0.016030  0.750000  0.825659  1
  Sc  Sc4  1  0.861675  0.250000  0.563171  1
  Sc  Sc5  1  0.361501  0.250000  0.939845  1
  Sc  Sc6  1  0.139814  0.750000  0.433101  1
  Sc  Sc7  1  0.640598  0.750000  0.065956  1
  Ir  Ir8  1  0.739239  0.250000  0.897578  1
  Ir  Ir9  1  0.233555  0.250000  0.601146  1
  Ir  Ir10  1  0.263275  0.750000  0.105739  1
  Ir  Ir11  1  0.765014  0.750000  0.390929  1
