# generated using pymatgen
data_Tb2Ga9NiRuRh
_symmetry_space_group_name_H-M   'P 1'
_cell_length_a   7.55514247
_cell_length_b   7.55514176
_cell_length_c   9.53058006
_cell_angle_alpha   90.08352474
_cell_angle_beta   90.08352313
_cell_angle_gamma   120.47503053
_symmetry_Int_Tables_number   1
_chemical_formula_structural   Tb2Ga9NiRuRh
_chemical_formula_sum   'Tb4 Ga18 Ni2 Ru2 Rh2'
_cell_volume   468.85068617
_cell_formula_units_Z   2
loop_
 _symmetry_equiv_pos_site_id
 _symmetry_equiv_pos_as_xyz
  1  'x, y, z'
loop_
 _atom_site_type_symbol
 _atom_site_label
 _atom_site_symmetry_multiplicity
 _atom_site_fract_x
 _atom_site_fract_y
 _atom_site_fract_z
 _atom_site_occupancy
  Tb  Tb0  1  0.995156  0.660250  0.248558  1
  Tb  Tb1  1  0.004844  0.339750  0.751442  1
  Tb  Tb2  1  0.660250  0.995156  0.248558  1
  Tb  Tb3  1  0.339750  0.004844  0.751442  1
  Ga  Ga4  1  0.113059  0.113059  0.250465  1
  Ga  Ga5  1  0.886941  0.886941  0.749535  1
  Ga  Ga6  1  0.000725  0.328171  0.076958  1
  Ga  Ga7  1  0.999275  0.671829  0.923042  1
  Ga  Ga8  1  0.000465  0.672939  0.577641  1
  Ga  Ga9  1  0.327061  0.999535  0.422359  1
  Ga  Ga10  1  0.999535  0.327061  0.422359  1
  Ga  Ga11  1  0.672939  0.000465  0.577641  1
  Ga  Ga12  1  0.671829  0.999275  0.923042  1
  Ga  Ga13  1  0.328171  0.000725  0.076958  1
  Ga  Ga14  1  0.329995  0.329995  0.562480  1
  Ga  Ga15  1  0.670005  0.670005  0.437520  1
  Ga  Ga16  1  0.666727  0.666727  0.059336  1
  Ga  Ga17  1  0.333273  0.333273  0.940664  1
  Ga  Ga18  1  0.335731  0.543085  0.249222  1
  Ga  Ga19  1  0.664269  0.456915  0.750778  1
  Ga  Ga20  1  0.543085  0.335731  0.249222  1
  Ga  Ga21  1  0.456915  0.664269  0.750778  1
  Ni  Ni22  1  0.000000  0.000000  0.000000  1
  Ni  Ni23  1  0.000000  0.000000  0.500000  1
  Ru  Ru24  1  0.673357  0.326643  0.000000  1
  Ru  Ru25  1  0.326643  0.673357  0.000000  1
  Rh  Rh26  1  0.328485  0.671515  0.500000  1
  Rh  Rh27  1  0.671515  0.328485  0.500000  1
