# generated using pymatgen
data_Tb9Y7Cd2(InPd2)2
_symmetry_space_group_name_H-M   'P 1'
_cell_length_a   9.75488930
_cell_length_b   9.75488948
_cell_length_c   9.77777300
_cell_angle_alpha   59.92236609
_cell_angle_beta   59.92236549
_cell_angle_gamma   59.99547427
_symmetry_Int_Tables_number   1
_chemical_formula_structural   Tb9Y7Cd2(InPd2)2
_chemical_formula_sum   'Tb9 Y7 Cd2 In2 Pd4'
_cell_volume   657.11928560
_cell_formula_units_Z   1
loop_
 _symmetry_equiv_pos_site_id
 _symmetry_equiv_pos_as_xyz
  1  'x, y, z'
loop_
 _atom_site_type_symbol
 _atom_site_label
 _atom_site_symmetry_multiplicity
 _atom_site_fract_x
 _atom_site_fract_y
 _atom_site_fract_z
 _atom_site_occupancy
  Tb  Tb0  1  0.352878  0.352878  0.352643  1
  Tb  Tb1  1  0.352878  0.352878  0.941600  1
  Tb  Tb2  1  0.353798  0.939094  0.353554  1
  Tb  Tb3  1  0.939094  0.353798  0.353554  1
  Tb  Tb4  1  0.809885  0.190606  0.189891  1
  Tb  Tb5  1  0.190606  0.809885  0.809618  1
  Tb  Tb6  1  0.190606  0.809885  0.189891  1
  Tb  Tb7  1  0.809885  0.190606  0.809618  1
  Tb  Tb8  1  0.188991  0.188991  0.811009  1
  Y  Y9  1  0.808053  0.808053  0.191947  1
  Y  Y10  1  0.937277  0.565075  0.564433  1
  Y  Y11  1  0.565075  0.937277  0.933214  1
  Y  Y12  1  0.565075  0.937277  0.564433  1
  Y  Y13  1  0.937277  0.565075  0.933214  1
  Y  Y14  1  0.565511  0.565511  0.934489  1
  Y  Y15  1  0.936565  0.936565  0.563435  1
  Cd  Cd16  1  0.581697  0.251297  0.583503  1
  Cd  Cd17  1  0.251297  0.581697  0.583503  1
  In  In18  1  0.582550  0.582550  0.583547  1
  In  In19  1  0.582550  0.582550  0.251354  1
  Pd  Pd20  1  0.143794  0.143794  0.145687  1
  Pd  Pd21  1  0.143794  0.143794  0.566724  1
  Pd  Pd22  1  0.143864  0.566998  0.144568  1
  Pd  Pd23  1  0.566998  0.143864  0.144568  1
