# generated using pymatgen
data_CeThCo7Si4
_symmetry_space_group_name_H-M   'P 1'
_cell_length_a   3.78740600
_cell_length_b   9.14634200
_cell_length_c   10.51899800
_cell_angle_alpha   90.00000000
_cell_angle_beta   90.00000000
_cell_angle_gamma   90.00000000
_symmetry_Int_Tables_number   1
_chemical_formula_structural   CeThCo7Si4
_chemical_formula_sum   'Ce2 Th2 Co14 Si8'
_cell_volume   364.38766899
_cell_formula_units_Z   2
loop_
 _symmetry_equiv_pos_site_id
 _symmetry_equiv_pos_as_xyz
  1  'x, y, z'
loop_
 _atom_site_type_symbol
 _atom_site_label
 _atom_site_symmetry_multiplicity
 _atom_site_fract_x
 _atom_site_fract_y
 _atom_site_fract_z
 _atom_site_occupancy
  Ce  Ce0  1  0.000000  0.438452  0.780575  1
  Ce  Ce1  1  0.500000  0.561548  0.280575  1
  Th  Th2  1  0.000000  0.046381  0.017566  1
  Th  Th3  1  0.500000  0.953619  0.517566  1
  Co  Co4  1  0.000000  0.072527  0.318842  1
  Co  Co5  1  0.500000  0.927473  0.818842  1
  Co  Co6  1  0.000000  0.191057  0.558681  1
  Co  Co7  1  0.500000  0.808943  0.058681  1
  Co  Co8  1  0.000000  0.394572  0.072519  1
  Co  Co9  1  0.500000  0.605428  0.572519  1
  Co  Co10  1  0.000000  0.436526  0.469554  1
  Co  Co11  1  0.500000  0.563474  0.969554  1
  Co  Co12  1  0.000000  0.756070  0.895543  1
  Co  Co13  1  0.500000  0.243930  0.395543  1
  Co  Co14  1  0.000000  0.783150  0.669012  1
  Co  Co15  1  0.500000  0.216850  0.169012  1
  Co  Co16  1  0.000000  0.805991  0.256080  1
  Co  Co17  1  0.500000  0.194009  0.756080  1
  Si  Si18  1  0.000000  0.041629  0.733192  1
  Si  Si19  1  0.500000  0.958371  0.233192  1
  Si  Si20  1  0.000000  0.310177  0.277069  1
  Si  Si21  1  0.500000  0.689823  0.777069  1
  Si  Si22  1  0.000000  0.647940  0.081360  1
  Si  Si23  1  0.500000  0.352060  0.581360  1
  Si  Si24  1  0.000000  0.688700  0.465316  1
  Si  Si25  1  0.500000  0.311300  0.965316  1
