# generated using pymatgen
data_Er2TmIn3Ag2Au
_symmetry_space_group_name_H-M   'P 1'
_cell_length_a   7.82630931
_cell_length_b   7.82508233
_cell_length_c   3.89857000
_cell_angle_alpha   90.00000000
_cell_angle_beta   90.00000000
_cell_angle_gamma   119.90608803
_symmetry_Int_Tables_number   1
_chemical_formula_structural   Er2TmIn3Ag2Au
_chemical_formula_sum   'Er2 Tm1 In3 Ag2 Au1'
_cell_volume   206.96270663
_cell_formula_units_Z   1
loop_
 _symmetry_equiv_pos_site_id
 _symmetry_equiv_pos_as_xyz
  1  'x, y, z'
loop_
 _atom_site_type_symbol
 _atom_site_label
 _atom_site_symmetry_multiplicity
 _atom_site_fract_x
 _atom_site_fract_y
 _atom_site_fract_z
 _atom_site_occupancy
  Er  Er0  1  0.407975  0.007211  0.500000  1
  Er  Er1  1  0.992960  0.400902  0.500000  1
  Tm  Tm2  1  0.599403  0.592099  0.500000  1
  In  In3  1  0.733485  0.993654  0.000000  1
  In  In4  1  0.006311  0.739883  0.000000  1
  In  In5  1  0.259669  0.265771  0.000000  1
  Ag  Ag6  1  0.334246  0.666480  0.000000  1
  Ag  Ag7  1  0.999502  0.999663  0.500000  1
  Au  Au8  1  0.666448  0.334339  0.000000  1
