# generated using pymatgen
data_Tm12Tc3Pb2
_symmetry_space_group_name_H-M   'P 1'
_cell_length_a   8.40349780
_cell_length_b   8.40349760
_cell_length_c   8.40349778
_cell_angle_alpha   108.99023389
_cell_angle_beta   108.99024185
_cell_angle_gamma   110.43753034
_symmetry_Int_Tables_number   1
_chemical_formula_structural   Tm12Tc3Pb2
_chemical_formula_sum   'Tm12 Tc3 Pb2'
_cell_volume   456.73629681
_cell_formula_units_Z   1
loop_
 _symmetry_equiv_pos_site_id
 _symmetry_equiv_pos_as_xyz
  1  'x, y, z'
loop_
 _atom_site_type_symbol
 _atom_site_label
 _atom_site_symmetry_multiplicity
 _atom_site_fract_x
 _atom_site_fract_y
 _atom_site_fract_z
 _atom_site_occupancy
  Tm  Tm0  1  0.190709  0.428038  0.237329  1
  Tm  Tm1  1  0.809291  0.571962  0.762671  1
  Tm  Tm2  1  0.190709  0.953382  0.762671  1
  Tm  Tm3  1  0.953382  0.190709  0.762671  1
  Tm  Tm4  1  0.809291  0.046618  0.237329  1
  Tm  Tm5  1  0.046618  0.809291  0.237329  1
  Tm  Tm6  1  0.428038  0.190709  0.237329  1
  Tm  Tm7  1  0.571962  0.809291  0.762671  1
  Tm  Tm8  1  0.306506  0.306506  0.613012  1
  Tm  Tm9  1  0.693494  0.693494  0.386988  1
  Tm  Tm10  1  0.693494  0.306506  0.000000  1
  Tm  Tm11  1  0.306506  0.693494  0.000000  1
  Tc  Tc12  1  0.371221  0.371221  0.000000  1
  Tc  Tc13  1  0.628779  0.628779  0.000000  1
  Tc  Tc14  1  0.000000  0.000000  0.000000  1
  Pb  Pb15  1  0.000000  0.500000  0.500000  1
  Pb  Pb16  1  0.500000  0.000000  0.500000  1
