# generated using pymatgen
data_Lu4Ge2H5
_symmetry_space_group_name_H-M   'P 1'
_cell_length_a   5.76385156
_cell_length_b   7.09302518
_cell_length_c   5.76224700
_cell_angle_alpha   52.05357532
_cell_angle_beta   104.07951492
_cell_angle_gamma   128.01624723
_symmetry_Int_Tables_number   1
_chemical_formula_structural   Lu4Ge2H5
_chemical_formula_sum   'Lu4 Ge2 H5'
_cell_volume   142.83861089
_cell_formula_units_Z   1
loop_
 _symmetry_equiv_pos_site_id
 _symmetry_equiv_pos_as_xyz
  1  'x, y, z'
loop_
 _atom_site_type_symbol
 _atom_site_label
 _atom_site_symmetry_multiplicity
 _atom_site_fract_x
 _atom_site_fract_y
 _atom_site_fract_z
 _atom_site_occupancy
  Lu  Lu0  1  0.972153  0.797369  0.953160  1
  Lu  Lu1  1  0.134976  0.286774  0.138611  1
  Lu  Lu2  1  0.646574  0.472304  0.626470  1
  Lu  Lu3  1  0.460911  0.961081  0.463895  1
  Ge  Ge4  1  0.053552  0.379063  0.546166  1
  Ge  Ge5  1  0.554119  0.879640  0.045530  1
  H  H6  1  0.553091  0.379074  0.044863  1
  H  H7  1  0.782408  0.863517  0.562090  1
  H  H8  1  0.069280  0.895143  0.274548  1
  H  H9  1  0.324815  0.150693  0.529097  1
  H  H10  1  0.037392  0.608027  0.816448  1
