# generated using pymatgen
data_Lu8InGaPd23
_symmetry_space_group_name_H-M   'P 1'
_cell_length_a   8.26369000
_cell_length_b   8.28014000
_cell_length_c   8.04821400
_cell_angle_alpha   90.00000000
_cell_angle_beta   90.00000000
_cell_angle_gamma   90.00000000
_symmetry_Int_Tables_number   1
_chemical_formula_structural   Lu8InGaPd23
_chemical_formula_sum   'Lu8 In1 Ga1 Pd23'
_cell_volume   550.69510026
_cell_formula_units_Z   1
loop_
 _symmetry_equiv_pos_site_id
 _symmetry_equiv_pos_as_xyz
  1  'x, y, z'
loop_
 _atom_site_type_symbol
 _atom_site_label
 _atom_site_symmetry_multiplicity
 _atom_site_fract_x
 _atom_site_fract_y
 _atom_site_fract_z
 _atom_site_occupancy
  Lu  Lu0  1  0.266307  0.240522  0.748346  1
  Lu  Lu1  1  0.252230  0.746146  0.252845  1
  Lu  Lu2  1  0.747770  0.253854  0.252845  1
  Lu  Lu3  1  0.733693  0.759478  0.748346  1
  Lu  Lu4  1  0.747770  0.746146  0.252845  1
  Lu  Lu5  1  0.733693  0.240522  0.748346  1
  Lu  Lu6  1  0.266307  0.759478  0.748346  1
  Lu  Lu7  1  0.252230  0.253854  0.252845  1
  In  In8  1  0.000000  0.500000  0.732962  1
  Ga  Ga9  1  0.000000  0.000000  0.001159  1
  Pd  Pd10  1  0.500000  0.500000  0.747872  1
  Pd  Pd11  1  0.500000  0.253450  0.496851  1
  Pd  Pd12  1  0.255601  0.500000  0.504216  1
  Pd  Pd13  1  0.500000  0.500000  0.252447  1
  Pd  Pd14  1  0.500000  0.746550  0.496851  1
  Pd  Pd15  1  0.744399  0.500000  0.504216  1
  Pd  Pd16  1  0.000000  0.000000  0.709978  1
  Pd  Pd17  1  0.000000  0.288018  0.992691  1
  Pd  Pd18  1  0.287226  0.000000  0.004374  1
  Pd  Pd19  1  0.000000  0.000000  0.292630  1
  Pd  Pd20  1  0.000000  0.711982  0.992691  1
  Pd  Pd21  1  0.712774  0.000000  0.004374  1
  Pd  Pd22  1  0.500000  0.258527  0.004104  1
  Pd  Pd23  1  0.260016  0.000000  0.497945  1
  Pd  Pd24  1  0.000000  0.258934  0.503421  1
  Pd  Pd25  1  0.500000  0.000000  0.741822  1
  Pd  Pd26  1  0.259378  0.500000  0.995402  1
  Pd  Pd27  1  0.000000  0.500000  0.258064  1
  Pd  Pd28  1  0.500000  0.741473  0.004104  1
  Pd  Pd29  1  0.000000  0.741066  0.503421  1
  Pd  Pd30  1  0.500000  0.000000  0.260288  1
  Pd  Pd31  1  0.739984  0.000000  0.497945  1
  Pd  Pd32  1  0.740622  0.500000  0.995402  1
