# generated using pymatgen
data_Sr8Y3Ho(GaO5)4
_symmetry_space_group_name_H-M   'P 1'
_cell_length_a   5.96751302
_cell_length_b   7.63756085
_cell_length_c   12.49121068
_cell_angle_alpha   91.42817805
_cell_angle_beta   90.00500903
_cell_angle_gamma   90.00809746
_symmetry_Int_Tables_number   1
_chemical_formula_structural   Sr8Y3Ho(GaO5)4
_chemical_formula_sum   'Sr8 Y3 Ho1 Ga4 O20'
_cell_volume   569.13809075
_cell_formula_units_Z   1
loop_
 _symmetry_equiv_pos_site_id
 _symmetry_equiv_pos_as_xyz
  1  'x, y, z'
loop_
 _atom_site_type_symbol
 _atom_site_label
 _atom_site_symmetry_multiplicity
 _atom_site_fract_x
 _atom_site_fract_y
 _atom_site_fract_z
 _atom_site_occupancy
  Sr  Sr0  1  0.772624  0.486383  0.330147  1
  Sr  Sr1  1  0.727228  0.986677  0.829777  1
  Sr  Sr2  1  0.227446  0.513083  0.669854  1
  Sr  Sr3  1  0.272686  0.013516  0.170175  1
  Sr  Sr4  1  0.772106  0.985533  0.367701  1
  Sr  Sr5  1  0.727817  0.485176  0.867232  1
  Sr  Sr6  1  0.228090  0.015049  0.632396  1
  Sr  Sr7  1  0.272145  0.514719  0.132596  1
  Y  Y8  1  0.744820  0.771111  0.119783  1
  Y  Y9  1  0.244845  0.728926  0.380311  1
  Y  Y10  1  0.255172  0.228963  0.880003  1
  Ho  Ho11  1  0.755761  0.270554  0.620207  1
  Ga  Ga12  1  0.719745  0.742275  0.580255  1
  Ga  Ga13  1  0.780325  0.242183  0.080097  1
  Ga  Ga14  1  0.280475  0.257937  0.420385  1
  Ga  Ga15  1  0.219637  0.757835  0.919877  1
  O  O16  1  0.789271  0.971735  0.628390  1
  O  O17  1  0.710195  0.470592  0.128621  1
  O  O18  1  0.210362  0.029543  0.371436  1
  O  O19  1  0.289735  0.529274  0.871346  1
  O  O20  1  0.716343  0.068269  0.177428  1
  O  O21  1  0.783341  0.566923  0.676848  1
  O  O22  1  0.283604  0.931902  0.822571  1
  O  O23  1  0.216531  0.431589  0.322731  1
  O  O24  1  0.541390  0.747258  0.275710  1
  O  O25  1  0.958376  0.247323  0.774942  1
  O  O26  1  0.460232  0.252781  0.723830  1
  O  O27  1  0.041437  0.752701  0.224273  1
  O  O28  1  0.597379  0.212521  0.959861  1
  O  O29  1  0.902516  0.712751  0.460022  1
  O  O30  1  0.402497  0.787475  0.040028  1
  O  O31  1  0.095705  0.287232  0.540174  1
  O  O32  1  0.089895  0.236850  0.046868  1
  O  O33  1  0.410186  0.737013  0.547090  1
  O  O34  1  0.910088  0.763114  0.952884  1
  O  O35  1  0.589996  0.263231  0.454150  1
