# generated using pymatgen
data_BaPr2Tm(AsPt)4
_symmetry_space_group_name_H-M   'P 1'
_cell_length_a   4.35492000
_cell_length_b   4.35492156
_cell_length_c   16.67852900
_cell_angle_alpha   90.00000000
_cell_angle_beta   90.00000000
_cell_angle_gamma   120.00001852
_symmetry_Int_Tables_number   1
_chemical_formula_structural   BaPr2Tm(AsPt)4
_chemical_formula_sum   'Ba1 Pr2 Tm1 As4 Pt4'
_cell_volume   273.93581311
_cell_formula_units_Z   1
loop_
 _symmetry_equiv_pos_site_id
 _symmetry_equiv_pos_as_xyz
  1  'x, y, z'
loop_
 _atom_site_type_symbol
 _atom_site_label
 _atom_site_symmetry_multiplicity
 _atom_site_fract_x
 _atom_site_fract_y
 _atom_site_fract_z
 _atom_site_occupancy
  Ba  Ba0  1  0.000000  0.000000  0.250000  1
  Pr  Pr1  1  0.000000  0.000000  0.516260  1
  Pr  Pr2  1  0.000000  0.000000  0.983740  1
  Tm  Tm3  1  0.000000  0.000000  0.750000  1
  As  As4  1  0.333333  0.666667  0.868542  1
  As  As5  1  0.666667  0.333333  0.105091  1
  As  As6  1  0.666667  0.333333  0.394909  1
  As  As7  1  0.333333  0.666667  0.631458  1
  Pt  Pt8  1  0.333333  0.666667  0.398569  1
  Pt  Pt9  1  0.666667  0.333333  0.652027  1
  Pt  Pt10  1  0.666667  0.333333  0.847973  1
  Pt  Pt11  1  0.333333  0.666667  0.101431  1
