# generated using pymatgen
data_Dy3YAl17SiIr6
_symmetry_space_group_name_H-M   'P 1'
_cell_length_a   7.55070688
_cell_length_b   7.54927888
_cell_length_c   9.41776500
_cell_angle_alpha   90.00000000
_cell_angle_beta   90.00000000
_cell_angle_gamma   119.60709465
_symmetry_Int_Tables_number   1
_chemical_formula_structural   Dy3YAl17SiIr6
_chemical_formula_sum   'Dy3 Y1 Al17 Si1 Ir6'
_cell_volume   466.74258784
_cell_formula_units_Z   1
loop_
 _symmetry_equiv_pos_site_id
 _symmetry_equiv_pos_as_xyz
  1  'x, y, z'
loop_
 _atom_site_type_symbol
 _atom_site_label
 _atom_site_symmetry_multiplicity
 _atom_site_fract_x
 _atom_site_fract_y
 _atom_site_fract_z
 _atom_site_occupancy
  Dy  Dy0  1  0.005106  0.324945  0.250000  1
  Dy  Dy1  1  0.670799  0.995392  0.750000  1
  Dy  Dy2  1  0.324882  0.005139  0.250000  1
  Y  Y3  1  0.995255  0.670768  0.750000  1
  Al  Al4  1  0.127011  0.127144  0.750000  1
  Al  Al5  1  0.001088  0.334746  0.574940  1
  Al  Al6  1  0.999072  0.663246  0.423099  1
  Al  Al7  1  0.999072  0.663246  0.076901  1
  Al  Al8  1  0.334871  0.001201  0.925020  1
  Al  Al9  1  0.001088  0.334746  0.925060  1
  Al  Al10  1  0.663296  0.999039  0.076742  1
  Al  Al11  1  0.663296  0.999039  0.423258  1
  Al  Al12  1  0.334871  0.001201  0.574980  1
  Al  Al13  1  0.335379  0.335363  0.051720  1
  Al  Al14  1  0.666698  0.666778  0.945065  1
  Al  Al15  1  0.666698  0.666778  0.554935  1
  Al  Al16  1  0.335379  0.335363  0.448280  1
  Al  Al17  1  0.339693  0.548820  0.750000  1
  Al  Al18  1  0.663228  0.451079  0.250000  1
  Al  Al19  1  0.548539  0.339099  0.750000  1
  Al  Al20  1  0.451105  0.663282  0.250000  1
  Si  Si21  1  0.870195  0.870259  0.250000  1
  Ir  Ir22  1  0.672918  0.329501  0.499390  1
  Ir  Ir23  1  0.329569  0.672974  0.499401  1
  Ir  Ir24  1  0.329569  0.672974  0.000599  1
  Ir  Ir25  1  0.672918  0.329501  0.000610  1
  Ir  Ir26  1  0.999203  0.999192  0.493190  1
  Ir  Ir27  1  0.999203  0.999192  0.006810  1
