# generated using pymatgen
data_Pr16Nd4Rh13Au3
_symmetry_space_group_name_H-M   'P 1'
_cell_length_a   7.91149421
_cell_length_b   7.69903819
_cell_length_c   15.08629700
_cell_angle_alpha   90.00000000
_cell_angle_beta   90.00000000
_cell_angle_gamma   90.21469114
_symmetry_Int_Tables_number   1
_chemical_formula_structural   Pr16Nd4Rh13Au3
_chemical_formula_sum   'Pr16 Nd4 Rh13 Au3'
_cell_volume   918.91341700
_cell_formula_units_Z   1
loop_
 _symmetry_equiv_pos_site_id
 _symmetry_equiv_pos_as_xyz
  1  'x, y, z'
loop_
 _atom_site_type_symbol
 _atom_site_label
 _atom_site_symmetry_multiplicity
 _atom_site_fract_x
 _atom_site_fract_y
 _atom_site_fract_z
 _atom_site_occupancy
  Pr  Pr0  1  0.671570  0.162527  0.614934  1
  Pr  Pr1  1  0.168771  0.338045  0.884288  1
  Pr  Pr2  1  0.320422  0.838984  0.120344  1
  Pr  Pr3  1  0.838946  0.667311  0.381318  1
  Pr  Pr4  1  0.320422  0.838984  0.379656  1
  Pr  Pr5  1  0.838946  0.667311  0.118682  1
  Pr  Pr6  1  0.671570  0.162527  0.885066  1
  Pr  Pr7  1  0.168771  0.338045  0.615712  1
  Pr  Pr8  1  0.530829  0.690955  0.587180  1
  Pr  Pr9  1  0.031865  0.810269  0.908116  1
  Pr  Pr10  1  0.472667  0.310587  0.095449  1
  Pr  Pr11  1  0.972679  0.182076  0.404260  1
  Pr  Pr12  1  0.472667  0.310587  0.404551  1
  Pr  Pr13  1  0.972679  0.182076  0.095740  1
  Pr  Pr14  1  0.530829  0.690955  0.912820  1
  Pr  Pr15  1  0.031865  0.810269  0.591884  1
  Nd  Nd16  1  0.837031  0.518086  0.750000  1
  Nd  Nd17  1  0.340408  0.983712  0.750000  1
  Nd  Nd18  1  0.160137  0.487807  0.250000  1
  Nd  Nd19  1  0.667615  0.011196  0.250000  1
  Rh  Rh20  1  0.664531  0.971782  0.451749  1
  Rh  Rh21  1  0.169200  0.526539  0.047282  1
  Rh  Rh22  1  0.331319  0.030213  0.953522  1
  Rh  Rh23  1  0.834109  0.471922  0.546889  1
  Rh  Rh24  1  0.331319  0.030213  0.546478  1
  Rh  Rh25  1  0.834109  0.471922  0.953111  1
  Rh  Rh26  1  0.664531  0.971782  0.048251  1
  Rh  Rh27  1  0.169200  0.526539  0.452718  1
  Rh  Rh28  1  0.032585  0.895800  0.250000  1
  Rh  Rh29  1  0.690263  0.858552  0.750000  1
  Rh  Rh30  1  0.196479  0.640684  0.750000  1
  Rh  Rh31  1  0.294709  0.141540  0.250000  1
  Rh  Rh32  1  0.802973  0.359074  0.250000  1
  Au  Au33  1  0.463640  0.401454  0.750000  1
  Au  Au34  1  0.961751  0.097045  0.750000  1
  Au  Au35  1  0.538596  0.602631  0.250000  1
