# generated using pymatgen
data_Cs12In2SbAs5
_symmetry_space_group_name_H-M   'P 1'
_cell_length_a   6.49328700
_cell_length_b   10.90309123
_cell_length_c   12.65291021
_cell_angle_alpha   78.12978354
_cell_angle_beta   90.00000000
_cell_angle_gamma   90.00000000
_symmetry_Int_Tables_number   1
_chemical_formula_structural   Cs12In2SbAs5
_chemical_formula_sum   'Cs12 In2 Sb1 As5'
_cell_volume   876.63135786
_cell_formula_units_Z   1
loop_
 _symmetry_equiv_pos_site_id
 _symmetry_equiv_pos_as_xyz
  1  'x, y, z'
loop_
 _atom_site_type_symbol
 _atom_site_label
 _atom_site_symmetry_multiplicity
 _atom_site_fract_x
 _atom_site_fract_y
 _atom_site_fract_z
 _atom_site_occupancy
  Cs  Cs0  1  0.750000  0.464839  0.071694  1
  Cs  Cs1  1  0.250000  0.537605  0.922888  1
  Cs  Cs2  1  0.750000  0.742752  0.227731  1
  Cs  Cs3  1  0.250000  0.262496  0.771420  1
  Cs  Cs4  1  0.250000  0.565292  0.534129  1
  Cs  Cs5  1  0.750000  0.435544  0.470373  1
  Cs  Cs6  1  0.250000  0.858246  0.015560  1
  Cs  Cs7  1  0.750000  0.131773  0.969941  1
  Cs  Cs8  1  0.250000  0.879158  0.676880  1
  Cs  Cs9  1  0.750000  0.119999  0.326648  1
  Cs  Cs10  1  0.250000  0.914619  0.370042  1
  Cs  Cs11  1  0.750000  0.077313  0.635467  1
  In  In12  1  0.250000  0.334138  0.287198  1
  In  In13  1  0.750000  0.672528  0.720876  1
  Sb  Sb14  1  0.250000  0.186216  0.119726  1
  As  As15  1  0.750000  0.811368  0.874587  1
  As  As16  1  0.250000  0.213191  0.491858  1
  As  As17  1  0.750000  0.787985  0.512494  1
  As  As18  1  0.250000  0.579267  0.227783  1
  As  As19  1  0.750000  0.425672  0.772705  1
