# generated using pymatgen
data_K3PSe3
_symmetry_space_group_name_H-M   'P 1'
_cell_length_a   9.84000700
_cell_length_b   9.84000700
_cell_length_c   9.84000700
_cell_angle_alpha   90.00000000
_cell_angle_beta   90.00000000
_cell_angle_gamma   90.00000000
_symmetry_Int_Tables_number   1
_chemical_formula_structural   K3PSe3
_chemical_formula_sum   'K12 P4 Se12'
_cell_volume   952.76593734
_cell_formula_units_Z   4
loop_
 _symmetry_equiv_pos_site_id
 _symmetry_equiv_pos_as_xyz
  1  'x, y, z'
loop_
 _atom_site_type_symbol
 _atom_site_label
 _atom_site_symmetry_multiplicity
 _atom_site_fract_x
 _atom_site_fract_y
 _atom_site_fract_z
 _atom_site_occupancy
  K  K0  1  0.060240  0.560240  0.939760  1
  K  K1  1  0.560240  0.939760  0.060240  1
  K  K2  1  0.939760  0.060240  0.560240  1
  K  K3  1  0.439760  0.439760  0.439760  1
  K  K4  1  0.567132  0.067132  0.432868  1
  K  K5  1  0.067132  0.432868  0.567132  1
  K  K6  1  0.432868  0.567132  0.067132  1
  K  K7  1  0.932868  0.932868  0.932868  1
  K  K8  1  0.827626  0.327626  0.172374  1
  K  K9  1  0.327626  0.172374  0.827626  1
  K  K10  1  0.172374  0.827626  0.327626  1
  K  K11  1  0.672374  0.672374  0.672374  1
  P  P12  1  0.268660  0.768660  0.731340  1
  P  P13  1  0.768660  0.731340  0.268660  1
  P  P14  1  0.731340  0.268660  0.768660  1
  P  P15  1  0.231340  0.231340  0.231340  1
  Se  Se16  1  0.253846  0.845452  0.952919  1
  Se  Se17  1  0.047081  0.753846  0.654548  1
  Se  Se18  1  0.345452  0.547081  0.746154  1
  Se  Se19  1  0.753846  0.654548  0.047081  1
  Se  Se20  1  0.547081  0.746154  0.345452  1
  Se  Se21  1  0.845452  0.952919  0.253846  1
  Se  Se22  1  0.746154  0.345452  0.547081  1
  Se  Se23  1  0.952919  0.253846  0.845452  1
  Se  Se24  1  0.654548  0.047081  0.753846  1
  Se  Se25  1  0.246154  0.154548  0.452919  1
  Se  Se26  1  0.452919  0.246154  0.154548  1
  Se  Se27  1  0.154548  0.452919  0.246154  1
