# generated using pymatgen
data_Er16Mg3InPd4
_symmetry_space_group_name_H-M   'P 1'
_cell_length_a   9.65992964
_cell_length_b   9.69251484
_cell_length_c   9.69251600
_cell_angle_alpha   60.00000286
_cell_angle_beta   59.88835435
_cell_angle_gamma   59.88835089
_symmetry_Int_Tables_number   1
_chemical_formula_structural   Er16Mg3InPd4
_chemical_formula_sum   'Er16 Mg3 In1 Pd4'
_cell_volume   640.61487313
_cell_formula_units_Z   1
loop_
 _symmetry_equiv_pos_site_id
 _symmetry_equiv_pos_as_xyz
  1  'x, y, z'
loop_
 _atom_site_type_symbol
 _atom_site_label
 _atom_site_symmetry_multiplicity
 _atom_site_fract_x
 _atom_site_fract_y
 _atom_site_fract_z
 _atom_site_occupancy
  Er  Er0  1  0.352033  0.352923  0.352923  1
  Er  Er1  1  0.352033  0.352923  0.942120  1
  Er  Er2  1  0.352033  0.942120  0.352923  1
  Er  Er3  1  0.944301  0.351899  0.351899  1
  Er  Er4  1  0.812965  0.187400  0.187400  1
  Er  Er5  1  0.188995  0.811326  0.811326  1
  Er  Er6  1  0.188995  0.811326  0.188351  1
  Er  Er7  1  0.812965  0.187400  0.812236  1
  Er  Er8  1  0.188995  0.188351  0.811326  1
  Er  Er9  1  0.812965  0.812236  0.187400  1
  Er  Er10  1  0.934525  0.566609  0.566609  1
  Er  Er11  1  0.566731  0.932927  0.932927  1
  Er  Er12  1  0.566731  0.932927  0.567415  1
  Er  Er13  1  0.934525  0.566609  0.932259  1
  Er  Er14  1  0.566731  0.567415  0.932927  1
  Er  Er15  1  0.934525  0.932259  0.566609  1
  Mg  Mg16  1  0.579138  0.580992  0.580992  1
  Mg  Mg17  1  0.579138  0.580992  0.258878  1
  Mg  Mg18  1  0.579138  0.258878  0.580992  1
  In  In19  1  0.252865  0.582378  0.582378  1
  Pd  Pd20  1  0.144368  0.144241  0.144241  1
  Pd  Pd21  1  0.144368  0.144241  0.567149  1
  Pd  Pd22  1  0.144368  0.567149  0.144241  1
  Pd  Pd23  1  0.566567  0.144477  0.144477  1
