# generated using pymatgen
data_HoBi5(PtO6)3
_symmetry_space_group_name_H-M   'P 1'
_cell_length_a   9.26134478
_cell_length_b   9.25918031
_cell_length_c   5.16611614
_cell_angle_alpha   89.99968439
_cell_angle_beta   90.17521907
_cell_angle_gamma   119.99199828
_symmetry_Int_Tables_number   1
_chemical_formula_structural   HoBi5(PtO6)3
_chemical_formula_sum   'Ho1 Bi5 Pt3 O18'
_cell_volume   383.68400946
_cell_formula_units_Z   1
loop_
 _symmetry_equiv_pos_site_id
 _symmetry_equiv_pos_as_xyz
  1  'x, y, z'
loop_
 _atom_site_type_symbol
 _atom_site_label
 _atom_site_symmetry_multiplicity
 _atom_site_fract_x
 _atom_site_fract_y
 _atom_site_fract_z
 _atom_site_occupancy
  Ho  Ho0  1  0.000001  0.373725  0.499993  1
  Bi  Bi1  1  0.291420  0.294317  0.000557  1
  Bi  Bi2  1  0.999998  0.703084  0.000000  1
  Bi  Bi3  1  0.626188  0.627405  0.498966  1
  Bi  Bi4  1  0.373810  0.001211  0.501019  1
  Bi  Bi5  1  0.708580  0.002899  0.999434  1
  Pt  Pt6  1  0.999998  0.000697  0.500010  1
  Pt  Pt7  1  0.332128  0.665551  0.999952  1
  Pt  Pt8  1  0.667873  0.333422  0.000041  1
  O  O9  1  0.089135  0.209353  0.714857  1
  O  O10  1  0.219841  0.455709  0.217014  1
  O  O11  1  0.125613  0.584875  0.781458  1
  O  O12  1  0.406438  0.535781  0.785428  1
  O  O13  1  0.232320  0.775295  0.214378  1
  O  O14  1  0.117749  0.912778  0.719274  1
  O  O15  1  0.542821  0.767674  0.213101  1
  O  O16  1  0.204512  0.088091  0.279407  1
  O  O17  1  0.463048  0.870035  0.784879  1
  O  O18  1  0.795489  0.883572  0.720619  1
  O  O19  1  0.457182  0.224845  0.786897  1
  O  O20  1  0.593562  0.129344  0.214563  1
  O  O21  1  0.536955  0.406987  0.215111  1
  O  O22  1  0.780167  0.235877  0.782983  1
  O  O23  1  0.910853  0.120211  0.285168  1
  O  O24  1  0.767675  0.542975  0.785623  1
  O  O25  1  0.874387  0.459260  0.218528  1
  O  O26  1  0.882258  0.795028  0.280742  1
