# generated using pymatgen
data_Sr5Tb(PtO6)2
_symmetry_space_group_name_H-M   'P 1'
_cell_length_a   5.85900259
_cell_length_b   6.01850744
_cell_length_c   8.35079225
_cell_angle_alpha   89.91401082
_cell_angle_beta   90.59302865
_cell_angle_gamma   90.05501267
_symmetry_Int_Tables_number   1
_chemical_formula_structural   Sr5Tb(PtO6)2
_chemical_formula_sum   'Sr5 Tb1 Pt2 O12'
_cell_volume   294.45316388
_cell_formula_units_Z   1
loop_
 _symmetry_equiv_pos_site_id
 _symmetry_equiv_pos_as_xyz
  1  'x, y, z'
loop_
 _atom_site_type_symbol
 _atom_site_label
 _atom_site_symmetry_multiplicity
 _atom_site_fract_x
 _atom_site_fract_y
 _atom_site_fract_z
 _atom_site_occupancy
  Sr  Sr0  1  0.487271  0.549106  0.252694  1
  Sr  Sr1  1  0.984614  0.950101  0.746827  1
  Sr  Sr2  1  0.512729  0.450894  0.747306  1
  Sr  Sr3  1  0.015386  0.049899  0.253173  1
  Sr  Sr4  1  0.500000  0.000000  0.000000  1
  Tb  Tb5  1  0.000000  0.500000  0.500000  1
  Pt  Pt6  1  0.000000  0.500000  0.000000  1
  Pt  Pt7  1  0.500000  0.000000  0.500000  1
  O  O8  1  0.226729  0.798565  0.456526  1
  O  O9  1  0.724934  0.678212  0.953118  1
  O  O10  1  0.773271  0.201435  0.543474  1
  O  O11  1  0.275066  0.321788  0.046882  1
  O  O12  1  0.696042  0.727334  0.549848  1
  O  O13  1  0.171326  0.772376  0.052414  1
  O  O14  1  0.303958  0.272666  0.450152  1
  O  O15  1  0.828674  0.227624  0.947586  1
  O  O16  1  0.591939  0.969553  0.276584  1
  O  O17  1  0.086543  0.529376  0.764774  1
  O  O18  1  0.408061  0.030447  0.723416  1
  O  O19  1  0.913457  0.470624  0.235226  1
