# generated using pymatgen
data_SmMoH9
_symmetry_space_group_name_H-M   'P 1'
_cell_length_a   4.76339200
_cell_length_b   4.76339245
_cell_length_c   8.85981100
_cell_angle_alpha   90.00000000
_cell_angle_beta   90.00000000
_cell_angle_gamma   119.99999687
_symmetry_Int_Tables_number   1
_chemical_formula_structural   SmMoH9
_chemical_formula_sum   'Sm2 Mo2 H18'
_cell_volume   174.09559786
_cell_formula_units_Z   2
loop_
 _symmetry_equiv_pos_site_id
 _symmetry_equiv_pos_as_xyz
  1  'x, y, z'
loop_
 _atom_site_type_symbol
 _atom_site_label
 _atom_site_symmetry_multiplicity
 _atom_site_fract_x
 _atom_site_fract_y
 _atom_site_fract_z
 _atom_site_occupancy
  Sm  Sm0  1  0.000000  0.000000  0.000000  1
  Sm  Sm1  1  0.000000  0.000000  0.500000  1
  Mo  Mo2  1  0.333333  0.666667  0.250000  1
  Mo  Mo3  1  0.666667  0.333333  0.750000  1
  H  H4  1  0.483478  0.516522  0.392349  1
  H  H5  1  0.483478  0.966955  0.392349  1
  H  H6  1  0.033045  0.516522  0.392349  1
  H  H7  1  0.966955  0.483478  0.892349  1
  H  H8  1  0.127067  0.254134  0.250000  1
  H  H9  1  0.872933  0.127067  0.750000  1
  H  H10  1  0.254134  0.127067  0.750000  1
  H  H11  1  0.745866  0.872933  0.250000  1
  H  H12  1  0.127067  0.872933  0.250000  1
  H  H13  1  0.872933  0.745866  0.750000  1
  H  H14  1  0.483478  0.966955  0.107651  1
  H  H15  1  0.516522  0.483478  0.607651  1
  H  H16  1  0.966955  0.483478  0.607651  1
  H  H17  1  0.033045  0.516522  0.107651  1
  H  H18  1  0.483478  0.516522  0.107651  1
  H  H19  1  0.516522  0.033045  0.892349  1
  H  H20  1  0.516522  0.483478  0.892349  1
  H  H21  1  0.516522  0.033045  0.607651  1
