# generated using pymatgen
data_Zr15Ti(Cu2N)4
_symmetry_space_group_name_H-M   'P 1'
_cell_length_a   8.69431593
_cell_length_b   8.69431609
_cell_length_c   8.69431648
_cell_angle_alpha   59.89731864
_cell_angle_beta   59.89731979
_cell_angle_gamma   59.89731972
_symmetry_Int_Tables_number   1
_chemical_formula_structural   Zr15Ti(Cu2N)4
_chemical_formula_sum   'Zr15 Ti1 Cu8 N4'
_cell_volume   463.63734400
_cell_formula_units_Z   1
loop_
 _symmetry_equiv_pos_site_id
 _symmetry_equiv_pos_as_xyz
  1  'x, y, z'
loop_
 _atom_site_type_symbol
 _atom_site_label
 _atom_site_symmetry_multiplicity
 _atom_site_fract_x
 _atom_site_fract_y
 _atom_site_fract_z
 _atom_site_occupancy
  Zr  Zr0  1  0.125000  0.625000  0.625000  1
  Zr  Zr1  1  0.625000  0.125000  0.625000  1
  Zr  Zr2  1  0.625000  0.625000  0.125000  1
  Zr  Zr3  1  0.817863  0.817863  0.184706  1
  Zr  Zr4  1  0.181926  0.181926  0.817766  1
  Zr  Zr5  1  0.817863  0.184706  0.817863  1
  Zr  Zr6  1  0.181926  0.817766  0.181926  1
  Zr  Zr7  1  0.184706  0.817863  0.817863  1
  Zr  Zr8  1  0.817766  0.181926  0.181926  1
  Zr  Zr9  1  0.432137  0.432137  0.065294  1
  Zr  Zr10  1  0.068074  0.068074  0.432234  1
  Zr  Zr11  1  0.432137  0.065294  0.432137  1
  Zr  Zr12  1  0.068074  0.432234  0.068074  1
  Zr  Zr13  1  0.065294  0.432137  0.432137  1
  Zr  Zr14  1  0.432234  0.068074  0.068074  1
  Ti  Ti15  1  0.625000  0.625000  0.625000  1
  Cu  Cu16  1  0.741791  0.425374  0.425374  1
  Cu  Cu17  1  0.425374  0.741791  0.425374  1
  Cu  Cu18  1  0.425374  0.425374  0.741791  1
  Cu  Cu19  1  0.415182  0.415182  0.415182  1
  Cu  Cu20  1  0.508209  0.824626  0.824626  1
  Cu  Cu21  1  0.824626  0.508209  0.824626  1
  Cu  Cu22  1  0.824626  0.824626  0.508209  1
  Cu  Cu23  1  0.834818  0.834818  0.834818  1
  N  N24  1  0.625000  0.125000  0.125000  1
  N  N25  1  0.125000  0.625000  0.125000  1
  N  N26  1  0.125000  0.125000  0.625000  1
  N  N27  1  0.125000  0.125000  0.125000  1
