# generated using pymatgen
data_Y16In3HgIrRh3
_symmetry_space_group_name_H-M   'P 1'
_cell_length_a   9.70028748
_cell_length_b   9.70028683
_cell_length_c   9.70028806
_cell_angle_alpha   59.96970886
_cell_angle_beta   59.96971132
_cell_angle_gamma   59.96971456
_symmetry_Int_Tables_number   1
_chemical_formula_structural   Y16In3HgIrRh3
_chemical_formula_sum   'Y16 In3 Hg1 Ir1 Rh3'
_cell_volume   644.97134397
_cell_formula_units_Z   1
loop_
 _symmetry_equiv_pos_site_id
 _symmetry_equiv_pos_as_xyz
  1  'x, y, z'
loop_
 _atom_site_type_symbol
 _atom_site_label
 _atom_site_symmetry_multiplicity
 _atom_site_fract_x
 _atom_site_fract_y
 _atom_site_fract_z
 _atom_site_occupancy
  Y  Y0  1  0.810044  0.186046  0.810044  1
  Y  Y1  1  0.935034  0.563220  0.563220  1
  Y  Y2  1  0.563220  0.935034  0.563220  1
  Y  Y3  1  0.809674  0.190076  0.190076  1
  Y  Y4  1  0.190076  0.809674  0.190076  1
  Y  Y5  1  0.351835  0.947978  0.351835  1
  Y  Y6  1  0.939749  0.939749  0.559350  1
  Y  Y7  1  0.559350  0.939749  0.939749  1
  Y  Y8  1  0.186046  0.810044  0.810044  1
  Y  Y9  1  0.351835  0.351835  0.947978  1
  Y  Y10  1  0.563220  0.563220  0.935034  1
  Y  Y11  1  0.348222  0.348222  0.348222  1
  Y  Y12  1  0.190076  0.190076  0.809674  1
  Y  Y13  1  0.810044  0.810044  0.186046  1
  Y  Y14  1  0.939749  0.559350  0.939749  1
  Y  Y15  1  0.947978  0.351835  0.351835  1
  In  In16  1  0.582351  0.252673  0.582351  1
  In  In17  1  0.582351  0.582351  0.252673  1
  In  In18  1  0.252673  0.582351  0.582351  1
  Hg  Hg19  1  0.586169  0.586169  0.586169  1
  Ir  Ir20  1  0.143067  0.143067  0.143067  1
  Rh  Rh21  1  0.141434  0.141434  0.574371  1
  Rh  Rh22  1  0.574371  0.141434  0.141434  1
  Rh  Rh23  1  0.141434  0.574371  0.141434  1
