# generated using pymatgen
data_DyTm2Mg(Co4P3)2
_symmetry_space_group_name_H-M   'P 1'
_cell_length_a   3.72219700
_cell_length_b   10.60208700
_cell_length_c   12.24298600
_cell_angle_alpha   90.00000000
_cell_angle_beta   90.00000000
_cell_angle_gamma   90.00000000
_symmetry_Int_Tables_number   1
_chemical_formula_structural   DyTm2Mg(Co4P3)2
_chemical_formula_sum   'Dy2 Tm4 Mg2 Co16 P12'
_cell_volume   483.14564733
_cell_formula_units_Z   2
loop_
 _symmetry_equiv_pos_site_id
 _symmetry_equiv_pos_as_xyz
  1  'x, y, z'
loop_
 _atom_site_type_symbol
 _atom_site_label
 _atom_site_symmetry_multiplicity
 _atom_site_fract_x
 _atom_site_fract_y
 _atom_site_fract_z
 _atom_site_occupancy
  Dy  Dy0  1  0.000000  0.500000  0.526293  1
  Dy  Dy1  1  0.500000  0.000000  0.473707  1
  Tm  Tm2  1  0.500000  0.822628  0.206214  1
  Tm  Tm3  1  0.500000  0.177372  0.206214  1
  Tm  Tm4  1  0.000000  0.677372  0.793786  1
  Tm  Tm5  1  0.000000  0.322628  0.793786  1
  Mg  Mg6  1  0.500000  0.500000  0.156340  1
  Mg  Mg7  1  0.000000  0.000000  0.843660  1
  Co  Co8  1  0.500000  0.500000  0.706132  1
  Co  Co9  1  0.000000  0.000000  0.293868  1
  Co  Co10  1  0.000000  0.500000  0.988542  1
  Co  Co11  1  0.500000  0.000000  0.011458  1
  Co  Co12  1  0.500000  0.332480  0.996654  1
  Co  Co13  1  0.500000  0.667520  0.996654  1
  Co  Co14  1  0.000000  0.167520  0.003346  1
  Co  Co15  1  0.000000  0.832480  0.003346  1
  Co  Co16  1  0.500000  0.296228  0.431724  1
  Co  Co17  1  0.500000  0.703772  0.431724  1
  Co  Co18  1  0.000000  0.203772  0.568276  1
  Co  Co19  1  0.000000  0.796228  0.568276  1
  Co  Co20  1  0.500000  0.877171  0.706372  1
  Co  Co21  1  0.500000  0.122829  0.706372  1
  Co  Co22  1  0.000000  0.622829  0.293628  1
  Co  Co23  1  0.000000  0.377171  0.293628  1
  P  P24  1  0.500000  0.500000  0.884807  1
  P  P25  1  0.000000  0.000000  0.115193  1
  P  P26  1  0.500000  0.500000  0.355490  1
  P  P27  1  0.000000  0.000000  0.644510  1
  P  P28  1  0.500000  0.309904  0.616377  1
  P  P29  1  0.500000  0.690096  0.616377  1
  P  P30  1  0.000000  0.190096  0.383623  1
  P  P31  1  0.000000  0.809904  0.383623  1
  P  P32  1  0.500000  0.838056  0.892203  1
  P  P33  1  0.500000  0.161944  0.892203  1
  P  P34  1  0.000000  0.661944  0.107797  1
  P  P35  1  0.000000  0.338056  0.107797  1
