# generated using pymatgen
data_LiHf2Zr(NiAs)4
_symmetry_space_group_name_H-M   'P 1'
_cell_length_a   3.86625300
_cell_length_b   6.45452402
_cell_length_c   7.27675136
_cell_angle_alpha   90.51026557
_cell_angle_beta   90.00000000
_cell_angle_gamma   90.00000000
_symmetry_Int_Tables_number   1
_chemical_formula_structural   LiHf2Zr(NiAs)4
_chemical_formula_sum   'Li1 Hf2 Zr1 Ni4 As4'
_cell_volume   181.58283990
_cell_formula_units_Z   1
loop_
 _symmetry_equiv_pos_site_id
 _symmetry_equiv_pos_as_xyz
  1  'x, y, z'
loop_
 _atom_site_type_symbol
 _atom_site_label
 _atom_site_symmetry_multiplicity
 _atom_site_fract_x
 _atom_site_fract_y
 _atom_site_fract_z
 _atom_site_occupancy
  Li  Li0  1  0.250000  0.480768  0.187944  1
  Hf  Hf1  1  0.750000  0.026462  0.688635  1
  Hf  Hf2  1  0.250000  0.979952  0.311467  1
  Zr  Zr3  1  0.750000  0.522313  0.811754  1
  Ni  Ni4  1  0.250000  0.864928  0.937957  1
  Ni  Ni5  1  0.750000  0.131524  0.064059  1
  Ni  Ni6  1  0.750000  0.654158  0.433651  1
  Ni  Ni7  1  0.250000  0.343949  0.559152  1
  As  As8  1  0.250000  0.732481  0.616971  1
  As  As9  1  0.750000  0.273095  0.378930  1
  As  As10  1  0.750000  0.752470  0.117511  1
  As  As11  1  0.250000  0.237900  0.891970  1
