# generated using pymatgen
data_Tm18Lu2Bi11Sb
_symmetry_space_group_name_H-M   'P 1'
_cell_length_a   8.13837073
_cell_length_b   9.43442000
_cell_length_c   11.85992502
_cell_angle_alpha   90.00000000
_cell_angle_beta   89.95909304
_cell_angle_gamma   90.00000000
_symmetry_Int_Tables_number   1
_chemical_formula_structural   Tm18Lu2Bi11Sb
_chemical_formula_sum   'Tm18 Lu2 Bi11 Sb1'
_cell_volume   910.61438873
_cell_formula_units_Z   1
loop_
 _symmetry_equiv_pos_site_id
 _symmetry_equiv_pos_as_xyz
  1  'x, y, z'
loop_
 _atom_site_type_symbol
 _atom_site_label
 _atom_site_symmetry_multiplicity
 _atom_site_fract_x
 _atom_site_fract_y
 _atom_site_fract_z
 _atom_site_occupancy
  Tm  Tm0  1  0.027775  0.250000  0.511277  1
  Tm  Tm1  1  0.525032  0.250000  0.988589  1
  Tm  Tm2  1  0.356020  0.250000  0.286084  1
  Tm  Tm3  1  0.645190  0.750000  0.717238  1
  Tm  Tm4  1  0.144925  0.750000  0.782042  1
  Tm  Tm5  1  0.855125  0.250000  0.217376  1
  Tm  Tm6  1  0.189408  0.250000  0.780026  1
  Tm  Tm7  1  0.812208  0.750000  0.217812  1
  Tm  Tm8  1  0.312692  0.750000  0.282230  1
  Tm  Tm9  1  0.682576  0.250000  0.714913  1
  Tm  Tm10  1  0.193205  0.065841  0.059886  1
  Tm  Tm11  1  0.806706  0.934571  0.940406  1
  Tm  Tm12  1  0.308124  0.938199  0.559319  1
  Tm  Tm13  1  0.806706  0.565429  0.940406  1
  Tm  Tm14  1  0.690290  0.067864  0.442077  1
  Tm  Tm15  1  0.193205  0.434159  0.059886  1
  Tm  Tm16  1  0.690290  0.432136  0.442077  1
  Tm  Tm17  1  0.308124  0.561801  0.559319  1
  Lu  Lu18  1  0.976958  0.750000  0.489435  1
  Lu  Lu19  1  0.475799  0.750000  0.011175  1
  Bi  Bi20  1  0.595306  0.750000  0.457215  1
  Bi  Bi21  1  0.094762  0.750000  0.042564  1
  Bi  Bi22  1  0.906601  0.250000  0.956438  1
  Bi  Bi23  1  0.066086  0.003197  0.326017  1
  Bi  Bi24  1  0.932990  0.996605  0.674168  1
  Bi  Bi25  1  0.433357  0.995865  0.825870  1
  Bi  Bi26  1  0.932990  0.503395  0.674168  1
  Bi  Bi27  1  0.566334  0.003657  0.174303  1
  Bi  Bi28  1  0.066086  0.496803  0.326017  1
  Bi  Bi29  1  0.566334  0.496343  0.174303  1
  Bi  Bi30  1  0.433357  0.504135  0.825870  1
  Sb  Sb31  1  0.405438  0.250000  0.541492  1
