# generated using pymatgen
data_LaY2Pt2Rh7
_symmetry_space_group_name_H-M   'P 1'
_cell_length_a   5.35881975
_cell_length_b   5.35859306
_cell_length_c   17.55624292
_cell_angle_alpha   89.96779446
_cell_angle_beta   90.03205229
_cell_angle_gamma   120.08591917
_symmetry_Int_Tables_number   1
_chemical_formula_structural   LaY2Pt2Rh7
_chemical_formula_sum   'La2 Y4 Pt4 Rh14'
_cell_volume   436.21982050
_cell_formula_units_Z   2
loop_
 _symmetry_equiv_pos_site_id
 _symmetry_equiv_pos_as_xyz
  1  'x, y, z'
loop_
 _atom_site_type_symbol
 _atom_site_label
 _atom_site_symmetry_multiplicity
 _atom_site_fract_x
 _atom_site_fract_y
 _atom_site_fract_z
 _atom_site_occupancy
  La  La0  1  0.333273  0.666697  0.750094  1
  La  La1  1  0.666935  0.333088  0.249735  1
  Y  Y2  1  0.333219  0.666766  0.957760  1
  Y  Y3  1  0.666673  0.333320  0.041998  1
  Y  Y4  1  0.665859  0.334144  0.458586  1
  Y  Y5  1  0.333380  0.666613  0.542538  1
  Pt  Pt6  1  0.169243  0.830771  0.376506  1
  Pt  Pt7  1  0.334465  0.665543  0.249334  1
  Pt  Pt8  1  0.998160  0.001858  0.500564  1
  Pt  Pt9  1  0.999824  0.000174  0.999982  1
  Rh  Rh10  1  0.168396  0.333965  0.375643  1
  Rh  Rh11  1  0.666036  0.831607  0.375652  1
  Rh  Rh12  1  0.831976  0.168011  0.625220  1
  Rh  Rh13  1  0.832380  0.664558  0.625515  1
  Rh  Rh14  1  0.335452  0.167640  0.625509  1
  Rh  Rh15  1  0.832294  0.167698  0.874705  1
  Rh  Rh16  1  0.832265  0.664280  0.874613  1
  Rh  Rh17  1  0.335731  0.167755  0.874618  1
  Rh  Rh18  1  0.167592  0.832410  0.124306  1
  Rh  Rh19  1  0.168554  0.335877  0.124192  1
  Rh  Rh20  1  0.664099  0.831415  0.124188  1
  Rh  Rh21  1  0.666271  0.333620  0.749745  1
  Rh  Rh22  1  0.997145  0.002838  0.248879  1
  Rh  Rh23  1  0.000780  0.999351  0.750120  1
