# generated using pymatgen
data_LiSc(CO3)2
_symmetry_space_group_name_H-M   'P 1'
_cell_length_a   5.89232685
_cell_length_b   5.89232556
_cell_length_c   5.89232679
_cell_angle_alpha   47.84665389
_cell_angle_beta   47.84666491
_cell_angle_gamma   47.84665583
_symmetry_Int_Tables_number   1
_chemical_formula_structural   LiSc(CO3)2
_chemical_formula_sum   'Li1 Sc1 C2 O6'
_cell_volume   102.97145288
_cell_formula_units_Z   1
loop_
 _symmetry_equiv_pos_site_id
 _symmetry_equiv_pos_as_xyz
  1  'x, y, z'
loop_
 _atom_site_type_symbol
 _atom_site_label
 _atom_site_symmetry_multiplicity
 _atom_site_fract_x
 _atom_site_fract_y
 _atom_site_fract_z
 _atom_site_occupancy
  Li  Li0  1  0.000000  0.000000  0.000000  1
  Sc  Sc1  1  0.500000  0.500000  0.500000  1
  C  C2  1  0.247349  0.247349  0.247349  1
  C  C3  1  0.752651  0.752651  0.752651  1
  O  O4  1  0.741038  0.029842  0.487344  1
  O  O5  1  0.970158  0.512656  0.258962  1
  O  O6  1  0.512656  0.258962  0.970158  1
  O  O7  1  0.487344  0.741038  0.029842  1
  O  O8  1  0.029842  0.487344  0.741038  1
  O  O9  1  0.258962  0.970158  0.512656  1
