# generated using pymatgen
data_Ho(ZnAu)3
_symmetry_space_group_name_H-M   'P 1'
_cell_length_a   5.46279135
_cell_length_b   5.46278921
_cell_length_c   5.67372974
_cell_angle_alpha   102.72764169
_cell_angle_beta   102.72760664
_cell_angle_gamma   122.84391728
_symmetry_Int_Tables_number   1
_chemical_formula_structural   Ho(ZnAu)3
_chemical_formula_sum   'Ho1 Zn3 Au3'
_cell_volume   126.26519207
_cell_formula_units_Z   1
loop_
 _symmetry_equiv_pos_site_id
 _symmetry_equiv_pos_as_xyz
  1  'x, y, z'
loop_
 _atom_site_type_symbol
 _atom_site_label
 _atom_site_symmetry_multiplicity
 _atom_site_fract_x
 _atom_site_fract_y
 _atom_site_fract_z
 _atom_site_occupancy
  Ho  Ho0  1  0.004281  0.004281  0.008561  1
  Zn  Zn1  1  0.247855  0.747855  0.495710  1
  Zn  Zn2  1  0.747855  0.247855  0.495710  1
  Zn  Zn3  1  0.303971  0.303971  0.607942  1
  Au  Au4  1  0.709953  0.709953  0.419908  1
  Au  Au5  1  0.679513  0.306571  0.986084  1
  Au  Au6  1  0.306571  0.679513  0.986084  1
