# generated using pymatgen
data_Ac3LaAu4
_symmetry_space_group_name_H-M   'P 1'
_cell_length_a   4.93724500
_cell_length_b   6.13433034
_cell_length_c   7.93489712
_cell_angle_alpha   91.06449579
_cell_angle_beta   90.00000000
_cell_angle_gamma   90.00000000
_symmetry_Int_Tables_number   1
_chemical_formula_structural   Ac3LaAu4
_chemical_formula_sum   'Ac3 La1 Au4'
_cell_volume   240.28030784
_cell_formula_units_Z   1
loop_
 _symmetry_equiv_pos_site_id
 _symmetry_equiv_pos_as_xyz
  1  'x, y, z'
loop_
 _atom_site_type_symbol
 _atom_site_label
 _atom_site_symmetry_multiplicity
 _atom_site_fract_x
 _atom_site_fract_y
 _atom_site_fract_z
 _atom_site_occupancy
  Ac  Ac0  1  0.250000  0.645541  0.186104  1
  Ac  Ac1  1  0.750000  0.354367  0.811921  1
  Ac  Ac2  1  0.750000  0.144165  0.317504  1
  La  La3  1  0.250000  0.854786  0.685248  1
  Au  Au4  1  0.250000  0.149120  0.038653  1
  Au  Au5  1  0.750000  0.849184  0.951806  1
  Au  Au6  1  0.750000  0.655931  0.464430  1
  Au  Au7  1  0.250000  0.346905  0.544333  1
