# generated using pymatgen
data_Pr5In4IrRh
_symmetry_space_group_name_H-M   'P 1'
_cell_length_a   3.82526500
_cell_length_b   8.36345866
_cell_length_c   18.77635000
_cell_angle_alpha   90.03611704
_cell_angle_beta   90.00000000
_cell_angle_gamma   90.00000000
_symmetry_Int_Tables_number   1
_chemical_formula_structural   Pr5In4IrRh
_chemical_formula_sum   'Pr10 In8 Ir2 Rh2'
_cell_volume   600.70123842
_cell_formula_units_Z   2
loop_
 _symmetry_equiv_pos_site_id
 _symmetry_equiv_pos_as_xyz
  1  'x, y, z'
loop_
 _atom_site_type_symbol
 _atom_site_label
 _atom_site_symmetry_multiplicity
 _atom_site_fract_x
 _atom_site_fract_y
 _atom_site_fract_z
 _atom_site_occupancy
  Pr  Pr0  1  0.000000  0.114132  0.411104  1
  Pr  Pr1  1  0.000000  0.885868  0.588896  1
  Pr  Pr2  1  0.000000  0.385901  0.911307  1
  Pr  Pr3  1  0.000000  0.614099  0.088693  1
  Pr  Pr4  1  0.000000  0.244082  0.221477  1
  Pr  Pr5  1  0.000000  0.755918  0.778523  1
  Pr  Pr6  1  0.000000  0.261643  0.721190  1
  Pr  Pr7  1  0.000000  0.738357  0.278810  1
  Pr  Pr8  1  0.000000  0.000000  0.000000  1
  Pr  Pr9  1  0.000000  0.500000  0.500000  1
  In  In10  1  0.500000  0.430815  0.350359  1
  In  In11  1  0.500000  0.569185  0.649641  1
  In  In12  1  0.500000  0.067820  0.849195  1
  In  In13  1  0.500000  0.932180  0.150805  1
  In  In14  1  0.500000  0.289785  0.070275  1
  In  In15  1  0.500000  0.710215  0.929725  1
  In  In16  1  0.500000  0.209139  0.570192  1
  In  In17  1  0.500000  0.790861  0.429808  1
  Ir  Ir18  1  0.500000  0.490527  0.804218  1
  Ir  Ir19  1  0.500000  0.509473  0.195782  1
  Rh  Rh20  1  0.500000  0.010318  0.305241  1
  Rh  Rh21  1  0.500000  0.989682  0.694759  1
