# generated using pymatgen
data_Cs2CeDy(SiSe4)2
_symmetry_space_group_name_H-M   'P 1'
_cell_length_a   6.75676012
_cell_length_b   7.13644000
_cell_length_c   18.75423455
_cell_angle_alpha   90.00000000
_cell_angle_beta   89.82230091
_cell_angle_gamma   90.00000000
_symmetry_Int_Tables_number   1
_chemical_formula_structural   Cs2CeDy(SiSe4)2
_chemical_formula_sum   'Cs4 Ce2 Dy2 Si4 Se16'
_cell_volume   904.31008526
_cell_formula_units_Z   2
loop_
 _symmetry_equiv_pos_site_id
 _symmetry_equiv_pos_as_xyz
  1  'x, y, z'
loop_
 _atom_site_type_symbol
 _atom_site_label
 _atom_site_symmetry_multiplicity
 _atom_site_fract_x
 _atom_site_fract_y
 _atom_site_fract_z
 _atom_site_occupancy
  Cs  Cs0  1  0.499948  0.494415  0.968111  1
  Cs  Cs1  1  0.999472  0.504237  0.465767  1
  Cs  Cs2  1  0.500052  0.994415  0.531889  1
  Cs  Cs3  1  0.000528  0.004237  0.034233  1
  Ce  Ce4  1  0.792761  0.023922  0.773311  1
  Ce  Ce5  1  0.207239  0.523922  0.726689  1
  Dy  Dy6  1  0.709129  0.974533  0.272150  1
  Dy  Dy7  1  0.290871  0.474533  0.227850  1
  Si  Si8  1  0.287258  0.984423  0.835612  1
  Si  Si9  1  0.789457  0.513397  0.168707  1
  Si  Si10  1  0.210543  0.013397  0.331293  1
  Si  Si11  1  0.712742  0.484423  0.664388  1
  Se  Se12  1  0.553046  0.988614  0.909175  1
  Se  Se13  1  0.064996  0.748547  0.858324  1
  Se  Se14  1  0.382412  0.934047  0.719761  1
  Se  Se15  1  0.101917  0.079205  0.218837  1
  Se  Se16  1  0.058935  0.508502  0.095761  1
  Se  Se17  1  0.941065  0.008502  0.404239  1
  Se  Se18  1  0.399667  0.746191  0.343067  1
  Se  Se19  1  0.617588  0.434047  0.780239  1
  Se  Se20  1  0.600333  0.246191  0.156933  1
  Se  Se21  1  0.105219  0.253874  0.850118  1
  Se  Se22  1  0.894781  0.753874  0.649882  1
  Se  Se23  1  0.446954  0.488614  0.590825  1
  Se  Se24  1  0.935004  0.248547  0.641676  1
  Se  Se25  1  0.561590  0.746093  0.147606  1
  Se  Se26  1  0.438410  0.246093  0.352394  1
  Se  Se27  1  0.898083  0.579205  0.281163  1
