# generated using pymatgen
data_Nd2CoB2IrN2
_symmetry_space_group_name_H-M   'P 1'
_cell_length_a   3.70695500
_cell_length_b   3.70695500
_cell_length_c   7.62719100
_cell_angle_alpha   90.00000000
_cell_angle_beta   90.00000000
_cell_angle_gamma   90.00000000
_symmetry_Int_Tables_number   1
_chemical_formula_structural   Nd2CoB2IrN2
_chemical_formula_sum   'Nd2 Co1 B2 Ir1 N2'
_cell_volume   104.80916237
_cell_formula_units_Z   1
loop_
 _symmetry_equiv_pos_site_id
 _symmetry_equiv_pos_as_xyz
  1  'x, y, z'
loop_
 _atom_site_type_symbol
 _atom_site_label
 _atom_site_symmetry_multiplicity
 _atom_site_fract_x
 _atom_site_fract_y
 _atom_site_fract_z
 _atom_site_occupancy
  Nd  Nd0  1  0.500000  0.000000  0.169830  1
  Nd  Nd1  1  0.000000  0.500000  0.830170  1
  Co  Co2  1  0.000000  0.000000  0.500000  1
  B  B3  1  0.000000  0.500000  0.352464  1
  B  B4  1  0.500000  0.000000  0.647537  1
  Ir  Ir5  1  0.500000  0.500000  0.500000  1
  N  N6  1  0.000000  0.500000  0.154742  1
  N  N7  1  0.500000  0.000000  0.845259  1
