# generated using pymatgen
data_Dy10Ho2InCo6
_symmetry_space_group_name_H-M   'P 1'
_cell_length_a   8.36871729
_cell_length_b   8.37067219
_cell_length_c   8.37067227
_cell_angle_alpha   109.37802054
_cell_angle_beta   109.50226131
_cell_angle_gamma   109.54291333
_symmetry_Int_Tables_number   1
_chemical_formula_structural   Dy10Ho2InCo6
_chemical_formula_sum   'Dy10 Ho2 In1 Co6'
_cell_volume   451.34209570
_cell_formula_units_Z   1
loop_
 _symmetry_equiv_pos_site_id
 _symmetry_equiv_pos_as_xyz
  1  'x, y, z'
loop_
 _atom_site_type_symbol
 _atom_site_label
 _atom_site_symmetry_multiplicity
 _atom_site_fract_x
 _atom_site_fract_y
 _atom_site_fract_z
 _atom_site_occupancy
  Dy  Dy0  1  0.806907  0.697569  0.504706  1
  Dy  Dy1  1  0.193093  0.302431  0.495294  1
  Dy  Dy2  1  0.193093  0.697798  0.890661  1
  Dy  Dy3  1  0.806907  0.302202  0.109339  1
  Dy  Dy4  1  0.697008  0.503190  0.806463  1
  Dy  Dy5  1  0.302992  0.496810  0.193537  1
  Dy  Dy6  1  0.697008  0.890547  0.193819  1
  Dy  Dy7  1  0.302992  0.109453  0.806181  1
  Dy  Dy8  1  0.504190  0.806545  0.697645  1
  Dy  Dy9  1  0.495810  0.193455  0.302355  1
  Ho  Ho10  1  0.109288  0.806590  0.302698  1
  Ho  Ho11  1  0.890712  0.193410  0.697302  1
  In  In12  1  0.000000  0.000000  0.000000  1
  Co  Co13  1  0.887078  0.386730  0.500347  1
  Co  Co14  1  0.112922  0.613270  0.499653  1
  Co  Co15  1  0.388240  0.501632  0.886608  1
  Co  Co16  1  0.611760  0.498368  0.113392  1
  Co  Co17  1  0.500000  0.887155  0.387155  1
  Co  Co18  1  0.500000  0.112845  0.612845  1
