# generated using pymatgen
data_Zr3Nb3(B2Ru5)2
_symmetry_space_group_name_H-M   'P 1'
_cell_length_a   9.50170311
_cell_length_b   9.50170263
_cell_length_c   3.09799300
_cell_angle_alpha   90.00000000
_cell_angle_beta   90.00000000
_cell_angle_gamma   89.93277093
_symmetry_Int_Tables_number   1
_chemical_formula_structural   Zr3Nb3(B2Ru5)2
_chemical_formula_sum   'Zr3 Nb3 B4 Ru10'
_cell_volume   279.69391883
_cell_formula_units_Z   1
loop_
 _symmetry_equiv_pos_site_id
 _symmetry_equiv_pos_as_xyz
  1  'x, y, z'
loop_
 _atom_site_type_symbol
 _atom_site_label
 _atom_site_symmetry_multiplicity
 _atom_site_fract_x
 _atom_site_fract_y
 _atom_site_fract_z
 _atom_site_occupancy
  Zr  Zr0  1  0.175956  0.824044  0.000000  1
  Zr  Zr1  1  0.323148  0.323849  0.000000  1
  Zr  Zr2  1  0.676151  0.676852  0.000000  1
  Nb  Nb3  1  0.499538  0.999952  0.000000  1
  Nb  Nb4  1  0.000048  0.500462  0.000000  1
  Nb  Nb5  1  0.822895  0.177105  0.000000  1
  B  B6  1  0.622309  0.377691  0.000000  1
  B  B7  1  0.379329  0.620671  0.000000  1
  B  B8  1  0.120430  0.121729  0.000000  1
  B  B9  1  0.878271  0.879570  0.000000  1
  Ru  Ru10  1  0.501442  0.498558  0.500000  1
  Ru  Ru11  1  0.996716  0.003284  0.500000  1
  Ru  Ru12  1  0.575391  0.216731  0.500000  1
  Ru  Ru13  1  0.430299  0.780985  0.500000  1
  Ru  Ru14  1  0.066508  0.280524  0.500000  1
  Ru  Ru15  1  0.929182  0.719375  0.500000  1
  Ru  Ru16  1  0.280625  0.070818  0.500000  1
  Ru  Ru17  1  0.719476  0.933492  0.500000  1
  Ru  Ru18  1  0.219015  0.569701  0.500000  1
  Ru  Ru19  1  0.783269  0.424609  0.500000  1
