# generated using pymatgen
data_Sc11Pa(NiOs)6
_symmetry_space_group_name_H-M   'P 1'
_cell_length_a   4.52805100
_cell_length_b   6.55316300
_cell_length_c   13.53055900
_cell_angle_alpha   90.00000000
_cell_angle_beta   90.00031275
_cell_angle_gamma   90.00000000
_symmetry_Int_Tables_number   1
_chemical_formula_structural   Sc11Pa(NiOs)6
_chemical_formula_sum   'Sc11 Pa1 Ni6 Os6'
_cell_volume   401.49303864
_cell_formula_units_Z   1
loop_
 _symmetry_equiv_pos_site_id
 _symmetry_equiv_pos_as_xyz
  1  'x, y, z'
loop_
 _atom_site_type_symbol
 _atom_site_label
 _atom_site_symmetry_multiplicity
 _atom_site_fract_x
 _atom_site_fract_y
 _atom_site_fract_z
 _atom_site_occupancy
  Sc  Sc0  1  0.499999  0.755353  0.000000  1
  Sc  Sc1  1  0.000006  0.248881  0.175552  1
  Sc  Sc2  1  0.000012  0.751317  0.169846  1
  Sc  Sc3  1  0.500018  0.247951  0.336754  1
  Sc  Sc4  1  0.499991  0.746315  0.334735  1
  Sc  Sc5  1  0.000000  0.248603  0.500000  1
  Sc  Sc6  1  0.000000  0.748305  0.500000  1
  Sc  Sc7  1  0.499982  0.247951  0.663246  1
  Sc  Sc8  1  0.500009  0.746315  0.665265  1
  Sc  Sc9  1  0.999994  0.248881  0.824448  1
  Sc  Sc10  1  0.999988  0.751317  0.830154  1
  Pa  Pa11  1  0.499999  0.256666  0.000000  1
  Ni  Ni12  1  0.000000  0.509180  0.000000  1
  Ni  Ni13  1  0.500013  0.001955  0.164735  1
  Ni  Ni14  1  0.000014  0.499085  0.334023  1
  Ni  Ni15  1  0.499999  0.997147  0.500000  1
  Ni  Ni16  1  0.999986  0.499085  0.665977  1
  Ni  Ni17  1  0.499986  0.001955  0.835265  1
  Os  Os18  1  0.000000  0.005102  0.000000  1
  Os  Os19  1  0.500012  0.497928  0.163667  1
  Os  Os20  1  0.000004  0.997222  0.334650  1
  Os  Os21  1  0.499999  0.498338  0.500000  1
  Os  Os22  1  0.999996  0.997222  0.665350  1
  Os  Os23  1  0.499988  0.497928  0.836333  1
