# generated using pymatgen
data_In(WF4)3
_symmetry_space_group_name_H-M   'P 1'
_cell_length_a   5.72054100
_cell_length_b   5.84393628
_cell_length_c   8.17942100
_cell_angle_alpha   91.76607561
_cell_angle_beta   89.99905852
_cell_angle_gamma   89.96168435
_symmetry_Int_Tables_number   1
_chemical_formula_structural   In(WF4)3
_chemical_formula_sum   'In1 W3 F12'
_cell_volume   273.31199545
_cell_formula_units_Z   1
loop_
 _symmetry_equiv_pos_site_id
 _symmetry_equiv_pos_as_xyz
  1  'x, y, z'
loop_
 _atom_site_type_symbol
 _atom_site_label
 _atom_site_symmetry_multiplicity
 _atom_site_fract_x
 _atom_site_fract_y
 _atom_site_fract_z
 _atom_site_occupancy
  In  In0  1  0.500629  0.509350  0.496472  1
  W  W1  1  0.999197  0.004130  0.996633  1
  W  W2  1  0.000208  0.009463  0.496726  1
  W  W3  1  0.499323  0.503751  0.996547  1
  F  F4  1  0.292888  0.218747  0.446432  1
  F  F5  1  0.097226  0.009031  0.746787  1
  F  F6  1  0.301316  0.805746  0.044517  1
  F  F7  1  0.209929  0.716132  0.445962  1
  F  F8  1  0.803484  0.699935  0.951169  1
  F  F9  1  0.402819  0.510979  0.745539  1
  F  F10  1  0.597898  0.502525  0.247424  1
  F  F11  1  0.195864  0.306916  0.042518  1
  F  F12  1  0.794533  0.305717  0.546392  1
  F  F13  1  0.695750  0.200500  0.948331  1
  F  F14  1  0.902463  0.004849  0.246715  1
  F  F15  1  0.706473  0.801830  0.547035  1
