# generated using pymatgen
data_Th(FeSb3)5
_symmetry_space_group_name_H-M   'P 1'
_cell_length_a   15.17706930
_cell_length_b   15.17706936
_cell_length_c   15.17707000
_cell_angle_alpha   50.44522314
_cell_angle_beta   50.44522294
_cell_angle_gamma   50.44522358
_symmetry_Int_Tables_number   1
_chemical_formula_structural   Th(FeSb3)5
_chemical_formula_sum   'Th4 Fe20 Sb60'
_cell_volume   1914.48046544
_cell_formula_units_Z   4
loop_
 _symmetry_equiv_pos_site_id
 _symmetry_equiv_pos_as_xyz
  1  'x, y, z'
loop_
 _atom_site_type_symbol
 _atom_site_label
 _atom_site_symmetry_multiplicity
 _atom_site_fract_x
 _atom_site_fract_y
 _atom_site_fract_z
 _atom_site_occupancy
  Th  Th0  1  0.202848  0.202848  0.202848  1
  Th  Th1  1  0.399385  0.399385  0.399385  1
  Th  Th2  1  0.600615  0.600615  0.600615  1
  Th  Th3  1  0.797152  0.797152  0.797152  1
  Fe  Fe4  1  0.100796  0.100796  0.100796  1
  Fe  Fe5  1  0.500000  0.000000  0.000000  1
  Fe  Fe6  1  0.000000  0.500000  0.000000  1
  Fe  Fe7  1  0.299897  0.299897  0.299897  1
  Fe  Fe8  1  0.697267  0.201805  0.201947  1
  Fe  Fe9  1  0.201947  0.697267  0.201805  1
  Fe  Fe10  1  0.600165  0.600054  0.099948  1
  Fe  Fe11  1  0.500000  0.500000  0.500000  1
  Fe  Fe12  1  0.900052  0.399835  0.399946  1
  Fe  Fe13  1  0.399946  0.900052  0.399835  1
  Fe  Fe14  1  0.798195  0.798053  0.302733  1
  Fe  Fe15  1  0.700103  0.700103  0.700103  1
  Fe  Fe16  1  0.099948  0.600165  0.600054  1
  Fe  Fe17  1  0.600054  0.099948  0.600165  1
  Fe  Fe18  1  0.000000  0.000000  0.500000  1
  Fe  Fe19  1  0.899204  0.899204  0.899204  1
  Fe  Fe20  1  0.302733  0.798195  0.798053  1
  Fe  Fe21  1  0.798053  0.302733  0.798195  1
  Fe  Fe22  1  0.201805  0.201947  0.697267  1
  Fe  Fe23  1  0.399835  0.399946  0.900052  1
  Sb  Sb24  1  0.504201  0.164602  0.002124  1
  Sb  Sb25  1  0.262077  0.440018  0.099424  1
  Sb  Sb26  1  0.193073  0.708087  0.032896  1
  Sb  Sb27  1  0.499432  0.336103  0.165505  1
  Sb  Sb28  1  0.434220  0.597277  0.100243  1
  Sb  Sb29  1  0.228228  0.902887  0.062790  1
  Sb  Sb30  1  0.699913  0.365933  0.202628  1
  Sb  Sb31  1  0.463473  0.634259  0.300688  1
  Sb  Sb32  1  0.966846  0.299017  0.136415  1
  Sb  Sb33  1  0.766022  0.603379  0.098565  1
  Sb  Sb34  1  0.396621  0.901435  0.233978  1
  Sb  Sb35  1  0.700983  0.863585  0.033154  1
  Sb  Sb36  1  0.699312  0.536527  0.365741  1
  Sb  Sb37  1  0.002124  0.504201  0.164602  1
  Sb  Sb38  1  0.634067  0.797372  0.300087  1
  Sb  Sb39  1  0.440018  0.099424  0.262077  1
  Sb  Sb40  1  0.937210  0.771772  0.097113  1
  Sb  Sb41  1  0.899757  0.565780  0.402723  1
  Sb  Sb42  1  0.708087  0.032896  0.193073  1
  Sb  Sb43  1  0.663897  0.834495  0.500568  1
  Sb  Sb44  1  0.165505  0.499432  0.336103  1
  Sb  Sb45  1  0.967104  0.806927  0.291913  1
  Sb  Sb46  1  0.597277  0.100243  0.434220  1
  Sb  Sb47  1  0.902887  0.062790  0.228228  1
  Sb  Sb48  1  0.900576  0.737923  0.559982  1
  Sb  Sb49  1  0.202628  0.699913  0.365933  1
  Sb  Sb50  1  0.835398  0.997876  0.495799  1
  Sb  Sb51  1  0.634259  0.300688  0.463473  1
  Sb  Sb52  1  0.136415  0.966846  0.299017  1
  Sb  Sb53  1  0.098565  0.766022  0.603379  1
  Sb  Sb54  1  0.901435  0.233978  0.396621  1
  Sb  Sb55  1  0.863585  0.033154  0.700983  1
  Sb  Sb56  1  0.365741  0.699312  0.536527  1
  Sb  Sb57  1  0.164602  0.002124  0.504201  1
  Sb  Sb58  1  0.797372  0.300087  0.634067  1
  Sb  Sb59  1  0.099424  0.262077  0.440018  1
  Sb  Sb60  1  0.097113  0.937210  0.771772  1
  Sb  Sb61  1  0.402723  0.899757  0.565780  1
  Sb  Sb62  1  0.032896  0.193073  0.708087  1
  Sb  Sb63  1  0.834495  0.500568  0.663897  1
  Sb  Sb64  1  0.336103  0.165505  0.499432  1
  Sb  Sb65  1  0.291913  0.967104  0.806927  1
  Sb  Sb66  1  0.100243  0.434220  0.597277  1
  Sb  Sb67  1  0.062790  0.228228  0.902887  1
  Sb  Sb68  1  0.559982  0.900576  0.737923  1
  Sb  Sb69  1  0.365933  0.202628  0.699913  1
  Sb  Sb70  1  0.997876  0.495799  0.835398  1
  Sb  Sb71  1  0.300688  0.463473  0.634259  1
  Sb  Sb72  1  0.299017  0.136415  0.966846  1
  Sb  Sb73  1  0.603379  0.098565  0.766022  1
  Sb  Sb74  1  0.233978  0.396621  0.901435  1
  Sb  Sb75  1  0.033154  0.700983  0.863585  1
  Sb  Sb76  1  0.536527  0.365741  0.699312  1
  Sb  Sb77  1  0.300087  0.634067  0.797372  1
  Sb  Sb78  1  0.771772  0.097113  0.937210  1
  Sb  Sb79  1  0.565780  0.402723  0.899757  1
  Sb  Sb80  1  0.500568  0.663897  0.834495  1
  Sb  Sb81  1  0.806927  0.291913  0.967104  1
  Sb  Sb82  1  0.737923  0.559982  0.900576  1
  Sb  Sb83  1  0.495799  0.835398  0.997876  1
