# generated using pymatgen
data_K16Ti3CrSe16
_symmetry_space_group_name_H-M   'P 1'
_cell_length_a   8.51845323
_cell_length_b   10.16140100
_cell_length_c   14.91622100
_cell_angle_alpha   90.00000000
_cell_angle_beta   90.04147300
_cell_angle_gamma   90.00000000
_symmetry_Int_Tables_number   1
_chemical_formula_structural   K16Ti3CrSe16
_chemical_formula_sum   'K16 Ti3 Cr1 Se16'
_cell_volume   1291.13908797
_cell_formula_units_Z   1
loop_
 _symmetry_equiv_pos_site_id
 _symmetry_equiv_pos_as_xyz
  1  'x, y, z'
loop_
 _atom_site_type_symbol
 _atom_site_label
 _atom_site_symmetry_multiplicity
 _atom_site_fract_x
 _atom_site_fract_y
 _atom_site_fract_z
 _atom_site_occupancy
  K  K0  1  0.000047  0.001104  0.999781  1
  K  K1  1  0.500430  0.997615  0.500703  1
  K  K2  1  0.000047  0.498896  0.999781  1
  K  K3  1  0.500430  0.502385  0.500703  1
  K  K4  1  0.982475  0.750000  0.426346  1
  K  K5  1  0.482966  0.250000  0.073969  1
  K  K6  1  0.014965  0.250000  0.576550  1
  K  K7  1  0.517907  0.750000  0.923783  1
  K  K8  1  0.840317  0.051486  0.275413  1
  K  K9  1  0.340132  0.948118  0.224693  1
  K  K10  1  0.160260  0.552848  0.724017  1
  K  K11  1  0.659470  0.450779  0.775027  1
  K  K12  1  0.160260  0.947152  0.724017  1
  K  K13  1  0.659470  0.049221  0.775027  1
  K  K14  1  0.840317  0.448514  0.275413  1
  K  K15  1  0.340132  0.551882  0.224693  1
  Ti  Ti16  1  0.240030  0.250000  0.335237  1
  Ti  Ti17  1  0.740788  0.750000  0.165794  1
  Ti  Ti18  1  0.258510  0.250000  0.833413  1
  Cr  Cr19  1  0.760735  0.750000  0.665486  1
  Se  Se20  1  0.974136  0.250000  0.824848  1
  Se  Se21  1  0.524252  0.250000  0.326610  1
  Se  Se22  1  0.484423  0.750000  0.674604  1
  Se  Se23  1  0.025173  0.750000  0.173881  1
  Se  Se24  1  0.654655  0.553963  0.090198  1
  Se  Se25  1  0.153287  0.445913  0.410991  1
  Se  Se26  1  0.344531  0.053779  0.908932  1
  Se  Se27  1  0.845750  0.939558  0.591898  1
  Se  Se28  1  0.344531  0.446221  0.908932  1
  Se  Se29  1  0.845750  0.560442  0.591898  1
  Se  Se30  1  0.654655  0.946037  0.090198  1
  Se  Se31  1  0.153287  0.054087  0.410991  1
  Se  Se32  1  0.628008  0.750000  0.315479  1
  Se  Se33  1  0.128005  0.250000  0.185187  1
  Se  Se34  1  0.371677  0.250000  0.684001  1
  Se  Se35  1  0.868189  0.750000  0.811502  1
