# generated using pymatgen
data_Li4Dy4SnSb3
_symmetry_space_group_name_H-M   'P 1'
_cell_length_a   9.47520100
_cell_length_b   9.47520095
_cell_length_c   7.00285600
_cell_angle_alpha   90.00000000
_cell_angle_beta   90.00000000
_cell_angle_gamma   119.99999669
_symmetry_Int_Tables_number   1
_chemical_formula_structural   Li4Dy4SnSb3
_chemical_formula_sum   'Li8 Dy8 Sn2 Sb6'
_cell_volume   544.48096677
_cell_formula_units_Z   2
loop_
 _symmetry_equiv_pos_site_id
 _symmetry_equiv_pos_as_xyz
  1  'x, y, z'
loop_
 _atom_site_type_symbol
 _atom_site_label
 _atom_site_symmetry_multiplicity
 _atom_site_fract_x
 _atom_site_fract_y
 _atom_site_fract_z
 _atom_site_occupancy
  Li  Li0  1  0.166743  0.333486  0.274778  1
  Li  Li1  1  0.166743  0.833257  0.274778  1
  Li  Li2  1  0.666514  0.833257  0.274778  1
  Li  Li3  1  0.833257  0.666514  0.774778  1
  Li  Li4  1  0.833257  0.166743  0.774778  1
  Li  Li5  1  0.333486  0.166743  0.774778  1
  Li  Li6  1  0.333333  0.666667  0.692425  1
  Li  Li7  1  0.666667  0.333333  0.192425  1
  Dy  Dy8  1  0.508332  0.016663  0.494038  1
  Dy  Dy9  1  0.508332  0.491668  0.494038  1
  Dy  Dy10  1  0.983337  0.491668  0.494038  1
  Dy  Dy11  1  0.491668  0.983337  0.994038  1
  Dy  Dy12  1  0.491668  0.508332  0.994038  1
  Dy  Dy13  1  0.016663  0.508332  0.994038  1
  Dy  Dy14  1  0.000000  0.000000  0.500960  1
  Dy  Dy15  1  0.000000  0.000000  0.000960  1
  Sn  Sn16  1  0.333333  0.666667  0.260157  1
  Sn  Sn17  1  0.666667  0.333333  0.760157  1
  Sb  Sb18  1  0.166526  0.333051  0.737002  1
  Sb  Sb19  1  0.166526  0.833474  0.737002  1
  Sb  Sb20  1  0.666949  0.833474  0.737002  1
  Sb  Sb21  1  0.833474  0.666949  0.237002  1
  Sb  Sb22  1  0.833474  0.166526  0.237002  1
  Sb  Sb23  1  0.333051  0.166526  0.237002  1
