# generated using pymatgen
data_OsRhI18
_symmetry_space_group_name_H-M   'P 1'
_cell_length_a   9.96954050
_cell_length_b   10.01726993
_cell_length_c   9.95761658
_cell_angle_alpha   93.71430119
_cell_angle_beta   93.76821193
_cell_angle_gamma   93.68270423
_symmetry_Int_Tables_number   1
_chemical_formula_structural   OsRhI18
_chemical_formula_sum   'Os1 Rh1 I18'
_cell_volume   987.86376366
_cell_formula_units_Z   1
loop_
 _symmetry_equiv_pos_site_id
 _symmetry_equiv_pos_as_xyz
  1  'x, y, z'
loop_
 _atom_site_type_symbol
 _atom_site_label
 _atom_site_symmetry_multiplicity
 _atom_site_fract_x
 _atom_site_fract_y
 _atom_site_fract_z
 _atom_site_occupancy
  Os  Os0  1  0.500000  0.500000  0.500000  1
  Rh  Rh1  1  0.000000  0.000000  0.000000  1
  I  I2  1  0.770394  0.490661  0.521184  1
  I  I3  1  0.520487  0.769020  0.490063  1
  I  I4  1  0.491017  0.521580  0.770805  1
  I  I5  1  0.229606  0.509339  0.478816  1
  I  I6  1  0.479513  0.230980  0.509937  1
  I  I7  1  0.508983  0.478420  0.229195  1
  I  I8  1  0.885116  0.367005  0.761343  1
  I  I9  1  0.760484  0.883690  0.367370  1
  I  I10  1  0.367556  0.760846  0.885000  1
  I  I11  1  0.114884  0.632995  0.238657  1
  I  I12  1  0.239516  0.116310  0.632630  1
  I  I13  1  0.632444  0.239154  0.115000  1
  I  I14  1  0.003444  0.966324  0.729609  1
  I  I15  1  0.730090  0.003744  0.965100  1
  I  I16  1  0.964944  0.731303  0.002341  1
  I  I17  1  0.996556  0.033676  0.270391  1
  I  I18  1  0.269910  0.996256  0.034900  1
  I  I19  1  0.035056  0.268697  0.997659  1
