# generated using pymatgen
data_ErHf7(Nb3Si4)4
_symmetry_space_group_name_H-M   'P 1'
_cell_length_a   6.88950264
_cell_length_b   6.88317050
_cell_length_c   12.75418230
_cell_angle_alpha   89.98894666
_cell_angle_beta   89.94720980
_cell_angle_gamma   90.03011014
_symmetry_Int_Tables_number   1
_chemical_formula_structural   ErHf7(Nb3Si4)4
_chemical_formula_sum   'Er1 Hf7 Nb12 Si16'
_cell_volume   604.82365222
_cell_formula_units_Z   1
loop_
 _symmetry_equiv_pos_site_id
 _symmetry_equiv_pos_as_xyz
  1  'x, y, z'
loop_
 _atom_site_type_symbol
 _atom_site_label
 _atom_site_symmetry_multiplicity
 _atom_site_fract_x
 _atom_site_fract_y
 _atom_site_fract_z
 _atom_site_occupancy
  Er  Er0  1  0.660966  0.002695  0.281151  1
  Hf  Hf1  1  0.004408  0.344130  0.217747  1
  Hf  Hf2  1  0.999699  0.659964  0.718964  1
  Hf  Hf3  1  0.160397  0.501706  0.470426  1
  Hf  Hf4  1  0.498695  0.839474  0.030789  1
  Hf  Hf5  1  0.840827  0.498759  0.967732  1
  Hf  Hf6  1  0.502080  0.159023  0.532412  1
  Hf  Hf7  1  0.340350  0.000941  0.781083  1
  Nb  Nb8  1  0.169166  0.169630  0.999234  1
  Nb  Nb9  1  0.831378  0.830169  0.501311  1
  Nb  Nb10  1  0.327911  0.666885  0.250047  1
  Nb  Nb11  1  0.669747  0.330399  0.750161  1
  Nb  Nb12  1  0.152167  0.994817  0.377318  1
  Nb  Nb13  1  0.847567  0.003529  0.875076  1
  Nb  Nb14  1  0.503841  0.652218  0.627038  1
  Nb  Nb15  1  0.347904  0.497328  0.873075  1
  Nb  Nb16  1  0.493382  0.346951  0.124296  1
  Nb  Nb17  1  0.651712  0.502575  0.374713  1
  Nb  Nb18  1  0.997693  0.153010  0.625227  1
  Nb  Nb19  1  0.002930  0.844716  0.121797  1
  Si  Si20  1  0.294495  0.042846  0.186097  1
  Si  Si21  1  0.700976  0.955667  0.686812  1
  Si  Si22  1  0.454645  0.797605  0.438108  1
  Si  Si23  1  0.200795  0.544742  0.062143  1
  Si  Si24  1  0.543352  0.200130  0.936094  1
  Si  Si25  1  0.800009  0.457058  0.564131  1
  Si  Si26  1  0.044328  0.300092  0.813324  1
  Si  Si27  1  0.956350  0.698587  0.313608  1
  Si  Si28  1  0.360792  0.294333  0.322764  1
  Si  Si29  1  0.635745  0.708635  0.823346  1
  Si  Si30  1  0.208151  0.864460  0.573825  1
  Si  Si31  1  0.135578  0.792465  0.926442  1
  Si  Si32  1  0.794048  0.137041  0.070434  1
  Si  Si33  1  0.868306  0.211023  0.430080  1
  Si  Si34  1  0.292464  0.364675  0.676802  1
  Si  Si35  1  0.707147  0.631721  0.176394  1
