# generated using pymatgen
data_Tb5Er3Hf9Si16Mo3
_symmetry_space_group_name_H-M   'P 1'
_cell_length_a   7.19473279
_cell_length_b   7.19408504
_cell_length_c   13.15020333
_cell_angle_alpha   90.11603447
_cell_angle_beta   90.06381706
_cell_angle_gamma   90.06461647
_symmetry_Int_Tables_number   1
_chemical_formula_structural   Tb5Er3Hf9Si16Mo3
_chemical_formula_sum   'Tb5 Er3 Hf9 Si16 Mo3'
_cell_volume   680.64595376
_cell_formula_units_Z   1
loop_
 _symmetry_equiv_pos_site_id
 _symmetry_equiv_pos_as_xyz
  1  'x, y, z'
loop_
 _atom_site_type_symbol
 _atom_site_label
 _atom_site_symmetry_multiplicity
 _atom_site_fract_x
 _atom_site_fract_y
 _atom_site_fract_z
 _atom_site_occupancy
  Tb  Tb0  1  0.500232  0.845023  0.036026  1
  Tb  Tb1  1  0.846598  0.501835  0.967696  1
  Tb  Tb2  1  0.498110  0.153913  0.532231  1
  Tb  Tb3  1  0.343043  0.996172  0.785244  1
  Tb  Tb4  1  0.655918  0.001078  0.284701  1
  Er  Er5  1  0.000290  0.344488  0.215209  1
  Er  Er6  1  0.002862  0.656296  0.714172  1
  Er  Er7  1  0.154099  0.501085  0.463508  1
  Hf  Hf8  1  0.676022  0.324990  0.749812  1
  Hf  Hf9  1  0.145775  0.992793  0.373573  1
  Hf  Hf10  1  0.855466  0.004769  0.876620  1
  Hf  Hf11  1  0.505880  0.648774  0.621289  1
  Hf  Hf12  1  0.350383  0.494436  0.878275  1
  Hf  Hf13  1  0.492658  0.352903  0.125779  1
  Hf  Hf14  1  0.646959  0.506806  0.374401  1
  Hf  Hf15  1  0.995743  0.144674  0.623045  1
  Hf  Hf16  1  0.007053  0.854152  0.126535  1
  Si  Si17  1  0.359055  0.298029  0.317384  1
  Si  Si18  1  0.638937  0.705067  0.817000  1
  Si  Si19  1  0.203095  0.859631  0.566314  1
  Si  Si20  1  0.137929  0.795224  0.933820  1
  Si  Si21  1  0.797110  0.138951  0.068169  1
  Si  Si22  1  0.863134  0.205193  0.432303  1
  Si  Si23  1  0.293669  0.363148  0.682201  1
  Si  Si24  1  0.704217  0.637737  0.183146  1
  Si  Si25  1  0.294640  0.052562  0.184454  1
  Si  Si26  1  0.705724  0.946689  0.682566  1
  Si  Si27  1  0.447076  0.794242  0.432538  1
  Si  Si28  1  0.204101  0.550895  0.068042  1
  Si  Si29  1  0.548479  0.203483  0.936113  1
  Si  Si30  1  0.798853  0.452949  0.563968  1
  Si  Si31  1  0.052379  0.296140  0.816958  1
  Si  Si32  1  0.949793  0.702352  0.315837  1
  Mo  Mo33  1  0.176185  0.175925  0.001790  1
  Mo  Mo34  1  0.825229  0.822617  0.498819  1
  Mo  Mo35  1  0.323304  0.674977  0.250465  1
