# generated using pymatgen
data_Y14Ho2MgAg3Rh4
_symmetry_space_group_name_H-M   'P 1'
_cell_length_a   9.60722457
_cell_length_b   9.62621689
_cell_length_c   9.63910301
_cell_angle_alpha   59.95135258
_cell_angle_beta   59.89246144
_cell_angle_gamma   59.83677115
_symmetry_Int_Tables_number   1
_chemical_formula_structural   Y14Ho2MgAg3Rh4
_chemical_formula_sum   'Y14 Ho2 Mg1 Ag3 Rh4'
_cell_volume   628.81658948
_cell_formula_units_Z   1
loop_
 _symmetry_equiv_pos_site_id
 _symmetry_equiv_pos_as_xyz
  1  'x, y, z'
loop_
 _atom_site_type_symbol
 _atom_site_label
 _atom_site_symmetry_multiplicity
 _atom_site_fract_x
 _atom_site_fract_y
 _atom_site_fract_z
 _atom_site_occupancy
  Y  Y0  1  0.599212  0.204777  0.598436  1
  Y  Y1  1  0.186478  0.604658  0.604324  1
  Y  Y2  1  0.059163  0.438727  0.438952  1
  Y  Y3  1  0.436023  0.062429  0.062368  1
  Y  Y4  1  0.436981  0.062254  0.436750  1
  Y  Y5  1  0.058087  0.439608  0.059652  1
  Y  Y6  1  0.437376  0.437164  0.061968  1
  Y  Y7  1  0.058828  0.060369  0.438712  1
  Y  Y8  1  0.185234  0.812869  0.813875  1
  Y  Y9  1  0.815619  0.185305  0.185026  1
  Y  Y10  1  0.813778  0.186254  0.815544  1
  Y  Y11  1  0.185381  0.812808  0.185965  1
  Y  Y12  1  0.813379  0.814077  0.186817  1
  Y  Y13  1  0.184728  0.184789  0.814348  1
  Ho  Ho14  1  0.600752  0.598417  0.598177  1
  Ho  Ho15  1  0.598059  0.597783  0.207189  1
  Mg  Mg16  1  0.540705  0.819670  0.820724  1
  Ag  Ag17  1  0.831344  0.834939  0.835601  1
  Ag  Ag18  1  0.832678  0.835348  0.498651  1
  Ag  Ag19  1  0.832628  0.498959  0.835629  1
  Rh  Rh20  1  0.388380  0.395906  0.392576  1
  Rh  Rh21  1  0.391068  0.397760  0.820911  1
  Rh  Rh22  1  0.392442  0.819897  0.395917  1
  Rh  Rh23  1  0.821680  0.395238  0.391887  1
