# generated using pymatgen
data_TmLuTh2(AsPt)4
_symmetry_space_group_name_H-M   'P 1'
_cell_length_a   4.30910200
_cell_length_b   4.30910404
_cell_length_c   15.42335000
_cell_angle_alpha   90.00000000
_cell_angle_beta   90.00000000
_cell_angle_gamma   120.00001505
_symmetry_Int_Tables_number   1
_chemical_formula_structural   TmLuTh2(AsPt)4
_chemical_formula_sum   'Tm1 Lu1 Th2 As4 Pt4'
_cell_volume   248.01790467
_cell_formula_units_Z   1
loop_
 _symmetry_equiv_pos_site_id
 _symmetry_equiv_pos_as_xyz
  1  'x, y, z'
loop_
 _atom_site_type_symbol
 _atom_site_label
 _atom_site_symmetry_multiplicity
 _atom_site_fract_x
 _atom_site_fract_y
 _atom_site_fract_z
 _atom_site_occupancy
  Tm  Tm0  1  0.000000  0.000000  0.250000  1
  Lu  Lu1  1  0.000000  0.000000  0.750000  1
  Th  Th2  1  0.000000  0.000000  0.500175  1
  Th  Th3  1  0.000000  0.000000  0.999825  1
  As  As4  1  0.333333  0.666667  0.881601  1
  As  As5  1  0.666667  0.333333  0.118423  1
  As  As6  1  0.666667  0.333333  0.381577  1
  As  As7  1  0.333333  0.666667  0.618399  1
  Pt  Pt8  1  0.333333  0.666667  0.354770  1
  Pt  Pt9  1  0.666667  0.333333  0.646149  1
  Pt  Pt10  1  0.666667  0.333333  0.853851  1
  Pt  Pt11  1  0.333333  0.666667  0.145230  1
