# generated using pymatgen
data_La7Nd13Si15Ge
_symmetry_space_group_name_H-M   'P 1'
_cell_length_a   7.93730297
_cell_length_b   7.93342411
_cell_length_c   15.33255062
_cell_angle_alpha   90.08664775
_cell_angle_beta   89.96582943
_cell_angle_gamma   90.12925281
_symmetry_Int_Tables_number   1
_chemical_formula_structural   La7Nd13Si15Ge
_chemical_formula_sum   'La7 Nd13 Si15 Ge1'
_cell_volume   965.48683952
_cell_formula_units_Z   1
loop_
 _symmetry_equiv_pos_site_id
 _symmetry_equiv_pos_as_xyz
  1  'x, y, z'
loop_
 _atom_site_type_symbol
 _atom_site_label
 _atom_site_symmetry_multiplicity
 _atom_site_fract_x
 _atom_site_fract_y
 _atom_site_fract_z
 _atom_site_occupancy
  La  La0  1  0.012335  0.375908  0.552681  1
  La  La1  1  0.624551  0.987028  0.949348  1
  La  La2  1  0.123338  0.513710  0.802746  1
  La  La3  1  0.873578  0.485142  0.299293  1
  La  La4  1  0.512571  0.123417  0.197997  1
  La  La5  1  0.487109  0.876931  0.698947  1
  La  La6  1  0.377342  0.012861  0.447808  1
  Nd  Nd7  1  0.373328  0.481442  0.372932  1
  Nd  Nd8  1  0.870550  0.019396  0.375052  1
  Nd  Nd9  1  0.981783  0.126826  0.122829  1
  Nd  Nd10  1  0.017684  0.873182  0.623471  1
  Nd  Nd11  1  0.629255  0.519778  0.874461  1
  Nd  Nd12  1  0.482488  0.370689  0.627103  1
  Nd  Nd13  1  0.518993  0.628542  0.125705  1
  Nd  Nd14  1  0.126388  0.981669  0.877675  1
  Nd  Nd15  1  0.989981  0.620030  0.052818  1
  Nd  Nd16  1  0.686536  0.690974  0.500500  1
  Nd  Nd17  1  0.810577  0.191607  0.750843  1
  Nd  Nd18  1  0.191280  0.809020  0.247907  1
  Nd  Nd19  1  0.310281  0.309258  0.000372  1
  Si  Si20  1  0.922339  0.288742  0.940191  1
  Si  Si21  1  0.714257  0.079078  0.560248  1
  Si  Si22  1  0.213338  0.422314  0.189197  1
  Si  Si23  1  0.786605  0.578817  0.689587  1
  Si  Si24  1  0.421703  0.213538  0.811281  1
  Si  Si25  1  0.579439  0.785868  0.309825  1
  Si  Si26  1  0.284874  0.920229  0.060113  1
  Si  Si27  1  0.831103  0.806375  0.796300  1
  Si  Si28  1  0.167600  0.195717  0.296321  1
  Si  Si29  1  0.805709  0.830890  0.201430  1
  Si  Si30  1  0.306950  0.667215  0.548842  1
  Si  Si31  1  0.697517  0.334372  0.047971  1
  Si  Si32  1  0.668532  0.304982  0.453143  1
  Si  Si33  1  0.329860  0.693875  0.953559  1
  Si  Si34  1  0.195198  0.167962  0.704141  1
  Ge  Ge35  1  0.075028  0.712613  0.437361  1
