# generated using pymatgen
data_Li8Si2As
_symmetry_space_group_name_H-M   'P 1'
_cell_length_a   4.36408477
_cell_length_b   4.36375483
_cell_length_c   9.84864077
_cell_angle_alpha   77.29218228
_cell_angle_beta   77.30933990
_cell_angle_gamma   60.06430523
_symmetry_Int_Tables_number   1
_chemical_formula_structural   Li8Si2As
_chemical_formula_sum   'Li8 Si2 As1'
_cell_volume   157.20582608
_cell_formula_units_Z   1
loop_
 _symmetry_equiv_pos_site_id
 _symmetry_equiv_pos_as_xyz
  1  'x, y, z'
loop_
 _atom_site_type_symbol
 _atom_site_label
 _atom_site_symmetry_multiplicity
 _atom_site_fract_x
 _atom_site_fract_y
 _atom_site_fract_z
 _atom_site_occupancy
  Li  Li0  1  0.671288  0.188747  0.904745  1
  Li  Li1  1  0.214152  0.732331  0.262905  1
  Li  Li2  1  0.942673  0.460277  0.085210  1
  Li  Li3  1  0.396558  0.913994  0.726997  1
  Li  Li4  1  0.125639  0.643016  0.527276  1
  Li  Li5  1  0.480035  0.997806  0.462964  1
  Li  Li6  1  0.039574  0.557294  0.798473  1
  Li  Li7  1  0.571225  0.089617  0.191493  1
  Si  Si8  1  0.762062  0.279655  0.621980  1
  Si  Si9  1  0.844487  0.362388  0.367991  1
  As  As10  1  0.306981  0.824371  0.995066  1
