# generated using pymatgen
data_Ni(WO3)2
_symmetry_space_group_name_H-M   'P 1'
_cell_length_a   4.67325100
_cell_length_b   10.66255445
_cell_length_c   9.34689600
_cell_angle_alpha   64.00836769
_cell_angle_beta   90.00092563
_cell_angle_gamma   90.00043452
_symmetry_Int_Tables_number   1
_chemical_formula_structural   Ni(WO3)2
_chemical_formula_sum   'Ni4 W8 O24'
_cell_volume   418.63824030
_cell_formula_units_Z   4
loop_
 _symmetry_equiv_pos_site_id
 _symmetry_equiv_pos_as_xyz
  1  'x, y, z'
loop_
 _atom_site_type_symbol
 _atom_site_label
 _atom_site_symmetry_multiplicity
 _atom_site_fract_x
 _atom_site_fract_y
 _atom_site_fract_z
 _atom_site_occupancy
  Ni  Ni0  1  0.500283  0.499886  0.000180  1
  Ni  Ni1  1  0.000049  0.999973  0.500340  1
  Ni  Ni2  1  0.499743  0.500219  0.500135  1
  Ni  Ni3  1  0.000228  0.999862  0.999821  1
  W  W4  1  0.500000  0.164071  0.167943  1
  W  W5  1  0.500054  0.164163  0.667902  1
  W  W6  1  0.999984  0.664101  0.167954  1
  W  W7  1  0.999933  0.664103  0.667947  1
  W  W8  1  0.499949  0.835862  0.832054  1
  W  W9  1  0.499999  0.835949  0.332015  1
  W  W10  1  0.999986  0.335876  0.332068  1
  W  W11  1  0.000038  0.335874  0.832072  1
  O  O12  1  0.191723  0.500008  0.845866  1
  O  O13  1  0.191672  0.500028  0.345855  1
  O  O14  1  0.808369  0.499981  0.154137  1
  O  O15  1  0.808318  0.500002  0.654125  1
  O  O16  1  0.308269  0.000015  0.345886  1
  O  O17  1  0.308365  0.000009  0.845786  1
  O  O18  1  0.691706  0.999981  0.154059  1
  O  O19  1  0.691611  0.999990  0.654156  1
  O  O20  1  0.205643  0.172768  0.016338  1
  O  O21  1  0.205636  0.172779  0.516367  1
  O  O22  1  0.794395  0.172763  0.310841  1
  O  O23  1  0.794406  0.172750  0.810828  1
  O  O24  1  0.294340  0.672783  0.016353  1
  O  O25  1  0.294306  0.672825  0.516350  1
  O  O26  1  0.705573  0.672762  0.810839  1
  O  O27  1  0.705560  0.672795  0.310813  1
  O  O28  1  0.794351  0.827209  0.983594  1
  O  O29  1  0.794342  0.827219  0.483624  1
  O  O30  1  0.205587  0.827237  0.689137  1
  O  O31  1  0.205597  0.827225  0.189122  1
  O  O32  1  0.705629  0.327208  0.983610  1
  O  O33  1  0.705601  0.327250  0.483606  1
  O  O34  1  0.294386  0.327222  0.189150  1
  O  O35  1  0.294371  0.327255  0.689126  1
