# generated using pymatgen
data_CaCd3Hg24(As2Br3)8
_symmetry_space_group_name_H-M   'P 1'
_cell_length_a   12.74260397
_cell_length_b   12.74260397
_cell_length_c   12.74260397
_cell_angle_alpha   89.96844865
_cell_angle_beta   89.96844865
_cell_angle_gamma   90.03155135
_symmetry_Int_Tables_number   1
_chemical_formula_structural   CaCd3Hg24(As2Br3)8
_chemical_formula_sum   'Ca1 Cd3 Hg24 As16 Br24'
_cell_volume   2069.06607224
_cell_formula_units_Z   1
loop_
 _symmetry_equiv_pos_site_id
 _symmetry_equiv_pos_as_xyz
  1  'x, y, z'
loop_
 _atom_site_type_symbol
 _atom_site_label
 _atom_site_symmetry_multiplicity
 _atom_site_fract_x
 _atom_site_fract_y
 _atom_site_fract_z
 _atom_site_occupancy
  Ca  Ca0  1  0.500000  0.000000  0.500000  1
  Cd  Cd1  1  0.000000  0.000000  0.000000  1
  Cd  Cd2  1  0.000000  0.500000  0.500000  1
  Cd  Cd3  1  0.500000  0.500000  0.000000  1
  Hg  Hg4  1  0.714915  0.718017  0.476585  1
  Hg  Hg5  1  0.218017  0.023415  0.285085  1
  Hg  Hg6  1  0.976521  0.714733  0.781529  1
  Hg  Hg7  1  0.785267  0.281529  0.976521  1
  Hg  Hg8  1  0.523484  0.285563  0.281441  1
  Hg  Hg9  1  0.781983  0.976585  0.714915  1
  Hg  Hg10  1  0.023474  0.214595  0.718392  1
  Hg  Hg11  1  0.476585  0.785085  0.218017  1
  Hg  Hg12  1  0.218471  0.476521  0.785267  1
  Hg  Hg13  1  0.476516  0.714437  0.718559  1
  Hg  Hg14  1  0.785563  0.218559  0.476516  1
  Hg  Hg15  1  0.285085  0.281983  0.523415  1
  Hg  Hg16  1  0.023479  0.285267  0.218471  1
  Hg  Hg17  1  0.976526  0.785405  0.281608  1
  Hg  Hg18  1  0.781529  0.523479  0.214733  1
  Hg  Hg19  1  0.281608  0.523474  0.285405  1
  Hg  Hg20  1  0.285405  0.218392  0.023474  1
  Hg  Hg21  1  0.281441  0.976516  0.785563  1
  Hg  Hg22  1  0.523415  0.214915  0.781983  1
  Hg  Hg23  1  0.214733  0.718471  0.023479  1
  Hg  Hg24  1  0.718392  0.476526  0.714595  1
  Hg  Hg25  1  0.714595  0.781608  0.976526  1
  Hg  Hg26  1  0.214437  0.781441  0.523484  1
  Hg  Hg27  1  0.718559  0.023484  0.214437  1
  As  As28  1  0.830303  0.169730  0.669691  1
  As  As29  1  0.783871  0.716132  0.283839  1
  As  As30  1  0.830374  0.330374  0.169626  1
  As  As31  1  0.169626  0.669626  0.830374  1
  As  As32  1  0.330270  0.169691  0.830303  1
  As  As33  1  0.330309  0.330303  0.330270  1
  As  As34  1  0.216129  0.283868  0.716161  1
  As  As35  1  0.716138  0.216138  0.283862  1
  As  As36  1  0.169697  0.830270  0.330309  1
  As  As37  1  0.669730  0.830309  0.169697  1
  As  As38  1  0.783868  0.783839  0.783871  1
  As  As39  1  0.216132  0.216161  0.216129  1
  As  As40  1  0.283862  0.783862  0.716138  1
  As  As41  1  0.716161  0.283871  0.783868  1
  As  As42  1  0.669691  0.669697  0.669730  1
  As  As43  1  0.283839  0.716129  0.216132  1
  Br  Br44  1  0.032705  0.216489  0.961766  1
  Br  Br45  1  0.783695  0.461827  0.467348  1
  Br  Br46  1  0.967295  0.783511  0.038234  1
  Br  Br47  1  0.532652  0.283695  0.038173  1
  Br  Br48  1  0.967405  0.716305  0.538224  1
  Br  Br49  1  0.283511  0.461766  0.032705  1
  Br  Br50  1  0.038234  0.532705  0.283511  1
  Br  Br51  1  0.460551  0.033810  0.276127  1
  Br  Br52  1  0.783695  0.038224  0.967405  1
  Br  Br53  1  0.538224  0.532595  0.216305  1
  Br  Br54  1  0.723873  0.960551  0.466190  1
  Br  Br55  1  0.216305  0.961776  0.032595  1
  Br  Br56  1  0.461776  0.467405  0.783695  1
  Br  Br57  1  0.276127  0.039449  0.533810  1
  Br  Br58  1  0.961827  0.032652  0.216305  1
  Br  Br59  1  0.032595  0.283695  0.461776  1
  Br  Br60  1  0.539449  0.966190  0.723873  1
  Br  Br61  1  0.716489  0.538234  0.967295  1
  Br  Br62  1  0.216305  0.538173  0.532652  1
  Br  Br63  1  0.533810  0.223873  0.539449  1
  Br  Br64  1  0.961766  0.467295  0.716489  1
  Br  Br65  1  0.038173  0.967348  0.783695  1
  Br  Br66  1  0.466190  0.776127  0.460551  1
  Br  Br67  1  0.467348  0.716305  0.961827  1
