# generated using pymatgen
data_LaTh(NiRh)5
_symmetry_space_group_name_H-M   'P 1'
_cell_length_a   4.05879500
_cell_length_b   5.29308700
_cell_length_c   8.87122700
_cell_angle_alpha   90.00000000
_cell_angle_beta   90.00000000
_cell_angle_gamma   90.00000000
_symmetry_Int_Tables_number   1
_chemical_formula_structural   LaTh(NiRh)5
_chemical_formula_sum   'La1 Th1 Ni5 Rh5'
_cell_volume   190.58549362
_cell_formula_units_Z   1
loop_
 _symmetry_equiv_pos_site_id
 _symmetry_equiv_pos_as_xyz
  1  'x, y, z'
loop_
 _atom_site_type_symbol
 _atom_site_label
 _atom_site_symmetry_multiplicity
 _atom_site_fract_x
 _atom_site_fract_y
 _atom_site_fract_z
 _atom_site_occupancy
  La  La0  1  0.000000  0.000000  0.000000  1
  Th  Th1  1  0.000000  0.500000  0.500000  1
  Ni  Ni2  1  0.000000  0.000000  0.347426  1
  Ni  Ni3  1  0.000000  0.500000  0.830530  1
  Ni  Ni4  1  0.000000  0.500000  0.169470  1
  Ni  Ni5  1  0.000000  0.000000  0.652574  1
  Ni  Ni6  1  0.500000  0.000000  0.500000  1
  Rh  Rh7  1  0.500000  0.500000  0.000000  1
  Rh  Rh8  1  0.500000  0.249617  0.258972  1
  Rh  Rh9  1  0.500000  0.750383  0.741028  1
  Rh  Rh10  1  0.500000  0.750383  0.258972  1
  Rh  Rh11  1  0.500000  0.249617  0.741028  1
