# generated using pymatgen
data_Dy4Er3Lu(ReB6)4
_symmetry_space_group_name_H-M   'P 1'
_cell_length_a   3.66620600
_cell_length_b   9.13845202
_cell_length_c   11.52262502
_cell_angle_alpha   90.00685428
_cell_angle_beta   90.00000000
_cell_angle_gamma   90.00000000
_symmetry_Int_Tables_number   1
_chemical_formula_structural   Dy4Er3Lu(ReB6)4
_chemical_formula_sum   'Dy4 Er3 Lu1 Re4 B24'
_cell_volume   386.04766098
_cell_formula_units_Z   1
loop_
 _symmetry_equiv_pos_site_id
 _symmetry_equiv_pos_as_xyz
  1  'x, y, z'
loop_
 _atom_site_type_symbol
 _atom_site_label
 _atom_site_symmetry_multiplicity
 _atom_site_fract_x
 _atom_site_fract_y
 _atom_site_fract_z
 _atom_site_occupancy
  Dy  Dy0  1  0.000000  0.323445  0.414044  1
  Dy  Dy1  1  0.000000  0.676526  0.586270  1
  Dy  Dy2  1  0.000000  0.823220  0.085896  1
  Dy  Dy3  1  0.000000  0.176696  0.913885  1
  Er  Er4  1  0.000000  0.943499  0.370054  1
  Er  Er5  1  0.000000  0.056631  0.630074  1
  Er  Er6  1  0.000000  0.443591  0.129450  1
  Lu  Lu7  1  0.000000  0.556749  0.869722  1
  Re  Re8  1  0.000000  0.639180  0.320360  1
  Re  Re9  1  0.000000  0.361334  0.680185  1
  Re  Re10  1  0.000000  0.139236  0.179419  1
  Re  Re11  1  0.000000  0.859843  0.820417  1
  B  B12  1  0.500000  0.553626  0.432819  1
  B  B13  1  0.500000  0.446425  0.567529  1
  B  B14  1  0.500000  0.053571  0.067181  1
  B  B15  1  0.500000  0.945996  0.932666  1
  B  B16  1  0.500000  0.749869  0.418405  1
  B  B17  1  0.500000  0.250263  0.581772  1
  B  B18  1  0.500000  0.249987  0.081577  1
  B  B19  1  0.500000  0.749051  0.918329  1
  B  B20  1  0.500000  0.792672  0.265334  1
  B  B21  1  0.500000  0.207679  0.734785  1
  B  B22  1  0.500000  0.292696  0.234610  1
  B  B23  1  0.500000  0.706476  0.765642  1
  B  B24  1  0.500000  0.630830  0.185163  1
  B  B25  1  0.500000  0.369979  0.815180  1
  B  B26  1  0.500000  0.130901  0.314695  1
  B  B27  1  0.500000  0.868854  0.685445  1
  B  B28  1  0.500000  0.982463  0.212150  1
  B  B29  1  0.500000  0.017386  0.787952  1
  B  B30  1  0.500000  0.482415  0.287808  1
  B  B31  1  0.500000  0.518002  0.712778  1
  B  B32  1  0.500000  0.598861  0.026523  1
  B  B33  1  0.500000  0.402039  0.971762  1
  B  B34  1  0.500000  0.099194  0.472488  1
  B  B35  1  0.500000  0.900813  0.527630  1
