# generated using pymatgen
data_NdGdHo6(WO6)4
_symmetry_space_group_name_H-M   'P 1'
_cell_length_a   5.42072000
_cell_length_b   7.73433648
_cell_length_c   11.51120107
_cell_angle_alpha   75.44959627
_cell_angle_beta   90.00000000
_cell_angle_gamma   90.00000000
_symmetry_Int_Tables_number   1
_chemical_formula_structural   NdGdHo6(WO6)4
_chemical_formula_sum   'Nd1 Gd1 Ho6 W4 O24'
_cell_volume   467.13594153
_cell_formula_units_Z   1
loop_
 _symmetry_equiv_pos_site_id
 _symmetry_equiv_pos_as_xyz
  1  'x, y, z'
loop_
 _atom_site_type_symbol
 _atom_site_label
 _atom_site_symmetry_multiplicity
 _atom_site_fract_x
 _atom_site_fract_y
 _atom_site_fract_z
 _atom_site_occupancy
  Nd  Nd0  1  0.314807  0.500000  0.250000  1
  Gd  Gd1  1  0.684337  0.500000  0.750000  1
  Ho  Ho2  1  0.740512  0.000000  0.750000  1
  Ho  Ho3  1  0.258956  0.000000  0.250000  1
  Ho  Ho4  1  0.185228  0.795548  0.577770  1
  Ho  Ho5  1  0.814136  0.797308  0.076677  1
  Ho  Ho6  1  0.185228  0.204452  0.922230  1
  Ho  Ho7  1  0.814136  0.202692  0.423323  1
  W  W8  1  0.254487  0.726059  0.883926  1
  W  W9  1  0.745698  0.726495  0.385476  1
  W  W10  1  0.254487  0.273941  0.616074  1
  W  W11  1  0.745698  0.273505  0.114524  1
  O  O12  1  0.042496  0.941516  0.894936  1
  O  O13  1  0.533297  0.847047  0.930179  1
  O  O14  1  0.958057  0.940564  0.396287  1
  O  O15  1  0.457093  0.793154  0.726714  1
  O  O16  1  0.465596  0.846527  0.430804  1
  O  O17  1  0.982574  0.714361  0.770514  1
  O  O18  1  0.543907  0.794811  0.227112  1
  O  O19  1  0.852534  0.638710  0.547698  1
  O  O20  1  0.356153  0.491901  0.886056  1
  O  O21  1  0.013726  0.718012  0.269849  1
  O  O22  1  0.356153  0.508099  0.613944  1
  O  O23  1  0.852534  0.361290  0.952302  1
  O  O24  1  0.146169  0.639118  0.045400  1
  O  O25  1  0.649543  0.491363  0.388186  1
  O  O26  1  0.982574  0.285639  0.729486  1
  O  O27  1  0.649543  0.508637  0.111814  1
  O  O28  1  0.146169  0.360882  0.454600  1
  O  O29  1  0.457093  0.206846  0.773286  1
  O  O30  1  0.013726  0.281988  0.230151  1
  O  O31  1  0.533297  0.152953  0.569821  1
  O  O32  1  0.543907  0.205189  0.272888  1
  O  O33  1  0.042496  0.058484  0.605064  1
  O  O34  1  0.465596  0.153473  0.069196  1
  O  O35  1  0.958057  0.059436  0.103713  1
