# generated using pymatgen
data_Ti8Nb2CuSn6Ge
_symmetry_space_group_name_H-M   'P 1'
_cell_length_a   8.24878900
_cell_length_b   8.24878990
_cell_length_c   5.55674300
_cell_angle_alpha   90.00000000
_cell_angle_beta   90.00000000
_cell_angle_gamma   120.00000841
_symmetry_Int_Tables_number   1
_chemical_formula_structural   Ti8Nb2CuSn6Ge
_chemical_formula_sum   'Ti8 Nb2 Cu1 Sn6 Ge1'
_cell_volume   327.43970688
_cell_formula_units_Z   1
loop_
 _symmetry_equiv_pos_site_id
 _symmetry_equiv_pos_as_xyz
  1  'x, y, z'
loop_
 _atom_site_type_symbol
 _atom_site_label
 _atom_site_symmetry_multiplicity
 _atom_site_fract_x
 _atom_site_fract_y
 _atom_site_fract_z
 _atom_site_occupancy
  Ti  Ti0  1  0.268805  0.000000  0.739932  1
  Ti  Ti1  1  0.731195  0.000000  0.260068  1
  Ti  Ti2  1  0.000000  0.268805  0.739932  1
  Ti  Ti3  1  0.000000  0.731195  0.260068  1
  Ti  Ti4  1  0.731195  0.731195  0.739932  1
  Ti  Ti5  1  0.268805  0.268805  0.260068  1
  Ti  Ti6  1  0.666667  0.333333  0.000000  1
  Ti  Ti7  1  0.333333  0.666667  0.000000  1
  Nb  Nb8  1  0.333333  0.666667  0.500000  1
  Nb  Nb9  1  0.666667  0.333333  0.500000  1
  Cu  Cu10  1  0.000000  0.000000  0.000000  1
  Sn  Sn11  1  0.614928  0.000000  0.759597  1
  Sn  Sn12  1  0.385072  0.000000  0.240403  1
  Sn  Sn13  1  0.000000  0.614928  0.759597  1
  Sn  Sn14  1  0.000000  0.385072  0.240403  1
  Sn  Sn15  1  0.385072  0.385072  0.759597  1
  Sn  Sn16  1  0.614928  0.614928  0.240403  1
  Ge  Ge17  1  0.000000  0.000000  0.500000  1
