# generated using pymatgen
data_SmHoP6Pd20Pb
_symmetry_space_group_name_H-M   'P 1'
_cell_length_a   8.70889455
_cell_length_b   8.70890784
_cell_length_c   8.70897300
_cell_angle_alpha   59.99853140
_cell_angle_beta   59.99886293
_cell_angle_gamma   59.99822136
_symmetry_Int_Tables_number   1
_chemical_formula_structural   SmHoP6Pd20Pb
_chemical_formula_sum   'Sm1 Ho1 P6 Pd20 Pb1'
_cell_volume   467.05097426
_cell_formula_units_Z   1
loop_
 _symmetry_equiv_pos_site_id
 _symmetry_equiv_pos_as_xyz
  1  'x, y, z'
loop_
 _atom_site_type_symbol
 _atom_site_label
 _atom_site_symmetry_multiplicity
 _atom_site_fract_x
 _atom_site_fract_y
 _atom_site_fract_z
 _atom_site_occupancy
  Sm  Sm0  1  0.749992  0.749993  0.750002  1
  Ho  Ho1  1  0.000003  0.999992  0.000001  1
  P  P2  1  0.736353  0.263644  0.263651  1
  P  P3  1  0.263644  0.736344  0.736350  1
  P  P4  1  0.263646  0.736349  0.263652  1
  P  P5  1  0.736346  0.263645  0.736345  1
  P  P6  1  0.263644  0.263642  0.736358  1
  P  P7  1  0.736344  0.736341  0.263652  1
  Pd  Pd8  1  0.384438  0.384441  0.384452  1
  Pd  Pd9  1  0.614880  0.614883  0.614891  1
  Pd  Pd10  1  0.384433  0.384429  0.846684  1
  Pd  Pd11  1  0.384420  0.846701  0.384433  1
  Pd  Pd12  1  0.614883  0.614881  0.155333  1
  Pd  Pd13  1  0.614885  0.155330  0.614888  1
  Pd  Pd14  1  0.846702  0.384423  0.384432  1
  Pd  Pd15  1  0.155329  0.614882  0.614891  1
  Pd  Pd16  1  0.347512  0.996885  0.996893  1
  Pd  Pd17  1  0.658691  0.996891  0.996894  1
  Pd  Pd18  1  0.996881  0.347514  0.658708  1
  Pd  Pd19  1  0.996887  0.658691  0.347517  1
  Pd  Pd20  1  0.996884  0.347509  0.996896  1
  Pd  Pd21  1  0.658690  0.996887  0.347518  1
  Pd  Pd22  1  0.996886  0.658690  0.996897  1
  Pd  Pd23  1  0.347511  0.996883  0.658704  1
  Pd  Pd24  1  0.996886  0.996885  0.347520  1
  Pd  Pd25  1  0.996886  0.996889  0.658700  1
  Pd  Pd26  1  0.658696  0.347508  0.996892  1
  Pd  Pd27  1  0.347504  0.658693  0.996898  1
  Pb  Pb28  1  0.250141  0.250155  0.249948  1
