# generated using pymatgen
data_Sr2NdLu(Ir2O7)2
_symmetry_space_group_name_H-M   'P 1'
_cell_length_a   7.38871243
_cell_length_b   7.36704909
_cell_length_c   7.38871356
_cell_angle_alpha   59.87644260
_cell_angle_beta   59.67413928
_cell_angle_gamma   59.87644832
_symmetry_Int_Tables_number   1
_chemical_formula_structural   Sr2NdLu(Ir2O7)2
_chemical_formula_sum   'Sr2 Nd1 Lu1 Ir4 O14'
_cell_volume   283.15589325
_cell_formula_units_Z   1
loop_
 _symmetry_equiv_pos_site_id
 _symmetry_equiv_pos_as_xyz
  1  'x, y, z'
loop_
 _atom_site_type_symbol
 _atom_site_label
 _atom_site_symmetry_multiplicity
 _atom_site_fract_x
 _atom_site_fract_y
 _atom_site_fract_z
 _atom_site_occupancy
  Sr  Sr0  1  0.625000  0.125000  0.125000  1
  Sr  Sr1  1  0.125000  0.125000  0.625000  1
  Nd  Nd2  1  0.125000  0.125000  0.125000  1
  Lu  Lu3  1  0.125000  0.625000  0.125000  1
  Ir  Ir4  1  0.125000  0.625000  0.625000  1
  Ir  Ir5  1  0.625000  0.125000  0.625000  1
  Ir  Ir6  1  0.625000  0.625000  0.125000  1
  Ir  Ir7  1  0.625000  0.625000  0.625000  1
  O  O8  1  0.719563  0.684290  0.297074  1
  O  O9  1  0.296283  0.300120  0.707815  1
  O  O10  1  0.697652  0.303239  0.697652  1
  O  O11  1  0.296830  0.693238  0.296830  1
  O  O12  1  0.297074  0.684290  0.719563  1
  O  O13  1  0.707815  0.300120  0.296283  1
  O  O14  1  0.530437  0.565710  0.952926  1
  O  O15  1  0.953717  0.949880  0.542185  1
  O  O16  1  0.552348  0.946761  0.552348  1
  O  O17  1  0.953170  0.556762  0.953170  1
  O  O18  1  0.952926  0.565710  0.530437  1
  O  O19  1  0.542185  0.949880  0.953717  1
  O  O20  1  0.235213  0.276830  0.235213  1
  O  O21  1  0.014787  0.973170  0.014787  1
