# generated using pymatgen
data_YbEr(NiH4)2
_symmetry_space_group_name_H-M   'P 1'
_cell_length_a   3.56367120
_cell_length_b   4.69649700
_cell_length_c   5.98747077
_cell_angle_alpha   90.00000000
_cell_angle_beta   107.24094131
_cell_angle_gamma   90.00000000
_symmetry_Int_Tables_number   1
_chemical_formula_structural   YbEr(NiH4)2
_chemical_formula_sum   'Yb1 Er1 Ni2 H8'
_cell_volume   95.70813166
_cell_formula_units_Z   1
loop_
 _symmetry_equiv_pos_site_id
 _symmetry_equiv_pos_as_xyz
  1  'x, y, z'
loop_
 _atom_site_type_symbol
 _atom_site_label
 _atom_site_symmetry_multiplicity
 _atom_site_fract_x
 _atom_site_fract_y
 _atom_site_fract_z
 _atom_site_occupancy
  Yb  Yb0  1  0.130446  0.250001  0.260501  1
  Er  Er1  1  0.867371  0.750001  0.734790  1
  Ni  Ni2  1  0.597805  0.750001  0.194376  1
  Ni  Ni3  1  0.400964  0.250001  0.803893  1
  H  H4  1  0.500465  0.999552  0.000640  1
  H  H5  1  0.500465  0.500448  0.000640  1
  H  H6  1  0.083964  0.750001  0.167949  1
  H  H7  1  0.695428  0.990114  0.391256  1
  H  H8  1  0.695428  0.509886  0.391256  1
  H  H9  1  0.309446  0.509921  0.618500  1
  H  H10  1  0.309446  0.990078  0.618500  1
  H  H11  1  0.908770  0.250001  0.817699  1
