# generated using pymatgen
data_Dy3Y5Re2(B12Ir)2
_symmetry_space_group_name_H-M   'P 1'
_cell_length_a   3.67327800
_cell_length_b   9.17206272
_cell_length_c   11.55805100
_cell_angle_alpha   90.34895608
_cell_angle_beta   90.00000000
_cell_angle_gamma   90.00000000
_symmetry_Int_Tables_number   1
_chemical_formula_structural   Dy3Y5Re2(B12Ir)2
_chemical_formula_sum   'Dy3 Y5 Re2 B24 Ir2'
_cell_volume   389.40127170
_cell_formula_units_Z   1
loop_
 _symmetry_equiv_pos_site_id
 _symmetry_equiv_pos_as_xyz
  1  'x, y, z'
loop_
 _atom_site_type_symbol
 _atom_site_label
 _atom_site_symmetry_multiplicity
 _atom_site_fract_x
 _atom_site_fract_y
 _atom_site_fract_z
 _atom_site_occupancy
  Dy  Dy0  1  0.000000  0.053881  0.627797  1
  Dy  Dy1  1  0.000000  0.441808  0.125828  1
  Dy  Dy2  1  0.000000  0.558180  0.874155  1
  Y  Y3  1  0.000000  0.317470  0.409692  1
  Y  Y4  1  0.000000  0.682513  0.590318  1
  Y  Y5  1  0.000000  0.826783  0.082342  1
  Y  Y6  1  0.000000  0.173207  0.917643  1
  Y  Y7  1  0.000000  0.946360  0.372496  1
  Re  Re8  1  0.000000  0.138514  0.179676  1
  Re  Re9  1  0.000000  0.861497  0.820223  1
  B  B10  1  0.500000  0.554155  0.433666  1
  B  B11  1  0.500000  0.445837  0.566347  1
  B  B12  1  0.500000  0.053398  0.067467  1
  B  B13  1  0.500000  0.946580  0.932506  1
  B  B14  1  0.500000  0.748853  0.421137  1
  B  B15  1  0.500000  0.251053  0.578952  1
  B  B16  1  0.500000  0.247399  0.080826  1
  B  B17  1  0.500000  0.752615  0.919149  1
  B  B18  1  0.500000  0.790598  0.266329  1
  B  B19  1  0.500000  0.209361  0.733556  1
  B  B20  1  0.500000  0.292103  0.233825  1
  B  B21  1  0.500000  0.707906  0.766175  1
  B  B22  1  0.500000  0.632088  0.184378  1
  B  B23  1  0.500000  0.367866  0.815587  1
  B  B24  1  0.500000  0.132089  0.314293  1
  B  B25  1  0.500000  0.868042  0.685715  1
  B  B26  1  0.500000  0.983504  0.212997  1
  B  B27  1  0.500000  0.016454  0.786908  1
  B  B28  1  0.500000  0.483056  0.287111  1
  B  B29  1  0.500000  0.516905  0.712854  1
  B  B30  1  0.500000  0.608450  0.030364  1
  B  B31  1  0.500000  0.391542  0.969617  1
  B  B32  1  0.500000  0.109214  0.470403  1
  B  B33  1  0.500000  0.890889  0.529708  1
  Ir  Ir34  1  0.000000  0.636568  0.322255  1
  Ir  Ir35  1  0.000000  0.363262  0.677704  1
