# generated using pymatgen
data_Sm3CoMoP6Rh7
_symmetry_space_group_name_H-M   'P 1'
_cell_length_a   3.91915300
_cell_length_b   11.20157900
_cell_length_c   12.88287200
_cell_angle_alpha   90.00000000
_cell_angle_beta   90.00000000
_cell_angle_gamma   90.00000000
_symmetry_Int_Tables_number   1
_chemical_formula_structural   Sm3CoMoP6Rh7
_chemical_formula_sum   'Sm6 Co2 Mo2 P12 Rh14'
_cell_volume   565.56712384
_cell_formula_units_Z   2
loop_
 _symmetry_equiv_pos_site_id
 _symmetry_equiv_pos_as_xyz
  1  'x, y, z'
loop_
 _atom_site_type_symbol
 _atom_site_label
 _atom_site_symmetry_multiplicity
 _atom_site_fract_x
 _atom_site_fract_y
 _atom_site_fract_z
 _atom_site_occupancy
  Sm  Sm0  1  0.000000  0.500000  0.520532  1
  Sm  Sm1  1  0.500000  0.000000  0.479468  1
  Sm  Sm2  1  0.500000  0.816537  0.200786  1
  Sm  Sm3  1  0.500000  0.183463  0.200786  1
  Sm  Sm4  1  0.000000  0.683463  0.799214  1
  Sm  Sm5  1  0.000000  0.316537  0.799214  1
  Co  Co6  1  0.000000  0.500000  0.990237  1
  Co  Co7  1  0.500000  0.000000  0.009763  1
  Mo  Mo8  1  0.500000  0.500000  0.154507  1
  Mo  Mo9  1  0.000000  0.000000  0.845493  1
  P  P10  1  0.500000  0.500000  0.882250  1
  P  P11  1  0.000000  0.000000  0.117750  1
  P  P12  1  0.500000  0.500000  0.341366  1
  P  P13  1  0.000000  0.000000  0.658634  1
  P  P14  1  0.500000  0.313456  0.617916  1
  P  P15  1  0.500000  0.686544  0.617916  1
  P  P16  1  0.000000  0.186544  0.382084  1
  P  P17  1  0.000000  0.813456  0.382084  1
  P  P18  1  0.500000  0.852670  0.893532  1
  P  P19  1  0.500000  0.147330  0.893532  1
  P  P20  1  0.000000  0.647330  0.106468  1
  P  P21  1  0.000000  0.352670  0.106468  1
  Rh  Rh22  1  0.500000  0.500000  0.701933  1
  Rh  Rh23  1  0.000000  0.000000  0.298067  1
  Rh  Rh24  1  0.500000  0.334016  0.988176  1
  Rh  Rh25  1  0.500000  0.665984  0.988176  1
  Rh  Rh26  1  0.000000  0.165984  0.011824  1
  Rh  Rh27  1  0.000000  0.834016  0.011824  1
  Rh  Rh28  1  0.500000  0.292756  0.430508  1
  Rh  Rh29  1  0.500000  0.707244  0.430508  1
  Rh  Rh30  1  0.000000  0.207244  0.569492  1
  Rh  Rh31  1  0.000000  0.792756  0.569492  1
  Rh  Rh32  1  0.500000  0.875933  0.711115  1
  Rh  Rh33  1  0.500000  0.124067  0.711115  1
  Rh  Rh34  1  0.000000  0.624067  0.288885  1
  Rh  Rh35  1  0.000000  0.375933  0.288885  1
