# generated using pymatgen
data_La2Y3IrOs
_symmetry_space_group_name_H-M   'P 1'
_cell_length_a   6.56338149
_cell_length_b   7.29854751
_cell_length_c   8.84529581
_cell_angle_alpha   96.51794718
_cell_angle_beta   111.77791145
_cell_angle_gamma   89.99999386
_symmetry_Int_Tables_number   1
_chemical_formula_structural   La2Y3IrOs
_chemical_formula_sum   'La4 Y6 Ir2 Os2'
_cell_volume   390.52558493
_cell_formula_units_Z   2
loop_
 _symmetry_equiv_pos_site_id
 _symmetry_equiv_pos_as_xyz
  1  'x, y, z'
loop_
 _atom_site_type_symbol
 _atom_site_label
 _atom_site_symmetry_multiplicity
 _atom_site_fract_x
 _atom_site_fract_y
 _atom_site_fract_z
 _atom_site_occupancy
  La  La0  1  0.977886  0.910451  0.192285  1
  La  La1  1  0.785601  0.589549  0.807715  1
  La  La2  1  0.015284  0.086462  0.806950  1
  La  La3  1  0.208335  0.413538  0.193050  1
  Y  Y4  1  0.641087  0.816499  0.433958  1
  Y  Y5  1  0.207128  0.683501  0.566042  1
  Y  Y6  1  0.360412  0.182033  0.569202  1
  Y  Y7  1  0.791210  0.317967  0.430798  1
  Y  Y8  1  0.430483  0.750000  0.000000  1
  Y  Y9  1  0.570537  0.250000  0.000000  1
  Ir  Ir10  1  0.179767  0.423226  0.775210  1
  Ir  Ir11  1  0.404558  0.076774  0.224790  1
  Os  Os12  1  0.825777  0.577047  0.223840  1
  Os  Os13  1  0.601937  0.922953  0.776160  1
