# generated using pymatgen
data_Er2Lu3Ga3Si
_symmetry_space_group_name_H-M   'P 1'
_cell_length_a   7.34431800
_cell_length_b   7.69440100
_cell_length_c   14.77954300
_cell_angle_alpha   90.00000000
_cell_angle_beta   90.00000000
_cell_angle_gamma   90.00000000
_symmetry_Int_Tables_number   1
_chemical_formula_structural   Er2Lu3Ga3Si
_chemical_formula_sum   'Er8 Lu12 Ga12 Si4'
_cell_volume   835.19386322
_cell_formula_units_Z   4
loop_
 _symmetry_equiv_pos_site_id
 _symmetry_equiv_pos_as_xyz
  1  'x, y, z'
loop_
 _atom_site_type_symbol
 _atom_site_label
 _atom_site_symmetry_multiplicity
 _atom_site_fract_x
 _atom_site_fract_y
 _atom_site_fract_z
 _atom_site_occupancy
  Er  Er0  1  0.014777  0.181551  0.095202  1
  Er  Er1  1  0.985223  0.818449  0.904798  1
  Er  Er2  1  0.485223  0.681551  0.904798  1
  Er  Er3  1  0.985223  0.818449  0.595202  1
  Er  Er4  1  0.514777  0.318449  0.095202  1
  Er  Er5  1  0.014777  0.181551  0.404798  1
  Er  Er6  1  0.514777  0.318449  0.404798  1
  Er  Er7  1  0.485223  0.681551  0.595202  1
  Lu  Lu8  1  0.161100  0.513034  0.750000  1
  Lu  Lu9  1  0.838900  0.486966  0.250000  1
  Lu  Lu10  1  0.338900  0.013034  0.250000  1
  Lu  Lu11  1  0.661100  0.986966  0.750000  1
  Lu  Lu12  1  0.326955  0.173752  0.621181  1
  Lu  Lu13  1  0.673045  0.826248  0.378819  1
  Lu  Lu14  1  0.173045  0.673752  0.378819  1
  Lu  Lu15  1  0.673045  0.826248  0.121181  1
  Lu  Lu16  1  0.826955  0.326248  0.621181  1
  Lu  Lu17  1  0.326955  0.173752  0.878819  1
  Lu  Lu18  1  0.826955  0.326248  0.878819  1
  Lu  Lu19  1  0.173045  0.673752  0.121181  1
  Ga  Ga20  1  0.033122  0.105606  0.750000  1
  Ga  Ga21  1  0.966878  0.894394  0.250000  1
  Ga  Ga22  1  0.466878  0.605606  0.250000  1
  Ga  Ga23  1  0.533122  0.394394  0.750000  1
  Ga  Ga24  1  0.160345  0.470335  0.541459  1
  Ga  Ga25  1  0.839655  0.529665  0.458541  1
  Ga  Ga26  1  0.339655  0.970335  0.458541  1
  Ga  Ga27  1  0.839655  0.529665  0.041459  1
  Ga  Ga28  1  0.660345  0.029665  0.541459  1
  Ga  Ga29  1  0.160345  0.470335  0.958541  1
  Ga  Ga30  1  0.660345  0.029665  0.958541  1
  Ga  Ga31  1  0.339655  0.970335  0.041459  1
  Si  Si32  1  0.279553  0.874127  0.750000  1
  Si  Si33  1  0.720447  0.125873  0.250000  1
  Si  Si34  1  0.220447  0.374127  0.250000  1
  Si  Si35  1  0.779553  0.625873  0.750000  1
