# generated using pymatgen
data_Ho3AlZn2C
_symmetry_space_group_name_H-M   'P 1'
_cell_length_a   9.15351256
_cell_length_b   9.15351302
_cell_length_c   9.15351300
_cell_angle_alpha   59.99999647
_cell_angle_beta   59.99999481
_cell_angle_gamma   60.00000028
_symmetry_Int_Tables_number   1
_chemical_formula_structural   Ho3AlZn2C
_chemical_formula_sum   'Ho12 Al4 Zn8 C4'
_cell_volume   542.31093666
_cell_formula_units_Z   4
loop_
 _symmetry_equiv_pos_site_id
 _symmetry_equiv_pos_as_xyz
  1  'x, y, z'
loop_
 _atom_site_type_symbol
 _atom_site_label
 _atom_site_symmetry_multiplicity
 _atom_site_fract_x
 _atom_site_fract_y
 _atom_site_fract_z
 _atom_site_occupancy
  Ho  Ho0  1  0.445700  0.445700  0.054300  1
  Ho  Ho1  1  0.054300  0.445700  0.054300  1
  Ho  Ho2  1  0.445700  0.054300  0.054300  1
  Ho  Ho3  1  0.054300  0.054300  0.445700  1
  Ho  Ho4  1  0.445700  0.054300  0.445700  1
  Ho  Ho5  1  0.054300  0.445700  0.445700  1
  Ho  Ho6  1  0.804300  0.804300  0.195700  1
  Ho  Ho7  1  0.195700  0.804300  0.195700  1
  Ho  Ho8  1  0.804300  0.195700  0.195700  1
  Ho  Ho9  1  0.195700  0.195700  0.804300  1
  Ho  Ho10  1  0.804300  0.195700  0.804300  1
  Ho  Ho11  1  0.195700  0.804300  0.804300  1
  Al  Al12  1  0.625000  0.625000  0.125000  1
  Al  Al13  1  0.625000  0.125000  0.625000  1
  Al  Al14  1  0.125000  0.625000  0.625000  1
  Al  Al15  1  0.625000  0.625000  0.625000  1
  Zn  Zn16  1  0.827015  0.827015  0.518954  1
  Zn  Zn17  1  0.827015  0.518954  0.827015  1
  Zn  Zn18  1  0.518954  0.827015  0.827015  1
  Zn  Zn19  1  0.827015  0.827015  0.827015  1
  Zn  Zn20  1  0.422985  0.422985  0.731046  1
  Zn  Zn21  1  0.422985  0.731046  0.422985  1
  Zn  Zn22  1  0.731046  0.422985  0.422985  1
  Zn  Zn23  1  0.422985  0.422985  0.422985  1
  C  C24  1  0.125000  0.125000  0.625000  1
  C  C25  1  0.125000  0.625000  0.125000  1
  C  C26  1  0.625000  0.125000  0.125000  1
  C  C27  1  0.125000  0.125000  0.125000  1
