# generated using pymatgen
data_Pa2Si5Ir3
_symmetry_space_group_name_H-M   'P 1'
_cell_length_a   8.12475942
_cell_length_b   8.12475932
_cell_length_c   8.12475976
_cell_angle_alpha   137.12483291
_cell_angle_beta   104.01530754
_cell_angle_gamma   91.43145540
_symmetry_Int_Tables_number   1
_chemical_formula_structural   Pa2Si5Ir3
_chemical_formula_sum   'Pa4 Si10 Ir6'
_cell_volume   336.99483238
_cell_formula_units_Z   2
loop_
 _symmetry_equiv_pos_site_id
 _symmetry_equiv_pos_as_xyz
  1  'x, y, z'
loop_
 _atom_site_type_symbol
 _atom_site_label
 _atom_site_symmetry_multiplicity
 _atom_site_fract_x
 _atom_site_fract_y
 _atom_site_fract_z
 _atom_site_occupancy
  Pa  Pa0  1  0.639551  0.367278  0.272273  1
  Pa  Pa1  1  0.360449  0.632722  0.727727  1
  Pa  Pa2  1  0.904994  0.132722  0.772273  1
  Pa  Pa3  1  0.095006  0.867278  0.227727  1
  Si  Si4  1  0.274500  0.024500  0.750000  1
  Si  Si5  1  0.456975  0.109292  0.347683  1
  Si  Si6  1  0.274500  0.524500  0.250000  1
  Si  Si7  1  0.000000  0.750000  0.750000  1
  Si  Si8  1  0.725500  0.475500  0.750000  1
  Si  Si9  1  0.238389  0.390708  0.847683  1
  Si  Si10  1  0.543025  0.890708  0.652317  1
  Si  Si11  1  0.761611  0.609292  0.152317  1
  Si  Si12  1  0.725500  0.975500  0.250000  1
  Si  Si13  1  0.000000  0.250000  0.250000  1
  Ir  Ir14  1  0.744545  0.859394  0.885151  1
  Ir  Ir15  1  0.025757  0.640606  0.385151  1
  Ir  Ir16  1  0.974243  0.359394  0.614849  1
  Ir  Ir17  1  0.255455  0.140606  0.114849  1
  Ir  Ir18  1  0.500000  0.750000  0.250000  1
  Ir  Ir19  1  0.500000  0.250000  0.750000  1
