# generated using pymatgen
data_Tm7Lu3(Tl3S)2
_symmetry_space_group_name_H-M   'P 1'
_cell_length_a   8.98370500
_cell_length_b   8.98370583
_cell_length_c   6.59601900
_cell_angle_alpha   90.00000000
_cell_angle_beta   90.00000000
_cell_angle_gamma   119.99999325
_symmetry_Int_Tables_number   1
_chemical_formula_structural   Tm7Lu3(Tl3S)2
_chemical_formula_sum   'Tm7 Lu3 Tl6 S2'
_cell_volume   461.02403170
_cell_formula_units_Z   1
loop_
 _symmetry_equiv_pos_site_id
 _symmetry_equiv_pos_as_xyz
  1  'x, y, z'
loop_
 _atom_site_type_symbol
 _atom_site_label
 _atom_site_symmetry_multiplicity
 _atom_site_fract_x
 _atom_site_fract_y
 _atom_site_fract_z
 _atom_site_occupancy
  Tm  Tm0  1  0.666667  0.333333  0.000000  1
  Tm  Tm1  1  0.757541  0.757610  0.749861  1
  Tm  Tm2  1  0.242390  0.999932  0.749861  1
  Tm  Tm3  1  0.000068  0.242459  0.749861  1
  Tm  Tm4  1  0.242390  0.242459  0.250139  1
  Tm  Tm5  1  0.757541  0.999932  0.250139  1
  Tm  Tm6  1  0.000068  0.757610  0.250139  1
  Lu  Lu7  1  0.333333  0.666667  0.000000  1
  Lu  Lu8  1  0.333333  0.666667  0.500000  1
  Lu  Lu9  1  0.666667  0.333333  0.500000  1
  Tl  Tl10  1  0.399949  0.400299  0.749658  1
  Tl  Tl11  1  0.599701  0.999650  0.749658  1
  Tl  Tl12  1  0.000350  0.600051  0.749658  1
  Tl  Tl13  1  0.599701  0.600051  0.250342  1
  Tl  Tl14  1  0.399949  0.999650  0.250342  1
  Tl  Tl15  1  0.000350  0.400299  0.250342  1
  S  S16  1  0.000000  0.000000  0.000000  1
  S  S17  1  0.000000  0.000000  0.500000  1
