# generated using pymatgen
data_Eu2HoEr3(Co3P2)6
_symmetry_space_group_name_H-M   'P 1'
_cell_length_a   3.72295300
_cell_length_b   10.59875200
_cell_length_c   12.23954000
_cell_angle_alpha   89.99707915
_cell_angle_beta   90.00000000
_cell_angle_gamma   90.00000000
_symmetry_Int_Tables_number   1
_chemical_formula_structural   Eu2HoEr3(Co3P2)6
_chemical_formula_sum   'Eu2 Ho1 Er3 Co18 P12'
_cell_volume   482.95579269
_cell_formula_units_Z   1
loop_
 _symmetry_equiv_pos_site_id
 _symmetry_equiv_pos_as_xyz
  1  'x, y, z'
loop_
 _atom_site_type_symbol
 _atom_site_label
 _atom_site_symmetry_multiplicity
 _atom_site_fract_x
 _atom_site_fract_y
 _atom_site_fract_z
 _atom_site_occupancy
  Eu  Eu0  1  0.000000  0.500175  0.523824  1
  Eu  Eu1  1  0.500000  0.999796  0.475974  1
  Ho  Ho2  1  0.000000  0.317435  0.795850  1
  Er  Er3  1  0.500000  0.817491  0.204291  1
  Er  Er4  1  0.500000  0.182516  0.204141  1
  Er  Er5  1  0.000000  0.682712  0.795706  1
  Co  Co6  1  0.000000  0.500215  0.986304  1
  Co  Co7  1  0.500000  0.999813  0.014194  1
  Co  Co8  1  0.500000  0.295733  0.428979  1
  Co  Co9  1  0.500000  0.704274  0.429159  1
  Co  Co10  1  0.000000  0.203627  0.570483  1
  Co  Co11  1  0.000000  0.796314  0.570743  1
  Co  Co12  1  0.500000  0.879301  0.712253  1
  Co  Co13  1  0.500000  0.120327  0.712041  1
  Co  Co14  1  0.000000  0.620774  0.287735  1
  Co  Co15  1  0.000000  0.379239  0.287676  1
  Co  Co16  1  0.500000  0.333364  0.994103  1
  Co  Co17  1  0.500000  0.666849  0.993941  1
  Co  Co18  1  0.000000  0.166449  0.006443  1
  Co  Co19  1  0.000000  0.833355  0.006254  1
  Co  Co20  1  0.500000  0.500054  0.157065  1
  Co  Co21  1  0.000000  0.999953  0.842906  1
  Co  Co22  1  0.500000  0.500408  0.704485  1
  Co  Co23  1  0.000000  0.999953  0.295544  1
  P  P24  1  0.500000  0.307065  0.617319  1
  P  P25  1  0.500000  0.692977  0.617666  1
  P  P26  1  0.000000  0.192560  0.382065  1
  P  P27  1  0.000000  0.807318  0.382199  1
  P  P28  1  0.500000  0.500372  0.882754  1
  P  P29  1  0.000000  0.999891  0.117676  1
  P  P30  1  0.500000  0.846864  0.894209  1
  P  P31  1  0.500000  0.152781  0.894459  1
  P  P32  1  0.000000  0.653341  0.105899  1
  P  P33  1  0.000000  0.346757  0.105793  1
  P  P34  1  0.500000  0.499961  0.340192  1
  P  P35  1  0.000000  0.999988  0.659673  1
