# generated using pymatgen
data_Pr2SmSiSe2N3
_symmetry_space_group_name_H-M   'P 1'
_cell_length_a   10.49348546
_cell_length_b   11.52850194
_cell_length_c   11.53368386
_cell_angle_alpha   111.23619338
_cell_angle_beta   107.62291226
_cell_angle_gamma   107.59730704
_symmetry_Int_Tables_number   1
_chemical_formula_structural   Pr2SmSiSe2N3
_chemical_formula_sum   'Pr12 Sm6 Si6 Se12 N18'
_cell_volume   1098.14349175
_cell_formula_units_Z   6
loop_
 _symmetry_equiv_pos_site_id
 _symmetry_equiv_pos_as_xyz
  1  'x, y, z'
loop_
 _atom_site_type_symbol
 _atom_site_label
 _atom_site_symmetry_multiplicity
 _atom_site_fract_x
 _atom_site_fract_y
 _atom_site_fract_z
 _atom_site_occupancy
  Pr  Pr0  1  0.611072  0.914865  0.293184  1
  Pr  Pr1  1  0.682117  0.292113  0.375248  1
  Pr  Pr2  1  0.043207  0.214916  0.486760  1
  Pr  Pr3  1  0.958122  0.783420  0.509790  1
  Pr  Pr4  1  0.313947  0.703418  0.620937  1
  Pr  Pr5  1  0.390606  0.082867  0.707408  1
  Pr  Pr6  1  0.752298  0.878497  0.716107  1
  Pr  Pr7  1  0.552743  0.512425  0.729104  1
  Pr  Pr8  1  0.825417  0.275475  0.788381  1
  Pr  Pr9  1  0.960918  0.715000  0.837211  1
  Pr  Pr10  1  0.123437  0.162149  0.877622  1
  Pr  Pr11  1  0.306124  0.621683  0.918000  1
  Sm  Sm12  1  0.700984  0.377319  0.089000  1
  Sm  Sm13  1  0.878628  0.842737  0.119262  1
  Sm  Sm14  1  0.037317  0.279033  0.159415  1
  Sm  Sm15  1  0.176959  0.731739  0.214642  1
  Sm  Sm16  1  0.447090  0.481978  0.267897  1
  Sm  Sm17  1  0.242837  0.119999  0.276936  1
  Si  Si18  1  0.287417  0.900950  0.081889  1
  Si  Si19  1  0.387861  0.181067  0.098171  1
  Si  Si20  1  0.795800  0.082545  0.182282  1
  Si  Si21  1  0.204316  0.916716  0.817252  1
  Si  Si22  1  0.612291  0.819589  0.901801  1
  Si  Si23  1  0.712902  0.102235  0.921887  1
  Se  Se24  1  0.168528  0.462489  0.049272  1
  Se  Se25  1  0.666359  0.663510  0.207284  1
  Se  Se26  1  0.003342  0.542364  0.331489  1
  Se  Se27  1  0.124648  0.957994  0.414156  1
  Se  Se28  1  0.294313  0.415541  0.455467  1
  Se  Se29  1  0.453806  0.786679  0.453397  1
  Se  Se30  1  0.540646  0.212258  0.544453  1
  Se  Se31  1  0.702328  0.580381  0.536965  1
  Se  Se32  1  0.874238  0.041431  0.581911  1
  Se  Se33  1  0.997644  0.454619  0.668308  1
  Se  Se34  1  0.326103  0.330684  0.784822  1
  Se  Se35  1  0.838155  0.545379  0.968072  1
  N  N36  1  0.671194  0.902368  0.082239  1
  N  N37  1  0.770371  0.182698  0.102492  1
  N  N38  1  0.121304  0.874537  0.104587  1
  N  N39  1  0.250518  0.232219  0.129490  1
  N  N40  1  0.352701  0.801508  0.140594  1
  N  N41  1  0.411462  0.081359  0.179226  1
  N  N42  1  0.553545  0.337947  0.194465  1
  N  N43  1  0.983429  0.102205  0.227365  1
  N  N44  1  0.787235  0.139403  0.339294  1
  N  N45  1  0.213657  0.859327  0.660412  1
  N  N46  1  0.016180  0.894963  0.767106  1
  N  N47  1  0.446494  0.662524  0.802068  1
  N  N48  1  0.588548  0.922066  0.824216  1
  N  N49  1  0.646668  0.203406  0.866816  1
  N  N50  1  0.751215  0.769594  0.873995  1
  N  N51  1  0.879578  0.130434  0.900235  1
  N  N52  1  0.232414  0.820851  0.901768  1
  N  N53  1  0.328964  0.096520  0.917854  1
