# generated using pymatgen
data_YEr9(IrPb3)2
_symmetry_space_group_name_H-M   'P 1'
_cell_length_a   9.16385700
_cell_length_b   9.16385765
_cell_length_c   6.80826100
_cell_angle_alpha   90.00000000
_cell_angle_beta   90.00000000
_cell_angle_gamma   119.99999404
_symmetry_Int_Tables_number   1
_chemical_formula_structural   YEr9(IrPb3)2
_chemical_formula_sum   'Y1 Er9 Ir2 Pb6'
_cell_volume   495.13484650
_cell_formula_units_Z   1
loop_
 _symmetry_equiv_pos_site_id
 _symmetry_equiv_pos_as_xyz
  1  'x, y, z'
loop_
 _atom_site_type_symbol
 _atom_site_label
 _atom_site_symmetry_multiplicity
 _atom_site_fract_x
 _atom_site_fract_y
 _atom_site_fract_z
 _atom_site_occupancy
  Y  Y0  1  0.333333  0.666667  0.500000  1
  Er  Er1  1  0.999963  0.764345  0.750058  1
  Er  Er2  1  0.235655  0.000037  0.249942  1
  Er  Er3  1  0.764382  0.000037  0.750058  1
  Er  Er4  1  0.999963  0.235618  0.249942  1
  Er  Er5  1  0.666667  0.333333  0.500000  1
  Er  Er6  1  0.764382  0.764345  0.249942  1
  Er  Er7  1  0.235655  0.235618  0.750058  1
  Er  Er8  1  0.333333  0.666667  0.000000  1
  Er  Er9  1  0.666667  0.333333  0.000000  1
  Ir  Ir10  1  0.000000  0.000000  0.000000  1
  Ir  Ir11  1  0.000000  0.000000  0.500000  1
  Pb  Pb12  1  0.404976  0.404737  0.249777  1
  Pb  Pb13  1  0.999761  0.404737  0.750223  1
  Pb  Pb14  1  0.999761  0.595024  0.249777  1
  Pb  Pb15  1  0.595263  0.000239  0.249777  1
  Pb  Pb16  1  0.404976  0.000239  0.750223  1
  Pb  Pb17  1  0.595263  0.595024  0.750223  1
