# generated using pymatgen
data_YbGd4Cu2Sb
_symmetry_space_group_name_H-M   'P 1'
_cell_length_a   8.68664586
_cell_length_b   8.68664529
_cell_length_c   8.68664500
_cell_angle_alpha   126.94293894
_cell_angle_beta   126.94293611
_cell_angle_gamma   78.34379776
_symmetry_Int_Tables_number   1
_chemical_formula_structural   YbGd4Cu2Sb
_chemical_formula_sum   'Yb2 Gd8 Cu4 Sb2'
_cell_volume   405.49205008
_cell_formula_units_Z   2
loop_
 _symmetry_equiv_pos_site_id
 _symmetry_equiv_pos_as_xyz
  1  'x, y, z'
loop_
 _atom_site_type_symbol
 _atom_site_label
 _atom_site_symmetry_multiplicity
 _atom_site_fract_x
 _atom_site_fract_y
 _atom_site_fract_z
 _atom_site_occupancy
  Yb  Yb0  1  0.000000  0.000000  0.000000  1
  Yb  Yb1  1  0.500000  0.500000  0.000000  1
  Gd  Gd2  1  0.801282  0.301282  0.815829  1
  Gd  Gd3  1  0.198718  0.698718  0.184171  1
  Gd  Gd4  1  0.485454  0.985454  0.184171  1
  Gd  Gd5  1  0.301282  0.485454  0.500000  1
  Gd  Gd6  1  0.014546  0.198718  0.500000  1
  Gd  Gd7  1  0.514546  0.014546  0.815829  1
  Gd  Gd8  1  0.698718  0.514546  0.500000  1
  Gd  Gd9  1  0.985454  0.801282  0.500000  1
  Cu  Cu10  1  0.126711  0.626711  0.753419  1
  Cu  Cu11  1  0.873289  0.373289  0.246581  1
  Cu  Cu12  1  0.626711  0.873289  0.500000  1
  Cu  Cu13  1  0.373289  0.126711  0.500000  1
  Sb  Sb14  1  0.250000  0.250000  0.000000  1
  Sb  Sb15  1  0.750000  0.750000  0.000000  1
