# generated using pymatgen
data_Na2Ta5Nb(Co4P3)4
_symmetry_space_group_name_H-M   'P 1'
_cell_length_a   11.98392108
_cell_length_b   11.98392070
_cell_length_c   3.58193400
_cell_angle_alpha   90.00000000
_cell_angle_beta   90.00000000
_cell_angle_gamma   119.98698788
_symmetry_Int_Tables_number   1
_chemical_formula_structural   Na2Ta5Nb(Co4P3)4
_chemical_formula_sum   'Na2 Ta5 Nb1 Co16 P12'
_cell_volume   445.55672924
_cell_formula_units_Z   1
loop_
 _symmetry_equiv_pos_site_id
 _symmetry_equiv_pos_as_xyz
  1  'x, y, z'
loop_
 _atom_site_type_symbol
 _atom_site_label
 _atom_site_symmetry_multiplicity
 _atom_site_fract_x
 _atom_site_fract_y
 _atom_site_fract_z
 _atom_site_occupancy
  Na  Na0  1  0.333434  0.666599  0.000000  1
  Na  Na1  1  0.666599  0.333434  0.000000  1
  Ta  Ta2  1  0.821027  0.000116  0.500000  1
  Ta  Ta3  1  0.000116  0.821027  0.500000  1
  Ta  Ta4  1  0.444390  0.999692  0.000000  1
  Ta  Ta5  1  0.999692  0.444390  0.000000  1
  Ta  Ta6  1  0.556164  0.556164  0.000000  1
  Nb  Nb7  1  0.179558  0.179558  0.500000  1
  Co  Co8  1  0.275340  0.999723  0.500000  1
  Co  Co9  1  0.999723  0.275340  0.500000  1
  Co  Co10  1  0.725107  0.725107  0.500000  1
  Co  Co11  1  0.637400  0.809968  0.000000  1
  Co  Co12  1  0.190182  0.827547  0.000000  1
  Co  Co13  1  0.172288  0.363796  0.000000  1
  Co  Co14  1  0.363796  0.172288  0.000000  1
  Co  Co15  1  0.809968  0.637400  0.000000  1
  Co  Co16  1  0.827547  0.190182  0.000000  1
  Co  Co17  1  0.525081  0.875520  0.500000  1
  Co  Co18  1  0.124044  0.649105  0.500000  1
  Co  Co19  1  0.350547  0.474677  0.500000  1
  Co  Co20  1  0.474677  0.350547  0.500000  1
  Co  Co21  1  0.875520  0.525081  0.500000  1
  Co  Co22  1  0.649105  0.124044  0.500000  1
  Co  Co23  1  0.999021  0.999021  0.000000  1
  P  P24  1  0.171352  0.000097  0.000000  1
  P  P25  1  0.000097  0.171352  0.000000  1
  P  P26  1  0.828333  0.828333  0.000000  1
  P  P27  1  0.516334  0.686818  0.500000  1
  P  P28  1  0.312820  0.829091  0.500000  1
  P  P29  1  0.170744  0.483424  0.500000  1
  P  P30  1  0.483424  0.170744  0.500000  1
  P  P31  1  0.686818  0.516334  0.500000  1
  P  P32  1  0.829091  0.312820  0.500000  1
  P  P33  1  0.649651  0.999952  0.000000  1
  P  P34  1  0.999952  0.649651  0.000000  1
  P  P35  1  0.351059  0.351059  0.000000  1
