# generated using pymatgen
data_Lu2B6W
_symmetry_space_group_name_H-M   'P 1'
_cell_length_a   3.53225500
_cell_length_b   9.23852900
_cell_length_c   11.60109800
_cell_angle_alpha   90.00000000
_cell_angle_beta   90.00000000
_cell_angle_gamma   90.00000000
_symmetry_Int_Tables_number   1
_chemical_formula_structural   Lu2B6W
_chemical_formula_sum   'Lu8 B24 W4'
_cell_volume   378.57677779
_cell_formula_units_Z   4
loop_
 _symmetry_equiv_pos_site_id
 _symmetry_equiv_pos_as_xyz
  1  'x, y, z'
loop_
 _atom_site_type_symbol
 _atom_site_label
 _atom_site_symmetry_multiplicity
 _atom_site_fract_x
 _atom_site_fract_y
 _atom_site_fract_z
 _atom_site_occupancy
  Lu  Lu0  1  0.000000  0.320117  0.413608  1
  Lu  Lu1  1  0.000000  0.679883  0.586392  1
  Lu  Lu2  1  0.000000  0.820117  0.086392  1
  Lu  Lu3  1  0.000000  0.179883  0.913608  1
  Lu  Lu4  1  0.000000  0.944140  0.372386  1
  Lu  Lu5  1  0.000000  0.055860  0.627614  1
  Lu  Lu6  1  0.000000  0.444140  0.127614  1
  Lu  Lu7  1  0.000000  0.555860  0.872386  1
  B  B8  1  0.500000  0.551611  0.435635  1
  B  B9  1  0.500000  0.448389  0.564365  1
  B  B10  1  0.500000  0.051611  0.064365  1
  B  B11  1  0.500000  0.948389  0.935635  1
  B  B12  1  0.500000  0.752754  0.422701  1
  B  B13  1  0.500000  0.247246  0.577299  1
  B  B14  1  0.500000  0.252754  0.077299  1
  B  B15  1  0.500000  0.747246  0.922701  1
  B  B16  1  0.500000  0.795796  0.262886  1
  B  B17  1  0.500000  0.204204  0.737114  1
  B  B18  1  0.500000  0.295796  0.237114  1
  B  B19  1  0.500000  0.704204  0.762886  1
  B  B20  1  0.500000  0.631522  0.181846  1
  B  B21  1  0.500000  0.368478  0.818154  1
  B  B22  1  0.500000  0.131522  0.318154  1
  B  B23  1  0.500000  0.868478  0.681846  1
  B  B24  1  0.500000  0.977895  0.212476  1
  B  B25  1  0.500000  0.022105  0.787524  1
  B  B26  1  0.500000  0.477895  0.287524  1
  B  B27  1  0.500000  0.522105  0.712476  1
  B  B28  1  0.500000  0.600324  0.027959  1
  B  B29  1  0.500000  0.399676  0.972041  1
  B  B30  1  0.500000  0.100324  0.472041  1
  B  B31  1  0.500000  0.899676  0.527959  1
  W  W32  1  0.000000  0.639592  0.320406  1
  W  W33  1  0.000000  0.360408  0.679594  1
  W  W34  1  0.000000  0.139592  0.179594  1
  W  W35  1  0.000000  0.860408  0.820406  1
