# generated using pymatgen
data_Nd2Tm3Si4
_symmetry_space_group_name_H-M   'P 1'
_cell_length_a   7.70989800
_cell_length_b   7.70989800
_cell_length_c   14.19976100
_cell_angle_alpha   90.00000000
_cell_angle_beta   90.00000000
_cell_angle_gamma   90.00000000
_symmetry_Int_Tables_number   1
_chemical_formula_structural   Nd2Tm3Si4
_chemical_formula_sum   'Nd8 Tm12 Si16'
_cell_volume   844.06967906
_cell_formula_units_Z   4
loop_
 _symmetry_equiv_pos_site_id
 _symmetry_equiv_pos_as_xyz
  1  'x, y, z'
loop_
 _atom_site_type_symbol
 _atom_site_label
 _atom_site_symmetry_multiplicity
 _atom_site_fract_x
 _atom_site_fract_y
 _atom_site_fract_z
 _atom_site_occupancy
  Nd  Nd0  1  0.641621  0.992396  0.458877  1
  Nd  Nd1  1  0.358379  0.007604  0.958877  1
  Nd  Nd2  1  0.992396  0.641621  0.541123  1
  Nd  Nd3  1  0.492396  0.858379  0.208877  1
  Nd  Nd4  1  0.507604  0.141621  0.708877  1
  Nd  Nd5  1  0.858379  0.492396  0.791123  1
  Nd  Nd6  1  0.141621  0.507604  0.291123  1
  Nd  Nd7  1  0.007604  0.358379  0.041123  1
  Tm  Tm8  1  0.493386  0.359891  0.124259  1
  Tm  Tm9  1  0.993386  0.140109  0.625741  1
  Tm  Tm10  1  0.859891  0.006614  0.874259  1
  Tm  Tm11  1  0.140109  0.993386  0.374259  1
  Tm  Tm12  1  0.506614  0.640109  0.624259  1
  Tm  Tm13  1  0.359891  0.493386  0.875741  1
  Tm  Tm14  1  0.640109  0.506614  0.375741  1
  Tm  Tm15  1  0.006614  0.859891  0.125741  1
  Tm  Tm16  1  0.318394  0.318394  0.500000  1
  Tm  Tm17  1  0.181606  0.818394  0.750000  1
  Tm  Tm18  1  0.818394  0.181606  0.250000  1
  Tm  Tm19  1  0.681606  0.681606  0.000000  1
  Si  Si20  1  0.288915  0.937858  0.561845  1
  Si  Si21  1  0.711085  0.062142  0.061845  1
  Si  Si22  1  0.937858  0.288915  0.438155  1
  Si  Si23  1  0.437858  0.211085  0.311845  1
  Si  Si24  1  0.562142  0.788915  0.811845  1
  Si  Si25  1  0.211085  0.437858  0.688155  1
  Si  Si26  1  0.788915  0.562142  0.188155  1
  Si  Si27  1  0.062142  0.711085  0.938155  1
  Si  Si28  1  0.795481  0.849178  0.687357  1
  Si  Si29  1  0.204519  0.150822  0.187357  1
  Si  Si30  1  0.849178  0.795481  0.312643  1
  Si  Si31  1  0.349178  0.704519  0.437357  1
  Si  Si32  1  0.650822  0.295481  0.937357  1
  Si  Si33  1  0.704519  0.349178  0.562643  1
  Si  Si34  1  0.295481  0.650822  0.062643  1
  Si  Si35  1  0.150822  0.204519  0.812643  1
