# generated using pymatgen
data_Zr2TlBr9
_symmetry_space_group_name_H-M   'P 1'
_cell_length_a   8.24069200
_cell_length_b   10.82385168
_cell_length_c   12.87759600
_cell_angle_alpha   61.74627946
_cell_angle_beta   90.00000000
_cell_angle_gamma   90.00000000
_symmetry_Int_Tables_number   1
_chemical_formula_structural   Zr2TlBr9
_chemical_formula_sum   'Zr4 Tl2 Br18'
_cell_volume   1011.78258633
_cell_formula_units_Z   2
loop_
 _symmetry_equiv_pos_site_id
 _symmetry_equiv_pos_as_xyz
  1  'x, y, z'
loop_
 _atom_site_type_symbol
 _atom_site_label
 _atom_site_symmetry_multiplicity
 _atom_site_fract_x
 _atom_site_fract_y
 _atom_site_fract_z
 _atom_site_occupancy
  Zr  Zr0  1  0.288716  0.813167  0.866434  1
  Zr  Zr1  1  0.711284  0.186833  0.133566  1
  Zr  Zr2  1  0.288716  0.186833  0.633566  1
  Zr  Zr3  1  0.711284  0.813167  0.366434  1
  Tl  Tl4  1  0.526836  0.500000  0.750000  1
  Tl  Tl5  1  0.473164  0.500000  0.250000  1
  Br  Br6  1  0.165516  0.734638  0.069863  1
  Br  Br7  1  0.834484  0.265362  0.930137  1
  Br  Br8  1  0.165516  0.265362  0.430137  1
  Br  Br9  1  0.834484  0.734638  0.569863  1
  Br  Br10  1  0.165866  0.625798  0.823532  1
  Br  Br11  1  0.834134  0.374202  0.176468  1
  Br  Br12  1  0.165866  0.374202  0.676468  1
  Br  Br13  1  0.834134  0.625798  0.323532  1
  Br  Br14  1  0.038262  0.000000  0.750000  1
  Br  Br15  1  0.961738  0.000000  0.250000  1
  Br  Br16  1  0.410750  0.054907  0.860982  1
  Br  Br17  1  0.589250  0.945093  0.139018  1
  Br  Br18  1  0.410750  0.945093  0.639018  1
  Br  Br19  1  0.589250  0.054907  0.360982  1
  Br  Br20  1  0.568315  0.697693  0.936433  1
  Br  Br21  1  0.431685  0.302307  0.063567  1
  Br  Br22  1  0.568315  0.302307  0.563567  1
  Br  Br23  1  0.431685  0.697693  0.436433  1
