# generated using pymatgen
data_Ac4GaAu17
_symmetry_space_group_name_H-M   'P 1'
_cell_length_a   9.38307715
_cell_length_b   8.80014549
_cell_length_c   8.80014737
_cell_angle_alpha   58.47289736
_cell_angle_beta   59.50974427
_cell_angle_gamma   59.50975113
_symmetry_Int_Tables_number   1
_chemical_formula_structural   Ac4GaAu17
_chemical_formula_sum   'Ac4 Ga1 Au17'
_cell_volume   503.91950480
_cell_formula_units_Z   1
loop_
 _symmetry_equiv_pos_site_id
 _symmetry_equiv_pos_as_xyz
  1  'x, y, z'
loop_
 _atom_site_type_symbol
 _atom_site_label
 _atom_site_symmetry_multiplicity
 _atom_site_fract_x
 _atom_site_fract_y
 _atom_site_fract_z
 _atom_site_occupancy
  Ac  Ac0  1  0.365992  0.379497  0.430109  1
  Ac  Ac1  1  0.871393  0.933818  0.881422  1
  Ac  Ac2  1  0.628607  0.618578  0.566182  1
  Ac  Ac3  1  0.134008  0.069891  0.120503  1
  Ga  Ga4  1  0.750000  0.569942  0.930058  1
  Au  Au5  1  0.051655  0.238636  0.452045  1
  Au  Au6  1  0.448345  0.047955  0.261364  1
  Au  Au7  1  0.250000  0.424926  0.075074  1
  Au  Au8  1  0.934867  0.760569  0.562546  1
  Au  Au9  1  0.565133  0.937454  0.739431  1
  Au  Au10  1  0.974480  0.321405  0.760496  1
  Au  Au11  1  0.742744  0.011274  0.306434  1
  Au  Au12  1  0.364549  0.700588  0.998994  1
  Au  Au13  1  0.237689  0.814060  0.505583  1
  Au  Au14  1  0.484590  0.248781  0.818984  1
  Au  Au15  1  0.874137  0.494515  0.181394  1
  Au  Au16  1  0.015410  0.681016  0.251219  1
  Au  Au17  1  0.262311  0.994417  0.685940  1
  Au  Au18  1  0.625863  0.318606  0.005485  1
  Au  Au19  1  0.757256  0.193566  0.488726  1
  Au  Au20  1  0.525520  0.739504  0.178595  1
  Au  Au21  1  0.135451  0.501006  0.799412  1
