# generated using pymatgen
data_TmLu7Sc12Si15Sn
_symmetry_space_group_name_H-M   'P 1'
_cell_length_a   7.06482890
_cell_length_b   7.35324957
_cell_length_c   13.94099196
_cell_angle_alpha   90.03348278
_cell_angle_beta   89.44453689
_cell_angle_gamma   89.94343313
_symmetry_Int_Tables_number   1
_chemical_formula_structural   TmLu7Sc12Si15Sn
_chemical_formula_sum   'Tm1 Lu7 Sc12 Si15 Sn1'
_cell_volume   724.19235116
_cell_formula_units_Z   1
loop_
 _symmetry_equiv_pos_site_id
 _symmetry_equiv_pos_as_xyz
  1  'x, y, z'
loop_
 _atom_site_type_symbol
 _atom_site_label
 _atom_site_symmetry_multiplicity
 _atom_site_fract_x
 _atom_site_fract_y
 _atom_site_fract_z
 _atom_site_occupancy
  Tm  Tm0  1  0.502413  0.686324  0.599240  1
  Lu  Lu1  1  0.011042  0.177027  0.096033  1
  Lu  Lu2  1  0.988794  0.823847  0.905374  1
  Lu  Lu3  1  0.489386  0.677599  0.905021  1
  Lu  Lu4  1  0.991241  0.830136  0.597772  1
  Lu  Lu5  1  0.510171  0.322483  0.096277  1
  Lu  Lu6  1  0.003225  0.170001  0.399337  1
  Lu  Lu7  1  0.512818  0.317927  0.399760  1
  Sc  Sc8  1  0.164033  0.503377  0.754939  1
  Sc  Sc9  1  0.835137  0.495866  0.249288  1
  Sc  Sc10  1  0.334826  0.004321  0.249535  1
  Sc  Sc11  1  0.666712  0.995741  0.751833  1
  Sc  Sc12  1  0.345395  0.162197  0.630780  1
  Sc  Sc13  1  0.662652  0.825191  0.372692  1
  Sc  Sc14  1  0.160310  0.684321  0.368848  1
  Sc  Sc15  1  0.666567  0.822419  0.123800  1
  Sc  Sc16  1  0.825702  0.323650  0.626600  1
  Sc  Sc17  1  0.331305  0.176412  0.876250  1
  Sc  Sc18  1  0.832079  0.323088  0.875687  1
  Sc  Sc19  1  0.167625  0.677033  0.124962  1
  Si  Si20  1  0.037020  0.115168  0.751367  1
  Si  Si21  1  0.961513  0.888512  0.246381  1
  Si  Si22  1  0.464646  0.611480  0.248535  1
  Si  Si23  1  0.533804  0.389011  0.752608  1
  Si  Si24  1  0.287818  0.867536  0.753050  1
  Si  Si25  1  0.710916  0.129806  0.247095  1
  Si  Si26  1  0.210977  0.369076  0.249125  1
  Si  Si27  1  0.790740  0.631412  0.752038  1
  Si  Si28  1  0.827607  0.537790  0.458676  1
  Si  Si29  1  0.332972  0.964982  0.460070  1
  Si  Si30  1  0.839973  0.533682  0.039309  1
  Si  Si31  1  0.668288  0.037263  0.537607  1
  Si  Si32  1  0.158976  0.465701  0.961880  1
  Si  Si33  1  0.659859  0.034498  0.960871  1
  Si  Si34  1  0.338570  0.966044  0.040002  1
  Sn  Sn35  1  0.174881  0.459078  0.537357  1
