# generated using pymatgen
data_Eu2MnNiO6
_symmetry_space_group_name_H-M   'P 1'
_cell_length_a   5.44209325
_cell_length_b   5.52025457
_cell_length_c   7.68547615
_cell_angle_alpha   89.91148318
_cell_angle_beta   89.92765484
_cell_angle_gamma   89.93185968
_symmetry_Int_Tables_number   1
_chemical_formula_structural   Eu2MnNiO6
_chemical_formula_sum   'Eu4 Mn2 Ni2 O12'
_cell_volume   230.88445479
_cell_formula_units_Z   2
loop_
 _symmetry_equiv_pos_site_id
 _symmetry_equiv_pos_as_xyz
  1  'x, y, z'
loop_
 _atom_site_type_symbol
 _atom_site_label
 _atom_site_symmetry_multiplicity
 _atom_site_fract_x
 _atom_site_fract_y
 _atom_site_fract_z
 _atom_site_occupancy
  Eu  Eu0  1  0.005835  0.046143  0.250482  1
  Eu  Eu1  1  0.493755  0.546169  0.249268  1
  Eu  Eu2  1  0.506321  0.453617  0.750666  1
  Eu  Eu3  1  0.993899  0.953670  0.749552  1
  Mn  Mn4  1  0.500063  0.000031  0.500127  1
  Mn  Mn5  1  0.999979  0.500000  0.999928  1
  Ni  Ni6  1  0.000036  0.500044  0.500038  1
  Ni  Ni7  1  0.499961  0.000020  0.999951  1
  O  O8  1  0.808834  0.208803  0.957464  1
  O  O9  1  0.791812  0.192218  0.540955  1
  O  O10  1  0.917679  0.476931  0.242770  1
  O  O11  1  0.191051  0.791274  0.042459  1
  O  O12  1  0.417757  0.022708  0.742847  1
  O  O13  1  0.690982  0.708594  0.542535  1
  O  O14  1  0.708249  0.692514  0.959320  1
  O  O15  1  0.208344  0.807788  0.458967  1
  O  O16  1  0.582143  0.977291  0.257149  1
  O  O17  1  0.309208  0.291538  0.457625  1
  O  O18  1  0.291648  0.307465  0.040685  1
  O  O19  1  0.082444  0.523183  0.757211  1
