# generated using pymatgen
data_Er5TmReBi2
_symmetry_space_group_name_H-M   'P 1'
_cell_length_a   8.19594204
_cell_length_b   8.19594330
_cell_length_c   4.31652000
_cell_angle_alpha   90.00000000
_cell_angle_beta   90.00000000
_cell_angle_gamma   120.01092763
_symmetry_Int_Tables_number   1
_chemical_formula_structural   Er5TmReBi2
_chemical_formula_sum   'Er5 Tm1 Re1 Bi2'
_cell_volume   251.08130696
_cell_formula_units_Z   1
loop_
 _symmetry_equiv_pos_site_id
 _symmetry_equiv_pos_as_xyz
  1  'x, y, z'
loop_
 _atom_site_type_symbol
 _atom_site_label
 _atom_site_symmetry_multiplicity
 _atom_site_fract_x
 _atom_site_fract_y
 _atom_site_fract_z
 _atom_site_occupancy
  Er  Er0  1  0.232149  0.999935  0.500000  1
  Er  Er1  1  0.999935  0.232149  0.500000  1
  Er  Er2  1  0.614718  0.999852  0.000000  1
  Er  Er3  1  0.999852  0.614718  0.000000  1
  Er  Er4  1  0.385552  0.385552  0.000000  1
  Tm  Tm5  1  0.768038  0.768038  0.500000  1
  Re  Re6  1  0.999447  0.999447  0.000000  1
  Bi  Bi7  1  0.333607  0.666702  0.500000  1
  Bi  Bi8  1  0.666702  0.333607  0.500000  1
