# generated using pymatgen
data_Ho6InGa2
_symmetry_space_group_name_H-M   'P 1'
_cell_length_a   8.60963925
_cell_length_b   8.60963933
_cell_length_c   8.60963978
_cell_angle_alpha   112.46564119
_cell_angle_beta   112.27743545
_cell_angle_gamma   103.81447413
_symmetry_Int_Tables_number   1
_chemical_formula_structural   Ho6InGa2
_chemical_formula_sum   'Ho12 In2 Ga4'
_cell_volume   487.73939515
_cell_formula_units_Z   2
loop_
 _symmetry_equiv_pos_site_id
 _symmetry_equiv_pos_as_xyz
  1  'x, y, z'
loop_
 _atom_site_type_symbol
 _atom_site_label
 _atom_site_symmetry_multiplicity
 _atom_site_fract_x
 _atom_site_fract_y
 _atom_site_fract_z
 _atom_site_occupancy
  Ho  Ho0  1  0.442162  0.238907  0.203256  1
  Ho  Ho1  1  0.557838  0.761093  0.796744  1
  Ho  Ho2  1  0.035650  0.238907  0.796744  1
  Ho  Ho3  1  0.964350  0.761093  0.203256  1
  Ho  Ho4  1  0.187375  0.280722  0.468095  1
  Ho  Ho5  1  0.812625  0.719278  0.531905  1
  Ho  Ho6  1  0.187375  0.719278  0.906653  1
  Ho  Ho7  1  0.812625  0.280722  0.093347  1
  Ho  Ho8  1  0.320200  0.616087  0.295887  1
  Ho  Ho9  1  0.679800  0.383913  0.704113  1
  Ho  Ho10  1  0.320200  0.024314  0.704113  1
  Ho  Ho11  1  0.679800  0.975686  0.295887  1
  In  In12  1  0.500000  0.500000  0.000000  1
  In  In13  1  0.000000  0.000000  0.000000  1
  Ga  Ga14  1  0.353424  0.000000  0.353424  1
  Ga  Ga15  1  0.646576  0.000000  0.646576  1
  Ga  Ga16  1  0.120698  0.620698  0.500000  1
  Ga  Ga17  1  0.879302  0.379302  0.500000  1
