# generated using pymatgen
data_BaCr2Sb12OsPt
_symmetry_space_group_name_H-M   'P 1'
_cell_length_a   8.27044448
_cell_length_b   8.27184908
_cell_length_c   8.24950913
_cell_angle_alpha   109.42667169
_cell_angle_beta   109.49945901
_cell_angle_gamma   109.74177225
_symmetry_Int_Tables_number   1
_chemical_formula_structural   BaCr2Sb12OsPt
_chemical_formula_sum   'Ba1 Cr2 Sb12 Os1 Pt1'
_cell_volume   433.07665605
_cell_formula_units_Z   1
loop_
 _symmetry_equiv_pos_site_id
 _symmetry_equiv_pos_as_xyz
  1  'x, y, z'
loop_
 _atom_site_type_symbol
 _atom_site_label
 _atom_site_symmetry_multiplicity
 _atom_site_fract_x
 _atom_site_fract_y
 _atom_site_fract_z
 _atom_site_occupancy
  Ba  Ba0  1  0.000000  0.000000  0.000000  1
  Cr  Cr1  1  0.000000  0.000000  0.500000  1
  Cr  Cr2  1  0.500000  0.500000  0.500000  1
  Sb  Sb3  1  0.341168  0.180342  0.842594  1
  Sb  Sb4  1  0.658832  0.819658  0.157406  1
  Sb  Sb5  1  0.652039  0.499687  0.842191  1
  Sb  Sb6  1  0.347961  0.500313  0.157809  1
  Sb  Sb7  1  0.190261  0.849197  0.348066  1
  Sb  Sb8  1  0.809739  0.150803  0.651934  1
  Sb  Sb9  1  0.502170  0.842703  0.661605  1
  Sb  Sb10  1  0.497830  0.157297  0.338395  1
  Sb  Sb11  1  0.840849  0.340060  0.189806  1
  Sb  Sb12  1  0.159151  0.659940  0.810194  1
  Sb  Sb13  1  0.840632  0.658064  0.499524  1
  Sb  Sb14  1  0.159368  0.341936  0.500476  1
  Os  Os15  1  0.500000  0.000000  0.000000  1
  Pt  Pt16  1  0.000000  0.500000  0.000000  1
