# generated using pymatgen
data_Tm7Lu8Th(CdPt)4
_symmetry_space_group_name_H-M   'P 1'
_cell_length_a   9.53284022
_cell_length_b   9.53284119
_cell_length_c   9.53176560
_cell_angle_alpha   60.21403563
_cell_angle_beta   60.21403100
_cell_angle_gamma   60.26343706
_symmetry_Int_Tables_number   1
_chemical_formula_structural   Tm7Lu8Th(CdPt)4
_chemical_formula_sum   'Tm7 Lu8 Th1 Cd4 Pt4'
_cell_volume   615.69161586
_cell_formula_units_Z   1
loop_
 _symmetry_equiv_pos_site_id
 _symmetry_equiv_pos_as_xyz
  1  'x, y, z'
loop_
 _atom_site_type_symbol
 _atom_site_label
 _atom_site_symmetry_multiplicity
 _atom_site_fract_x
 _atom_site_fract_y
 _atom_site_fract_z
 _atom_site_occupancy
  Tm  Tm0  1  0.811062  0.811062  0.190038  1
  Tm  Tm1  1  0.934471  0.566539  0.567096  1
  Tm  Tm2  1  0.562960  0.937364  0.937138  1
  Tm  Tm3  1  0.566539  0.934471  0.567096  1
  Tm  Tm4  1  0.937364  0.562960  0.937138  1
  Tm  Tm5  1  0.566819  0.566819  0.934300  1
  Tm  Tm6  1  0.937207  0.937207  0.563213  1
  Lu  Lu7  1  0.354766  0.354766  0.937174  1
  Lu  Lu8  1  0.354352  0.937418  0.354907  1
  Lu  Lu9  1  0.937418  0.354352  0.354907  1
  Lu  Lu10  1  0.813940  0.187942  0.187552  1
  Lu  Lu11  1  0.190340  0.811014  0.810803  1
  Lu  Lu12  1  0.187942  0.813940  0.187552  1
  Lu  Lu13  1  0.811014  0.190340  0.810803  1
  Lu  Lu14  1  0.187622  0.187622  0.813972  1
  Th  Th15  1  0.350499  0.350499  0.350502  1
  Cd  Cd16  1  0.582302  0.582302  0.582448  1
  Cd  Cd17  1  0.583871  0.583871  0.250790  1
  Cd  Cd18  1  0.583906  0.250766  0.583908  1
  Cd  Cd19  1  0.250766  0.583906  0.583908  1
  Pt  Pt20  1  0.144402  0.144402  0.144264  1
  Pt  Pt21  1  0.139258  0.139258  0.571888  1
  Pt  Pt22  1  0.139948  0.571235  0.139303  1
  Pt  Pt23  1  0.571235  0.139948  0.139303  1
