# generated using pymatgen
data_Sm7Ho3(Sn3Br)2
_symmetry_space_group_name_H-M   'P 1'
_cell_length_a   9.33074000
_cell_length_b   9.33073924
_cell_length_c   6.69745000
_cell_angle_alpha   90.00000000
_cell_angle_beta   90.00000000
_cell_angle_gamma   120.00000269
_symmetry_Int_Tables_number   1
_chemical_formula_structural   Sm7Ho3(Sn3Br)2
_chemical_formula_sum   'Sm7 Ho3 Sn6 Br2'
_cell_volume   504.97774743
_cell_formula_units_Z   1
loop_
 _symmetry_equiv_pos_site_id
 _symmetry_equiv_pos_as_xyz
  1  'x, y, z'
loop_
 _atom_site_type_symbol
 _atom_site_label
 _atom_site_symmetry_multiplicity
 _atom_site_fract_x
 _atom_site_fract_y
 _atom_site_fract_z
 _atom_site_occupancy
  Sm  Sm0  1  0.268150  0.268368  0.749755  1
  Sm  Sm1  1  0.000218  0.731850  0.749755  1
  Sm  Sm2  1  0.731632  0.999782  0.749755  1
  Sm  Sm3  1  0.000218  0.268368  0.250245  1
  Sm  Sm4  1  0.731632  0.731850  0.250245  1
  Sm  Sm5  1  0.268150  0.999782  0.250245  1
  Sm  Sm6  1  0.666667  0.333333  0.000000  1
  Ho  Ho7  1  0.333333  0.666667  0.500000  1
  Ho  Ho8  1  0.666667  0.333333  0.500000  1
  Ho  Ho9  1  0.333333  0.666667  0.000000  1
  Sn  Sn10  1  0.610466  0.998335  0.250957  1
  Sn  Sn11  1  0.001665  0.389534  0.749043  1
  Sn  Sn12  1  0.387869  0.998335  0.749043  1
  Sn  Sn13  1  0.610466  0.612131  0.749043  1
  Sn  Sn14  1  0.001665  0.612131  0.250957  1
  Sn  Sn15  1  0.387869  0.389534  0.250957  1
  Br  Br16  1  0.000000  0.000000  0.000000  1
  Br  Br17  1  0.000000  0.000000  0.500000  1
