# generated using pymatgen
data_LiDy6Ho10Cd2InPt4
_symmetry_space_group_name_H-M   'P 1'
_cell_length_a   9.64938651
_cell_length_b   9.64938753
_cell_length_c   9.64938700
_cell_angle_alpha   59.97104669
_cell_angle_beta   59.97105006
_cell_angle_gamma   59.97105014
_symmetry_Int_Tables_number   1
_chemical_formula_structural   LiDy6Ho10Cd2InPt4
_chemical_formula_sum   'Li1 Dy6 Ho10 Cd2 In1 Pt4'
_cell_volume   634.89069883
_cell_formula_units_Z   1
loop_
 _symmetry_equiv_pos_site_id
 _symmetry_equiv_pos_as_xyz
  1  'x, y, z'
loop_
 _atom_site_type_symbol
 _atom_site_label
 _atom_site_symmetry_multiplicity
 _atom_site_fract_x
 _atom_site_fract_y
 _atom_site_fract_z
 _atom_site_occupancy
  Li  Li0  1  0.571774  0.571774  0.571855  1
  Dy  Dy1  1  0.935841  0.565154  0.564746  1
  Dy  Dy2  1  0.562963  0.938022  0.935364  1
  Dy  Dy3  1  0.565154  0.935841  0.564746  1
  Dy  Dy4  1  0.938022  0.562962  0.935364  1
  Dy  Dy5  1  0.565037  0.565037  0.935350  1
  Dy  Dy6  1  0.936827  0.936827  0.562589  1
  Ho  Ho7  1  0.351086  0.351086  0.350962  1
  Ho  Ho8  1  0.352233  0.352233  0.944132  1
  Ho  Ho9  1  0.352417  0.943892  0.352566  1
  Ho  Ho10  1  0.943892  0.352417  0.352566  1
  Ho  Ho11  1  0.809676  0.191993  0.191707  1
  Ho  Ho12  1  0.187486  0.813194  0.813014  1
  Ho  Ho13  1  0.191993  0.809676  0.191707  1
  Ho  Ho14  1  0.813194  0.187486  0.813014  1
  Ho  Ho15  1  0.191275  0.191275  0.810632  1
  Ho  Ho16  1  0.812311  0.812311  0.187981  1
  Cd  Cd17  1  0.582072  0.253890  0.582880  1
  Cd  Cd18  1  0.253890  0.582072  0.582880  1
  In  In19  1  0.582068  0.582068  0.254926  1
  Pt  Pt20  1  0.144024  0.144024  0.144196  1
  Pt  Pt21  1  0.142815  0.142815  0.571032  1
  Pt  Pt22  1  0.142799  0.571151  0.142896  1
  Pt  Pt23  1  0.571151  0.142799  0.142896  1
