# generated using pymatgen
data_TbYFe2(SiPd)2
_symmetry_space_group_name_H-M   'P 1'
_cell_length_a   8.92086905
_cell_length_b   8.92086915
_cell_length_c   4.01244500
_cell_angle_alpha   90.00000000
_cell_angle_beta   90.00000000
_cell_angle_gamma   154.49584175
_symmetry_Int_Tables_number   1
_chemical_formula_structural   TbYFe2(SiPd)2
_chemical_formula_sum   'Tb1 Y1 Fe2 Si2 Pd2'
_cell_volume   137.49086705
_cell_formula_units_Z   1
loop_
 _symmetry_equiv_pos_site_id
 _symmetry_equiv_pos_as_xyz
  1  'x, y, z'
loop_
 _atom_site_type_symbol
 _atom_site_label
 _atom_site_symmetry_multiplicity
 _atom_site_fract_x
 _atom_site_fract_y
 _atom_site_fract_z
 _atom_site_occupancy
  Tb  Tb0  1  0.386534  0.613466  0.750000  1
  Y  Y1  1  0.613566  0.386434  0.250000  1
  Fe  Fe2  1  0.250136  0.749864  0.250000  1
  Fe  Fe3  1  0.749771  0.250229  0.750000  1
  Si  Si4  1  0.812784  0.187216  0.250000  1
  Si  Si5  1  0.187189  0.812811  0.750000  1
  Pd  Pd6  1  0.951136  0.048864  0.250000  1
  Pd  Pd7  1  0.048883  0.951117  0.750000  1
