# generated using pymatgen
data_ErTm5CoNi
_symmetry_space_group_name_H-M   'P 1'
_cell_length_a   6.19704300
_cell_length_b   6.79482547
_cell_length_c   9.31107800
_cell_angle_alpha   90.00000000
_cell_angle_beta   90.00000000
_cell_angle_gamma   89.87217048
_symmetry_Int_Tables_number   1
_chemical_formula_structural   ErTm5CoNi
_chemical_formula_sum   'Er2 Tm10 Co2 Ni2'
_cell_volume   392.06827302
_cell_formula_units_Z   2
loop_
 _symmetry_equiv_pos_site_id
 _symmetry_equiv_pos_as_xyz
  1  'x, y, z'
loop_
 _atom_site_type_symbol
 _atom_site_label
 _atom_site_symmetry_multiplicity
 _atom_site_fract_x
 _atom_site_fract_y
 _atom_site_fract_z
 _atom_site_occupancy
  Er  Er0  1  0.634395  0.040673  0.250000  1
  Er  Er1  1  0.365605  0.959327  0.750000  1
  Tm  Tm2  1  0.140801  0.463909  0.750000  1
  Tm  Tm3  1  0.859199  0.536091  0.250000  1
  Tm  Tm4  1  0.179227  0.181754  0.067036  1
  Tm  Tm5  1  0.820773  0.818246  0.932964  1
  Tm  Tm6  1  0.676265  0.322204  0.934550  1
  Tm  Tm7  1  0.820773  0.818246  0.567036  1
  Tm  Tm8  1  0.323735  0.677796  0.065450  1
  Tm  Tm9  1  0.179227  0.181754  0.432964  1
  Tm  Tm10  1  0.323735  0.677796  0.434550  1
  Tm  Tm11  1  0.676265  0.322204  0.565450  1
  Co  Co12  1  0.452832  0.391266  0.250000  1
  Co  Co13  1  0.547168  0.608734  0.750000  1
  Ni  Ni14  1  0.951580  0.108494  0.750000  1
  Ni  Ni15  1  0.048420  0.891506  0.250000  1
