# generated using pymatgen
data_B4(Pd3Pt)5
_symmetry_space_group_name_H-M   'P 1'
_cell_length_a   6.46424102
_cell_length_b   6.48610589
_cell_length_c   8.19816796
_cell_angle_alpha   90.01992360
_cell_angle_beta   89.92337020
_cell_angle_gamma   89.64568671
_symmetry_Int_Tables_number   1
_chemical_formula_structural   B4(Pd3Pt)5
_chemical_formula_sum   'B4 Pd15 Pt5'
_cell_volume   343.72385001
_cell_formula_units_Z   1
loop_
 _symmetry_equiv_pos_site_id
 _symmetry_equiv_pos_as_xyz
  1  'x, y, z'
loop_
 _atom_site_type_symbol
 _atom_site_label
 _atom_site_symmetry_multiplicity
 _atom_site_fract_x
 _atom_site_fract_y
 _atom_site_fract_z
 _atom_site_occupancy
  B  B0  1  0.552540  0.655609  0.366688  1
  B  B1  1  0.053139  0.156174  0.136394  1
  B  B2  1  0.448412  0.347047  0.636146  1
  B  B3  1  0.949046  0.844832  0.864380  1
  Pd  Pd4  1  0.054171  0.153746  0.875054  1
  Pd  Pd5  1  0.445060  0.344074  0.373107  1
  Pd  Pd6  1  0.946387  0.846211  0.124786  1
  Pd  Pd7  1  0.654605  0.958767  0.374328  1
  Pd  Pd8  1  0.153446  0.457938  0.124419  1
  Pd  Pd9  1  0.346066  0.043415  0.624669  1
  Pd  Pd10  1  0.845024  0.543316  0.875120  1
  Pd  Pd11  1  0.641561  0.950576  0.874319  1
  Pd  Pd12  1  0.141206  0.451653  0.624965  1
  Pd  Pd13  1  0.358424  0.047730  0.124330  1
  Pd  Pd14  1  0.859590  0.547115  0.373809  1
  Pd  Pd15  1  0.744163  0.254727  0.125450  1
  Pd  Pd16  1  0.242218  0.756139  0.374141  1
  Pd  Pd17  1  0.257164  0.744147  0.873422  1
  Pd  Pd18  1  0.757095  0.244797  0.626116  1
  Pt  Pt19  1  0.546958  0.649291  0.117075  1
  Pt  Pt20  1  0.047591  0.149041  0.385345  1
  Pt  Pt21  1  0.452566  0.349797  0.886553  1
  Pt  Pt22  1  0.949918  0.849755  0.615114  1
  Pt  Pt23  1  0.553648  0.654105  0.624268  1
