# generated using pymatgen
data_Pr4GeW3F28
_symmetry_space_group_name_H-M   'P 1'
_cell_length_a   5.79044860
_cell_length_b   9.30319538
_cell_length_c   12.45173900
_cell_angle_alpha   61.87079559
_cell_angle_beta   90.02609279
_cell_angle_gamma   90.01121781
_symmetry_Int_Tables_number   1
_chemical_formula_structural   Pr4GeW3F28
_chemical_formula_sum   'Pr4 Ge1 W3 F28'
_cell_volume   591.54405636
_cell_formula_units_Z   1
loop_
 _symmetry_equiv_pos_site_id
 _symmetry_equiv_pos_as_xyz
  1  'x, y, z'
loop_
 _atom_site_type_symbol
 _atom_site_label
 _atom_site_symmetry_multiplicity
 _atom_site_fract_x
 _atom_site_fract_y
 _atom_site_fract_z
 _atom_site_occupancy
  Pr  Pr0  1  0.757615  0.817480  0.762216  1
  Pr  Pr1  1  0.256388  0.190357  0.727330  1
  Pr  Pr2  1  0.244510  0.189474  0.240485  1
  Pr  Pr3  1  0.742393  0.806146  0.268279  1
  Ge  Ge4  1  0.742663  0.274589  0.455992  1
  W  W5  1  0.754843  0.273661  0.956494  1
  W  W6  1  0.253878  0.726552  0.542878  1
  W  W7  1  0.245515  0.727491  0.041855  1
  F  F8  1  0.454451  0.706975  0.921283  1
  F  F9  1  0.935119  0.287335  0.568713  1
  F  F10  1  0.537740  0.290488  0.081377  1
  F  F11  1  0.045509  0.704300  0.419500  1
  F  F12  1  0.483141  0.284413  0.539386  1
  F  F13  1  0.953634  0.721226  0.952010  1
  F  F14  1  0.544276  0.713997  0.459290  1
  F  F15  1  0.036450  0.281944  0.048255  1
  F  F16  1  0.769167  0.516312  0.860372  1
  F  F17  1  0.258812  0.483138  0.635527  1
  F  F18  1  0.233769  0.484627  0.143470  1
  F  F19  1  0.734925  0.496855  0.367917  1
  F  F20  1  0.761229  0.031215  0.052662  1
  F  F21  1  0.268202  0.969749  0.451918  1
  F  F22  1  0.236119  0.970261  0.944062  1
  F  F23  1  0.738697  0.051685  0.545756  1
  F  F24  1  0.970919  0.733194  0.632687  1
  F  F25  1  0.480822  0.269386  0.859915  1
  F  F26  1  0.993465  0.266891  0.368373  1
  F  F27  1  0.527484  0.728868  0.138993  1
  F  F28  1  0.041989  0.745949  0.165987  1
  F  F29  1  0.551585  0.259690  0.342618  1
  F  F30  1  0.965727  0.256253  0.829447  1
  F  F31  1  0.458827  0.743816  0.669912  1
  F  F32  1  0.416200  0.967517  0.237597  1
  F  F33  1  0.918621  0.028241  0.270084  1
  F  F34  1  0.588600  0.033826  0.771090  1
  F  F35  1  0.096718  0.966099  0.726271  1
