# generated using pymatgen
data_Zr4SnB4MoRu10
_symmetry_space_group_name_H-M   'P 1'
_cell_length_a   9.50698200
_cell_length_b   9.50698200
_cell_length_c   3.11597700
_cell_angle_alpha   90.00000000
_cell_angle_beta   90.00000000
_cell_angle_gamma   90.00000000
_symmetry_Int_Tables_number   1
_chemical_formula_structural   Zr4SnB4MoRu10
_chemical_formula_sum   'Zr4 Sn1 B4 Mo1 Ru10'
_cell_volume   281.63043543
_cell_formula_units_Z   1
loop_
 _symmetry_equiv_pos_site_id
 _symmetry_equiv_pos_as_xyz
  1  'x, y, z'
loop_
 _atom_site_type_symbol
 _atom_site_label
 _atom_site_symmetry_multiplicity
 _atom_site_fract_x
 _atom_site_fract_y
 _atom_site_fract_z
 _atom_site_occupancy
  Zr  Zr0  1  0.677178  0.175668  0.000000  1
  Zr  Zr1  1  0.322822  0.824332  0.000000  1
  Zr  Zr2  1  0.175668  0.322822  0.000000  1
  Zr  Zr3  1  0.824332  0.677178  0.000000  1
  Sn  Sn4  1  0.000000  0.000000  0.000000  1
  B  B5  1  0.119393  0.622338  0.000000  1
  B  B6  1  0.880607  0.377662  0.000000  1
  B  B7  1  0.622338  0.880607  0.000000  1
  B  B8  1  0.377662  0.119393  0.000000  1
  Mo  Mo9  1  0.500000  0.500000  0.000000  1
  Ru  Ru10  1  0.222619  0.075555  0.500000  1
  Ru  Ru11  1  0.777381  0.924445  0.500000  1
  Ru  Ru12  1  0.075555  0.777381  0.500000  1
  Ru  Ru13  1  0.715584  0.433503  0.500000  1
  Ru  Ru14  1  0.924445  0.222619  0.500000  1
  Ru  Ru15  1  0.284416  0.566497  0.500000  1
  Ru  Ru16  1  0.566497  0.715584  0.500000  1
  Ru  Ru17  1  0.433503  0.284416  0.500000  1
  Ru  Ru18  1  0.500000  0.000000  0.500000  1
  Ru  Ru19  1  0.000000  0.500000  0.500000  1
