# generated using pymatgen
data_Ca(Yb2Au3)2
_symmetry_space_group_name_H-M   'P 1'
_cell_length_a   15.70926900
_cell_length_b   15.70926929
_cell_length_c   3.95006900
_cell_angle_alpha   90.00000000
_cell_angle_beta   90.00000000
_cell_angle_gamma   164.23160902
_symmetry_Int_Tables_number   1
_chemical_formula_structural   Ca(Yb2Au3)2
_chemical_formula_sum   'Ca1 Yb4 Au6'
_cell_volume   264.90196847
_cell_formula_units_Z   1
loop_
 _symmetry_equiv_pos_site_id
 _symmetry_equiv_pos_as_xyz
  1  'x, y, z'
loop_
 _atom_site_type_symbol
 _atom_site_label
 _atom_site_symmetry_multiplicity
 _atom_site_fract_x
 _atom_site_fract_y
 _atom_site_fract_z
 _atom_site_occupancy
  Ca  Ca0  1  0.000000  0.000000  0.000000  1
  Yb  Yb1  1  0.618399  0.381599  0.000000  1
  Yb  Yb2  1  0.381599  0.618399  0.000000  1
  Yb  Yb3  1  0.800701  0.199297  0.500001  1
  Yb  Yb4  1  0.199297  0.800701  0.500001  1
  Au  Au5  1  0.716985  0.283013  0.000000  1
  Au  Au6  1  0.283013  0.716985  0.000000  1
  Au  Au7  1  0.897108  0.102891  0.500001  1
  Au  Au8  1  0.543918  0.456080  0.500001  1
  Au  Au9  1  0.456080  0.543918  0.500001  1
  Au  Au10  1  0.102891  0.897108  0.500001  1
