# generated using pymatgen
data_CrTc5Se8
_symmetry_space_group_name_H-M   'P 1'
_cell_length_a   6.68183041
_cell_length_b   6.67267383
_cell_length_c   6.67858205
_cell_angle_alpha   93.17686314
_cell_angle_beta   93.37737938
_cell_angle_gamma   93.71322939
_symmetry_Int_Tables_number   1
_chemical_formula_structural   CrTc5Se8
_chemical_formula_sum   'Cr1 Tc5 Se8'
_cell_volume   296.10303505
_cell_formula_units_Z   1
loop_
 _symmetry_equiv_pos_site_id
 _symmetry_equiv_pos_as_xyz
  1  'x, y, z'
loop_
 _atom_site_type_symbol
 _atom_site_label
 _atom_site_symmetry_multiplicity
 _atom_site_fract_x
 _atom_site_fract_y
 _atom_site_fract_z
 _atom_site_occupancy
  Cr  Cr0  1  0.414748  0.243741  0.546380  1
  Tc  Tc1  1  0.451766  0.586651  0.764925  1
  Tc  Tc2  1  0.764579  0.451864  0.587511  1
  Tc  Tc3  1  0.587265  0.764791  0.452311  1
  Tc  Tc4  1  0.546733  0.412583  0.236277  1
  Tc  Tc5  1  0.235661  0.546743  0.414665  1
  Se  Se6  1  0.786410  0.784310  0.784589  1
  Se  Se7  1  0.217324  0.212040  0.226420  1
  Se  Se8  1  0.276252  0.878664  0.623065  1
  Se  Se9  1  0.616280  0.267809  0.868978  1
  Se  Se10  1  0.874946  0.626320  0.268558  1
  Se  Se11  1  0.726356  0.126778  0.375135  1
  Se  Se12  1  0.372794  0.730400  0.125055  1
  Se  Se13  1  0.128886  0.367305  0.726134  1
