# generated using pymatgen
data_HoMnFe4P3
_symmetry_space_group_name_H-M   'P 1'
_cell_length_a   3.65383100
_cell_length_b   10.30309100
_cell_length_c   11.83131100
_cell_angle_alpha   90.00000000
_cell_angle_beta   90.00000000
_cell_angle_gamma   90.00000000
_symmetry_Int_Tables_number   1
_chemical_formula_structural   HoMnFe4P3
_chemical_formula_sum   'Ho4 Mn4 Fe16 P12'
_cell_volume   445.39861502
_cell_formula_units_Z   4
loop_
 _symmetry_equiv_pos_site_id
 _symmetry_equiv_pos_as_xyz
  1  'x, y, z'
loop_
 _atom_site_type_symbol
 _atom_site_label
 _atom_site_symmetry_multiplicity
 _atom_site_fract_x
 _atom_site_fract_y
 _atom_site_fract_z
 _atom_site_occupancy
  Ho  Ho0  1  0.250000  0.579826  0.705366  1
  Ho  Ho1  1  0.250000  0.920174  0.205366  1
  Ho  Ho2  1  0.750000  0.420174  0.294634  1
  Ho  Ho3  1  0.750000  0.079826  0.794634  1
  Mn  Mn4  1  0.250000  0.702111  0.988490  1
  Mn  Mn5  1  0.250000  0.797889  0.488490  1
  Mn  Mn6  1  0.750000  0.297889  0.011510  1
  Mn  Mn7  1  0.750000  0.202111  0.511510  1
  Fe  Fe8  1  0.250000  0.404312  0.488111  1
  Fe  Fe9  1  0.250000  0.095688  0.988111  1
  Fe  Fe10  1  0.750000  0.595688  0.511889  1
  Fe  Fe11  1  0.750000  0.904312  0.011889  1
  Fe  Fe12  1  0.250000  0.220258  0.171879  1
  Fe  Fe13  1  0.250000  0.279742  0.671879  1
  Fe  Fe14  1  0.750000  0.779742  0.828121  1
  Fe  Fe15  1  0.750000  0.720258  0.328121  1
  Fe  Fe16  1  0.250000  0.874259  0.700974  1
  Fe  Fe17  1  0.250000  0.625741  0.200974  1
  Fe  Fe18  1  0.750000  0.125741  0.299026  1
  Fe  Fe19  1  0.750000  0.374259  0.799026  1
  Fe  Fe20  1  0.250000  0.462214  0.933194  1
  Fe  Fe21  1  0.250000  0.037786  0.433194  1
  Fe  Fe22  1  0.750000  0.537786  0.066806  1
  Fe  Fe23  1  0.750000  0.962214  0.566806  1
  P  P24  1  0.250000  0.424537  0.113853  1
  P  P25  1  0.250000  0.075463  0.613853  1
  P  P26  1  0.750000  0.575463  0.886147  1
  P  P27  1  0.750000  0.924537  0.386147  1
  P  P28  1  0.250000  0.266046  0.865056  1
  P  P29  1  0.250000  0.233954  0.365056  1
  P  P30  1  0.750000  0.733954  0.134944  1
  P  P31  1  0.750000  0.766046  0.634944  1
  P  P32  1  0.250000  0.598157  0.393139  1
  P  P33  1  0.250000  0.901843  0.893139  1
  P  P34  1  0.750000  0.401843  0.606861  1
  P  P35  1  0.750000  0.098157  0.106861  1
