# generated using pymatgen
data_Tb3Y17Cd3Ru2Au3
_symmetry_space_group_name_H-M   'P 1'
_cell_length_a   9.63292593
_cell_length_b   9.63292527
_cell_length_c   9.64336105
_cell_angle_alpha   90.06471202
_cell_angle_beta   89.93528670
_cell_angle_gamma   120.03279930
_symmetry_Int_Tables_number   1
_chemical_formula_structural   Tb3Y17Cd3Ru2Au3
_chemical_formula_sum   'Tb3 Y17 Cd3 Ru2 Au3'
_cell_volume   774.69627765
_cell_formula_units_Z   1
loop_
 _symmetry_equiv_pos_site_id
 _symmetry_equiv_pos_as_xyz
  1  'x, y, z'
loop_
 _atom_site_type_symbol
 _atom_site_label
 _atom_site_symmetry_multiplicity
 _atom_site_fract_x
 _atom_site_fract_y
 _atom_site_fract_z
 _atom_site_occupancy
  Tb  Tb0  1  0.000237  0.999763  0.460490  1
  Tb  Tb1  1  0.000054  0.999946  0.039363  1
  Tb  Tb2  1  0.209643  0.790357  0.438796  1
  Y  Y3  1  0.209190  0.418306  0.439897  1
  Y  Y4  1  0.581694  0.790810  0.439897  1
  Y  Y5  1  0.791781  0.208219  0.558906  1
  Y  Y6  1  0.791593  0.583212  0.558958  1
  Y  Y7  1  0.416788  0.208407  0.558958  1
  Y  Y8  1  0.791663  0.208337  0.941163  1
  Y  Y9  1  0.791771  0.583510  0.941012  1
  Y  Y10  1  0.416490  0.208229  0.941012  1
  Y  Y11  1  0.209207  0.790793  0.060042  1
  Y  Y12  1  0.209484  0.418682  0.060154  1
  Y  Y13  1  0.581318  0.790516  0.060154  1
  Y  Y14  1  0.540198  0.459802  0.249931  1
  Y  Y15  1  0.540368  0.080482  0.249927  1
  Y  Y16  1  0.919518  0.459632  0.249927  1
  Y  Y17  1  0.458839  0.541161  0.750090  1
  Y  Y18  1  0.458753  0.917381  0.750054  1
  Y  Y19  1  0.082619  0.541247  0.750054  1
  Cd  Cd20  1  0.110148  0.889852  0.750366  1
  Cd  Cd21  1  0.110114  0.220435  0.750015  1
  Cd  Cd22  1  0.779565  0.889886  0.750015  1
  Ru  Ru23  1  0.332472  0.667528  0.250899  1
  Ru  Ru24  1  0.666548  0.333452  0.749894  1
  Au  Au25  1  0.869499  0.130501  0.250105  1
  Au  Au26  1  0.869417  0.738968  0.249961  1
  Au  Au27  1  0.261032  0.130583  0.249961  1
