# generated using pymatgen
data_Ba2ZnAu3
_symmetry_space_group_name_H-M   'P 1'
_cell_length_a   6.55953440
_cell_length_b   6.55953439
_cell_length_c   8.77365620
_cell_angle_alpha   47.46348653
_cell_angle_beta   47.46348543
_cell_angle_gamma   42.58604991
_symmetry_Int_Tables_number   1
_chemical_formula_structural   Ba2ZnAu3
_chemical_formula_sum   'Ba2 Zn1 Au3'
_cell_volume   175.78752634
_cell_formula_units_Z   1
loop_
 _symmetry_equiv_pos_site_id
 _symmetry_equiv_pos_as_xyz
  1  'x, y, z'
loop_
 _atom_site_type_symbol
 _atom_site_label
 _atom_site_symmetry_multiplicity
 _atom_site_fract_x
 _atom_site_fract_y
 _atom_site_fract_z
 _atom_site_occupancy
  Ba  Ba0  1  0.499482  0.499482  0.753191  1
  Ba  Ba1  1  0.501104  0.501104  0.246964  1
  Zn  Zn2  1  0.828888  0.828888  0.666156  1
  Au  Au3  1  0.143407  0.143407  0.356697  1
  Au  Au4  1  0.185212  0.185212  0.814469  1
  Au  Au5  1  0.841907  0.841907  0.162521  1
