# generated using pymatgen
data_Ba4Ga4PtAu3
_symmetry_space_group_name_H-M   'P 1'
_cell_length_a   7.03654543
_cell_length_b   7.03654543
_cell_length_c   7.03654543
_cell_angle_alpha   89.50396752
_cell_angle_beta   89.50396752
_cell_angle_gamma   90.49603248
_symmetry_Int_Tables_number   1
_chemical_formula_structural   Ba4Ga4PtAu3
_chemical_formula_sum   'Ba4 Ga4 Pt1 Au3'
_cell_volume   348.36087671
_cell_formula_units_Z   1
loop_
 _symmetry_equiv_pos_site_id
 _symmetry_equiv_pos_as_xyz
  1  'x, y, z'
loop_
 _atom_site_type_symbol
 _atom_site_label
 _atom_site_symmetry_multiplicity
 _atom_site_fract_x
 _atom_site_fract_y
 _atom_site_fract_z
 _atom_site_occupancy
  Ba  Ba0  1  0.138355  0.147346  0.137990  1
  Ba  Ba1  1  0.862011  0.638354  0.352655  1
  Ba  Ba2  1  0.352597  0.852597  0.647403  1
  Ba  Ba3  1  0.647345  0.362011  0.861646  1
  Ga  Ga4  1  0.333495  0.656329  0.151519  1
  Ga  Ga5  1  0.660964  0.160963  0.339036  1
  Ga  Ga6  1  0.156328  0.348480  0.666505  1
  Ga  Ga7  1  0.848480  0.833495  0.843671  1
  Pt  Pt8  1  0.083066  0.583066  0.916933  1
  Au  Au9  1  0.583826  0.917550  0.084019  1
  Au  Au10  1  0.417550  0.415980  0.416173  1
  Au  Au11  1  0.915980  0.083826  0.582449  1
