# generated using pymatgen
data_CeSm2Th5(AlRu)8
_symmetry_space_group_name_H-M   'P 1'
_cell_length_a   4.12400800
_cell_length_b   7.26702980
_cell_length_c   16.14831507
_cell_angle_alpha   90.14526936
_cell_angle_beta   90.00000000
_cell_angle_gamma   90.00000000
_symmetry_Int_Tables_number   1
_chemical_formula_structural   CeSm2Th5(AlRu)8
_chemical_formula_sum   'Ce1 Sm2 Th5 Al8 Ru8'
_cell_volume   483.95196644
_cell_formula_units_Z   1
loop_
 _symmetry_equiv_pos_site_id
 _symmetry_equiv_pos_as_xyz
  1  'x, y, z'
loop_
 _atom_site_type_symbol
 _atom_site_label
 _atom_site_symmetry_multiplicity
 _atom_site_fract_x
 _atom_site_fract_y
 _atom_site_fract_z
 _atom_site_occupancy
  Ce  Ce0  1  0.250000  0.539989  0.716931  1
  Sm  Sm1  1  0.750000  0.959845  0.217600  1
  Sm  Sm2  1  0.250000  0.163977  0.562049  1
  Th  Th3  1  0.750000  0.832559  0.439871  1
  Th  Th4  1  0.750000  0.462209  0.282214  1
  Th  Th5  1  0.750000  0.332511  0.061912  1
  Th  Th6  1  0.250000  0.669226  0.936880  1
  Th  Th7  1  0.250000  0.043548  0.779265  1
  Al  Al8  1  0.750000  0.493416  0.563037  1
  Al  Al9  1  0.750000  0.366128  0.850671  1
  Al  Al10  1  0.750000  0.004067  0.936762  1
  Al  Al11  1  0.750000  0.863583  0.648572  1
  Al  Al12  1  0.250000  0.490034  0.439377  1
  Al  Al13  1  0.250000  0.996256  0.064736  1
  Al  Al14  1  0.250000  0.639250  0.148992  1
  Al  Al15  1  0.250000  0.130365  0.347158  1
  Ru  Ru16  1  0.750000  0.745741  0.812763  1
  Ru  Ru17  1  0.250000  0.238605  0.936568  1
  Ru  Ru18  1  0.750000  0.260838  0.430789  1
  Ru  Ru19  1  0.250000  0.750871  0.321875  1
  Ru  Ru20  1  0.750000  0.759978  0.061057  1
  Ru  Ru21  1  0.750000  0.256031  0.691123  1
  Ru  Ru22  1  0.250000  0.270500  0.182578  1
  Ru  Ru23  1  0.250000  0.730472  0.567218  1
