# generated using pymatgen
data_YbNp(GePt)2
_symmetry_space_group_name_H-M   'P 1'
_cell_length_a   4.42303300
_cell_length_b   6.93854100
_cell_length_c   7.56930000
_cell_angle_alpha   90.00000000
_cell_angle_beta   90.00000000
_cell_angle_gamma   90.00000000
_symmetry_Int_Tables_number   1
_chemical_formula_structural   YbNp(GePt)2
_chemical_formula_sum   'Yb2 Np2 Ge4 Pt4'
_cell_volume   232.29724374
_cell_formula_units_Z   2
loop_
 _symmetry_equiv_pos_site_id
 _symmetry_equiv_pos_as_xyz
  1  'x, y, z'
loop_
 _atom_site_type_symbol
 _atom_site_label
 _atom_site_symmetry_multiplicity
 _atom_site_fract_x
 _atom_site_fract_y
 _atom_site_fract_z
 _atom_site_occupancy
  Yb  Yb0  1  0.250000  0.506266  0.708797  1
  Yb  Yb1  1  0.250000  0.006266  0.791203  1
  Np  Np2  1  0.750000  0.991994  0.211675  1
  Np  Np3  1  0.750000  0.491994  0.288325  1
  Ge  Ge4  1  0.250000  0.685238  0.081651  1
  Ge  Ge5  1  0.250000  0.185238  0.418349  1
  Ge  Ge6  1  0.750000  0.801495  0.587709  1
  Ge  Ge7  1  0.750000  0.301495  0.912291  1
  Pt  Pt8  1  0.250000  0.291002  0.092738  1
  Pt  Pt9  1  0.250000  0.791002  0.407262  1
  Pt  Pt10  1  0.750000  0.224004  0.580641  1
  Pt  Pt11  1  0.750000  0.724004  0.919359  1
