# generated using pymatgen
data_Er6Pa(Ga3Co8)2
_symmetry_space_group_name_H-M   'P 1'
_cell_length_a   8.45540173
_cell_length_b   8.45774012
_cell_length_c   8.45529001
_cell_angle_alpha   60.00860303
_cell_angle_beta   59.99815513
_cell_angle_gamma   60.00931076
_symmetry_Int_Tables_number   1
_chemical_formula_structural   Er6Pa(Ga3Co8)2
_chemical_formula_sum   'Er6 Pa1 Ga6 Co16'
_cell_volume   427.61685879
_cell_formula_units_Z   1
loop_
 _symmetry_equiv_pos_site_id
 _symmetry_equiv_pos_as_xyz
  1  'x, y, z'
loop_
 _atom_site_type_symbol
 _atom_site_label
 _atom_site_symmetry_multiplicity
 _atom_site_fract_x
 _atom_site_fract_y
 _atom_site_fract_z
 _atom_site_occupancy
  Er  Er0  1  0.708884  0.708890  0.291123  1
  Er  Er1  1  0.291148  0.708852  0.291088  1
  Er  Er2  1  0.708842  0.291137  0.291092  1
  Er  Er3  1  0.291116  0.291110  0.708877  1
  Er  Er4  1  0.708852  0.291148  0.708912  1
  Er  Er5  1  0.291158  0.708863  0.708908  1
  Pa  Pa6  1  0.000000  0.000000  0.000000  1
  Ga  Ga7  1  0.000000  0.000000  0.500000  1
  Ga  Ga8  1  0.500000  0.000000  0.500000  1
  Ga  Ga9  1  0.000000  0.500000  0.500000  1
  Ga  Ga10  1  0.500000  0.500000  0.000000  1
  Ga  Ga11  1  0.000000  0.500000  0.000000  1
  Ga  Ga12  1  0.500000  0.000000  0.000000  1
  Co  Co13  1  0.875669  0.875656  0.372985  1
  Co  Co14  1  0.875721  0.372854  0.875693  1
  Co  Co15  1  0.372744  0.875737  0.875727  1
  Co  Co16  1  0.875791  0.875743  0.875746  1
  Co  Co17  1  0.124331  0.124344  0.627015  1
  Co  Co18  1  0.124279  0.627146  0.124307  1
  Co  Co19  1  0.627256  0.124263  0.124273  1
  Co  Co20  1  0.124209  0.124257  0.124254  1
  Co  Co21  1  0.677829  0.677786  0.966620  1
  Co  Co22  1  0.677985  0.966273  0.677817  1
  Co  Co23  1  0.966233  0.677976  0.677852  1
  Co  Co24  1  0.677957  0.677939  0.677806  1
  Co  Co25  1  0.322171  0.322214  0.033380  1
  Co  Co26  1  0.322015  0.033727  0.322183  1
  Co  Co27  1  0.033767  0.322024  0.322148  1
  Co  Co28  1  0.322043  0.322061  0.322194  1
