# generated using pymatgen
data_LiPr3NdZn3Rh4
_symmetry_space_group_name_H-M   'P 1'
_cell_length_a   4.10747100
_cell_length_b   7.28470100
_cell_length_c   16.52226800
_cell_angle_alpha   89.99760810
_cell_angle_beta   90.00000000
_cell_angle_gamma   90.00000000
_symmetry_Int_Tables_number   1
_chemical_formula_structural   LiPr3NdZn3Rh4
_chemical_formula_sum   'Li2 Pr6 Nd2 Zn6 Rh8'
_cell_volume   494.37431483
_cell_formula_units_Z   2
loop_
 _symmetry_equiv_pos_site_id
 _symmetry_equiv_pos_as_xyz
  1  'x, y, z'
loop_
 _atom_site_type_symbol
 _atom_site_label
 _atom_site_symmetry_multiplicity
 _atom_site_fract_x
 _atom_site_fract_y
 _atom_site_fract_z
 _atom_site_occupancy
  Li  Li0  1  0.250000  0.993151  0.439272  1
  Li  Li1  1  0.750000  0.506847  0.939454  1
  Pr  Pr2  1  0.750000  0.832285  0.060620  1
  Pr  Pr3  1  0.250000  0.045090  0.717469  1
  Pr  Pr4  1  0.250000  0.164377  0.940372  1
  Pr  Pr5  1  0.250000  0.545231  0.782217  1
  Pr  Pr6  1  0.750000  0.335519  0.440118  1
  Pr  Pr7  1  0.250000  0.667663  0.560347  1
  Nd  Nd8  1  0.750000  0.454566  0.217426  1
  Nd  Nd9  1  0.750000  0.954500  0.282153  1
  Zn  Zn10  1  0.750000  0.002838  0.559400  1
  Zn  Zn11  1  0.250000  0.629430  0.350745  1
  Zn  Zn12  1  0.750000  0.373337  0.649252  1
  Zn  Zn13  1  0.750000  0.870713  0.851230  1
  Zn  Zn14  1  0.250000  0.497106  0.059736  1
  Zn  Zn15  1  0.250000  0.126836  0.149708  1
  Rh  Rh16  1  0.250000  0.244301  0.565671  1
  Rh  Rh17  1  0.750000  0.256131  0.066053  1
  Rh  Rh18  1  0.250000  0.250108  0.311512  1
  Rh  Rh19  1  0.750000  0.249803  0.812028  1
  Rh  Rh20  1  0.250000  0.749934  0.935914  1
  Rh  Rh21  1  0.750000  0.751180  0.686573  1
  Rh  Rh22  1  0.750000  0.750379  0.435619  1
  Rh  Rh23  1  0.250000  0.748674  0.187110  1
