# generated using pymatgen
data_Tb7Ce6Dy3(CdRu)4
_symmetry_space_group_name_H-M   'P 1'
_cell_length_a   9.60100569
_cell_length_b   9.60100524
_cell_length_c   9.69191907
_cell_angle_alpha   60.34643846
_cell_angle_beta   60.34643930
_cell_angle_gamma   60.73708172
_symmetry_Int_Tables_number   1
_chemical_formula_structural   Tb7Ce6Dy3(CdRu)4
_chemical_formula_sum   'Tb7 Ce6 Dy3 Cd4 Ru4'
_cell_volume   638.51183851
_cell_formula_units_Z   1
loop_
 _symmetry_equiv_pos_site_id
 _symmetry_equiv_pos_as_xyz
  1  'x, y, z'
loop_
 _atom_site_type_symbol
 _atom_site_label
 _atom_site_symmetry_multiplicity
 _atom_site_fract_x
 _atom_site_fract_y
 _atom_site_fract_z
 _atom_site_occupancy
  Tb  Tb0  1  0.559489  0.559489  0.939115  1
  Tb  Tb1  1  0.936678  0.562135  0.935062  1
  Tb  Tb2  1  0.562135  0.936678  0.935062  1
  Tb  Tb3  1  0.938251  0.938251  0.562093  1
  Tb  Tb4  1  0.563547  0.935675  0.563592  1
  Tb  Tb5  1  0.935675  0.563547  0.563592  1
  Tb  Tb6  1  0.190529  0.190529  0.805639  1
  Ce  Ce7  1  0.187528  0.810646  0.185385  1
  Ce  Ce8  1  0.810646  0.187529  0.185386  1
  Ce  Ce9  1  0.346567  0.346567  0.960510  1
  Ce  Ce10  1  0.347831  0.960607  0.346780  1
  Ce  Ce11  1  0.960607  0.347831  0.346780  1
  Ce  Ce12  1  0.344804  0.344804  0.353088  1
  Dy  Dy13  1  0.811895  0.187221  0.808828  1
  Dy  Dy14  1  0.187220  0.811896  0.808828  1
  Dy  Dy15  1  0.808826  0.808827  0.185919  1
  Cd  Cd16  1  0.582606  0.582606  0.254534  1
  Cd  Cd17  1  0.580369  0.254794  0.583640  1
  Cd  Cd18  1  0.254794  0.580369  0.583640  1
  Cd  Cd19  1  0.580457  0.580457  0.580177  1
  Ru  Ru20  1  0.144153  0.144153  0.560725  1
  Ru  Ru21  1  0.154521  0.581816  0.148849  1
  Ru  Ru22  1  0.581816  0.154521  0.148849  1
  Ru  Ru23  1  0.129056  0.129056  0.153929  1
