# generated using pymatgen
data_Nd2Dy10ZnGaCo4
_symmetry_space_group_name_H-M   'P 1'
_cell_length_a   8.30245081
_cell_length_b   8.30245133
_cell_length_c   8.36757502
_cell_angle_alpha   106.97950798
_cell_angle_beta   109.07611912
_cell_angle_gamma   112.10419022
_symmetry_Int_Tables_number   1
_chemical_formula_structural   Nd2Dy10ZnGaCo4
_chemical_formula_sum   'Nd2 Dy10 Zn1 Ga1 Co4'
_cell_volume   444.71434952
_cell_formula_units_Z   1
loop_
 _symmetry_equiv_pos_site_id
 _symmetry_equiv_pos_as_xyz
  1  'x, y, z'
loop_
 _atom_site_type_symbol
 _atom_site_label
 _atom_site_symmetry_multiplicity
 _atom_site_fract_x
 _atom_site_fract_y
 _atom_site_fract_z
 _atom_site_occupancy
  Nd  Nd0  1  0.303937  0.263963  0.567898  1
  Nd  Nd1  1  0.696063  0.736037  0.432102  1
  Dy  Dy2  1  0.301931  0.738456  0.040387  1
  Dy  Dy3  1  0.698069  0.261544  0.959613  1
  Dy  Dy4  1  0.183689  0.515002  0.324265  1
  Dy  Dy5  1  0.190737  0.859424  0.675735  1
  Dy  Dy6  1  0.816311  0.484998  0.675735  1
  Dy  Dy7  1  0.809263  0.140576  0.324265  1
  Dy  Dy8  1  0.396951  0.217512  0.176609  1
  Dy  Dy9  1  0.040902  0.220343  0.823391  1
  Dy  Dy10  1  0.959098  0.779657  0.176609  1
  Dy  Dy11  1  0.603049  0.782488  0.823391  1
  Zn  Zn12  1  0.500000  0.500000  0.000000  1
  Ga  Ga13  1  0.500000  0.000000  0.500000  1
  Co  Co14  1  0.163134  0.501371  0.664505  1
  Co  Co15  1  0.836866  0.498629  0.335495  1
  Co  Co16  1  0.988459  0.113770  0.102229  1
  Co  Co17  1  0.011541  0.886230  0.897771  1
