# generated using pymatgen
data_MgNb6BiS12
_symmetry_space_group_name_H-M   'P 1'
_cell_length_a   5.84606300
_cell_length_b   5.84606319
_cell_length_c   13.58679600
_cell_angle_alpha   90.00000000
_cell_angle_beta   90.00000000
_cell_angle_gamma   120.00000459
_symmetry_Int_Tables_number   1
_chemical_formula_structural   MgNb6BiS12
_chemical_formula_sum   'Mg1 Nb6 Bi1 S12'
_cell_volume   402.13758253
_cell_formula_units_Z   1
loop_
 _symmetry_equiv_pos_site_id
 _symmetry_equiv_pos_as_xyz
  1  'x, y, z'
loop_
 _atom_site_type_symbol
 _atom_site_label
 _atom_site_symmetry_multiplicity
 _atom_site_fract_x
 _atom_site_fract_y
 _atom_site_fract_z
 _atom_site_occupancy
  Mg  Mg0  1  0.000000  0.000000  0.000000  1
  Nb  Nb1  1  0.000000  0.000000  0.763828  1
  Nb  Nb2  1  0.000000  0.000000  0.236172  1
  Nb  Nb3  1  0.333333  0.666667  0.235206  1
  Nb  Nb4  1  0.666667  0.333333  0.764794  1
  Nb  Nb5  1  0.666667  0.333333  0.235206  1
  Nb  Nb6  1  0.333333  0.666667  0.764794  1
  Bi  Bi7  1  0.000000  0.000000  0.500000  1
  S  S8  1  0.336592  0.000000  0.120202  1
  S  S9  1  0.000000  0.336592  0.120202  1
  S  S10  1  0.663408  0.663408  0.120202  1
  S  S11  1  0.338401  0.338401  0.649191  1
  S  S12  1  0.661599  0.661599  0.350809  1
  S  S13  1  0.661599  0.000000  0.649191  1
  S  S14  1  0.000000  0.661599  0.649191  1
  S  S15  1  0.000000  0.663408  0.879798  1
  S  S16  1  0.336592  0.336592  0.879798  1
  S  S17  1  0.000000  0.338401  0.350809  1
  S  S18  1  0.338401  0.000000  0.350809  1
  S  S19  1  0.663408  0.000000  0.879798  1
