# generated using pymatgen
data_Tm4Lu12Tl3In3Co2
_symmetry_space_group_name_H-M   'P 1'
_cell_length_a   10.15519714
_cell_length_b   10.15391115
_cell_length_c   6.90458201
_cell_angle_alpha   90.00154757
_cell_angle_beta   89.98829051
_cell_angle_gamma   120.00247663
_symmetry_Int_Tables_number   1
_chemical_formula_structural   Tm4Lu12Tl3In3Co2
_chemical_formula_sum   'Tm4 Lu12 Tl3 In3 Co2'
_cell_volume   616.56503394
_cell_formula_units_Z   1
loop_
 _symmetry_equiv_pos_site_id
 _symmetry_equiv_pos_as_xyz
  1  'x, y, z'
loop_
 _atom_site_type_symbol
 _atom_site_label
 _atom_site_symmetry_multiplicity
 _atom_site_fract_x
 _atom_site_fract_y
 _atom_site_fract_z
 _atom_site_occupancy
  Tm  Tm0  1  0.534924  0.069857  0.521732  1
  Tm  Tm1  1  0.930421  0.465164  0.521945  1
  Tm  Tm2  1  0.534733  0.465077  0.522048  1
  Tm  Tm3  1  0.464682  0.929485  0.023533  1
  Lu  Lu4  1  0.071118  0.535551  0.023926  1
  Lu  Lu5  1  0.464459  0.535623  0.023979  1
  Lu  Lu6  1  0.179338  0.358441  0.728776  1
  Lu  Lu7  1  0.641773  0.820769  0.728141  1
  Lu  Lu8  1  0.178668  0.820559  0.728268  1
  Lu  Lu9  1  0.820806  0.641508  0.225830  1
  Lu  Lu10  1  0.357801  0.179230  0.226163  1
  Lu  Lu11  1  0.821324  0.179259  0.225933  1
  Lu  Lu12  1  0.666789  0.333537  0.912364  1
  Lu  Lu13  1  0.333292  0.666487  0.413349  1
  Lu  Lu14  1  0.000010  0.000014  0.507502  1
  Lu  Lu15  1  0.000001  0.999937  0.010126  1
  Tl  Tl16  1  0.837637  0.675600  0.769778  1
  Tl  Tl17  1  0.324350  0.162049  0.769924  1
  Tl  Tl18  1  0.838025  0.162457  0.769573  1
  In  In19  1  0.162537  0.325311  0.269462  1
  In  In20  1  0.675470  0.837453  0.270081  1
  In  In21  1  0.162176  0.837140  0.270174  1
  Co  Co22  1  0.666608  0.333174  0.295563  1
  Co  Co23  1  0.333060  0.666319  0.797510  1
