# generated using pymatgen
data_Er8VSi16W11
_symmetry_space_group_name_H-M   'P 1'
_cell_length_a   6.84883653
_cell_length_b   6.84883653
_cell_length_c   12.72171322
_cell_angle_alpha   90.04799554
_cell_angle_beta   89.95200446
_cell_angle_gamma   90.16295853
_symmetry_Int_Tables_number   1
_chemical_formula_structural   Er8VSi16W11
_chemical_formula_sum   'Er8 V1 Si16 W11'
_cell_volume   596.72899585
_cell_formula_units_Z   1
loop_
 _symmetry_equiv_pos_site_id
 _symmetry_equiv_pos_as_xyz
  1  'x, y, z'
loop_
 _atom_site_type_symbol
 _atom_site_label
 _atom_site_symmetry_multiplicity
 _atom_site_fract_x
 _atom_site_fract_y
 _atom_site_fract_z
 _atom_site_occupancy
  Er  Er0  1  0.338276  0.998698  0.468986  1
  Er  Er1  1  0.501606  0.838623  0.719433  1
  Er  Er2  1  0.499431  0.161161  0.218884  1
  Er  Er3  1  0.838623  0.501606  0.280567  1
  Er  Er4  1  0.161161  0.499431  0.781116  1
  Er  Er5  1  0.661825  0.000805  0.968956  1
  Er  Er6  1  0.998698  0.338276  0.531014  1
  Er  Er7  1  0.000805  0.661825  0.031044  1
  V  V8  1  0.332452  0.332452  0.000000  1
  Si  Si9  1  0.202049  0.127697  0.683663  1
  Si  Si10  1  0.370676  0.700478  0.934060  1
  Si  Si11  1  0.627261  0.298592  0.433330  1
  Si  Si12  1  0.700478  0.370676  0.065940  1
  Si  Si13  1  0.298592  0.627261  0.566670  1
  Si  Si14  1  0.798874  0.872626  0.182873  1
  Si  Si15  1  0.127697  0.202049  0.316337  1
  Si  Si16  1  0.872626  0.798874  0.817127  1
  Si  Si17  1  0.290747  0.963539  0.064223  1
  Si  Si18  1  0.537385  0.788875  0.313445  1
  Si  Si19  1  0.461762  0.211519  0.814940  1
  Si  Si20  1  0.788875  0.537385  0.686555  1
  Si  Si21  1  0.211519  0.461762  0.185060  1
  Si  Si22  1  0.711401  0.036816  0.563850  1
  Si  Si23  1  0.963539  0.290747  0.935777  1
  Si  Si24  1  0.036816  0.711401  0.436150  1
  W  W25  1  0.167126  0.832203  0.250760  1
  W  W26  1  0.832203  0.167126  0.749240  1
  W  W27  1  0.667869  0.667869  0.500000  1
  W  W28  1  0.164377  0.000587  0.874889  1
  W  W29  1  0.500656  0.660139  0.122851  1
  W  W30  1  0.499216  0.336405  0.623919  1
  W  W31  1  0.660139  0.500656  0.877149  1
  W  W32  1  0.336405  0.499216  0.376081  1
  W  W33  1  0.836102  0.002146  0.373361  1
  W  W34  1  0.000587  0.164377  0.125111  1
  W  W35  1  0.002146  0.836102  0.626639  1
