# generated using pymatgen
data_Ho2Sc2Si4Ag
_symmetry_space_group_name_H-M   'P 1'
_cell_length_a   6.81270900
_cell_length_b   7.40489500
_cell_length_c   14.06845400
_cell_angle_alpha   90.00000000
_cell_angle_beta   90.00000000
_cell_angle_gamma   90.00000000
_symmetry_Int_Tables_number   1
_chemical_formula_structural   Ho2Sc2Si4Ag
_chemical_formula_sum   'Ho8 Sc8 Si16 Ag4'
_cell_volume   709.71685331
_cell_formula_units_Z   4
loop_
 _symmetry_equiv_pos_site_id
 _symmetry_equiv_pos_as_xyz
  1  'x, y, z'
loop_
 _atom_site_type_symbol
 _atom_site_label
 _atom_site_symmetry_multiplicity
 _atom_site_fract_x
 _atom_site_fract_y
 _atom_site_fract_z
 _atom_site_occupancy
  Ho  Ho0  1  0.009610  0.180190  0.097684  1
  Ho  Ho1  1  0.990390  0.819810  0.902316  1
  Ho  Ho2  1  0.490390  0.680190  0.902316  1
  Ho  Ho3  1  0.990390  0.819810  0.597684  1
  Ho  Ho4  1  0.509610  0.319810  0.097684  1
  Ho  Ho5  1  0.009610  0.180190  0.402316  1
  Ho  Ho6  1  0.509610  0.319810  0.402316  1
  Ho  Ho7  1  0.490390  0.680190  0.597684  1
  Sc  Sc8  1  0.330017  0.180287  0.626802  1
  Sc  Sc9  1  0.669983  0.819713  0.373198  1
  Sc  Sc10  1  0.169983  0.680287  0.373198  1
  Sc  Sc11  1  0.669983  0.819713  0.126802  1
  Sc  Sc12  1  0.830017  0.319713  0.626802  1
  Sc  Sc13  1  0.330017  0.180287  0.873198  1
  Sc  Sc14  1  0.830017  0.319713  0.873198  1
  Sc  Sc15  1  0.169983  0.680287  0.126802  1
  Si  Si16  1  0.029734  0.099163  0.750000  1
  Si  Si17  1  0.970266  0.900837  0.250000  1
  Si  Si18  1  0.470266  0.599163  0.250000  1
  Si  Si19  1  0.529734  0.400837  0.750000  1
  Si  Si20  1  0.283731  0.880808  0.750000  1
  Si  Si21  1  0.716269  0.119192  0.250000  1
  Si  Si22  1  0.216269  0.380808  0.250000  1
  Si  Si23  1  0.783731  0.619192  0.750000  1
  Si  Si24  1  0.161336  0.461862  0.532459  1
  Si  Si25  1  0.838664  0.538138  0.467541  1
  Si  Si26  1  0.338664  0.961862  0.467541  1
  Si  Si27  1  0.838664  0.538138  0.032459  1
  Si  Si28  1  0.661336  0.038138  0.532459  1
  Si  Si29  1  0.161336  0.461862  0.967541  1
  Si  Si30  1  0.661336  0.038138  0.967541  1
  Si  Si31  1  0.338664  0.961862  0.032459  1
  Ag  Ag32  1  0.158270  0.517038  0.750000  1
  Ag  Ag33  1  0.841730  0.482962  0.250000  1
  Ag  Ag34  1  0.341730  0.017038  0.250000  1
  Ag  Ag35  1  0.658270  0.982962  0.750000  1
