# generated using pymatgen
data_TbCe2Ho(ReC2)2
_symmetry_space_group_name_H-M   'P 1'
_cell_length_a   5.22263800
_cell_length_b   6.54176800
_cell_length_c   9.88473800
_cell_angle_alpha   90.00000000
_cell_angle_beta   90.00000000
_cell_angle_gamma   90.00000000
_symmetry_Int_Tables_number   1
_chemical_formula_structural   TbCe2Ho(ReC2)2
_chemical_formula_sum   'Tb2 Ce4 Ho2 Re4 C8'
_cell_volume   337.71490223
_cell_formula_units_Z   2
loop_
 _symmetry_equiv_pos_site_id
 _symmetry_equiv_pos_as_xyz
  1  'x, y, z'
loop_
 _atom_site_type_symbol
 _atom_site_label
 _atom_site_symmetry_multiplicity
 _atom_site_fract_x
 _atom_site_fract_y
 _atom_site_fract_z
 _atom_site_occupancy
  Tb  Tb0  1  0.250000  0.818740  0.051325  1
  Tb  Tb1  1  0.750000  0.681260  0.551325  1
  Ce  Ce2  1  0.250000  0.469627  0.782131  1
  Ce  Ce3  1  0.750000  0.030373  0.282131  1
  Ce  Ce4  1  0.250000  0.970081  0.717653  1
  Ce  Ce5  1  0.750000  0.529919  0.217653  1
  Ho  Ho6  1  0.250000  0.320402  0.447562  1
  Ho  Ho7  1  0.750000  0.179598  0.947562  1
  Re  Re8  1  0.250000  0.278522  0.134712  1
  Re  Re9  1  0.750000  0.221478  0.634712  1
  Re  Re10  1  0.250000  0.778552  0.365414  1
  Re  Re11  1  0.750000  0.721448  0.865414  1
  C  C12  1  0.250000  0.176379  0.947547  1
  C  C13  1  0.750000  0.825462  0.052028  1
  C  C14  1  0.250000  0.674538  0.552028  1
  C  C15  1  0.750000  0.323621  0.447547  1
  C  C16  1  0.250000  0.045863  0.260158  1
  C  C17  1  0.750000  0.454137  0.760158  1
  C  C18  1  0.250000  0.544385  0.241470  1
  C  C19  1  0.750000  0.955615  0.741470  1
