# generated using pymatgen
data_Dy3Ho7(Co2Ag)2
_symmetry_space_group_name_H-M   'P 1'
_cell_length_a   8.51471035
_cell_length_b   8.51411975
_cell_length_c   8.51453919
_cell_angle_alpha   127.57111894
_cell_angle_beta   127.57309922
_cell_angle_gamma   77.31818197
_symmetry_Int_Tables_number   1
_chemical_formula_structural   Dy3Ho7(Co2Ag)2
_chemical_formula_sum   'Dy3 Ho7 Co4 Ag2'
_cell_volume   376.19726824
_cell_formula_units_Z   1
loop_
 _symmetry_equiv_pos_site_id
 _symmetry_equiv_pos_as_xyz
  1  'x, y, z'
loop_
 _atom_site_type_symbol
 _atom_site_label
 _atom_site_symmetry_multiplicity
 _atom_site_fract_x
 _atom_site_fract_y
 _atom_site_fract_z
 _atom_site_occupancy
  Dy  Dy0  1  0.706130  0.528678  0.500000  1
  Dy  Dy1  1  0.471318  0.971309  0.177417  1
  Dy  Dy2  1  0.793901  0.293892  0.822583  1
  Ho  Ho3  1  0.528673  0.028670  0.822525  1
  Ho  Ho4  1  0.000002  0.000012  0.000028  1
  Ho  Ho5  1  0.028726  0.206126  0.500000  1
  Ho  Ho6  1  0.293817  0.471326  0.500000  1
  Ho  Ho7  1  0.206148  0.706144  0.177475  1
  Ho  Ho8  1  0.971343  0.793863  0.500000  1
  Ho  Ho9  1  0.499975  0.499985  0.999972  1
  Co  Co10  1  0.135558  0.635542  0.771098  1
  Co  Co11  1  0.864460  0.364443  0.228902  1
  Co  Co12  1  0.635548  0.864422  0.500000  1
  Co  Co13  1  0.364398  0.135562  0.500000  1
  Ag  Ag14  1  0.249983  0.249995  0.999963  1
  Ag  Ag15  1  0.750020  0.750031  0.000037  1
