# generated using pymatgen
data_SrDyPa2(Al3Ir)6
_symmetry_space_group_name_H-M   'P 1'
_cell_length_a   7.61741859
_cell_length_b   7.61354493
_cell_length_c   9.43341900
_cell_angle_alpha   90.00000000
_cell_angle_beta   90.00000000
_cell_angle_gamma   119.53761433
_symmetry_Int_Tables_number   1
_chemical_formula_structural   SrDyPa2(Al3Ir)6
_chemical_formula_sum   'Sr1 Dy1 Pa2 Al18 Ir6'
_cell_volume   475.99150834
_cell_formula_units_Z   1
loop_
 _symmetry_equiv_pos_site_id
 _symmetry_equiv_pos_as_xyz
  1  'x, y, z'
loop_
 _atom_site_type_symbol
 _atom_site_label
 _atom_site_symmetry_multiplicity
 _atom_site_fract_x
 _atom_site_fract_y
 _atom_site_fract_z
 _atom_site_occupancy
  Sr  Sr0  1  0.329780  0.006501  0.750000  1
  Dy  Dy1  1  0.669911  0.992863  0.250000  1
  Pa  Pa2  1  0.998870  0.672950  0.250000  1
  Pa  Pa3  1  0.001049  0.327524  0.750000  1
  Al  Al4  1  0.130882  0.127918  0.250000  1
  Al  Al5  1  0.865012  0.872494  0.750000  1
  Al  Al6  1  0.000577  0.332122  0.078478  1
  Al  Al7  1  0.997921  0.666427  0.923875  1
  Al  Al8  1  0.997921  0.666427  0.576125  1
  Al  Al9  1  0.339251  0.004347  0.423461  1
  Al  Al10  1  0.000577  0.332122  0.421522  1
  Al  Al11  1  0.662599  0.996225  0.572584  1
  Al  Al12  1  0.662599  0.996225  0.927416  1
  Al  Al13  1  0.339251  0.004347  0.076539  1
  Al  Al14  1  0.335098  0.334948  0.549935  1
  Al  Al15  1  0.665010  0.666445  0.445696  1
  Al  Al16  1  0.665010  0.666445  0.054304  1
  Al  Al17  1  0.335098  0.334948  0.950065  1
  Al  Al18  1  0.341074  0.547538  0.250000  1
  Al  Al19  1  0.663534  0.455742  0.750000  1
  Al  Al20  1  0.550744  0.342098  0.250000  1
  Al  Al21  1  0.448908  0.653386  0.750000  1
  Ir  Ir22  1  0.677688  0.331690  0.001317  1
  Ir  Ir23  1  0.324390  0.669022  0.002828  1
  Ir  Ir24  1  0.324390  0.669022  0.497172  1
  Ir  Ir25  1  0.677688  0.331690  0.498683  1
  Ir  Ir26  1  0.997584  0.999267  0.002350  1
  Ir  Ir27  1  0.997584  0.999267  0.497650  1
