# generated using pymatgen
data_YErTm8In8(HgPt)2
_symmetry_space_group_name_H-M   'P 1'
_cell_length_a   3.64971100
_cell_length_b   8.17223058
_cell_length_c   18.26965485
_cell_angle_alpha   89.85876780
_cell_angle_beta   90.00000000
_cell_angle_gamma   90.00000000
_symmetry_Int_Tables_number   1
_chemical_formula_structural   YErTm8In8(HgPt)2
_chemical_formula_sum   'Y1 Er1 Tm8 In8 Hg2 Pt2'
_cell_volume   544.91418296
_cell_formula_units_Z   1
loop_
 _symmetry_equiv_pos_site_id
 _symmetry_equiv_pos_as_xyz
  1  'x, y, z'
loop_
 _atom_site_type_symbol
 _atom_site_label
 _atom_site_symmetry_multiplicity
 _atom_site_fract_x
 _atom_site_fract_y
 _atom_site_fract_z
 _atom_site_occupancy
  Y  Y0  1  0.000000  0.500000  0.500000  1
  Er  Er1  1  0.000000  0.000000  0.000000  1
  Tm  Tm2  1  0.000000  0.120927  0.422889  1
  Tm  Tm3  1  0.000000  0.879073  0.577111  1
  Tm  Tm4  1  0.000000  0.384688  0.916569  1
  Tm  Tm5  1  0.000000  0.615312  0.083431  1
  Tm  Tm6  1  0.000000  0.261359  0.212789  1
  Tm  Tm7  1  0.000000  0.738641  0.787211  1
  Tm  Tm8  1  0.000000  0.286991  0.721864  1
  Tm  Tm9  1  0.000000  0.713009  0.278136  1
  In  In10  1  0.500000  0.416073  0.352294  1
  In  In11  1  0.500000  0.583927  0.647706  1
  In  In12  1  0.500000  0.082699  0.854470  1
  In  In13  1  0.500000  0.917301  0.145530  1
  In  In14  1  0.500000  0.293188  0.063158  1
  In  In15  1  0.500000  0.706812  0.936842  1
  In  In16  1  0.500000  0.210708  0.568357  1
  In  In17  1  0.500000  0.789292  0.431643  1
  Hg  Hg18  1  0.500000  0.025205  0.300094  1
  Hg  Hg19  1  0.500000  0.974795  0.699906  1
  Pt  Pt20  1  0.500000  0.474907  0.805418  1
  Pt  Pt21  1  0.500000  0.525093  0.194582  1
