# generated using pymatgen
data_Hf4Zr2CoBi2
_symmetry_space_group_name_H-M   'P 1'
_cell_length_a   7.88753607
_cell_length_b   7.86923302
_cell_length_c   3.66199300
_cell_angle_alpha   90.00000000
_cell_angle_beta   90.00000000
_cell_angle_gamma   119.92326509
_symmetry_Int_Tables_number   1
_chemical_formula_structural   Hf4Zr2CoBi2
_chemical_formula_sum   'Hf4 Zr2 Co1 Bi2'
_cell_volume   196.99590431
_cell_formula_units_Z   1
loop_
 _symmetry_equiv_pos_site_id
 _symmetry_equiv_pos_as_xyz
  1  'x, y, z'
loop_
 _atom_site_type_symbol
 _atom_site_label
 _atom_site_symmetry_multiplicity
 _atom_site_fract_x
 _atom_site_fract_y
 _atom_site_fract_z
 _atom_site_occupancy
  Hf  Hf0  1  0.000000  0.614366  0.500000  1
  Hf  Hf1  1  0.231915  0.999340  0.000000  1
  Hf  Hf2  1  0.768085  0.767424  0.000000  1
  Hf  Hf3  1  0.000000  0.232025  0.000000  1
  Zr  Zr4  1  0.608906  0.999740  0.500000  1
  Zr  Zr5  1  0.391094  0.390835  0.500000  1
  Co  Co6  1  0.000000  0.996157  0.500000  1
  Bi  Bi7  1  0.332227  0.666170  0.000000  1
  Bi  Bi8  1  0.667773  0.333942  0.000000  1
