# generated using pymatgen
data_Hf3ScNbRe24
_symmetry_space_group_name_H-M   'P 1'
_cell_length_a   8.46376170
_cell_length_b   8.46367771
_cell_length_c   8.46364526
_cell_angle_alpha   109.45585597
_cell_angle_beta   109.45810798
_cell_angle_gamma   109.45802363
_symmetry_Int_Tables_number   1
_chemical_formula_structural   Hf3ScNbRe24
_chemical_formula_sum   'Hf3 Sc1 Nb1 Re24'
_cell_volume   466.96170929
_cell_formula_units_Z   1
loop_
 _symmetry_equiv_pos_site_id
 _symmetry_equiv_pos_as_xyz
  1  'x, y, z'
loop_
 _atom_site_type_symbol
 _atom_site_label
 _atom_site_symmetry_multiplicity
 _atom_site_fract_x
 _atom_site_fract_y
 _atom_site_fract_z
 _atom_site_occupancy
  Hf  Hf0  1  0.999929  0.630666  0.999930  1
  Hf  Hf1  1  0.630671  0.999925  0.999926  1
  Hf  Hf2  1  0.999924  0.999916  0.630671  1
  Sc  Sc3  1  0.000727  0.000727  0.000732  1
  Nb  Nb4  1  0.369748  0.369743  0.369746  1
  Re  Re5  1  0.998891  0.395218  0.676229  1
  Re  Re6  1  0.282451  0.601062  0.601066  1
  Re  Re7  1  0.719153  0.323061  0.323057  1
  Re  Re8  1  0.323064  0.719152  0.323066  1
  Re  Re9  1  0.676231  0.998897  0.395211  1
  Re  Re10  1  0.998900  0.676236  0.395217  1
  Re  Re11  1  0.601062  0.601055  0.282448  1
  Re  Re12  1  0.807313  0.807315  0.183083  1
  Re  Re13  1  0.376334  0.195081  0.000999  1
  Re  Re14  1  0.195068  0.376335  0.000994  1
  Re  Re15  1  0.624020  0.817938  0.624023  1
  Re  Re16  1  0.376333  0.000999  0.195076  1
  Re  Re17  1  0.000988  0.376331  0.195068  1
  Re  Re18  1  0.817956  0.624022  0.624025  1
  Re  Re19  1  0.183073  0.807311  0.807309  1
  Re  Re20  1  0.807305  0.183070  0.807302  1
  Re  Re21  1  0.195078  0.000992  0.376332  1
  Re  Re22  1  0.001000  0.195077  0.376335  1
  Re  Re23  1  0.624021  0.624025  0.817951  1
  Re  Re24  1  0.395215  0.998896  0.676231  1
  Re  Re25  1  0.601054  0.282442  0.601046  1
  Re  Re26  1  0.676218  0.395208  0.998883  1
  Re  Re27  1  0.395221  0.676236  0.998905  1
  Re  Re28  1  0.323055  0.323064  0.719141  1
