# generated using pymatgen
data_Tb3SmPd4F28
_symmetry_space_group_name_H-M   'P 1'
_cell_length_a   5.55351043
_cell_length_b   8.92419550
_cell_length_c   12.01608488
_cell_angle_alpha   62.35060167
_cell_angle_beta   90.04457620
_cell_angle_gamma   90.01454478
_symmetry_Int_Tables_number   1
_chemical_formula_structural   Tb3SmPd4F28
_chemical_formula_sum   'Tb3 Sm1 Pd4 F28'
_cell_volume   527.51773554
_cell_formula_units_Z   1
loop_
 _symmetry_equiv_pos_site_id
 _symmetry_equiv_pos_as_xyz
  1  'x, y, z'
loop_
 _atom_site_type_symbol
 _atom_site_label
 _atom_site_symmetry_multiplicity
 _atom_site_fract_x
 _atom_site_fract_y
 _atom_site_fract_z
 _atom_site_occupancy
  Tb  Tb0  1  0.761958  0.813394  0.764345  1
  Tb  Tb1  1  0.262190  0.186818  0.735791  1
  Tb  Tb2  1  0.237308  0.189028  0.235521  1
  Sm  Sm3  1  0.738360  0.813054  0.264659  1
  Pd  Pd4  1  0.758836  0.273921  0.956237  1
  Pd  Pd5  1  0.257979  0.726958  0.544650  1
  Pd  Pd6  1  0.242837  0.727115  0.041120  1
  Pd  Pd7  1  0.741585  0.270571  0.458038  1
  F  F8  1  0.433083  0.703869  0.914208  1
  F  F9  1  0.934005  0.295204  0.583917  1
  F  F10  1  0.566292  0.296916  0.082697  1
  F  F11  1  0.068785  0.703673  0.417362  1
  F  F12  1  0.443500  0.278441  0.541604  1
  F  F13  1  0.942712  0.720453  0.958516  1
  F  F14  1  0.556140  0.718749  0.462220  1
  F  F15  1  0.056668  0.280762  0.040507  1
  F  F16  1  0.772907  0.519910  0.858434  1
  F  F17  1  0.270977  0.480518  0.642063  1
  F  F18  1  0.228458  0.481189  0.139590  1
  F  F19  1  0.726824  0.515885  0.360047  1
  F  F20  1  0.755578  0.028737  0.047727  1
  F  F21  1  0.256030  0.972367  0.451822  1
  F  F22  1  0.245612  0.972779  0.950057  1
  F  F23  1  0.744766  0.025044  0.549974  1
  F  F24  1  0.965231  0.726490  0.633989  1
  F  F25  1  0.467521  0.274154  0.865697  1
  F  F26  1  0.033621  0.273096  0.367399  1
  F  F27  1  0.535973  0.725367  0.130263  1
  F  F28  1  0.059871  0.743487  0.173572  1
  F  F29  1  0.553825  0.253643  0.326570  1
  F  F30  1  0.946758  0.255948  0.825336  1
  F  F31  1  0.443886  0.744457  0.676104  1
  F  F32  1  0.404639  0.971302  0.230982  1
  F  F33  1  0.910384  0.036250  0.268852  1
  F  F34  1  0.587632  0.030565  0.768054  1
  F  F35  1  0.087268  0.969886  0.732073  1
