# generated using pymatgen
data_Er3Co8MoP6
_symmetry_space_group_name_H-M   'P 1'
_cell_length_a   3.69825500
_cell_length_b   10.51049600
_cell_length_c   12.20531700
_cell_angle_alpha   90.00000000
_cell_angle_beta   90.00000000
_cell_angle_gamma   90.00000000
_symmetry_Int_Tables_number   1
_chemical_formula_structural   Er3Co8MoP6
_chemical_formula_sum   'Er6 Co16 Mo2 P12'
_cell_volume   474.42670591
_cell_formula_units_Z   2
loop_
 _symmetry_equiv_pos_site_id
 _symmetry_equiv_pos_as_xyz
  1  'x, y, z'
loop_
 _atom_site_type_symbol
 _atom_site_label
 _atom_site_symmetry_multiplicity
 _atom_site_fract_x
 _atom_site_fract_y
 _atom_site_fract_z
 _atom_site_occupancy
  Er  Er0  1  0.750000  0.250000  0.475880  1
  Er  Er1  1  0.250000  0.750000  0.524120  1
  Er  Er2  1  0.250000  0.930858  0.794866  1
  Er  Er3  1  0.250000  0.569142  0.794866  1
  Er  Er4  1  0.750000  0.069142  0.205134  1
  Er  Er5  1  0.750000  0.430858  0.205134  1
  Co  Co6  1  0.250000  0.250000  0.298818  1
  Co  Co7  1  0.750000  0.750000  0.701182  1
  Co  Co8  1  0.750000  0.250000  0.014051  1
  Co  Co9  1  0.250000  0.750000  0.985949  1
  Co  Co10  1  0.250000  0.417469  0.009843  1
  Co  Co11  1  0.250000  0.082531  0.009843  1
  Co  Co12  1  0.750000  0.582531  0.990157  1
  Co  Co13  1  0.750000  0.917469  0.990157  1
  Co  Co14  1  0.250000  0.453921  0.568560  1
  Co  Co15  1  0.250000  0.046079  0.568560  1
  Co  Co16  1  0.750000  0.546079  0.431440  1
  Co  Co17  1  0.750000  0.953921  0.431440  1
  Co  Co18  1  0.250000  0.872349  0.293079  1
  Co  Co19  1  0.250000  0.627651  0.293079  1
  Co  Co20  1  0.750000  0.127651  0.706921  1
  Co  Co21  1  0.750000  0.372349  0.706921  1
  Mo  Mo22  1  0.250000  0.250000  0.843623  1
  Mo  Mo23  1  0.750000  0.750000  0.156377  1
  P  P24  1  0.250000  0.250000  0.119780  1
  P  P25  1  0.750000  0.750000  0.880220  1
  P  P26  1  0.250000  0.250000  0.650188  1
  P  P27  1  0.750000  0.750000  0.349812  1
  P  P28  1  0.250000  0.437854  0.383858  1
  P  P29  1  0.250000  0.062146  0.383858  1
  P  P30  1  0.750000  0.562146  0.616142  1
  P  P31  1  0.750000  0.937854  0.616142  1
  P  P32  1  0.250000  0.905776  0.107227  1
  P  P33  1  0.250000  0.594224  0.107227  1
  P  P34  1  0.750000  0.094224  0.892773  1
  P  P35  1  0.750000  0.405776  0.892773  1
