# generated using pymatgen
data_Ca8BiSb11
_symmetry_space_group_name_H-M   'P 1'
_cell_length_a   6.31969446
_cell_length_b   6.53636018
_cell_length_c   14.63725000
_cell_angle_alpha   90.00000000
_cell_angle_beta   90.00000000
_cell_angle_gamma   89.78028162
_symmetry_Int_Tables_number   1
_chemical_formula_structural   Ca8BiSb11
_chemical_formula_sum   'Ca8 Bi1 Sb11'
_cell_volume   604.62813820
_cell_formula_units_Z   1
loop_
 _symmetry_equiv_pos_site_id
 _symmetry_equiv_pos_as_xyz
  1  'x, y, z'
loop_
 _atom_site_type_symbol
 _atom_site_label
 _atom_site_symmetry_multiplicity
 _atom_site_fract_x
 _atom_site_fract_y
 _atom_site_fract_z
 _atom_site_occupancy
  Ca  Ca0  1  0.939110  0.000201  0.250286  1
  Ca  Ca1  1  0.560890  0.499799  0.250286  1
  Ca  Ca2  1  0.059219  0.003412  0.747526  1
  Ca  Ca3  1  0.440781  0.496588  0.747526  1
  Ca  Ca4  1  0.750000  0.750000  0.999878  1
  Ca  Ca5  1  0.750000  0.250000  0.501426  1
  Ca  Ca6  1  0.250000  0.250000  0.002187  1
  Ca  Ca7  1  0.250000  0.750000  0.498253  1
  Bi  Bi8  1  0.250000  0.750000  0.931687  1
  Sb  Sb9  1  0.750000  0.750000  0.429458  1
  Sb  Sb10  1  0.750000  0.250000  0.071132  1
  Sb  Sb11  1  0.250000  0.250000  0.568917  1
  Sb  Sb12  1  0.423091  0.935040  0.153682  1
  Sb  Sb13  1  0.422216  0.065966  0.347685  1
  Sb  Sb14  1  0.077784  0.434034  0.347685  1
  Sb  Sb15  1  0.076909  0.564960  0.153682  1
  Sb  Sb16  1  0.579200  0.066566  0.846445  1
  Sb  Sb17  1  0.577523  0.934131  0.652908  1
  Sb  Sb18  1  0.922477  0.565869  0.652908  1
  Sb  Sb19  1  0.920800  0.433434  0.846445  1
