# generated using pymatgen
data_MgSc4V6Zn2O24
_symmetry_space_group_name_H-M   'P 1'
_cell_length_a   6.88827211
_cell_length_b   8.24990586
_cell_length_c   10.08120719
_cell_angle_alpha   104.26398236
_cell_angle_beta   107.05758406
_cell_angle_gamma   101.05795083
_symmetry_Int_Tables_number   1
_chemical_formula_structural   MgSc4V6Zn2O24
_chemical_formula_sum   'Mg1 Sc4 V6 Zn2 O24'
_cell_volume   508.78876450
_cell_formula_units_Z   1
loop_
 _symmetry_equiv_pos_site_id
 _symmetry_equiv_pos_as_xyz
  1  'x, y, z'
loop_
 _atom_site_type_symbol
 _atom_site_label
 _atom_site_symmetry_multiplicity
 _atom_site_fract_x
 _atom_site_fract_y
 _atom_site_fract_z
 _atom_site_occupancy
  Mg  Mg0  1  0.000000  0.500000  0.500000  1
  Sc  Sc1  1  0.383350  0.950219  0.613880  1
  Sc  Sc2  1  0.616650  0.049781  0.386120  1
  Sc  Sc3  1  0.052870  0.218911  0.016526  1
  Sc  Sc4  1  0.947130  0.781089  0.983474  1
  V  V5  1  0.767707  0.347858  0.721197  1
  V  V6  1  0.232293  0.652142  0.278803  1
  V  V7  1  0.910778  0.913439  0.670209  1
  V  V8  1  0.394533  0.712931  0.873573  1
  V  V9  1  0.089222  0.086561  0.329791  1
  V  V10  1  0.605467  0.287069  0.126427  1
  Zn  Zn11  1  0.285721  0.299913  0.788124  1
  Zn  Zn12  1  0.714279  0.700087  0.211876  1
  O  O13  1  0.906660  0.707975  0.591783  1
  O  O14  1  0.093340  0.292025  0.408217  1
  O  O15  1  0.262863  0.511340  0.733471  1
  O  O16  1  0.737137  0.488660  0.266529  1
  O  O17  1  0.776144  0.308674  0.541023  1
  O  O18  1  0.223856  0.691326  0.458977  1
  O  O19  1  0.675005  0.962253  0.580061  1
  O  O20  1  0.324995  0.037747  0.419939  1
  O  O21  1  0.636543  0.717260  0.005430  1
  O  O22  1  0.363457  0.282740  0.994570  1
  O  O23  1  0.473405  0.769695  0.277672  1
  O  O24  1  0.526595  0.230305  0.722328  1
  O  O25  1  0.134214  0.044910  0.657257  1
  O  O26  1  0.057461  0.047241  0.143261  1
  O  O27  1  0.942539  0.952759  0.856739  1
  O  O28  1  0.555602  0.134879  0.212163  1
  O  O29  1  0.444398  0.865121  0.787837  1
  O  O30  1  0.202655  0.438033  0.200462  1
  O  O31  1  0.797345  0.561967  0.799538  1
  O  O32  1  0.979447  0.291893  0.828255  1
  O  O33  1  0.020553  0.708107  0.171745  1
  O  O34  1  0.229474  0.760120  0.965834  1
  O  O35  1  0.770526  0.239880  0.034166  1
  O  O36  1  0.865786  0.955090  0.342743  1
