# generated using pymatgen
data_Li2Pt(IO3)6
_symmetry_space_group_name_H-M   'P 1'
_cell_length_a   5.36812400
_cell_length_b   9.40008100
_cell_length_c   9.40008000
_cell_angle_alpha   60.00003721
_cell_angle_beta   90.00014160
_cell_angle_gamma   90.00010901
_symmetry_Int_Tables_number   1
_chemical_formula_structural   Li2Pt(IO3)6
_chemical_formula_sum   'Li2 Pt1 I6 O18'
_cell_volume   410.78679981
_cell_formula_units_Z   1
loop_
 _symmetry_equiv_pos_site_id
 _symmetry_equiv_pos_as_xyz
  1  'x, y, z'
loop_
 _atom_site_type_symbol
 _atom_site_label
 _atom_site_symmetry_multiplicity
 _atom_site_fract_x
 _atom_site_fract_y
 _atom_site_fract_z
 _atom_site_occupancy
  Li  Li0  1  0.745817  0.333333  0.333333  1
  Li  Li1  1  0.210477  0.666663  0.666668  1
  Pt  Pt2  1  0.663463  0.000000  0.000000  1
  I  I3  1  0.787259  0.968619  0.669404  1
  I  I4  1  0.787251  0.361976  0.968616  1
  I  I5  1  0.787254  0.669407  0.361976  1
  I  I6  1  0.298592  0.026242  0.311779  1
  I  I7  1  0.298593  0.661979  0.026244  1
  I  I8  1  0.298592  0.311778  0.661978  1
  O  O9  1  0.499301  0.240455  0.554837  1
  O  O10  1  0.499296  0.204709  0.240453  1
  O  O11  1  0.499298  0.554838  0.204710  1
  O  O12  1  0.995878  0.760371  0.447676  1
  O  O13  1  0.995876  0.791955  0.760371  1
  O  O14  1  0.995875  0.447673  0.791954  1
  O  O15  1  0.891819  0.057414  0.805850  1
  O  O16  1  0.891814  0.136736  0.057417  1
  O  O17  1  0.891818  0.805850  0.136737  1
  O  O18  1  0.453069  0.917900  0.205358  1
  O  O19  1  0.453074  0.876741  0.917899  1
  O  O20  1  0.453069  0.205359  0.876740  1
  O  O21  1  0.965466  0.115144  0.490026  1
  O  O22  1  0.965456  0.394833  0.115143  1
  O  O23  1  0.965457  0.490027  0.394830  1
  O  O24  1  0.438250  0.885101  0.508428  1
  O  O25  1  0.438242  0.606469  0.885103  1
  O  O26  1  0.438244  0.508429  0.606470  1
