# generated using pymatgen
data_Sb2Pd4Pt
_symmetry_space_group_name_H-M   'P 1'
_cell_length_a   7.74461652
_cell_length_b   7.75288647
_cell_length_c   6.61508542
_cell_angle_alpha   115.16776656
_cell_angle_beta   115.31439497
_cell_angle_gamma   43.99097748
_symmetry_Int_Tables_number   1
_chemical_formula_structural   Sb2Pd4Pt
_chemical_formula_sum   'Sb4 Pd8 Pt2'
_cell_volume   244.95971150
_cell_formula_units_Z   2
loop_
 _symmetry_equiv_pos_site_id
 _symmetry_equiv_pos_as_xyz
  1  'x, y, z'
loop_
 _atom_site_type_symbol
 _atom_site_label
 _atom_site_symmetry_multiplicity
 _atom_site_fract_x
 _atom_site_fract_y
 _atom_site_fract_z
 _atom_site_occupancy
  Sb  Sb0  1  0.391273  0.395057  0.104725  1
  Sb  Sb1  1  0.128922  0.128605  0.362348  1
  Sb  Sb2  1  0.871330  0.872770  0.639020  1
  Sb  Sb3  1  0.605353  0.609630  0.893218  1
  Pd  Pd4  1  0.019375  0.524711  0.243559  1
  Pd  Pd5  1  0.613039  0.615119  0.308961  1
  Pd  Pd6  1  0.748758  0.251364  0.500629  1
  Pd  Pd7  1  0.247412  0.752521  0.500240  1
  Pd  Pd8  1  0.384182  0.386568  0.689726  1
  Pd  Pd9  1  0.474002  0.980294  0.755730  1
  Pd  Pd10  1  0.977343  0.477997  0.755361  1
  Pd  Pd11  1  0.085506  0.088738  0.925867  1
  Pt  Pt12  1  0.908576  0.917091  0.076230  1
  Pt  Pt13  1  0.522212  0.022252  0.244388  1
