# generated using pymatgen
data_Rb8Ho6RhI20
_symmetry_space_group_name_H-M   'P 1'
_cell_length_a   13.30807674
_cell_length_b   13.30821491
_cell_length_c   13.30806200
_cell_angle_alpha   60.00043973
_cell_angle_beta   60.00021065
_cell_angle_gamma   59.99999616
_symmetry_Int_Tables_number   1
_chemical_formula_structural   Rb8Ho6RhI20
_chemical_formula_sum   'Rb8 Ho6 Rh1 I20'
_cell_volume   1666.62173715
_cell_formula_units_Z   1
loop_
 _symmetry_equiv_pos_site_id
 _symmetry_equiv_pos_as_xyz
  1  'x, y, z'
loop_
 _atom_site_type_symbol
 _atom_site_label
 _atom_site_symmetry_multiplicity
 _atom_site_fract_x
 _atom_site_fract_y
 _atom_site_fract_z
 _atom_site_occupancy
  Rb  Rb0  1  0.359317  0.359353  0.359334  1
  Rb  Rb1  1  0.640683  0.640672  0.640655  1
  Rb  Rb2  1  0.359337  0.359345  0.921997  1
  Rb  Rb3  1  0.359350  0.921995  0.359332  1
  Rb  Rb4  1  0.640669  0.640667  0.078000  1
  Rb  Rb5  1  0.640675  0.077994  0.640661  1
  Rb  Rb6  1  0.921993  0.359340  0.359328  1
  Rb  Rb7  1  0.078017  0.640671  0.640673  1
  Ho  Ho8  1  0.852336  0.147655  0.147657  1
  Ho  Ho9  1  0.147657  0.852341  0.852349  1
  Ho  Ho10  1  0.147644  0.852357  0.147635  1
  Ho  Ho11  1  0.852354  0.147638  0.852361  1
  Ho  Ho12  1  0.147635  0.147641  0.852361  1
  Ho  Ho13  1  0.852354  0.852363  0.147641  1
  Rh  Rh14  1  0.999852  0.999940  0.000009  1
  I  I15  1  0.327221  0.000006  0.999999  1
  I  I16  1  0.672780  0.000002  0.000001  1
  I  I17  1  0.000007  0.327219  0.672782  1
  I  I18  1  0.000007  0.672786  0.327220  1
  I  I19  1  0.000005  0.327218  0.000002  1
  I  I20  1  0.672782  0.000005  0.327224  1
  I  I21  1  0.000004  0.672781  0.999997  1
  I  I22  1  0.327225  0.000003  0.672780  1
  I  I23  1  0.000004  0.000007  0.327227  1
  I  I24  1  0.000008  0.000000  0.672767  1
  I  I25  1  0.672783  0.327224  0.000002  1
  I  I26  1  0.327228  0.672785  0.999999  1
  I  I27  1  0.683154  0.316826  0.316860  1
  I  I28  1  0.316863  0.683165  0.683152  1
  I  I29  1  0.316850  0.683180  0.316840  1
  I  I30  1  0.683169  0.316833  0.683141  1
  I  I31  1  0.316864  0.316823  0.683156  1
  I  I32  1  0.683161  0.683159  0.316861  1
  I  I33  1  0.249999  0.250012  0.249989  1
  I  I34  1  0.750011  0.749995  0.750008  1
