# generated using pymatgen
data_Sc12Co(TcBr8)2
_symmetry_space_group_name_H-M   'P 1'
_cell_length_a   9.04583014
_cell_length_b   11.48338668
_cell_length_c   12.23397414
_cell_angle_alpha   116.82679894
_cell_angle_beta   101.33127725
_cell_angle_gamma   101.10674041
_symmetry_Int_Tables_number   1
_chemical_formula_structural   Sc12Co(TcBr8)2
_chemical_formula_sum   'Sc12 Co1 Tc2 Br16'
_cell_volume   1052.91260363
_cell_formula_units_Z   1
loop_
 _symmetry_equiv_pos_site_id
 _symmetry_equiv_pos_as_xyz
  1  'x, y, z'
loop_
 _atom_site_type_symbol
 _atom_site_label
 _atom_site_symmetry_multiplicity
 _atom_site_fract_x
 _atom_site_fract_y
 _atom_site_fract_z
 _atom_site_occupancy
  Sc  Sc0  1  0.088473  0.268801  0.358223  1
  Sc  Sc1  1  0.917808  0.733046  0.644171  1
  Sc  Sc2  1  0.782262  0.535100  0.326012  1
  Sc  Sc3  1  0.220787  0.463666  0.670606  1
  Sc  Sc4  1  0.277471  0.731166  0.642060  1
  Sc  Sc5  1  0.726540  0.266813  0.355310  1
  Sc  Sc6  1  0.144545  0.535920  0.329847  1
  Sc  Sc7  1  0.861381  0.465345  0.673358  1
  Sc  Sc8  1  0.404443  0.360137  0.276369  1
  Sc  Sc9  1  0.591910  0.639965  0.724152  1
  Sc  Sc10  1  0.455185  0.314004  0.519948  1
  Sc  Sc11  1  0.535334  0.685733  0.480226  1
  Co  Co12  1  0.340204  0.499895  0.499888  1
  Tc  Tc13  1  0.008025  0.499956  0.499896  1
  Tc  Tc14  1  0.667606  0.500027  0.500360  1
  Br  Br15  1  0.392900  0.730959  0.868850  1
  Br  Br16  1  0.604689  0.267899  0.129644  1
  Br  Br17  1  0.185920  0.950396  0.775292  1
  Br  Br18  1  0.818859  0.049735  0.223844  1
  Br  Br19  1  0.336509  0.108353  0.261488  1
  Br  Br20  1  0.650099  0.891508  0.738632  1
  Br  Br21  1  0.548846  0.436923  0.787011  1
  Br  Br22  1  0.439285  0.562893  0.213067  1
  Br  Br23  1  0.307737  0.815746  0.465108  1
  Br  Br24  1  0.691334  0.186932  0.534469  1
  Br  Br25  1  0.170433  0.182769  0.532350  1
  Br  Br26  1  0.826573  0.814626  0.468017  1
  Br  Br27  1  0.930850  0.571150  0.169271  1
  Br  Br28  1  0.074479  0.429184  0.830922  1
  Br  Br29  1  0.914514  0.731207  0.870192  1
  Br  Br30  1  0.084998  0.270141  0.131418  1
