# generated using pymatgen
data_Y2PdPtO7
_symmetry_space_group_name_H-M   'P 1'
_cell_length_a   7.26998302
_cell_length_b   7.26874330
_cell_length_c   7.26998308
_cell_angle_alpha   60.00563439
_cell_angle_beta   59.99196201
_cell_angle_gamma   60.00563997
_symmetry_Int_Tables_number   1
_chemical_formula_structural   Y2PdPtO7
_chemical_formula_sum   'Y4 Pd2 Pt2 O14'
_cell_volume   271.65752302
_cell_formula_units_Z   2
loop_
 _symmetry_equiv_pos_site_id
 _symmetry_equiv_pos_as_xyz
  1  'x, y, z'
loop_
 _atom_site_type_symbol
 _atom_site_label
 _atom_site_symmetry_multiplicity
 _atom_site_fract_x
 _atom_site_fract_y
 _atom_site_fract_z
 _atom_site_occupancy
  Y  Y0  1  0.125000  0.625000  0.125000  1
  Y  Y1  1  0.125000  0.125000  0.625000  1
  Y  Y2  1  0.625000  0.125000  0.125000  1
  Y  Y3  1  0.125000  0.125000  0.125000  1
  Pd  Pd4  1  0.125000  0.625000  0.625000  1
  Pd  Pd5  1  0.625000  0.625000  0.125000  1
  Pt  Pt6  1  0.625000  0.625000  0.625000  1
  Pt  Pt7  1  0.625000  0.125000  0.625000  1
  O  O8  1  0.285702  0.715534  0.715399  1
  O  O9  1  0.534601  0.966634  0.964298  1
  O  O10  1  0.715399  0.715534  0.285702  1
  O  O11  1  0.285702  0.283366  0.715399  1
  O  O12  1  0.999914  0.000086  0.999914  1
  O  O13  1  0.284811  0.715189  0.284811  1
  O  O14  1  0.715969  0.284031  0.715969  1
  O  O15  1  0.965189  0.534811  0.965189  1
  O  O16  1  0.534601  0.534466  0.964298  1
  O  O17  1  0.964298  0.966634  0.534601  1
  O  O18  1  0.250086  0.249914  0.250086  1
  O  O19  1  0.534031  0.965969  0.534031  1
  O  O20  1  0.715399  0.283366  0.285702  1
  O  O21  1  0.964298  0.534466  0.534601  1
