# generated using pymatgen
data_Zr3Sn(PN3)4
_symmetry_space_group_name_H-M   'P 1'
_cell_length_a   6.63444422
_cell_length_b   6.63444372
_cell_length_c   5.29558818
_cell_angle_alpha   78.55868912
_cell_angle_beta   78.55869111
_cell_angle_gamma   83.83221328
_symmetry_Int_Tables_number   1
_chemical_formula_structural   Zr3Sn(PN3)4
_chemical_formula_sum   'Zr3 Sn1 P4 N12'
_cell_volume   223.35490473
_cell_formula_units_Z   1
loop_
 _symmetry_equiv_pos_site_id
 _symmetry_equiv_pos_as_xyz
  1  'x, y, z'
loop_
 _atom_site_type_symbol
 _atom_site_label
 _atom_site_symmetry_multiplicity
 _atom_site_fract_x
 _atom_site_fract_y
 _atom_site_fract_z
 _atom_site_occupancy
  Zr  Zr0  1  0.672982  0.327018  0.750000  1
  Zr  Zr1  1  0.898817  0.101183  0.250000  1
  Zr  Zr2  1  0.327114  0.672886  0.250000  1
  Sn  Sn3  1  0.097376  0.902624  0.750000  1
  P  P4  1  0.197986  0.386099  0.754722  1
  P  P5  1  0.382320  0.196974  0.257370  1
  P  P6  1  0.803026  0.617680  0.242630  1
  P  P7  1  0.613901  0.802014  0.745278  1
  N  N8  1  0.325459  0.386453  0.003407  1
  N  N9  1  0.017846  0.224887  0.841315  1
  N  N10  1  0.987615  0.772883  0.153623  1
  N  N11  1  0.386743  0.324816  0.503729  1
  N  N12  1  0.614281  0.128061  0.136489  1
  N  N13  1  0.383813  0.872181  0.868957  1
  N  N14  1  0.871939  0.385719  0.363511  1
  N  N15  1  0.675184  0.613257  0.996271  1
  N  N16  1  0.775113  0.982154  0.658685  1
  N  N17  1  0.127819  0.616187  0.631043  1
  N  N18  1  0.227117  0.012385  0.346377  1
  N  N19  1  0.613547  0.674541  0.496593  1
