# generated using pymatgen
data_YLu4(In2Rh)2
_symmetry_space_group_name_H-M   'P 1'
_cell_length_a   3.54269200
_cell_length_b   7.96558100
_cell_length_c   18.14179000
_cell_angle_alpha   90.00000000
_cell_angle_beta   90.00000000
_cell_angle_gamma   90.00000000
_symmetry_Int_Tables_number   1
_chemical_formula_structural   YLu4(In2Rh)2
_chemical_formula_sum   'Y2 Lu8 In8 Rh4'
_cell_volume   511.95405861
_cell_formula_units_Z   2
loop_
 _symmetry_equiv_pos_site_id
 _symmetry_equiv_pos_as_xyz
  1  'x, y, z'
loop_
 _atom_site_type_symbol
 _atom_site_label
 _atom_site_symmetry_multiplicity
 _atom_site_fract_x
 _atom_site_fract_y
 _atom_site_fract_z
 _atom_site_occupancy
  Y  Y0  1  0.000000  0.000000  0.000000  1
  Y  Y1  1  0.000000  0.500000  0.500000  1
  Lu  Lu2  1  0.000000  0.749677  0.779167  1
  Lu  Lu3  1  0.000000  0.250323  0.220833  1
  Lu  Lu4  1  0.000000  0.249677  0.720833  1
  Lu  Lu5  1  0.000000  0.750323  0.279167  1
  Lu  Lu6  1  0.000000  0.879592  0.588209  1
  Lu  Lu7  1  0.000000  0.120408  0.411791  1
  Lu  Lu8  1  0.000000  0.379592  0.911791  1
  Lu  Lu9  1  0.000000  0.620408  0.088209  1
  In  In10  1  0.500000  0.798928  0.433675  1
  In  In11  1  0.500000  0.201072  0.566325  1
  In  In12  1  0.500000  0.298928  0.066325  1
  In  In13  1  0.500000  0.701072  0.933675  1
  In  In14  1  0.500000  0.931050  0.150613  1
  In  In15  1  0.500000  0.068950  0.849387  1
  In  In16  1  0.500000  0.431050  0.349387  1
  In  In17  1  0.500000  0.568950  0.650613  1
  Rh  Rh18  1  0.500000  0.970081  0.696198  1
  Rh  Rh19  1  0.500000  0.029919  0.303802  1
  Rh  Rh20  1  0.500000  0.470081  0.803802  1
  Rh  Rh21  1  0.500000  0.529919  0.196198  1
