# generated using pymatgen
data_ErLuNb4(B2Ru5)2
_symmetry_space_group_name_H-M   'P 1'
_cell_length_a   9.53820193
_cell_length_b   9.53820242
_cell_length_c   3.08677800
_cell_angle_alpha   90.00000000
_cell_angle_beta   90.00000000
_cell_angle_gamma   90.49691284
_symmetry_Int_Tables_number   1
_chemical_formula_structural   ErLuNb4(B2Ru5)2
_chemical_formula_sum   'Er1 Lu1 Nb4 B4 Ru10'
_cell_volume   280.81616894
_cell_formula_units_Z   1
loop_
 _symmetry_equiv_pos_site_id
 _symmetry_equiv_pos_as_xyz
  1  'x, y, z'
loop_
 _atom_site_type_symbol
 _atom_site_label
 _atom_site_symmetry_multiplicity
 _atom_site_fract_x
 _atom_site_fract_y
 _atom_site_fract_z
 _atom_site_occupancy
  Er  Er0  1  0.824625  0.675375  0.000000  1
  Lu  Lu1  1  0.175686  0.324314  0.000000  1
  Nb  Nb2  1  0.323962  0.824101  0.000000  1
  Nb  Nb3  1  0.675899  0.176038  0.000000  1
  Nb  Nb4  1  0.499507  0.499806  0.000000  1
  Nb  Nb5  1  0.000194  0.000493  0.000000  1
  B  B6  1  0.621216  0.878784  0.000000  1
  B  B7  1  0.378226  0.121774  0.000000  1
  B  B8  1  0.120803  0.620316  0.000000  1
  B  B9  1  0.879684  0.379197  0.000000  1
  Ru  Ru10  1  0.560906  0.722454  0.500000  1
  Ru  Ru11  1  0.438039  0.277913  0.500000  1
  Ru  Ru12  1  0.080273  0.784645  0.500000  1
  Ru  Ru13  1  0.920623  0.215440  0.500000  1
  Ru  Ru14  1  0.284560  0.579377  0.500000  1
  Ru  Ru15  1  0.715355  0.419727  0.500000  1
  Ru  Ru16  1  0.222087  0.061961  0.500000  1
  Ru  Ru17  1  0.777546  0.939094  0.500000  1
  Ru  Ru18  1  0.499794  0.000206  0.500000  1
  Ru  Ru19  1  0.001015  0.498985  0.500000  1
