# generated using pymatgen
data_LaYb2Eu3Si4
_symmetry_space_group_name_H-M   'P 1'
_cell_length_a   7.76910637
_cell_length_b   7.76997766
_cell_length_c   4.48935900
_cell_angle_alpha   90.00000000
_cell_angle_beta   90.00000000
_cell_angle_gamma   89.91066367
_symmetry_Int_Tables_number   1
_chemical_formula_structural   LaYb2Eu3Si4
_chemical_formula_sum   'La1 Yb2 Eu3 Si4'
_cell_volume   271.00334144
_cell_formula_units_Z   1
loop_
 _symmetry_equiv_pos_site_id
 _symmetry_equiv_pos_as_xyz
  1  'x, y, z'
loop_
 _atom_site_type_symbol
 _atom_site_label
 _atom_site_symmetry_multiplicity
 _atom_site_fract_x
 _atom_site_fract_y
 _atom_site_fract_z
 _atom_site_occupancy
  La  La0  1  0.826410  0.673714  0.500000  1
  Yb  Yb1  1  0.001424  0.001446  0.000000  1
  Yb  Yb2  1  0.497145  0.500330  0.000000  1
  Eu  Eu3  1  0.675870  0.177370  0.500000  1
  Eu  Eu4  1  0.323851  0.822998  0.500000  1
  Eu  Eu5  1  0.177332  0.321736  0.500000  1
  Si  Si6  1  0.108229  0.612472  0.000000  1
  Si  Si7  1  0.888096  0.391353  0.000000  1
  Si  Si8  1  0.611442  0.889849  0.000000  1
  Si  Si9  1  0.390202  0.108732  0.000000  1
