# generated using pymatgen
data_Ba4TaTi3O12
_symmetry_space_group_name_H-M   'P 1'
_cell_length_a   9.95936246
_cell_length_b   9.95936246
_cell_length_c   9.95936312
_cell_angle_alpha   33.53622150
_cell_angle_beta   33.53620964
_cell_angle_gamma   33.53621766
_symmetry_Int_Tables_number   1
_chemical_formula_structural   Ba4TaTi3O12
_chemical_formula_sum   'Ba4 Ta1 Ti3 O12'
_cell_volume   268.55326210
_cell_formula_units_Z   1
loop_
 _symmetry_equiv_pos_site_id
 _symmetry_equiv_pos_as_xyz
  1  'x, y, z'
loop_
 _atom_site_type_symbol
 _atom_site_label
 _atom_site_symmetry_multiplicity
 _atom_site_fract_x
 _atom_site_fract_y
 _atom_site_fract_z
 _atom_site_occupancy
  Ba  Ba0  1  0.374070  0.374070  0.374070  1
  Ba  Ba1  1  0.123864  0.123864  0.123864  1
  Ba  Ba2  1  0.876136  0.876136  0.876136  1
  Ba  Ba3  1  0.625930  0.625930  0.625930  1
  Ta  Ta4  1  0.500000  0.500000  0.500000  1
  Ti  Ti5  1  0.253006  0.253006  0.253006  1
  Ti  Ti6  1  0.000000  0.000000  0.000000  1
  Ti  Ti7  1  0.746994  0.746994  0.746994  1
  O  O8  1  0.125786  0.623014  0.125786  1
  O  O9  1  0.874214  0.376986  0.874214  1
  O  O10  1  0.624410  0.126724  0.624410  1
  O  O11  1  0.375590  0.873276  0.375590  1
  O  O12  1  0.874214  0.874214  0.376986  1
  O  O13  1  0.624410  0.624410  0.126724  1
  O  O14  1  0.375590  0.375590  0.873276  1
  O  O15  1  0.125786  0.125786  0.623014  1
  O  O16  1  0.376986  0.874214  0.874214  1
  O  O17  1  0.126724  0.624410  0.624410  1
  O  O18  1  0.873276  0.375590  0.375590  1
  O  O19  1  0.623014  0.125786  0.125786  1
