# generated using pymatgen
data_Pa2NiSnIr
_symmetry_space_group_name_H-M   'P 1'
_cell_length_a   7.56455400
_cell_length_b   7.55313600
_cell_length_c   3.64443700
_cell_angle_alpha   90.00000000
_cell_angle_beta   90.00000000
_cell_angle_gamma   90.00000000
_symmetry_Int_Tables_number   1
_chemical_formula_structural   Pa2NiSnIr
_chemical_formula_sum   'Pa4 Ni2 Sn2 Ir2'
_cell_volume   208.22893561
_cell_formula_units_Z   2
loop_
 _symmetry_equiv_pos_site_id
 _symmetry_equiv_pos_as_xyz
  1  'x, y, z'
loop_
 _atom_site_type_symbol
 _atom_site_label
 _atom_site_symmetry_multiplicity
 _atom_site_fract_x
 _atom_site_fract_y
 _atom_site_fract_z
 _atom_site_occupancy
  Pa  Pa0  1  0.676022  0.175468  0.500000  1
  Pa  Pa1  1  0.327899  0.828345  0.500000  1
  Pa  Pa2  1  0.827899  0.671655  0.500000  1
  Pa  Pa3  1  0.176022  0.324532  0.500000  1
  Ni  Ni4  1  0.868822  0.366139  0.000000  1
  Ni  Ni5  1  0.368822  0.133861  0.000000  1
  Sn  Sn6  1  0.501700  0.496504  0.000000  1
  Sn  Sn7  1  0.001700  0.003496  0.000000  1
  Ir  Ir8  1  0.625556  0.878462  0.000000  1
  Ir  Ir9  1  0.125556  0.621538  0.000000  1
