# generated using pymatgen
data_Li2Tb15Ho(InRh2)2
_symmetry_space_group_name_H-M   'P 1'
_cell_length_a   9.68103846
_cell_length_b   9.68103854
_cell_length_c   9.68652000
_cell_angle_alpha   59.98126829
_cell_angle_beta   59.98126802
_cell_angle_gamma   59.96710469
_symmetry_Int_Tables_number   1
_chemical_formula_structural   Li2Tb15Ho(InRh2)2
_chemical_formula_sum   'Li2 Tb15 Ho1 In2 Rh4'
_cell_volume   641.60188612
_cell_formula_units_Z   1
loop_
 _symmetry_equiv_pos_site_id
 _symmetry_equiv_pos_as_xyz
  1  'x, y, z'
loop_
 _atom_site_type_symbol
 _atom_site_label
 _atom_site_symmetry_multiplicity
 _atom_site_fract_x
 _atom_site_fract_y
 _atom_site_fract_z
 _atom_site_occupancy
  Li  Li0  1  0.427686  0.427686  0.424166  1
  Li  Li1  1  0.427686  0.427686  0.720462  1
  Tb  Tb2  1  0.811409  0.187478  0.811654  1
  Tb  Tb3  1  0.183229  0.183229  0.816771  1
  Tb  Tb4  1  0.652929  0.043207  0.651933  1
  Tb  Tb5  1  0.064183  0.064183  0.435817  1
  Tb  Tb6  1  0.437898  0.437898  0.062102  1
  Tb  Tb7  1  0.650896  0.650896  0.648988  1
  Tb  Tb8  1  0.811409  0.187478  0.189459  1
  Tb  Tb9  1  0.187478  0.811409  0.811654  1
  Tb  Tb10  1  0.043207  0.652929  0.651933  1
  Tb  Tb11  1  0.436867  0.063437  0.063227  1
  Tb  Tb12  1  0.436867  0.063437  0.436471  1
  Tb  Tb13  1  0.063437  0.436867  0.063227  1
  Tb  Tb14  1  0.650896  0.650896  0.049221  1
  Tb  Tb15  1  0.187478  0.811409  0.189459  1
  Tb  Tb16  1  0.063437  0.436867  0.436471  1
  Ho  Ho17  1  0.807778  0.807778  0.192222  1
  In  In18  1  0.415757  0.744122  0.420060  1
  In  In19  1  0.744122  0.415757  0.420060  1
  Rh  Rh20  1  0.856097  0.426877  0.858514  1
  Rh  Rh21  1  0.856191  0.856191  0.860982  1
  Rh  Rh22  1  0.856191  0.856191  0.426637  1
  Rh  Rh23  1  0.426877  0.856097  0.858514  1
