# generated using pymatgen
data_GdLu2BiO7
_symmetry_space_group_name_H-M   'P 1'
_cell_length_a   6.52902803
_cell_length_b   6.50814552
_cell_length_c   7.63312000
_cell_angle_alpha   106.98912254
_cell_angle_beta   89.91591270
_cell_angle_gamma   99.37308361
_symmetry_Int_Tables_number   1
_chemical_formula_structural   GdLu2BiO7
_chemical_formula_sum   'Gd2 Lu4 Bi2 O14'
_cell_volume   305.68393508
_cell_formula_units_Z   2
loop_
 _symmetry_equiv_pos_site_id
 _symmetry_equiv_pos_as_xyz
  1  'x, y, z'
loop_
 _atom_site_type_symbol
 _atom_site_label
 _atom_site_symmetry_multiplicity
 _atom_site_fract_x
 _atom_site_fract_y
 _atom_site_fract_z
 _atom_site_occupancy
  Gd  Gd0  1  0.735495  0.478828  0.618696  1
  Gd  Gd1  1  0.264505  0.521172  0.381304  1
  Lu  Lu2  1  0.465736  0.006949  0.250205  1
  Lu  Lu3  1  0.534264  0.993051  0.749795  1
  Lu  Lu4  1  0.276398  0.538168  0.885425  1
  Lu  Lu5  1  0.723602  0.461832  0.114575  1
  Bi  Bi6  1  0.000000  0.000000  0.500000  1
  Bi  Bi7  1  0.000000  0.000000  0.000000  1
  O  O8  1  0.455517  0.656351  0.160830  1
  O  O9  1  0.544483  0.343649  0.839170  1
  O  O10  1  0.303317  0.920093  0.950908  1
  O  O11  1  0.696683  0.079907  0.049092  1
  O  O12  1  0.302963  0.929106  0.514625  1
  O  O13  1  0.697037  0.070894  0.485375  1
  O  O14  1  0.545707  0.360109  0.336807  1
  O  O15  1  0.454293  0.639891  0.663193  1
  O  O16  1  0.924328  0.661598  0.960488  1
  O  O17  1  0.075672  0.338402  0.039512  1
  O  O18  1  0.074952  0.350475  0.627349  1
  O  O19  1  0.925048  0.649525  0.372651  1
  O  O20  1  0.865973  0.900487  0.724368  1
  O  O21  1  0.134027  0.099513  0.275632  1
