# generated using pymatgen
data_Li8MgFe3(Sn3O8)4
_symmetry_space_group_name_H-M   'P 1'
_cell_length_a   8.87855608
_cell_length_b   8.86488999
_cell_length_c   8.88585974
_cell_angle_alpha   89.90272867
_cell_angle_beta   89.99582837
_cell_angle_gamma   90.07438983
_symmetry_Int_Tables_number   1
_chemical_formula_structural   Li8MgFe3(Sn3O8)4
_chemical_formula_sum   'Li8 Mg1 Fe3 Sn12 O32'
_cell_volume   699.38152150
_cell_formula_units_Z   1
loop_
 _symmetry_equiv_pos_site_id
 _symmetry_equiv_pos_as_xyz
  1  'x, y, z'
loop_
 _atom_site_type_symbol
 _atom_site_label
 _atom_site_symmetry_multiplicity
 _atom_site_fract_x
 _atom_site_fract_y
 _atom_site_fract_z
 _atom_site_occupancy
  Li  Li0  1  0.001577  0.000514  0.000278  1
  Li  Li1  1  0.248976  0.249342  0.249890  1
  Li  Li2  1  0.250122  0.751301  0.749254  1
  Li  Li3  1  0.499303  0.998758  0.500141  1
  Li  Li4  1  0.500613  0.499886  0.000043  1
  Li  Li5  1  0.749625  0.250343  0.750480  1
  Li  Li6  1  0.750204  0.749566  0.251279  1
  Li  Li7  1  0.999618  0.500248  0.498588  1
  Mg  Mg8  1  0.124934  0.874949  0.374990  1
  Fe  Fe9  1  0.374839  0.124768  0.875070  1
  Fe  Fe10  1  0.625000  0.625292  0.624878  1
  Fe  Fe11  1  0.875086  0.374977  0.125339  1
  Sn  Sn12  1  0.129743  0.119214  0.624729  1
  Sn  Sn13  1  0.124586  0.370232  0.879312  1
  Sn  Sn14  1  0.120019  0.624547  0.130896  1
  Sn  Sn15  1  0.380726  0.374224  0.630596  1
  Sn  Sn16  1  0.375181  0.630830  0.379871  1
  Sn  Sn17  1  0.368843  0.880731  0.124725  1
  Sn  Sn18  1  0.629581  0.379523  0.375205  1
  Sn  Sn19  1  0.625491  0.130574  0.119864  1
  Sn  Sn20  1  0.620819  0.875394  0.870640  1
  Sn  Sn21  1  0.880685  0.125087  0.370313  1
  Sn  Sn22  1  0.874716  0.869977  0.619023  1
  Sn  Sn23  1  0.869620  0.619734  0.874833  1
  O  O24  1  0.114045  0.116345  0.388146  1
  O  O25  1  0.111472  0.885314  0.615963  1
  O  O26  1  0.111872  0.613889  0.887873  1
  O  O27  1  0.126996  0.136427  0.860759  1
  O  O28  1  0.122114  0.387993  0.112645  1
  O  O29  1  0.138783  0.362727  0.636376  1
  O  O30  1  0.138257  0.633443  0.364089  1
  O  O31  1  0.135596  0.861857  0.133766  1
  O  O32  1  0.363226  0.136368  0.631750  1
  O  O33  1  0.361133  0.370784  0.863741  1
  O  O34  1  0.362174  0.637980  0.137482  1
  O  O35  1  0.383241  0.612619  0.613919  1
  O  O36  1  0.366016  0.864393  0.361522  1
  O  O37  1  0.386171  0.387721  0.388660  1
  O  O38  1  0.388061  0.114713  0.118382  1
  O  O39  1  0.386890  0.879511  0.888068  1
  O  O40  1  0.613291  0.376968  0.610989  1
  O  O41  1  0.611374  0.613301  0.377516  1
  O  O42  1  0.611961  0.888109  0.113574  1
  O  O43  1  0.627870  0.363889  0.139390  1
  O  O44  1  0.623351  0.111651  0.887368  1
  O  O45  1  0.637893  0.135887  0.361644  1
  O  O46  1  0.638503  0.872813  0.637316  1
  O  O47  1  0.636601  0.639152  0.872870  1
  O  O48  1  0.863069  0.361475  0.372955  1
  O  O49  1  0.863317  0.133103  0.136676  1
  O  O50  1  0.864104  0.861745  0.861970  1
  O  O51  1  0.883639  0.887941  0.385813  1
  O  O52  1  0.866593  0.635847  0.637193  1
  O  O53  1  0.887585  0.112313  0.612211  1
  O  O54  1  0.888859  0.386820  0.876922  1
  O  O55  1  0.886036  0.617034  0.112352  1
