# generated using pymatgen
data_La2ZnRe4Si3
_symmetry_space_group_name_H-M   'P 1'
_cell_length_a   4.19966640
_cell_length_b   4.25211713
_cell_length_c   11.06381864
_cell_angle_alpha   101.08960274
_cell_angle_beta   100.93465998
_cell_angle_gamma   89.99935699
_symmetry_Int_Tables_number   1
_chemical_formula_structural   La2ZnRe4Si3
_chemical_formula_sum   'La2 Zn1 Re4 Si3'
_cell_volume   190.22614835
_cell_formula_units_Z   1
loop_
 _symmetry_equiv_pos_site_id
 _symmetry_equiv_pos_as_xyz
  1  'x, y, z'
loop_
 _atom_site_type_symbol
 _atom_site_label
 _atom_site_symmetry_multiplicity
 _atom_site_fract_x
 _atom_site_fract_y
 _atom_site_fract_z
 _atom_site_occupancy
  La  La0  1  0.843225  0.092853  0.185920  1
  La  La1  1  0.158542  0.908514  0.817008  1
  Zn  Zn2  1  0.276532  0.526675  0.053300  1
  Re  Re3  1  0.462250  0.212194  0.424354  1
  Re  Re4  1  0.965852  0.715805  0.431551  1
  Re  Re5  1  0.034791  0.284686  0.569617  1
  Re  Re6  1  0.537875  0.787813  0.575708  1
  Si  Si7  1  0.395803  0.645542  0.291876  1
  Si  Si8  1  0.604601  0.354948  0.709361  1
  Si  Si9  1  0.720534  0.470966  0.941303  1
