# generated using pymatgen
data_Cu3GeTe4
_symmetry_space_group_name_H-M   'P 1'
_cell_length_a   7.34023528
_cell_length_b   7.34023555
_cell_length_c   7.34023510
_cell_angle_alpha   131.93601451
_cell_angle_beta   131.93601298
_cell_angle_gamma   70.33010755
_symmetry_Int_Tables_number   1
_chemical_formula_structural   Cu3GeTe4
_chemical_formula_sum   'Cu3 Ge1 Te4'
_cell_volume   214.48201232
_cell_formula_units_Z   1
loop_
 _symmetry_equiv_pos_site_id
 _symmetry_equiv_pos_as_xyz
  1  'x, y, z'
loop_
 _atom_site_type_symbol
 _atom_site_label
 _atom_site_symmetry_multiplicity
 _atom_site_fract_x
 _atom_site_fract_y
 _atom_site_fract_z
 _atom_site_occupancy
  Cu  Cu0  1  0.750000  0.250000  0.500000  1
  Cu  Cu1  1  0.000000  0.000000  0.000000  1
  Cu  Cu2  1  0.250000  0.750000  0.500000  1
  Ge  Ge3  1  0.500000  0.500000  0.000000  1
  Te  Te4  1  0.112730  0.112853  0.485198  1
  Te  Te5  1  0.627655  0.627532  0.514802  1
  Te  Te6  1  0.372468  0.887270  0.000123  1
  Te  Te7  1  0.887147  0.372345  0.999877  1
