# generated using pymatgen
data_DyLuSc2(Al3Ir)6
_symmetry_space_group_name_H-M   'P 1'
_cell_length_a   7.50411328
_cell_length_b   7.50741638
_cell_length_c   9.37811100
_cell_angle_alpha   90.00000000
_cell_angle_beta   90.00000000
_cell_angle_gamma   119.52115672
_symmetry_Int_Tables_number   1
_chemical_formula_structural   DyLuSc2(Al3Ir)6
_chemical_formula_sum   'Dy1 Lu1 Sc2 Al18 Ir6'
_cell_volume   459.73890818
_cell_formula_units_Z   1
loop_
 _symmetry_equiv_pos_site_id
 _symmetry_equiv_pos_as_xyz
  1  'x, y, z'
loop_
 _atom_site_type_symbol
 _atom_site_label
 _atom_site_symmetry_multiplicity
 _atom_site_fract_x
 _atom_site_fract_y
 _atom_site_fract_z
 _atom_site_occupancy
  Dy  Dy0  1  0.994152  0.672002  0.250000  1
  Lu  Lu1  1  0.672431  0.994221  0.250000  1
  Sc  Sc2  1  0.004684  0.326465  0.750000  1
  Sc  Sc3  1  0.326718  0.005127  0.750000  1
  Al  Al4  1  0.130264  0.130942  0.250000  1
  Al  Al5  1  0.875026  0.875390  0.750000  1
  Al  Al6  1  0.001046  0.334701  0.070926  1
  Al  Al7  1  0.002288  0.664528  0.919161  1
  Al  Al8  1  0.002288  0.664528  0.580839  1
  Al  Al9  1  0.336095  0.001652  0.428969  1
  Al  Al10  1  0.001046  0.334701  0.429074  1
  Al  Al11  1  0.664467  0.002219  0.579840  1
  Al  Al12  1  0.664467  0.002219  0.920160  1
  Al  Al13  1  0.336095  0.001652  0.071031  1
  Al  Al14  1  0.330682  0.330750  0.558659  1
  Al  Al15  1  0.666387  0.666991  0.451143  1
  Al  Al16  1  0.666387  0.666991  0.048857  1
  Al  Al17  1  0.330682  0.330750  0.941341  1
  Al  Al18  1  0.341040  0.549070  0.250000  1
  Al  Al19  1  0.658862  0.445346  0.750000  1
  Al  Al20  1  0.547971  0.338737  0.250000  1
  Al  Al21  1  0.445436  0.659349  0.750000  1
  Ir  Ir22  1  0.672518  0.327881  0.999273  1
  Ir  Ir23  1  0.328267  0.672699  0.999355  1
  Ir  Ir24  1  0.328267  0.672699  0.500645  1
  Ir  Ir25  1  0.672518  0.327881  0.500727  1
  Ir  Ir26  1  0.999958  0.000255  0.999201  1
  Ir  Ir27  1  0.999958  0.000255  0.500799  1
