# generated using pymatgen
data_Ho5CoSbO12
_symmetry_space_group_name_H-M   'P 1'
_cell_length_a   6.80906011
_cell_length_b   6.80905945
_cell_length_c   7.21139928
_cell_angle_alpha   74.48761807
_cell_angle_beta   74.48762179
_cell_angle_gamma   50.79925164
_symmetry_Int_Tables_number   1
_chemical_formula_structural   Ho5CoSbO12
_chemical_formula_sum   'Ho5 Co1 Sb1 O12'
_cell_volume   247.47965794
_cell_formula_units_Z   1
loop_
 _symmetry_equiv_pos_site_id
 _symmetry_equiv_pos_as_xyz
  1  'x, y, z'
loop_
 _atom_site_type_symbol
 _atom_site_label
 _atom_site_symmetry_multiplicity
 _atom_site_fract_x
 _atom_site_fract_y
 _atom_site_fract_z
 _atom_site_occupancy
  Ho  Ho0  1  0.289262  0.312722  0.360252  1
  Ho  Ho1  1  0.687278  0.710738  0.639748  1
  Ho  Ho2  1  0.299968  0.312410  0.832029  1
  Ho  Ho3  1  0.687590  0.700032  0.167971  1
  Ho  Ho4  1  0.005320  0.994680  0.500000  1
  Co  Co5  1  0.256167  0.743833  0.000000  1
  Sb  Sb6  1  0.767523  0.232477  0.000000  1
  O  O7  1  0.901568  0.431625  0.917343  1
  O  O8  1  0.419474  0.899308  0.918942  1
  O  O9  1  0.100692  0.580526  0.081058  1
  O  O10  1  0.568375  0.098432  0.082657  1
  O  O11  1  0.091157  0.600641  0.574755  1
  O  O12  1  0.594450  0.103106  0.575121  1
  O  O13  1  0.896894  0.405550  0.424879  1
  O  O14  1  0.399359  0.908843  0.425245  1
  O  O15  1  0.019496  0.980958  0.816454  1
  O  O16  1  0.019042  0.980504  0.183546  1
  O  O17  1  0.498389  0.502003  0.816886  1
  O  O18  1  0.497997  0.501611  0.183114  1
