# generated using pymatgen
data_Ti3V2Si6BW5
_symmetry_space_group_name_H-M   'P 1'
_cell_length_a   7.33198427
_cell_length_b   7.34389813
_cell_length_c   4.99767319
_cell_angle_alpha   90.09812870
_cell_angle_beta   89.80341566
_cell_angle_gamma   119.94636339
_symmetry_Int_Tables_number   1
_chemical_formula_structural   Ti3V2Si6BW5
_chemical_formula_sum   'Ti3 V2 Si6 B1 W5'
_cell_volume   233.17316639
_cell_formula_units_Z   1
loop_
 _symmetry_equiv_pos_site_id
 _symmetry_equiv_pos_as_xyz
  1  'x, y, z'
loop_
 _atom_site_type_symbol
 _atom_site_label
 _atom_site_symmetry_multiplicity
 _atom_site_fract_x
 _atom_site_fract_y
 _atom_site_fract_z
 _atom_site_occupancy
  Ti  Ti0  1  0.244268  0.000000  0.756124  1
  Ti  Ti1  1  0.332969  0.666225  0.500747  1
  Ti  Ti2  1  0.666745  0.333775  0.500747  1
  V  V3  1  0.667967  0.334585  0.998466  1
  V  V4  1  0.333381  0.665415  0.998466  1
  Si  Si5  1  0.000033  0.400617  0.236275  1
  Si  Si6  1  0.599416  0.599383  0.236275  1
  Si  Si7  1  0.400329  0.000000  0.236522  1
  Si  Si8  1  0.001380  0.600289  0.762801  1
  Si  Si9  1  0.401092  0.399711  0.762801  1
  Si  Si10  1  0.596960  0.000000  0.764662  1
  B  B11  1  0.999712  0.000000  0.498114  1
  W  W12  1  0.001248  0.751839  0.250588  1
  W  W13  1  0.249409  0.248161  0.250588  1
  W  W14  1  0.753155  0.000000  0.246505  1
  W  W15  1  0.999411  0.246884  0.750158  1
  W  W16  1  0.752527  0.753116  0.750158  1
