# generated using pymatgen
data_Zr16Nb3Si16W
_symmetry_space_group_name_H-M   'P 1'
_cell_length_a   7.05140863
_cell_length_b   7.05140863
_cell_length_c   12.92263188
_cell_angle_alpha   89.95625057
_cell_angle_beta   90.04374943
_cell_angle_gamma   90.02116699
_symmetry_Int_Tables_number   1
_chemical_formula_structural   Zr16Nb3Si16W
_chemical_formula_sum   'Zr16 Nb3 Si16 W1'
_cell_volume   642.54338443
_cell_formula_units_Z   1
loop_
 _symmetry_equiv_pos_site_id
 _symmetry_equiv_pos_as_xyz
  1  'x, y, z'
loop_
 _atom_site_type_symbol
 _atom_site_label
 _atom_site_symmetry_multiplicity
 _atom_site_fract_x
 _atom_site_fract_y
 _atom_site_fract_z
 _atom_site_occupancy
  Zr  Zr0  1  0.355554  0.503728  0.377212  1
  Zr  Zr1  1  0.854796  0.997108  0.374344  1
  Zr  Zr2  1  0.002665  0.144747  0.126448  1
  Zr  Zr3  1  0.997108  0.854796  0.625656  1
  Zr  Zr4  1  0.644690  0.497860  0.875563  1
  Zr  Zr5  1  0.503728  0.355554  0.622788  1
  Zr  Zr6  1  0.497860  0.644690  0.124437  1
  Zr  Zr7  1  0.144747  0.002665  0.873552  1
  Zr  Zr8  1  0.998548  0.651060  0.033888  1
  Zr  Zr9  1  0.001299  0.349319  0.532954  1
  Zr  Zr10  1  0.651060  0.998548  0.966112  1
  Zr  Zr11  1  0.150865  0.501898  0.782787  1
  Zr  Zr12  1  0.848882  0.499333  0.283784  1
  Zr  Zr13  1  0.501898  0.150865  0.217213  1
  Zr  Zr14  1  0.499333  0.848882  0.716216  1
  Zr  Zr15  1  0.349319  0.001299  0.467046  1
  Nb  Nb16  1  0.824104  0.175059  0.749424  1
  Nb  Nb17  1  0.175059  0.824104  0.250576  1
  Nb  Nb18  1  0.324457  0.324457  0.000000  1
  Si  Si19  1  0.046736  0.698524  0.435964  1
  Si  Si20  1  0.950227  0.300764  0.935596  1
  Si  Si21  1  0.698524  0.046736  0.564036  1
  Si  Si22  1  0.199057  0.450822  0.185936  1
  Si  Si23  1  0.799600  0.550886  0.684437  1
  Si  Si24  1  0.450822  0.199057  0.814064  1
  Si  Si25  1  0.550886  0.799600  0.315563  1
  Si  Si26  1  0.300764  0.950227  0.064404  1
  Si  Si27  1  0.852603  0.796804  0.821203  1
  Si  Si28  1  0.147758  0.202892  0.321548  1
  Si  Si29  1  0.796804  0.852603  0.178797  1
  Si  Si30  1  0.298379  0.647817  0.571713  1
  Si  Si31  1  0.702903  0.352435  0.071376  1
  Si  Si32  1  0.647817  0.298379  0.428287  1
  Si  Si33  1  0.352435  0.702903  0.928624  1
  Si  Si34  1  0.202892  0.147758  0.678452  1
  W  W35  1  0.675822  0.675822  0.500000  1
