# generated using pymatgen
data_RbSm10(C2I9)2
_symmetry_space_group_name_H-M   'P 1'
_cell_length_a   11.56840944
_cell_length_b   11.61250099
_cell_length_c   11.69667867
_cell_angle_alpha   113.21845918
_cell_angle_beta   87.13914269
_cell_angle_gamma   119.53079138
_symmetry_Int_Tables_number   1
_chemical_formula_structural   RbSm10(C2I9)2
_chemical_formula_sum   'Rb1 Sm10 C4 I18'
_cell_volume   1235.79386685
_cell_formula_units_Z   1
loop_
 _symmetry_equiv_pos_site_id
 _symmetry_equiv_pos_as_xyz
  1  'x, y, z'
loop_
 _atom_site_type_symbol
 _atom_site_label
 _atom_site_symmetry_multiplicity
 _atom_site_fract_x
 _atom_site_fract_y
 _atom_site_fract_z
 _atom_site_occupancy
  Rb  Rb0  1  0.500000  0.000000  0.500000  1
  Sm  Sm1  1  0.671994  0.721853  0.707613  1
  Sm  Sm2  1  0.277323  0.354123  0.016104  1
  Sm  Sm3  1  0.093148  0.396289  0.295167  1
  Sm  Sm4  1  0.965467  0.038584  0.324598  1
  Sm  Sm5  1  0.906852  0.603711  0.704833  1
  Sm  Sm6  1  0.107249  0.944133  0.000695  1
  Sm  Sm7  1  0.034533  0.961416  0.675402  1
  Sm  Sm8  1  0.328006  0.278147  0.292387  1
  Sm  Sm9  1  0.722677  0.645877  0.983896  1
  Sm  Sm10  1  0.892751  0.055867  0.999305  1
  C  C11  1  0.152096  0.221533  0.123789  1
  C  C12  1  0.847904  0.778467  0.876211  1
  C  C13  1  0.921523  0.852862  0.802326  1
  C  C14  1  0.078477  0.147138  0.197674  1
  I  I15  1  0.448142  0.530024  0.830480  1
  I  I16  1  0.386041  0.037869  0.158115  1
  I  I17  1  0.774219  0.855610  0.500929  1
  I  I18  1  0.834882  0.311607  0.153494  1
  I  I19  1  0.551858  0.469976  0.169520  1
  I  I20  1  0.225781  0.144390  0.499071  1
  I  I21  1  0.317672  0.095055  0.830991  1
  I  I22  1  0.682328  0.904945  0.169009  1
  I  I23  1  0.978178  0.757111  0.168941  1
  I  I24  1  0.932068  0.299133  0.502383  1
  I  I25  1  0.021822  0.242889  0.831059  1
  I  I26  1  0.067932  0.700867  0.497617  1
  I  I27  1  0.263453  0.626279  0.185920  1
  I  I28  1  0.736547  0.373721  0.814080  1
  I  I29  1  0.639610  0.430248  0.497165  1
  I  I30  1  0.165118  0.688393  0.846506  1
  I  I31  1  0.613959  0.962131  0.841885  1
  I  I32  1  0.360390  0.569752  0.502835  1
