# generated using pymatgen
data_Ac2Th(MgIr)3
_symmetry_space_group_name_H-M   'P 1'
_cell_length_a   7.69869178
_cell_length_b   7.65210200
_cell_length_c   4.19607500
_cell_angle_alpha   90.00000000
_cell_angle_beta   90.00000000
_cell_angle_gamma   119.80002355
_symmetry_Int_Tables_number   1
_chemical_formula_structural   Ac2Th(MgIr)3
_chemical_formula_sum   'Ac2 Th1 Mg3 Ir3'
_cell_volume   214.50784467
_cell_formula_units_Z   1
loop_
 _symmetry_equiv_pos_site_id
 _symmetry_equiv_pos_as_xyz
  1  'x, y, z'
loop_
 _atom_site_type_symbol
 _atom_site_label
 _atom_site_symmetry_multiplicity
 _atom_site_fract_x
 _atom_site_fract_y
 _atom_site_fract_z
 _atom_site_occupancy
  Ac  Ac0  1  0.414906  0.415250  0.500000  1
  Ac  Ac1  1  0.585094  0.000344  0.500000  1
  Th  Th2  1  0.000000  0.586212  0.500000  1
  Mg  Mg3  1  0.776246  0.764257  0.000000  1
  Mg  Mg4  1  0.223754  0.988012  0.000000  1
  Mg  Mg5  1  0.000000  0.232669  0.000000  1
  Ir  Ir6  1  0.700598  0.361696  0.000000  1
  Ir  Ir7  1  0.299402  0.661099  0.000000  1
  Ir  Ir8  1  0.000000  0.990461  0.500000  1
