# generated using pymatgen
data_Ho11TmTcRu3
_symmetry_space_group_name_H-M   'P 1'
_cell_length_a   6.27337308
_cell_length_b   7.33338838
_cell_length_c   9.10837853
_cell_angle_alpha   90.01074358
_cell_angle_beta   89.93435866
_cell_angle_gamma   89.98951392
_symmetry_Int_Tables_number   1
_chemical_formula_structural   Ho11TmTcRu3
_chemical_formula_sum   'Ho11 Tm1 Tc1 Ru3'
_cell_volume   419.03140501
_cell_formula_units_Z   1
loop_
 _symmetry_equiv_pos_site_id
 _symmetry_equiv_pos_as_xyz
  1  'x, y, z'
loop_
 _atom_site_type_symbol
 _atom_site_label
 _atom_site_symmetry_multiplicity
 _atom_site_fract_x
 _atom_site_fract_y
 _atom_site_fract_z
 _atom_site_occupancy
  Ho  Ho0  1  0.167588  0.175956  0.435965  1
  Ho  Ho1  1  0.668028  0.323572  0.563993  1
  Ho  Ho2  1  0.834429  0.824521  0.937413  1
  Ho  Ho3  1  0.667605  0.323980  0.936230  1
  Ho  Ho4  1  0.834364  0.824588  0.562775  1
  Ho  Ho5  1  0.333035  0.676229  0.435154  1
  Ho  Ho6  1  0.167777  0.175987  0.064000  1
  Ho  Ho7  1  0.868028  0.540126  0.249732  1
  Ho  Ho8  1  0.627837  0.041451  0.249778  1
  Ho  Ho9  1  0.134550  0.458053  0.750270  1
  Ho  Ho10  1  0.365894  0.958043  0.750256  1
  Tm  Tm11  1  0.333101  0.675889  0.064594  1
  Tc  Tc12  1  0.037542  0.884367  0.249722  1
  Ru  Ru13  1  0.461394  0.384456  0.249662  1
  Ru  Ru14  1  0.960562  0.117243  0.749922  1
  Ru  Ru15  1  0.538266  0.615541  0.750533  1
