# generated using pymatgen
data_La6Tb10Cd3HgIr4
_symmetry_space_group_name_H-M   'P 1'
_cell_length_a   9.85037327
_cell_length_b   9.85037393
_cell_length_c   9.85037359
_cell_angle_alpha   59.89180160
_cell_angle_beta   59.89179884
_cell_angle_gamma   59.89180657
_symmetry_Int_Tables_number   1
_chemical_formula_structural   La6Tb10Cd3HgIr4
_chemical_formula_sum   'La6 Tb10 Cd3 Hg1 Ir4'
_cell_volume   674.17974825
_cell_formula_units_Z   1
loop_
 _symmetry_equiv_pos_site_id
 _symmetry_equiv_pos_as_xyz
  1  'x, y, z'
loop_
 _atom_site_type_symbol
 _atom_site_label
 _atom_site_symmetry_multiplicity
 _atom_site_fract_x
 _atom_site_fract_y
 _atom_site_fract_z
 _atom_site_occupancy
  La  La0  1  0.192413  0.807434  0.807434  1
  La  La1  1  0.805047  0.193661  0.193661  1
  La  La2  1  0.807434  0.192413  0.807434  1
  La  La3  1  0.193661  0.805047  0.193661  1
  La  La4  1  0.807434  0.807434  0.192413  1
  La  La5  1  0.193661  0.193661  0.805047  1
  Tb  Tb6  1  0.596925  0.596925  0.596925  1
  Tb  Tb7  1  0.598294  0.598294  0.206987  1
  Tb  Tb8  1  0.598294  0.206987  0.598294  1
  Tb  Tb9  1  0.206987  0.598294  0.598294  1
  Tb  Tb10  1  0.062231  0.436715  0.436715  1
  Tb  Tb11  1  0.435576  0.061890  0.061890  1
  Tb  Tb12  1  0.436715  0.062231  0.436715  1
  Tb  Tb13  1  0.061890  0.435576  0.061890  1
  Tb  Tb14  1  0.436715  0.436715  0.062231  1
  Tb  Tb15  1  0.061890  0.061890  0.435576  1
  Cd  Cd16  1  0.828752  0.828752  0.513787  1
  Cd  Cd17  1  0.828752  0.513787  0.828752  1
  Cd  Cd18  1  0.513787  0.828752  0.828752  1
  Hg  Hg19  1  0.831401  0.831401  0.831401  1
  Ir  Ir20  1  0.391637  0.391637  0.391637  1
  Ir  Ir21  1  0.392081  0.392081  0.826344  1
  Ir  Ir22  1  0.392081  0.826344  0.392081  1
  Ir  Ir23  1  0.826344  0.392081  0.392081  1
