# generated using pymatgen
data_Y2Si7(PdPt)6
_symmetry_space_group_name_H-M   'P 1'
_cell_length_a   9.84562700
_cell_length_b   9.84562616
_cell_length_c   3.91247700
_cell_angle_alpha   90.00000000
_cell_angle_beta   90.00000000
_cell_angle_gamma   119.99999273
_symmetry_Int_Tables_number   1
_chemical_formula_structural   Y2Si7(PdPt)6
_chemical_formula_sum   'Y2 Si7 Pd6 Pt6'
_cell_volume   328.44993582
_cell_formula_units_Z   1
loop_
 _symmetry_equiv_pos_site_id
 _symmetry_equiv_pos_as_xyz
  1  'x, y, z'
loop_
 _atom_site_type_symbol
 _atom_site_label
 _atom_site_symmetry_multiplicity
 _atom_site_fract_x
 _atom_site_fract_y
 _atom_site_fract_z
 _atom_site_occupancy
  Y  Y0  1  0.333333  0.666667  0.749576  1
  Y  Y1  1  0.666667  0.333333  0.250424  1
  Si  Si2  1  0.000000  0.000000  0.500000  1
  Si  Si3  1  0.407654  0.291822  0.749231  1
  Si  Si4  1  0.708178  0.115833  0.749231  1
  Si  Si5  1  0.884167  0.592346  0.749231  1
  Si  Si6  1  0.592346  0.708178  0.250769  1
  Si  Si7  1  0.291822  0.884167  0.250769  1
  Si  Si8  1  0.115833  0.407654  0.250769  1
  Pd  Pd9  1  0.144880  0.256353  0.752677  1
  Pd  Pd10  1  0.743647  0.888526  0.752677  1
  Pd  Pd11  1  0.111474  0.855120  0.752677  1
  Pd  Pd12  1  0.855120  0.743647  0.247323  1
  Pd  Pd13  1  0.256353  0.111474  0.247323  1
  Pd  Pd14  1  0.888526  0.144880  0.247323  1
  Pt  Pt15  1  0.445468  0.068403  0.750588  1
  Pt  Pt16  1  0.931597  0.377065  0.750588  1
  Pt  Pt17  1  0.622935  0.554532  0.750588  1
  Pt  Pt18  1  0.554532  0.931597  0.249412  1
  Pt  Pt19  1  0.068403  0.622935  0.249412  1
  Pt  Pt20  1  0.377065  0.445468  0.249412  1
