# generated using pymatgen
data_Na2Ho(P3Pd10)2
_symmetry_space_group_name_H-M   'P 1'
_cell_length_a   8.63575158
_cell_length_b   8.63838527
_cell_length_c   8.63838344
_cell_angle_alpha   59.97440606
_cell_angle_beta   60.01007092
_cell_angle_gamma   60.01008033
_symmetry_Int_Tables_number   1
_chemical_formula_structural   Na2Ho(P3Pd10)2
_chemical_formula_sum   'Na2 Ho1 P6 Pd20'
_cell_volume   455.65088053
_cell_formula_units_Z   1
loop_
 _symmetry_equiv_pos_site_id
 _symmetry_equiv_pos_as_xyz
  1  'x, y, z'
loop_
 _atom_site_type_symbol
 _atom_site_label
 _atom_site_symmetry_multiplicity
 _atom_site_fract_x
 _atom_site_fract_y
 _atom_site_fract_z
 _atom_site_occupancy
  Na  Na0  1  0.250125  0.249875  0.249875  1
  Na  Na1  1  0.999809  0.000191  0.000191  1
  Ho  Ho2  1  0.750313  0.749687  0.749687  1
  P  P3  1  0.737899  0.262101  0.262101  1
  P  P4  1  0.262210  0.737790  0.737790  1
  P  P5  1  0.262407  0.737570  0.262089  1
  P  P6  1  0.737934  0.262089  0.737570  1
  P  P7  1  0.262407  0.262089  0.737570  1
  P  P8  1  0.737934  0.737570  0.262089  1
  Pd  Pd9  1  0.384670  0.384541  0.384541  1
  Pd  Pd10  1  0.614541  0.614365  0.614365  1
  Pd  Pd11  1  0.384695  0.384698  0.845913  1
  Pd  Pd12  1  0.384695  0.845913  0.384698  1
  Pd  Pd13  1  0.614537  0.614594  0.156333  1
  Pd  Pd14  1  0.614537  0.156333  0.614594  1
  Pd  Pd15  1  0.846250  0.384541  0.384541  1
  Pd  Pd16  1  0.156728  0.614365  0.614365  1
  Pd  Pd17  1  0.347574  0.997889  0.997889  1
  Pd  Pd18  1  0.656649  0.997889  0.997889  1
  Pd  Pd19  1  0.997075  0.348424  0.657425  1
  Pd  Pd20  1  0.997075  0.657425  0.348424  1
  Pd  Pd21  1  0.997586  0.348160  0.997212  1
  Pd  Pd22  1  0.657041  0.997212  0.348160  1
  Pd  Pd23  1  0.997158  0.657352  0.997304  1
  Pd  Pd24  1  0.348184  0.997304  0.657352  1
  Pd  Pd25  1  0.997586  0.997212  0.348160  1
  Pd  Pd26  1  0.997158  0.997304  0.657352  1
  Pd  Pd27  1  0.657041  0.348160  0.997212  1
  Pd  Pd28  1  0.348184  0.657352  0.997304  1
