# generated using pymatgen
data_TbY5InNiRu
_symmetry_space_group_name_H-M   'P 1'
_cell_length_a   8.42323246
_cell_length_b   8.41739249
_cell_length_c   8.41739200
_cell_angle_alpha   112.64694776
_cell_angle_beta   110.28814508
_cell_angle_gamma   105.53222515
_symmetry_Int_Tables_number   1
_chemical_formula_structural   TbY5InNiRu
_chemical_formula_sum   'Tb2 Y10 In2 Ni2 Ru2'
_cell_volume   457.75317906
_cell_formula_units_Z   2
loop_
 _symmetry_equiv_pos_site_id
 _symmetry_equiv_pos_as_xyz
  1  'x, y, z'
loop_
 _atom_site_type_symbol
 _atom_site_label
 _atom_site_symmetry_multiplicity
 _atom_site_fract_x
 _atom_site_fract_y
 _atom_site_fract_z
 _atom_site_occupancy
  Tb  Tb0  1  0.440492  0.240159  0.200334  1
  Tb  Tb1  1  0.559508  0.759841  0.799666  1
  Y  Y2  1  0.042181  0.241508  0.800674  1
  Y  Y3  1  0.957819  0.758492  0.199326  1
  Y  Y4  1  0.184596  0.282175  0.466748  1
  Y  Y5  1  0.815404  0.717825  0.533252  1
  Y  Y6  1  0.184596  0.717848  0.902420  1
  Y  Y7  1  0.815404  0.282152  0.097580  1
  Y  Y8  1  0.325748  0.638214  0.311898  1
  Y  Y9  1  0.674252  0.361786  0.688102  1
  Y  Y10  1  0.325748  0.013848  0.687533  1
  Y  Y11  1  0.674252  0.986152  0.312467  1
  In  In12  1  0.500000  0.500000  0.000000  1
  In  In13  1  0.000000  0.000000  0.000000  1
  Ni  Ni14  1  0.114562  0.615093  0.499470  1
  Ni  Ni15  1  0.885438  0.384907  0.500530  1
  Ru  Ru16  1  0.332252  0.000577  0.331675  1
  Ru  Ru17  1  0.667748  0.999423  0.668325  1
