# generated using pymatgen
data_Lu4ZnPt11
_symmetry_space_group_name_H-M   'P 1'
_cell_length_a   4.11387800
_cell_length_b   5.74184163
_cell_length_c   11.47735994
_cell_angle_alpha   88.16800478
_cell_angle_beta   90.00000000
_cell_angle_gamma   90.00000000
_symmetry_Int_Tables_number   1
_chemical_formula_structural   Lu4ZnPt11
_chemical_formula_sum   'Lu4 Zn1 Pt11'
_cell_volume   270.97085380
_cell_formula_units_Z   1
loop_
 _symmetry_equiv_pos_site_id
 _symmetry_equiv_pos_as_xyz
  1  'x, y, z'
loop_
 _atom_site_type_symbol
 _atom_site_label
 _atom_site_symmetry_multiplicity
 _atom_site_fract_x
 _atom_site_fract_y
 _atom_site_fract_z
 _atom_site_occupancy
  Lu  Lu0  1  0.500000  0.759440  0.373796  1
  Lu  Lu1  1  0.500000  0.721922  0.867848  1
  Lu  Lu2  1  0.500000  0.278078  0.132152  1
  Lu  Lu3  1  0.500000  0.240560  0.626204  1
  Zn  Zn4  1  0.000000  0.000000  0.000000  1
  Pt  Pt5  1  0.000000  0.017981  0.246630  1
  Pt  Pt6  1  0.000000  0.982019  0.753370  1
  Pt  Pt7  1  0.000000  0.500000  0.000000  1
  Pt  Pt8  1  0.000000  0.500000  0.500000  1
  Pt  Pt9  1  0.000000  0.520939  0.249144  1
  Pt  Pt10  1  0.000000  0.479061  0.750856  1
  Pt  Pt11  1  0.500000  0.257571  0.377085  1
  Pt  Pt12  1  0.500000  0.221647  0.883056  1
  Pt  Pt13  1  0.500000  0.778353  0.116944  1
  Pt  Pt14  1  0.500000  0.742429  0.622915  1
  Pt  Pt15  1  0.000000  0.000000  0.500000  1
