# generated using pymatgen
data_Ca2Tb(Co4B3)2
_symmetry_space_group_name_H-M   'P 1'
_cell_length_a   9.35012553
_cell_length_b   8.54694455
_cell_length_c   5.23720082
_cell_angle_alpha   81.61572582
_cell_angle_beta   64.73317051
_cell_angle_gamma   33.65111778
_symmetry_Int_Tables_number   1
_chemical_formula_structural   Ca2Tb(Co4B3)2
_chemical_formula_sum   'Ca2 Tb1 Co8 B6'
_cell_volume   190.52699759
_cell_formula_units_Z   1
loop_
 _symmetry_equiv_pos_site_id
 _symmetry_equiv_pos_as_xyz
  1  'x, y, z'
loop_
 _atom_site_type_symbol
 _atom_site_label
 _atom_site_symmetry_multiplicity
 _atom_site_fract_x
 _atom_site_fract_y
 _atom_site_fract_z
 _atom_site_occupancy
  Ca  Ca0  1  0.315551  0.315551  0.684449  1
  Ca  Ca1  1  0.684449  0.684449  0.315551  1
  Tb  Tb2  1  0.500000  0.500000  0.500000  1
  Co  Co3  1  0.586374  0.586374  0.913626  1
  Co  Co4  1  0.915393  0.915393  0.084607  1
  Co  Co5  1  0.413626  0.413626  0.086374  1
  Co  Co6  1  0.086374  0.086374  0.413626  1
  Co  Co7  1  0.913626  0.913626  0.586374  1
  Co  Co8  1  0.250000  0.250000  0.250000  1
  Co  Co9  1  0.084607  0.084607  0.915393  1
  Co  Co10  1  0.750000  0.750000  0.750000  1
  B  B11  1  0.669504  0.989252  0.010748  1
  B  B12  1  0.989252  0.669504  0.330496  1
  B  B13  1  0.330496  0.010748  0.989252  1
  B  B14  1  0.010748  0.330496  0.669504  1
  B  B15  1  0.166359  0.833641  0.166359  1
  B  B16  1  0.833641  0.166359  0.833641  1
