# generated using pymatgen
data_LiCePr5Co17P12
_symmetry_space_group_name_H-M   'P 1'
_cell_length_a   3.77574600
_cell_length_b   10.63667217
_cell_length_c   12.41318772
_cell_angle_alpha   90.15797532
_cell_angle_beta   90.00000000
_cell_angle_gamma   90.00000000
_symmetry_Int_Tables_number   1
_chemical_formula_structural   LiCePr5Co17P12
_chemical_formula_sum   'Li1 Ce1 Pr5 Co17 P12'
_cell_volume   498.52875987
_cell_formula_units_Z   1
loop_
 _symmetry_equiv_pos_site_id
 _symmetry_equiv_pos_as_xyz
  1  'x, y, z'
loop_
 _atom_site_type_symbol
 _atom_site_label
 _atom_site_symmetry_multiplicity
 _atom_site_fract_x
 _atom_site_fract_y
 _atom_site_fract_z
 _atom_site_occupancy
  Li  Li0  1  0.500000  0.500376  0.148661  1
  Ce  Ce1  1  0.000000  0.680408  0.792130  1
  Pr  Pr2  1  0.000000  0.499471  0.522003  1
  Pr  Pr3  1  0.500000  0.999842  0.479779  1
  Pr  Pr4  1  0.500000  0.818086  0.206707  1
  Pr  Pr5  1  0.500000  0.181977  0.206598  1
  Pr  Pr6  1  0.000000  0.317208  0.794308  1
  Co  Co7  1  0.000000  0.999031  0.841824  1
  Co  Co8  1  0.500000  0.508723  0.709552  1
  Co  Co9  1  0.000000  0.999963  0.294241  1
  Co  Co10  1  0.000000  0.500726  0.985938  1
  Co  Co11  1  0.500000  0.998999  0.010548  1
  Co  Co12  1  0.500000  0.330975  0.995321  1
  Co  Co13  1  0.500000  0.669725  0.994125  1
  Co  Co14  1  0.000000  0.164059  0.001463  1
  Co  Co15  1  0.000000  0.834761  0.000033  1
  Co  Co16  1  0.500000  0.296613  0.431929  1
  Co  Co17  1  0.500000  0.703616  0.432392  1
  Co  Co18  1  0.000000  0.202079  0.571283  1
  Co  Co19  1  0.000000  0.798157  0.572840  1
  Co  Co20  1  0.500000  0.879301  0.712924  1
  Co  Co21  1  0.500000  0.116939  0.711134  1
  Co  Co22  1  0.000000  0.619893  0.293325  1
  Co  Co23  1  0.000000  0.380231  0.293469  1
  P  P24  1  0.500000  0.501045  0.889312  1
  P  P25  1  0.000000  0.999544  0.112041  1
  P  P26  1  0.500000  0.500019  0.340505  1
  P  P27  1  0.000000  0.000059  0.661310  1
  P  P28  1  0.500000  0.304749  0.614508  1
  P  P29  1  0.500000  0.696172  0.614447  1
  P  P30  1  0.000000  0.194683  0.387613  1
  P  P31  1  0.000000  0.805298  0.387883  1
  P  P32  1  0.500000  0.847007  0.893592  1
  P  P33  1  0.500000  0.149927  0.894321  1
  P  P34  1  0.000000  0.655840  0.100969  1
  P  P35  1  0.000000  0.344499  0.100975  1
