# generated using pymatgen
data_V3PdPt8
_symmetry_space_group_name_H-M   'P 1'
_cell_length_a   5.50815300
_cell_length_b   13.53139800
_cell_length_c   4.82418400
_cell_angle_alpha   90.00000000
_cell_angle_beta   90.00000000
_cell_angle_gamma   90.00000000
_symmetry_Int_Tables_number   1
_chemical_formula_structural   V3PdPt8
_chemical_formula_sum   'V6 Pd2 Pt16'
_cell_volume   359.56095667
_cell_formula_units_Z   2
loop_
 _symmetry_equiv_pos_site_id
 _symmetry_equiv_pos_as_xyz
  1  'x, y, z'
loop_
 _atom_site_type_symbol
 _atom_site_label
 _atom_site_symmetry_multiplicity
 _atom_site_fract_x
 _atom_site_fract_y
 _atom_site_fract_z
 _atom_site_occupancy
  V  V0  1  0.000000  0.336280  0.168674  1
  V  V1  1  0.000000  0.663720  0.168674  1
  V  V2  1  0.500001  0.500000  0.497100  1
  V  V3  1  0.000000  0.000000  0.504919  1
  V  V4  1  0.500001  0.164067  0.829569  1
  V  V5  1  0.500001  0.835933  0.829569  1
  Pd  Pd6  1  0.500001  0.335999  0.167577  1
  Pd  Pd7  1  0.500001  0.664001  0.167577  1
  Pt  Pt8  1  0.247333  0.000000  0.011608  1
  Pt  Pt9  1  0.752669  0.000000  0.011608  1
  Pt  Pt10  1  0.249949  0.168225  0.332349  1
  Pt  Pt11  1  0.750053  0.168225  0.332349  1
  Pt  Pt12  1  0.249949  0.831774  0.332349  1
  Pt  Pt13  1  0.750053  0.831774  0.332349  1
  Pt  Pt14  1  0.000000  0.500000  0.474451  1
  Pt  Pt15  1  0.500001  0.000000  0.525072  1
  Pt  Pt16  1  0.251016  0.332035  0.667483  1
  Pt  Pt17  1  0.748984  0.332035  0.667483  1
  Pt  Pt18  1  0.251016  0.667965  0.667483  1
  Pt  Pt19  1  0.748984  0.667965  0.667483  1
  Pt  Pt20  1  0.000000  0.164173  0.832569  1
  Pt  Pt21  1  0.000000  0.835827  0.832569  1
  Pt  Pt22  1  0.252480  0.500000  0.989571  1
  Pt  Pt23  1  0.747520  0.500000  0.989571  1
