# generated using pymatgen
data_Tb4Er3Tm(B6Ru)4
_symmetry_space_group_name_H-M   'P 1'
_cell_length_a   3.65072600
_cell_length_b   9.12099901
_cell_length_c   11.50562202
_cell_angle_alpha   90.00634442
_cell_angle_beta   90.00000000
_cell_angle_gamma   90.00000000
_symmetry_Int_Tables_number   1
_chemical_formula_structural   Tb4Er3Tm(B6Ru)4
_chemical_formula_sum   'Tb4 Er3 Tm1 B24 Ru4'
_cell_volume   383.11728594
_cell_formula_units_Z   1
loop_
 _symmetry_equiv_pos_site_id
 _symmetry_equiv_pos_as_xyz
  1  'x, y, z'
loop_
 _atom_site_type_symbol
 _atom_site_label
 _atom_site_symmetry_multiplicity
 _atom_site_fract_x
 _atom_site_fract_y
 _atom_site_fract_z
 _atom_site_occupancy
  Tb  Tb0  1  0.000000  0.322362  0.414235  1
  Tb  Tb1  1  0.000000  0.677654  0.585873  1
  Tb  Tb2  1  0.000000  0.822231  0.085702  1
  Tb  Tb3  1  0.000000  0.177773  0.914178  1
  Er  Er4  1  0.000000  0.943801  0.372187  1
  Er  Er5  1  0.000000  0.056233  0.627869  1
  Er  Er6  1  0.000000  0.443859  0.127635  1
  Tm  Tm7  1  0.000000  0.556195  0.872142  1
  B  B8  1  0.500000  0.554646  0.432601  1
  B  B9  1  0.500000  0.445378  0.567493  1
  B  B10  1  0.500000  0.054619  0.067389  1
  B  B11  1  0.500000  0.945234  0.932567  1
  B  B12  1  0.500000  0.748947  0.419161  1
  B  B13  1  0.500000  0.251121  0.580882  1
  B  B14  1  0.500000  0.248987  0.080816  1
  B  B15  1  0.500000  0.750709  0.919127  1
  B  B16  1  0.500000  0.791270  0.266024  1
  B  B17  1  0.500000  0.208853  0.734017  1
  B  B18  1  0.500000  0.291300  0.233949  1
  B  B19  1  0.500000  0.708410  0.766130  1
  B  B20  1  0.500000  0.631262  0.184649  1
  B  B21  1  0.500000  0.368987  0.815426  1
  B  B22  1  0.500000  0.131309  0.315299  1
  B  B23  1  0.500000  0.868629  0.684751  1
  B  B24  1  0.500000  0.983732  0.213193  1
  B  B25  1  0.500000  0.016202  0.786824  1
  B  B26  1  0.500000  0.483713  0.286780  1
  B  B27  1  0.500000  0.516455  0.713453  1
  B  B28  1  0.500000  0.605419  0.028659  1
  B  B29  1  0.500000  0.394813  0.970828  1
  B  B30  1  0.500000  0.105650  0.471013  1
  B  B31  1  0.500000  0.894342  0.529022  1
  Ru  Ru32  1  0.000000  0.638404  0.320413  1
  Ru  Ru33  1  0.000000  0.361835  0.679739  1
  Ru  Ru34  1  0.000000  0.138450  0.179491  1
  Ru  Ru35  1  0.000000  0.861216  0.820483  1
