# generated using pymatgen
data_TbDy19(Bi2Rh)4
_symmetry_space_group_name_H-M   'P 1'
_cell_length_a   8.02451209
_cell_length_b   8.99354300
_cell_length_c   12.45678614
_cell_angle_alpha   90.00000000
_cell_angle_beta   90.01724482
_cell_angle_gamma   90.00000000
_symmetry_Int_Tables_number   1
_chemical_formula_structural   TbDy19(Bi2Rh)4
_chemical_formula_sum   'Tb1 Dy19 Bi8 Rh4'
_cell_volume   898.99119896
_cell_formula_units_Z   1
loop_
 _symmetry_equiv_pos_site_id
 _symmetry_equiv_pos_as_xyz
  1  'x, y, z'
loop_
 _atom_site_type_symbol
 _atom_site_label
 _atom_site_symmetry_multiplicity
 _atom_site_fract_x
 _atom_site_fract_y
 _atom_site_fract_z
 _atom_site_occupancy
  Tb  Tb0  1  0.841302  0.750000  0.793779  1
  Dy  Dy1  1  0.158673  0.250000  0.206050  1
  Dy  Dy2  1  0.341321  0.250000  0.706040  1
  Dy  Dy3  1  0.658627  0.750000  0.293971  1
  Dy  Dy4  1  0.375220  0.750000  0.693893  1
  Dy  Dy5  1  0.624665  0.250000  0.306096  1
  Dy  Dy6  1  0.875327  0.250000  0.806123  1
  Dy  Dy7  1  0.124627  0.750000  0.193836  1
  Dy  Dy8  1  0.953476  0.750000  0.501151  1
  Dy  Dy9  1  0.046571  0.250000  0.498792  1
  Dy  Dy10  1  0.453424  0.250000  0.998776  1
  Dy  Dy11  1  0.546368  0.750000  0.001284  1
  Dy  Dy12  1  0.677745  0.041141  0.565917  1
  Dy  Dy13  1  0.322223  0.958908  0.434065  1
  Dy  Dy14  1  0.177836  0.959016  0.934102  1
  Dy  Dy15  1  0.322223  0.541092  0.434065  1
  Dy  Dy16  1  0.822217  0.041171  0.065985  1
  Dy  Dy17  1  0.677745  0.458859  0.565917  1
  Dy  Dy18  1  0.822217  0.458829  0.065985  1
  Dy  Dy19  1  0.177836  0.540984  0.934102  1
  Bi  Bi20  1  0.568970  0.491421  0.826458  1
  Bi  Bi21  1  0.430857  0.508413  0.173567  1
  Bi  Bi22  1  0.069355  0.508218  0.673480  1
  Bi  Bi23  1  0.430857  0.991587  0.173567  1
  Bi  Bi24  1  0.930822  0.491591  0.326421  1
  Bi  Bi25  1  0.568970  0.008579  0.826458  1
  Bi  Bi26  1  0.930822  0.008409  0.326421  1
  Bi  Bi27  1  0.069355  0.991782  0.673480  1
  Rh  Rh28  1  0.570381  0.750000  0.510128  1
  Rh  Rh29  1  0.429669  0.250000  0.489902  1
  Rh  Rh30  1  0.070542  0.250000  0.989832  1
  Rh  Rh31  1  0.929762  0.750000  0.010357  1
