# generated using pymatgen
data_Dy4Lu6OsRu3
_symmetry_space_group_name_H-M   'P 1'
_cell_length_a   6.25936038
_cell_length_b   7.26085996
_cell_length_c   8.32424932
_cell_angle_alpha   97.03097090
_cell_angle_beta   112.09172515
_cell_angle_gamma   89.91576514
_symmetry_Int_Tables_number   1
_chemical_formula_structural   Dy4Lu6OsRu3
_chemical_formula_sum   'Dy4 Lu6 Os1 Ru3'
_cell_volume   347.50308267
_cell_formula_units_Z   1
loop_
 _symmetry_equiv_pos_site_id
 _symmetry_equiv_pos_as_xyz
  1  'x, y, z'
loop_
 _atom_site_type_symbol
 _atom_site_label
 _atom_site_symmetry_multiplicity
 _atom_site_fract_x
 _atom_site_fract_y
 _atom_site_fract_z
 _atom_site_occupancy
  Dy  Dy0  1  0.522619  0.083309  0.812670  1
  Dy  Dy1  1  0.477114  0.918491  0.187892  1
  Dy  Dy2  1  0.712847  0.417184  0.187769  1
  Dy  Dy3  1  0.290310  0.583332  0.815446  1
  Lu  Lu4  1  0.296836  0.316346  0.434543  1
  Lu  Lu5  1  0.700935  0.682851  0.564294  1
  Lu  Lu6  1  0.862870  0.183984  0.565622  1
  Lu  Lu7  1  0.137774  0.815187  0.433933  1
  Lu  Lu8  1  0.080791  0.250420  0.000374  1
  Lu  Lu9  1  0.920205  0.749615  0.000256  1
  Os  Os10  1  0.318213  0.577111  0.219503  1
  Ru  Ru11  1  0.679793  0.422180  0.779001  1
  Ru  Ru12  1  0.097891  0.923742  0.777205  1
  Ru  Ru13  1  0.901800  0.076247  0.221491  1
