# generated using pymatgen
data_Ta6Be14Co8Si
_symmetry_space_group_name_H-M   'P 1'
_cell_length_a   7.57727419
_cell_length_b   7.57727468
_cell_length_c   7.57727500
_cell_angle_alpha   60.00000296
_cell_angle_beta   60.00000085
_cell_angle_gamma   60.00000016
_symmetry_Int_Tables_number   1
_chemical_formula_structural   Ta6Be14Co8Si
_chemical_formula_sum   'Ta6 Be14 Co8 Si1'
_cell_volume   307.62675077
_cell_formula_units_Z   1
loop_
 _symmetry_equiv_pos_site_id
 _symmetry_equiv_pos_as_xyz
  1  'x, y, z'
loop_
 _atom_site_type_symbol
 _atom_site_label
 _atom_site_symmetry_multiplicity
 _atom_site_fract_x
 _atom_site_fract_y
 _atom_site_fract_z
 _atom_site_occupancy
  Ta  Ta0  1  0.708027  0.291973  0.291973  1
  Ta  Ta1  1  0.291973  0.708027  0.708027  1
  Ta  Ta2  1  0.291973  0.708027  0.291973  1
  Ta  Ta3  1  0.708027  0.291973  0.708027  1
  Ta  Ta4  1  0.291973  0.291973  0.708027  1
  Ta  Ta5  1  0.708027  0.708027  0.291973  1
  Be  Be6  1  0.326233  0.326233  0.326233  1
  Be  Be7  1  0.673767  0.673767  0.673767  1
  Be  Be8  1  0.326233  0.326233  0.021300  1
  Be  Be9  1  0.326233  0.021300  0.326233  1
  Be  Be10  1  0.673767  0.673767  0.978700  1
  Be  Be11  1  0.673767  0.978700  0.673767  1
  Be  Be12  1  0.021300  0.326233  0.326233  1
  Be  Be13  1  0.978700  0.673767  0.673767  1
  Be  Be14  1  0.500000  0.000000  0.000000  1
  Be  Be15  1  0.000000  0.500000  0.500000  1
  Be  Be16  1  0.000000  0.500000  0.000000  1
  Be  Be17  1  0.500000  0.000000  0.500000  1
  Be  Be18  1  0.000000  0.000000  0.500000  1
  Be  Be19  1  0.500000  0.500000  0.000000  1
  Co  Co20  1  0.124471  0.124471  0.124471  1
  Co  Co21  1  0.875529  0.875530  0.875529  1
  Co  Co22  1  0.124471  0.124471  0.626587  1
  Co  Co23  1  0.124471  0.626587  0.124470  1
  Co  Co24  1  0.875529  0.875530  0.373413  1
  Co  Co25  1  0.875529  0.373413  0.875529  1
  Co  Co26  1  0.626587  0.124471  0.124471  1
  Co  Co27  1  0.373413  0.875529  0.875529  1
  Si  Si28  1  0.000000  0.000000  0.000000  1
