# generated using pymatgen
data_MgMn4InPt10
_symmetry_space_group_name_H-M   'P 1'
_cell_length_a   4.05649400
_cell_length_b   5.55653552
_cell_length_c   11.12141569
_cell_angle_alpha   86.86446414
_cell_angle_beta   90.00000000
_cell_angle_gamma   90.00000000
_symmetry_Int_Tables_number   1
_chemical_formula_structural   MgMn4InPt10
_chemical_formula_sum   'Mg1 Mn4 In1 Pt10'
_cell_volume   250.30201929
_cell_formula_units_Z   1
loop_
 _symmetry_equiv_pos_site_id
 _symmetry_equiv_pos_as_xyz
  1  'x, y, z'
loop_
 _atom_site_type_symbol
 _atom_site_label
 _atom_site_symmetry_multiplicity
 _atom_site_fract_x
 _atom_site_fract_y
 _atom_site_fract_z
 _atom_site_occupancy
  Mg  Mg0  1  0.000000  0.000000  0.500000  1
  Mn  Mn1  1  0.500000  0.739487  0.369123  1
  Mn  Mn2  1  0.500000  0.726230  0.863771  1
  Mn  Mn3  1  0.500000  0.273770  0.136229  1
  Mn  Mn4  1  0.500000  0.260513  0.630877  1
  In  In5  1  0.000000  0.000000  0.000000  1
  Pt  Pt6  1  0.000000  0.007248  0.254005  1
  Pt  Pt7  1  0.000000  0.992752  0.745995  1
  Pt  Pt8  1  0.000000  0.500000  0.000000  1
  Pt  Pt9  1  0.000000  0.500000  0.500000  1
  Pt  Pt10  1  0.000000  0.507190  0.251803  1
  Pt  Pt11  1  0.000000  0.492810  0.748197  1
  Pt  Pt12  1  0.500000  0.244408  0.381595  1
  Pt  Pt13  1  0.500000  0.237686  0.876637  1
  Pt  Pt14  1  0.500000  0.762314  0.123363  1
  Pt  Pt15  1  0.500000  0.755592  0.618405  1
