# generated using pymatgen
data_Y2MnAl20Rh3
_symmetry_space_group_name_H-M   'P 1'
_cell_length_a   6.84340688
_cell_length_b   6.82404835
_cell_length_c   9.14558294
_cell_angle_alpha   90.21183045
_cell_angle_beta   90.35060351
_cell_angle_gamma   97.13456641
_symmetry_Int_Tables_number   1
_chemical_formula_structural   Y2MnAl20Rh3
_chemical_formula_sum   'Y2 Mn1 Al20 Rh3'
_cell_volume   423.77720450
_cell_formula_units_Z   1
loop_
 _symmetry_equiv_pos_site_id
 _symmetry_equiv_pos_as_xyz
  1  'x, y, z'
loop_
 _atom_site_type_symbol
 _atom_site_label
 _atom_site_symmetry_multiplicity
 _atom_site_fract_x
 _atom_site_fract_y
 _atom_site_fract_z
 _atom_site_occupancy
  Y  Y0  1  0.873405  0.131244  0.751614  1
  Y  Y1  1  0.126595  0.868756  0.248386  1
  Mn  Mn2  1  0.000000  0.500000  0.000000  1
  Al  Al3  1  0.622800  0.378906  0.550779  1
  Al  Al4  1  0.377200  0.621094  0.449221  1
  Al  Al5  1  0.371201  0.618962  0.047025  1
  Al  Al6  1  0.628799  0.381038  0.952975  1
  Al  Al7  1  0.222814  0.223729  0.498713  1
  Al  Al8  1  0.777186  0.776271  0.501287  1
  Al  Al9  1  0.781847  0.772920  0.002846  1
  Al  Al10  1  0.218153  0.227080  0.997154  1
  Al  Al11  1  0.848050  0.159902  0.099672  1
  Al  Al12  1  0.151950  0.840098  0.900328  1
  Al  Al13  1  0.155755  0.845207  0.603697  1
  Al  Al14  1  0.844245  0.154793  0.396303  1
  Al  Al15  1  0.860299  0.586889  0.754840  1
  Al  Al16  1  0.139701  0.413111  0.245160  1
  Al  Al17  1  0.409888  0.142842  0.751037  1
  Al  Al18  1  0.590112  0.857158  0.248963  1
  Al  Al19  1  0.221563  0.481281  0.756912  1
  Al  Al20  1  0.778437  0.518719  0.243088  1
  Al  Al21  1  0.520617  0.774566  0.750841  1
  Al  Al22  1  0.479383  0.225434  0.249159  1
  Rh  Rh23  1  0.000000  0.500000  0.500000  1
  Rh  Rh24  1  0.500000  0.000000  0.000000  1
  Rh  Rh25  1  0.500000  0.000000  0.500000  1
