# generated using pymatgen
data_Y7C3I6N
_symmetry_space_group_name_H-M   'P 1'
_cell_length_a   3.87718300
_cell_length_b   11.57494500
_cell_length_c   22.69659100
_cell_angle_alpha   90.00000000
_cell_angle_beta   90.00000000
_cell_angle_gamma   90.00000000
_symmetry_Int_Tables_number   1
_chemical_formula_structural   Y7C3I6N
_chemical_formula_sum   'Y14 C6 I12 N2'
_cell_volume   1018.58169583
_cell_formula_units_Z   2
loop_
 _symmetry_equiv_pos_site_id
 _symmetry_equiv_pos_as_xyz
  1  'x, y, z'
loop_
 _atom_site_type_symbol
 _atom_site_label
 _atom_site_symmetry_multiplicity
 _atom_site_fract_x
 _atom_site_fract_y
 _atom_site_fract_z
 _atom_site_occupancy
  Y  Y0  1  0.500000  0.637879  0.969251  1
  Y  Y1  1  0.000000  0.702263  0.668661  1
  Y  Y2  1  0.500000  0.509829  0.750000  1
  Y  Y3  1  0.000000  0.441922  0.606856  1
  Y  Y4  1  0.000000  0.297737  0.168661  1
  Y  Y5  1  0.500000  0.490171  0.250000  1
  Y  Y6  1  0.500000  0.362121  0.469251  1
  Y  Y7  1  0.000000  0.441922  0.893144  1
  Y  Y8  1  0.000000  0.558078  0.106856  1
  Y  Y9  1  0.000000  0.702263  0.831339  1
  Y  Y10  1  0.500000  0.637879  0.530749  1
  Y  Y11  1  0.500000  0.362121  0.030749  1
  Y  Y12  1  0.000000  0.297737  0.331339  1
  Y  Y13  1  0.000000  0.558078  0.393144  1
  C  C14  1  0.500000  0.424519  0.132644  1
  C  C15  1  0.500000  0.575481  0.632644  1
  C  C16  1  0.000000  0.500000  0.000000  1
  C  C17  1  0.500000  0.575481  0.867356  1
  C  C18  1  0.000000  0.500000  0.500000  1
  C  C19  1  0.500000  0.424519  0.367356  1
  I  I20  1  0.500000  0.122264  0.250000  1
  I  I21  1  0.000000  0.701152  0.250000  1
  I  I22  1  0.000000  0.146551  0.056994  1
  I  I23  1  0.500000  0.231906  0.907099  1
  I  I24  1  0.500000  0.768094  0.407099  1
  I  I25  1  0.000000  0.853449  0.943006  1
  I  I26  1  0.000000  0.146551  0.443006  1
  I  I27  1  0.500000  0.768094  0.092901  1
  I  I28  1  0.000000  0.853449  0.556994  1
  I  I29  1  0.000000  0.298848  0.750000  1
  I  I30  1  0.500000  0.231906  0.592901  1
  I  I31  1  0.500000  0.877736  0.750000  1
  N  N32  1  0.000000  0.605433  0.750000  1
  N  N33  1  0.000000  0.394567  0.250000  1
