# generated using pymatgen
data_TbPr(OsO3)6
_symmetry_space_group_name_H-M   'P 1'
_cell_length_a   7.45731500
_cell_length_b   5.29506000
_cell_length_c   8.23229516
_cell_angle_alpha   85.44600271
_cell_angle_beta   90.00000000
_cell_angle_gamma   90.00000000
_symmetry_Int_Tables_number   1
_chemical_formula_structural   TbPr(OsO3)6
_chemical_formula_sum   'Tb1 Pr1 Os6 O18'
_cell_volume   324.04180943
_cell_formula_units_Z   1
loop_
 _symmetry_equiv_pos_site_id
 _symmetry_equiv_pos_as_xyz
  1  'x, y, z'
loop_
 _atom_site_type_symbol
 _atom_site_label
 _atom_site_symmetry_multiplicity
 _atom_site_fract_x
 _atom_site_fract_y
 _atom_site_fract_z
 _atom_site_occupancy
  Tb  Tb0  1  0.250000  0.967446  0.425340  1
  Pr  Pr1  1  0.750000  0.025690  0.572523  1
  Os  Os2  1  0.493594  0.535099  0.692857  1
  Os  Os3  1  0.006406  0.535099  0.692857  1
  Os  Os4  1  0.997349  0.460936  0.307208  1
  Os  Os5  1  0.000858  0.998025  0.001087  1
  Os  Os6  1  0.502651  0.460936  0.307208  1
  Os  Os7  1  0.499142  0.998025  0.001087  1
  O  O8  1  0.964129  0.688621  0.123284  1
  O  O9  1  0.034985  0.307110  0.876388  1
  O  O10  1  0.063599  0.148528  0.213082  1
  O  O11  1  0.750000  0.369308  0.323914  1
  O  O12  1  0.042871  0.264690  0.526677  1
  O  O13  1  0.436401  0.148528  0.213082  1
  O  O14  1  0.535871  0.688621  0.123284  1
  O  O15  1  0.528952  0.735946  0.470918  1
  O  O16  1  0.750000  0.075400  0.018645  1
  O  O17  1  0.940546  0.843240  0.793090  1
  O  O18  1  0.750000  0.432984  0.683884  1
  O  O19  1  0.559454  0.843240  0.793090  1
  O  O20  1  0.250000  0.582177  0.310829  1
  O  O21  1  0.465015  0.307110  0.876388  1
  O  O22  1  0.971048  0.735946  0.470918  1
  O  O23  1  0.457129  0.264690  0.526677  1
  O  O24  1  0.250000  0.656065  0.670353  1
  O  O25  1  0.250000  0.926543  0.985329  1
