# generated using pymatgen
data_Tb3NdY12(CdNi)4
_symmetry_space_group_name_H-M   'P 1'
_cell_length_a   9.61355914
_cell_length_b   9.61356007
_cell_length_c   9.61355900
_cell_angle_alpha   60.00156957
_cell_angle_beta   60.00156826
_cell_angle_gamma   60.00156731
_symmetry_Int_Tables_number   1
_chemical_formula_structural   Tb3NdY12(CdNi)4
_chemical_formula_sum   'Tb3 Nd1 Y12 Cd4 Ni4'
_cell_volume   628.27978615
_cell_formula_units_Z   1
loop_
 _symmetry_equiv_pos_site_id
 _symmetry_equiv_pos_as_xyz
  1  'x, y, z'
loop_
 _atom_site_type_symbol
 _atom_site_label
 _atom_site_symmetry_multiplicity
 _atom_site_fract_x
 _atom_site_fract_y
 _atom_site_fract_z
 _atom_site_occupancy
  Tb  Tb0  1  0.598853  0.598853  0.202093  1
  Tb  Tb1  1  0.598853  0.202093  0.598853  1
  Tb  Tb2  1  0.202093  0.598853  0.598853  1
  Nd  Nd3  1  0.599334  0.599334  0.599334  1
  Y  Y4  1  0.062313  0.438311  0.438311  1
  Y  Y5  1  0.439296  0.061127  0.061127  1
  Y  Y6  1  0.438311  0.062313  0.438311  1
  Y  Y7  1  0.061127  0.439296  0.061127  1
  Y  Y8  1  0.438311  0.438311  0.062313  1
  Y  Y9  1  0.061127  0.061127  0.439296  1
  Y  Y10  1  0.186371  0.813707  0.813707  1
  Y  Y11  1  0.813565  0.186496  0.186496  1
  Y  Y12  1  0.813707  0.186371  0.813707  1
  Y  Y13  1  0.186496  0.813565  0.186496  1
  Y  Y14  1  0.813707  0.813707  0.186371  1
  Y  Y15  1  0.186496  0.186496  0.813565  1
  Cd  Cd16  1  0.831230  0.831230  0.831230  1
  Cd  Cd17  1  0.832076  0.832076  0.506218  1
  Cd  Cd18  1  0.832076  0.506218  0.832076  1
  Cd  Cd19  1  0.506218  0.832076  0.832076  1
  Ni  Ni20  1  0.393345  0.393345  0.393345  1
  Ni  Ni21  1  0.391749  0.391749  0.821600  1
  Ni  Ni22  1  0.391749  0.821600  0.391749  1
  Ni  Ni23  1  0.821600  0.391749  0.391749  1
