# generated using pymatgen
data_Tb5Ho11Cd3AgIr4
_symmetry_space_group_name_H-M   'P 1'
_cell_length_a   9.62203555
_cell_length_b   9.61947990
_cell_length_c   9.61947978
_cell_angle_alpha   59.88402295
_cell_angle_beta   59.89025570
_cell_angle_gamma   59.89026606
_symmetry_Int_Tables_number   1
_chemical_formula_structural   Tb5Ho11Cd3AgIr4
_chemical_formula_sum   'Tb5 Ho11 Cd3 Ag1 Ir4'
_cell_volume   627.98885528
_cell_formula_units_Z   1
loop_
 _symmetry_equiv_pos_site_id
 _symmetry_equiv_pos_as_xyz
  1  'x, y, z'
loop_
 _atom_site_type_symbol
 _atom_site_label
 _atom_site_symmetry_multiplicity
 _atom_site_fract_x
 _atom_site_fract_y
 _atom_site_fract_z
 _atom_site_occupancy
  Tb  Tb0  1  0.811458  0.187448  0.187448  1
  Tb  Tb1  1  0.812045  0.185720  0.811619  1
  Tb  Tb2  1  0.187468  0.811490  0.187029  1
  Tb  Tb3  1  0.812045  0.811619  0.185720  1
  Tb  Tb4  1  0.187468  0.187029  0.811490  1
  Ho  Ho5  1  0.598567  0.598703  0.598703  1
  Ho  Ho6  1  0.599598  0.600064  0.202527  1
  Ho  Ho7  1  0.599598  0.202527  0.600064  1
  Ho  Ho8  1  0.202277  0.599941  0.599941  1
  Ho  Ho9  1  0.060760  0.438893  0.438893  1
  Ho  Ho10  1  0.437728  0.060797  0.060797  1
  Ho  Ho11  1  0.438772  0.060497  0.439183  1
  Ho  Ho12  1  0.060860  0.437970  0.060621  1
  Ho  Ho13  1  0.438772  0.439183  0.060497  1
  Ho  Ho14  1  0.060860  0.060621  0.437970  1
  Ho  Ho15  1  0.186110  0.811618  0.811618  1
  Cd  Cd16  1  0.830944  0.830901  0.509172  1
  Cd  Cd17  1  0.830944  0.509172  0.830901  1
  Cd  Cd18  1  0.508964  0.830886  0.830886  1
  Ag  Ag19  1  0.833065  0.832512  0.832512  1
  Ir  Ir20  1  0.391934  0.391864  0.391864  1
  Ir  Ir21  1  0.392166  0.392826  0.825343  1
  Ir  Ir22  1  0.392166  0.825343  0.392826  1
  Ir  Ir23  1  0.825436  0.392379  0.392379  1
