# generated using pymatgen
data_Th2Al9TcRh2
_symmetry_space_group_name_H-M   'P 1'
_cell_length_a   7.63598841
_cell_length_b   7.63598857
_cell_length_c   9.57264800
_cell_angle_alpha   90.00000000
_cell_angle_beta   90.00000000
_cell_angle_gamma   117.84084888
_symmetry_Int_Tables_number   1
_chemical_formula_structural   Th2Al9TcRh2
_chemical_formula_sum   'Th4 Al18 Tc2 Rh4'
_cell_volume   493.55644171
_cell_formula_units_Z   2
loop_
 _symmetry_equiv_pos_site_id
 _symmetry_equiv_pos_as_xyz
  1  'x, y, z'
loop_
 _atom_site_type_symbol
 _atom_site_label
 _atom_site_symmetry_multiplicity
 _atom_site_fract_x
 _atom_site_fract_y
 _atom_site_fract_z
 _atom_site_occupancy
  Th  Th0  1  0.994910  0.689719  0.250000  1
  Th  Th1  1  0.005090  0.310281  0.750000  1
  Th  Th2  1  0.689719  0.994910  0.250000  1
  Th  Th3  1  0.310281  0.005090  0.750000  1
  Al  Al4  1  0.008262  0.344565  0.077544  1
  Al  Al5  1  0.991738  0.655435  0.922456  1
  Al  Al6  1  0.991738  0.655435  0.577544  1
  Al  Al7  1  0.344565  0.008262  0.422456  1
  Al  Al8  1  0.008262  0.344565  0.422456  1
  Al  Al9  1  0.655435  0.991738  0.577544  1
  Al  Al10  1  0.655435  0.991738  0.922456  1
  Al  Al11  1  0.344565  0.008262  0.077544  1
  Al  Al12  1  0.334402  0.334402  0.536488  1
  Al  Al13  1  0.665598  0.665598  0.463512  1
  Al  Al14  1  0.665598  0.665598  0.036488  1
  Al  Al15  1  0.334402  0.334402  0.963512  1
  Al  Al16  1  0.147613  0.147613  0.250000  1
  Al  Al17  1  0.852387  0.852387  0.750000  1
  Al  Al18  1  0.345391  0.556148  0.250000  1
  Al  Al19  1  0.654609  0.443852  0.750000  1
  Al  Al20  1  0.556148  0.345391  0.250000  1
  Al  Al21  1  0.443852  0.654609  0.750000  1
  Tc  Tc22  1  0.000000  0.000000  0.000000  1
  Tc  Tc23  1  0.000000  0.000000  0.500000  1
  Rh  Rh24  1  0.672071  0.327929  0.000000  1
  Rh  Rh25  1  0.327929  0.672071  0.000000  1
  Rh  Rh26  1  0.327929  0.672071  0.500000  1
  Rh  Rh27  1  0.672071  0.327929  0.500000  1
