# generated using pymatgen
data_Dy4YCo19SiP11
_symmetry_space_group_name_H-M   'P 1'
_cell_length_a   12.00911408
_cell_length_b   12.01554273
_cell_length_c   3.68207300
_cell_angle_alpha   90.00000000
_cell_angle_beta   90.00000000
_cell_angle_gamma   120.02214217
_symmetry_Int_Tables_number   1
_chemical_formula_structural   Dy4YCo19SiP11
_chemical_formula_sum   'Dy4 Y1 Co19 Si1 P11'
_cell_volume   460.02395362
_cell_formula_units_Z   1
loop_
 _symmetry_equiv_pos_site_id
 _symmetry_equiv_pos_as_xyz
  1  'x, y, z'
loop_
 _atom_site_type_symbol
 _atom_site_label
 _atom_site_symmetry_multiplicity
 _atom_site_fract_x
 _atom_site_fract_y
 _atom_site_fract_z
 _atom_site_occupancy
  Dy  Dy0  1  0.332497  0.666237  0.500000  1
  Dy  Dy1  1  0.000000  0.185044  0.000000  1
  Dy  Dy2  1  0.812017  0.812126  0.000000  1
  Dy  Dy3  1  0.188001  0.000091  0.000000  1
  Y  Y4  1  0.667419  0.333671  0.500000  1
  Co  Co5  1  0.621656  0.821505  0.500000  1
  Co  Co6  1  0.178309  0.801019  0.500000  1
  Co  Co7  1  0.203801  0.378144  0.500000  1
  Co  Co8  1  0.378273  0.199820  0.500000  1
  Co  Co9  1  0.821742  0.622797  0.500000  1
  Co  Co10  1  0.796255  0.174314  0.500000  1
  Co  Co11  1  0.000050  0.557889  0.500000  1
  Co  Co12  1  0.448280  0.446551  0.500000  1
  Co  Co13  1  0.551677  0.998212  0.500000  1
  Co  Co14  1  0.516310  0.641091  0.000000  1
  Co  Co15  1  0.358486  0.874761  0.000000  1
  Co  Co16  1  0.127060  0.486005  0.000000  1
  Co  Co17  1  0.483583  0.124653  0.000000  1
  Co  Co18  1  0.641465  0.516348  0.000000  1
  Co  Co19  1  0.873080  0.358971  0.000000  1
  Co  Co20  1  0.000032  0.716104  0.000000  1
  Co  Co21  1  0.286109  0.284959  0.000000  1
  Co  Co22  1  0.713890  0.998817  0.000000  1
  Co  Co23  1  0.000005  0.000014  0.500000  1
  Si  Si24  1  0.000024  0.369502  0.500000  1
  P  P25  1  0.631250  0.631287  0.500000  1
  P  P26  1  0.368729  0.000017  0.500000  1
  P  P27  1  0.519539  0.833227  0.000000  1
  P  P28  1  0.165365  0.686295  0.000000  1
  P  P29  1  0.313297  0.479757  0.000000  1
  P  P30  1  0.480321  0.313682  0.000000  1
  P  P31  1  0.834773  0.521058  0.000000  1
  P  P32  1  0.686699  0.166310  0.000000  1
  P  P33  1  0.000005  0.819238  0.500000  1
  P  P34  1  0.181661  0.181074  0.500000  1
  P  P35  1  0.818341  0.999409  0.500000  1
