# generated using pymatgen
data_Tb2HoTe4
_symmetry_space_group_name_H-M   'P 1'
_cell_length_a   4.35225500
_cell_length_b   7.51083525
_cell_length_c   7.50099400
_cell_angle_alpha   71.52967213
_cell_angle_beta   90.00000000
_cell_angle_gamma   90.00000000
_symmetry_Int_Tables_number   1
_chemical_formula_structural   Tb2HoTe4
_chemical_formula_sum   'Tb2 Ho1 Te4'
_cell_volume   232.56971472
_cell_formula_units_Z   1
loop_
 _symmetry_equiv_pos_site_id
 _symmetry_equiv_pos_as_xyz
  1  'x, y, z'
loop_
 _atom_site_type_symbol
 _atom_site_label
 _atom_site_symmetry_multiplicity
 _atom_site_fract_x
 _atom_site_fract_y
 _atom_site_fract_z
 _atom_site_occupancy
  Tb  Tb0  1  0.000000  0.000000  0.000000  1
  Tb  Tb1  1  0.500000  0.500000  0.000000  1
  Ho  Ho2  1  0.000000  0.500000  0.500000  1
  Te  Te3  1  0.500000  0.756059  0.259246  1
  Te  Te4  1  0.000000  0.248529  0.253214  1
  Te  Te5  1  0.500000  0.243941  0.740754  1
  Te  Te6  1  0.000000  0.751471  0.746786  1
