# generated using pymatgen
data_Dy7Ho3BiPb5
_symmetry_space_group_name_H-M   'P 1'
_cell_length_a   9.09098200
_cell_length_b   9.08689702
_cell_length_c   6.56553500
_cell_angle_alpha   90.00297800
_cell_angle_beta   90.00029957
_cell_angle_gamma   120.01769011
_symmetry_Int_Tables_number   1
_chemical_formula_structural   Dy7Ho3BiPb5
_chemical_formula_sum   'Dy7 Ho3 Bi1 Pb5'
_cell_volume   469.62338292
_cell_formula_units_Z   1
loop_
 _symmetry_equiv_pos_site_id
 _symmetry_equiv_pos_as_xyz
  1  'x, y, z'
loop_
 _atom_site_type_symbol
 _atom_site_label
 _atom_site_symmetry_multiplicity
 _atom_site_fract_x
 _atom_site_fract_y
 _atom_site_fract_z
 _atom_site_occupancy
  Dy  Dy0  1  0.331649  0.664635  0.000038  1
  Dy  Dy1  1  0.236283  0.000032  0.250041  1
  Dy  Dy2  1  0.237480  0.238103  0.749981  1
  Dy  Dy3  1  0.999322  0.761885  0.749969  1
  Dy  Dy4  1  0.003356  0.239725  0.250027  1
  Dy  Dy5  1  0.763625  0.760259  0.250032  1
  Dy  Dy6  1  0.762341  0.000024  0.749974  1
  Ho  Ho7  1  0.667025  0.335414  0.499972  1
  Ho  Ho8  1  0.667033  0.335435  0.000038  1
  Ho  Ho9  1  0.331636  0.664593  0.499956  1
  Bi  Bi10  1  0.606462  0.000127  0.250098  1
  Pb  Pb11  1  0.605388  0.606257  0.749852  1
  Pb  Pb12  1  0.998742  0.393545  0.749867  1
  Pb  Pb13  1  0.999998  0.604853  0.250139  1
  Pb  Pb14  1  0.395363  0.394916  0.250154  1
  Pb  Pb15  1  0.394296  0.000197  0.749862  1
