# generated using pymatgen
data_NdDy9Be3Si15Au2
_symmetry_space_group_name_H-M   'P 1'
_cell_length_a   4.08569374
_cell_length_b   4.05544359
_cell_length_c   34.46864547
_cell_angle_alpha   86.62746474
_cell_angle_beta   86.60226760
_cell_angle_gamma   89.99999920
_symmetry_Int_Tables_number   1
_chemical_formula_structural   NdDy9Be3Si15Au2
_chemical_formula_sum   'Nd1 Dy9 Be3 Si15 Au2'
_cell_volume   569.12656750
_cell_formula_units_Z   1
loop_
 _symmetry_equiv_pos_site_id
 _symmetry_equiv_pos_as_xyz
  1  'x, y, z'
loop_
 _atom_site_type_symbol
 _atom_site_label
 _atom_site_symmetry_multiplicity
 _atom_site_fract_x
 _atom_site_fract_y
 _atom_site_fract_z
 _atom_site_occupancy
  Nd  Nd0  1  0.601652  0.601652  0.796696  1
  Dy  Dy1  1  0.947813  0.447813  0.104374  1
  Dy  Dy2  1  0.350560  0.850560  0.298882  1
  Dy  Dy3  1  0.753418  0.253418  0.493164  1
  Dy  Dy4  1  0.150099  0.650099  0.699802  1
  Dy  Dy5  1  0.544734  0.044734  0.910532  1
  Dy  Dy6  1  0.996784  0.996784  0.006433  1
  Dy  Dy7  1  0.399772  0.399772  0.200456  1
  Dy  Dy8  1  0.802372  0.802372  0.395256  1
  Dy  Dy9  1  0.205786  0.205786  0.588428  1
  Be  Be10  1  0.464850  0.964850  0.070301  1
  Be  Be11  1  0.867550  0.367550  0.264897  1
  Be  Be12  1  0.270424  0.770424  0.459154  1
  Si  Si13  1  0.667928  0.167928  0.664144  1
  Si  Si14  1  0.062560  0.562560  0.874879  1
  Si  Si15  1  0.916044  0.916044  0.167913  1
  Si  Si16  1  0.318821  0.318821  0.362357  1
  Si  Si17  1  0.721528  0.721528  0.556945  1
  Si  Si18  1  0.117292  0.117292  0.765417  1
  Si  Si19  1  0.512861  0.512861  0.974278  1
  Si  Si20  1  0.432945  0.932945  0.134109  1
  Si  Si21  1  0.835695  0.335695  0.328612  1
  Si  Si22  1  0.238383  0.738383  0.523237  1
  Si  Si23  1  0.634473  0.134473  0.731052  1
  Si  Si24  1  0.029327  0.529327  0.941347  1
  Si  Si25  1  0.478970  0.478970  0.042059  1
  Si  Si26  1  0.882163  0.882163  0.235675  1
  Si  Si27  1  0.284875  0.284875  0.430249  1
  Au  Au28  1  0.686237  0.686237  0.627524  1
  Au  Au29  1  0.081286  0.081286  0.837427  1
