# generated using pymatgen
data_AcNi9As4P
_symmetry_space_group_name_H-M   'P 1'
_cell_length_a   6.75146900
_cell_length_b   6.67544918
_cell_length_c   11.01447400
_cell_angle_alpha   90.00000000
_cell_angle_beta   90.00000000
_cell_angle_gamma   120.37743649
_symmetry_Int_Tables_number   1
_chemical_formula_structural   AcNi9As4P
_chemical_formula_sum   'Ac2 Ni18 As8 P2'
_cell_volume   428.26128610
_cell_formula_units_Z   2
loop_
 _symmetry_equiv_pos_site_id
 _symmetry_equiv_pos_as_xyz
  1  'x, y, z'
loop_
 _atom_site_type_symbol
 _atom_site_label
 _atom_site_symmetry_multiplicity
 _atom_site_fract_x
 _atom_site_fract_y
 _atom_site_fract_z
 _atom_site_occupancy
  Ac  Ac0  1  0.992438  0.000000  0.000000  1
  Ac  Ac1  1  0.992438  0.000000  0.500000  1
  Ni  Ni2  1  0.535076  0.464751  0.105845  1
  Ni  Ni3  1  0.070325  0.535249  0.605845  1
  Ni  Ni4  1  0.471119  0.927240  0.608829  1
  Ni  Ni5  1  0.543879  0.072760  0.108829  1
  Ni  Ni6  1  0.924892  0.453972  0.108791  1
  Ni  Ni7  1  0.070325  0.535249  0.894155  1
  Ni  Ni8  1  0.471119  0.927240  0.891171  1
  Ni  Ni9  1  0.470921  0.546028  0.608791  1
  Ni  Ni10  1  0.470921  0.546028  0.891209  1
  Ni  Ni11  1  0.535076  0.464751  0.394155  1
  Ni  Ni12  1  0.924892  0.453972  0.391209  1
  Ni  Ni13  1  0.543879  0.072760  0.391171  1
  Ni  Ni14  1  0.210088  0.787295  0.250000  1
  Ni  Ni15  1  0.422793  0.212705  0.750000  1
  Ni  Ni16  1  0.790693  0.597264  0.750000  1
  Ni  Ni17  1  0.193428  0.402736  0.250000  1
  Ni  Ni18  1  0.593628  0.802884  0.250000  1
  Ni  Ni19  1  0.790742  0.197116  0.750000  1
  As  As20  1  0.170633  0.339466  0.750000  1
  As  As21  1  0.831169  0.660534  0.250000  1
  As  As22  1  0.339859  0.168893  0.250000  1
  As  As23  1  0.170965  0.831107  0.750000  1
  As  As24  1  0.331355  0.663577  0.061871  1
  As  As25  1  0.667780  0.336423  0.561871  1
  As  As26  1  0.667780  0.336423  0.938129  1
  As  As27  1  0.331355  0.663577  0.438129  1
  P  P28  1  0.822860  0.175288  0.250000  1
  P  P29  1  0.647570  0.824712  0.750000  1
