# generated using pymatgen
data_HfSc4Sn3Ru8
_symmetry_space_group_name_H-M   'P 1'
_cell_length_a   6.44129600
_cell_length_b   4.55140300
_cell_length_c   9.10521100
_cell_angle_alpha   90.00000000
_cell_angle_beta   90.00358131
_cell_angle_gamma   90.00000000
_symmetry_Int_Tables_number   1
_chemical_formula_structural   HfSc4Sn3Ru8
_chemical_formula_sum   'Hf1 Sc4 Sn3 Ru8'
_cell_volume   266.93686912
_cell_formula_units_Z   1
loop_
 _symmetry_equiv_pos_site_id
 _symmetry_equiv_pos_as_xyz
  1  'x, y, z'
loop_
 _atom_site_type_symbol
 _atom_site_label
 _atom_site_symmetry_multiplicity
 _atom_site_fract_x
 _atom_site_fract_y
 _atom_site_fract_z
 _atom_site_occupancy
  Hf  Hf0  1  0.249955  0.750000  0.875032  1
  Sc  Sc1  1  0.250018  0.250000  0.131260  1
  Sc  Sc2  1  0.750003  0.750000  0.375023  1
  Sc  Sc3  1  0.250000  0.250000  0.618728  1
  Sc  Sc4  1  0.749984  0.750000  0.875013  1
  Sn  Sn5  1  0.750037  0.250000  0.125273  1
  Sn  Sn6  1  0.250008  0.750000  0.375031  1
  Sn  Sn7  1  0.749995  0.250000  0.624627  1
  Ru  Ru8  1  0.499515  0.750000  0.122407  1
  Ru  Ru9  1  0.000512  0.750000  0.122428  1
  Ru  Ru10  1  0.502840  0.250000  0.374934  1
  Ru  Ru11  1  0.997195  0.250000  0.374943  1
  Ru  Ru12  1  0.000536  0.750000  0.627697  1
  Ru  Ru13  1  0.499452  0.750000  0.627693  1
  Ru  Ru14  1  0.002837  0.250000  0.874950  1
  Ru  Ru15  1  0.497117  0.250000  0.874964  1
