# generated using pymatgen
data_Y2ErSc3FeSb2
_symmetry_space_group_name_H-M   'P 1'
_cell_length_a   7.82649800
_cell_length_b   7.84335421
_cell_length_c   4.12894800
_cell_angle_alpha   90.00000000
_cell_angle_beta   90.00000000
_cell_angle_gamma   119.92893352
_symmetry_Int_Tables_number   1
_chemical_formula_structural   Y2ErSc3FeSb2
_chemical_formula_sum   'Y2 Er1 Sc3 Fe1 Sb2'
_cell_volume   219.65945961
_cell_formula_units_Z   1
loop_
 _symmetry_equiv_pos_site_id
 _symmetry_equiv_pos_as_xyz
  1  'x, y, z'
loop_
 _atom_site_type_symbol
 _atom_site_label
 _atom_site_symmetry_multiplicity
 _atom_site_fract_x
 _atom_site_fract_y
 _atom_site_fract_z
 _atom_site_occupancy
  Y  Y0  1  0.393769  0.393648  0.500000  1
  Y  Y1  1  0.000121  0.606352  0.500000  1
  Er  Er2  1  0.607919  0.000000  0.500000  1
  Sc  Sc3  1  0.226192  0.000000  0.000000  1
  Sc  Sc4  1  0.773692  0.774776  0.000000  1
  Sc  Sc5  1  0.998916  0.225224  0.000000  1
  Fe  Fe6  1  0.998264  0.000000  0.500000  1
  Sb  Sb7  1  0.334510  0.667894  0.000000  1
  Sb  Sb8  1  0.666618  0.332106  0.000000  1
