# generated using pymatgen
data_Ca3SbO6
_symmetry_space_group_name_H-M   'P 1'
_cell_length_a   6.67778771
_cell_length_b   6.67778695
_cell_length_c   6.67778804
_cell_angle_alpha   91.84830509
_cell_angle_beta   91.84829836
_cell_angle_gamma   91.84830734
_symmetry_Int_Tables_number   1
_chemical_formula_structural   Ca3SbO6
_chemical_formula_sum   'Ca6 Sb2 O12'
_cell_volume   297.30652333
_cell_formula_units_Z   2
loop_
 _symmetry_equiv_pos_site_id
 _symmetry_equiv_pos_as_xyz
  1  'x, y, z'
loop_
 _atom_site_type_symbol
 _atom_site_label
 _atom_site_symmetry_multiplicity
 _atom_site_fract_x
 _atom_site_fract_y
 _atom_site_fract_z
 _atom_site_occupancy
  Ca  Ca0  1  0.936291  0.439527  0.745574  1
  Ca  Ca1  1  0.745574  0.936291  0.439527  1
  Ca  Ca2  1  0.560473  0.254426  0.063709  1
  Ca  Ca3  1  0.439527  0.745574  0.936291  1
  Ca  Ca4  1  0.254426  0.063709  0.560473  1
  Ca  Ca5  1  0.063709  0.560473  0.254426  1
  Sb  Sb6  1  0.000000  0.000000  0.000000  1
  Sb  Sb7  1  0.500000  0.500000  0.500000  1
  O  O8  1  0.933280  0.287134  0.065491  1
  O  O9  1  0.934509  0.066720  0.712866  1
  O  O10  1  0.787314  0.581858  0.456609  1
  O  O11  1  0.712866  0.934509  0.066720  1
  O  O12  1  0.581858  0.456609  0.787314  1
  O  O13  1  0.543391  0.212686  0.418142  1
  O  O14  1  0.456609  0.787314  0.581858  1
  O  O15  1  0.418142  0.543391  0.212686  1
  O  O16  1  0.287134  0.065491  0.933280  1
  O  O17  1  0.212686  0.418142  0.543391  1
  O  O18  1  0.065491  0.933280  0.287134  1
  O  O19  1  0.066720  0.712866  0.934509  1
