# generated using pymatgen
data_Sc20Cd6SiNi
_symmetry_space_group_name_H-M   'P 1'
_cell_length_a   8.95987700
_cell_length_b   8.95987703
_cell_length_c   9.24247800
_cell_angle_alpha   90.00000000
_cell_angle_beta   90.00000000
_cell_angle_gamma   119.99998881
_symmetry_Int_Tables_number   1
_chemical_formula_structural   Sc20Cd6SiNi
_chemical_formula_sum   'Sc20 Cd6 Si1 Ni1'
_cell_volume   642.57408025
_cell_formula_units_Z   1
loop_
 _symmetry_equiv_pos_site_id
 _symmetry_equiv_pos_as_xyz
  1  'x, y, z'
loop_
 _atom_site_type_symbol
 _atom_site_label
 _atom_site_symmetry_multiplicity
 _atom_site_fract_x
 _atom_site_fract_y
 _atom_site_fract_z
 _atom_site_occupancy
  Sc  Sc0  1  0.000000  0.000000  0.500236  1
  Sc  Sc1  1  0.000000  0.000000  0.999764  1
  Sc  Sc2  1  0.543074  0.456926  0.250000  1
  Sc  Sc3  1  0.543074  0.086147  0.250000  1
  Sc  Sc4  1  0.913853  0.456926  0.250000  1
  Sc  Sc5  1  0.458103  0.541897  0.750000  1
  Sc  Sc6  1  0.458103  0.916206  0.750000  1
  Sc  Sc7  1  0.083794  0.541897  0.750000  1
  Sc  Sc8  1  0.208660  0.791340  0.450717  1
  Sc  Sc9  1  0.208660  0.417321  0.450717  1
  Sc  Sc10  1  0.582679  0.791340  0.450717  1
  Sc  Sc11  1  0.787903  0.212097  0.560661  1
  Sc  Sc12  1  0.787903  0.575806  0.560661  1
  Sc  Sc13  1  0.424194  0.212097  0.560661  1
  Sc  Sc14  1  0.787903  0.212097  0.939339  1
  Sc  Sc15  1  0.787903  0.575806  0.939339  1
  Sc  Sc16  1  0.424194  0.212097  0.939339  1
  Sc  Sc17  1  0.208660  0.791340  0.049283  1
  Sc  Sc18  1  0.208660  0.417321  0.049283  1
  Sc  Sc19  1  0.582679  0.791340  0.049283  1
  Cd  Cd20  1  0.884373  0.115627  0.250000  1
  Cd  Cd21  1  0.884373  0.768748  0.250000  1
  Cd  Cd22  1  0.231252  0.115627  0.250000  1
  Cd  Cd23  1  0.115340  0.884660  0.750000  1
  Cd  Cd24  1  0.115340  0.230678  0.750000  1
  Cd  Cd25  1  0.769322  0.884660  0.750000  1
  Si  Si26  1  0.333333  0.666667  0.250000  1
  Ni  Ni27  1  0.666667  0.333333  0.750000  1
