# generated using pymatgen
data_FeAsCl8
_symmetry_space_group_name_H-M   'P 1'
_cell_length_a   8.36550661
_cell_length_b   7.13270911
_cell_length_c   7.74605596
_cell_angle_alpha   74.25484618
_cell_angle_beta   97.98348225
_cell_angle_gamma   109.04112284
_symmetry_Int_Tables_number   1
_chemical_formula_structural   FeAsCl8
_chemical_formula_sum   'Fe1 As1 Cl8'
_cell_volume   419.86980068
_cell_formula_units_Z   1
loop_
 _symmetry_equiv_pos_site_id
 _symmetry_equiv_pos_as_xyz
  1  'x, y, z'
loop_
 _atom_site_type_symbol
 _atom_site_label
 _atom_site_symmetry_multiplicity
 _atom_site_fract_x
 _atom_site_fract_y
 _atom_site_fract_z
 _atom_site_occupancy
  Fe  Fe0  1  0.094947  0.544940  0.098888  1
  As  As1  1  0.728732  0.758812  0.534980  1
  Cl  Cl2  1  0.265010  0.384158  0.266812  1
  Cl  Cl3  1  0.939001  0.844960  0.370345  1
  Cl  Cl4  1  0.523134  0.856372  0.389974  1
  Cl  Cl5  1  0.640244  0.434893  0.617751  1
  Cl  Cl6  1  0.833767  0.389927  0.178999  1
  Cl  Cl7  1  0.789613  0.873050  0.771110  1
  Cl  Cl8  1  0.175157  0.868914  0.139228  1
  Cl  Cl9  1  0.107209  0.563580  0.813546  1
