# generated using pymatgen
data_TbNp3(ReB6)2
_symmetry_space_group_name_H-M   'P 1'
_cell_length_a   3.62825800
_cell_length_b   9.28139504
_cell_length_c   11.34248800
_cell_angle_alpha   90.00487568
_cell_angle_beta   90.00000000
_cell_angle_gamma   90.00000000
_symmetry_Int_Tables_number   1
_chemical_formula_structural   TbNp3(ReB6)2
_chemical_formula_sum   'Tb2 Np6 Re4 B24'
_cell_volume   381.96163698
_cell_formula_units_Z   2
loop_
 _symmetry_equiv_pos_site_id
 _symmetry_equiv_pos_as_xyz
  1  'x, y, z'
loop_
 _atom_site_type_symbol
 _atom_site_label
 _atom_site_symmetry_multiplicity
 _atom_site_fract_x
 _atom_site_fract_y
 _atom_site_fract_z
 _atom_site_occupancy
  Tb  Tb0  1  0.000000  0.337651  0.407400  1
  Tb  Tb1  1  0.000000  0.662349  0.592600  1
  Np  Np2  1  0.000000  0.837503  0.093442  1
  Np  Np3  1  0.000000  0.162497  0.906558  1
  Np  Np4  1  0.000000  0.959001  0.400227  1
  Np  Np5  1  0.000000  0.040999  0.599773  1
  Np  Np6  1  0.000000  0.459206  0.099164  1
  Np  Np7  1  0.000000  0.540794  0.900836  1
  Re  Re8  1  0.000000  0.648184  0.316837  1
  Re  Re9  1  0.000000  0.351816  0.683163  1
  Re  Re10  1  0.000000  0.144653  0.179714  1
  Re  Re11  1  0.000000  0.855347  0.820286  1
  B  B12  1  0.500000  0.553033  0.430724  1
  B  B13  1  0.500000  0.446967  0.569276  1
  B  B14  1  0.500000  0.052037  0.068124  1
  B  B15  1  0.500000  0.947963  0.931876  1
  B  B16  1  0.500000  0.744620  0.422856  1
  B  B17  1  0.500000  0.255380  0.577144  1
  B  B18  1  0.500000  0.243731  0.076443  1
  B  B19  1  0.500000  0.756269  0.923557  1
  B  B20  1  0.500000  0.805442  0.273932  1
  B  B21  1  0.500000  0.194558  0.726068  1
  B  B22  1  0.500000  0.304440  0.224843  1
  B  B23  1  0.500000  0.695560  0.775157  1
  B  B24  1  0.500000  0.645602  0.187927  1
  B  B25  1  0.500000  0.354398  0.812073  1
  B  B26  1  0.500000  0.144827  0.311882  1
  B  B27  1  0.500000  0.855173  0.688118  1
  B  B28  1  0.500000  0.988371  0.220307  1
  B  B29  1  0.500000  0.011629  0.779693  1
  B  B30  1  0.500000  0.489332  0.279207  1
  B  B31  1  0.500000  0.510668  0.720793  1
  B  B32  1  0.500000  0.642145  0.039199  1
  B  B33  1  0.500000  0.357855  0.960801  1
  B  B34  1  0.500000  0.139121  0.461506  1
  B  B35  1  0.500000  0.860879  0.538494  1
