# generated using pymatgen
data_LiTb16Zn(CdCo2)2
_symmetry_space_group_name_H-M   'P 1'
_cell_length_a   9.50438949
_cell_length_b   9.50438958
_cell_length_c   9.54208709
_cell_angle_alpha   60.16554360
_cell_angle_beta   60.16554294
_cell_angle_gamma   60.01756893
_symmetry_Int_Tables_number   1
_chemical_formula_structural   LiTb16Zn(CdCo2)2
_chemical_formula_sum   'Li1 Tb16 Zn1 Cd2 Co4'
_cell_volume   611.10651908
_cell_formula_units_Z   1
loop_
 _symmetry_equiv_pos_site_id
 _symmetry_equiv_pos_as_xyz
  1  'x, y, z'
loop_
 _atom_site_type_symbol
 _atom_site_label
 _atom_site_symmetry_multiplicity
 _atom_site_fract_x
 _atom_site_fract_y
 _atom_site_fract_z
 _atom_site_occupancy
  Li  Li0  1  0.822137  0.822137  0.536439  1
  Tb  Tb1  1  0.439321  0.439321  0.058674  1
  Tb  Tb2  1  0.594131  0.594131  0.595228  1
  Tb  Tb3  1  0.183579  0.813826  0.812789  1
  Tb  Tb4  1  0.062094  0.062094  0.435631  1
  Tb  Tb5  1  0.439683  0.060907  0.058816  1
  Tb  Tb6  1  0.813826  0.183579  0.812789  1
  Tb  Tb7  1  0.435328  0.062277  0.436770  1
  Tb  Tb8  1  0.596244  0.212793  0.598207  1
  Tb  Tb9  1  0.811611  0.811611  0.183626  1
  Tb  Tb10  1  0.212793  0.596244  0.598207  1
  Tb  Tb11  1  0.810641  0.190242  0.187954  1
  Tb  Tb12  1  0.062277  0.435328  0.436770  1
  Tb  Tb13  1  0.190242  0.810641  0.187954  1
  Tb  Tb14  1  0.598128  0.598128  0.207343  1
  Tb  Tb15  1  0.187417  0.187417  0.812581  1
  Tb  Tb16  1  0.060907  0.439683  0.058816  1
  Zn  Zn17  1  0.832180  0.832180  0.830822  1
  Cd  Cd18  1  0.511651  0.831290  0.828244  1
  Cd  Cd19  1  0.831290  0.511651  0.828244  1
  Co  Co20  1  0.392333  0.392333  0.388513  1
  Co  Co21  1  0.828296  0.391849  0.389308  1
  Co  Co22  1  0.391849  0.828296  0.389308  1
  Co  Co23  1  0.392045  0.392045  0.826964  1
