# generated using pymatgen
data_Nd16MgIn(Ni2Ag)2
_symmetry_space_group_name_H-M   'P 1'
_cell_length_a   9.83796608
_cell_length_b   9.83630154
_cell_length_c   9.83630098
_cell_angle_alpha   59.92539206
_cell_angle_beta   59.90383341
_cell_angle_gamma   59.90383992
_symmetry_Int_Tables_number   1
_chemical_formula_structural   Nd16MgIn(Ni2Ag)2
_chemical_formula_sum   'Nd16 Mg1 In1 Ni4 Ag2'
_cell_volume   671.70166126
_cell_formula_units_Z   1
loop_
 _symmetry_equiv_pos_site_id
 _symmetry_equiv_pos_as_xyz
  1  'x, y, z'
loop_
 _atom_site_type_symbol
 _atom_site_label
 _atom_site_symmetry_multiplicity
 _atom_site_fract_x
 _atom_site_fract_y
 _atom_site_fract_z
 _atom_site_occupancy
  Nd  Nd0  1  0.811057  0.191357  0.191357  1
  Nd  Nd1  1  0.190446  0.808596  0.808596  1
  Nd  Nd2  1  0.186562  0.814011  0.189249  1
  Nd  Nd3  1  0.805675  0.191332  0.807759  1
  Nd  Nd4  1  0.186562  0.189249  0.814011  1
  Nd  Nd5  1  0.805675  0.807759  0.191332  1
  Nd  Nd6  1  0.940618  0.564288  0.564288  1
  Nd  Nd7  1  0.559335  0.937714  0.937714  1
  Nd  Nd8  1  0.561801  0.945653  0.563005  1
  Nd  Nd9  1  0.936666  0.562268  0.937017  1
  Nd  Nd10  1  0.561801  0.563005  0.945653  1
  Nd  Nd11  1  0.936666  0.937017  0.562268  1
  Nd  Nd12  1  0.345220  0.346358  0.346358  1
  Nd  Nd13  1  0.349080  0.349020  0.953674  1
  Nd  Nd14  1  0.349080  0.953674  0.349020  1
  Nd  Nd15  1  0.947993  0.351231  0.351231  1
  Mg  Mg16  1  0.286133  0.567453  0.567453  1
  In  In17  1  0.583086  0.579685  0.579685  1
  Ni  Ni18  1  0.139941  0.145085  0.145085  1
  Ni  Ni19  1  0.141470  0.141459  0.573444  1
  Ni  Ni20  1  0.141470  0.573444  0.141459  1
  Ni  Ni21  1  0.571447  0.143574  0.143574  1
  Ag  Ag22  1  0.581109  0.582273  0.254496  1
  Ag  Ag23  1  0.581109  0.254496  0.582273  1
