# generated using pymatgen
data_Tm2Tc3Ru
_symmetry_space_group_name_H-M   'P 1'
_cell_length_a   5.22991845
_cell_length_b   5.22991776
_cell_length_c   9.11509200
_cell_angle_alpha   90.00000000
_cell_angle_beta   90.00000000
_cell_angle_gamma   119.94427293
_symmetry_Int_Tables_number   1
_chemical_formula_structural   Tm2Tc3Ru
_chemical_formula_sum   'Tm4 Tc6 Ru2'
_cell_volume   216.03547160
_cell_formula_units_Z   2
loop_
 _symmetry_equiv_pos_site_id
 _symmetry_equiv_pos_as_xyz
  1  'x, y, z'
loop_
 _atom_site_type_symbol
 _atom_site_label
 _atom_site_symmetry_multiplicity
 _atom_site_fract_x
 _atom_site_fract_y
 _atom_site_fract_z
 _atom_site_occupancy
  Tm  Tm0  1  0.666678  0.333322  0.562783  1
  Tm  Tm1  1  0.333322  0.666678  0.437217  1
  Tm  Tm2  1  0.333322  0.666678  0.062783  1
  Tm  Tm3  1  0.666678  0.333322  0.937217  1
  Tc  Tc4  1  0.171317  0.342625  0.750000  1
  Tc  Tc5  1  0.171350  0.828650  0.750000  1
  Tc  Tc6  1  0.657375  0.828683  0.750000  1
  Tc  Tc7  1  0.828683  0.657375  0.250000  1
  Tc  Tc8  1  0.828650  0.171350  0.250000  1
  Tc  Tc9  1  0.342625  0.171317  0.250000  1
  Ru  Ru10  1  0.000000  0.000000  0.500000  1
  Ru  Ru11  1  0.000000  0.000000  0.000000  1
