# generated using pymatgen
data_La2Zn8Ir3Pt
_symmetry_space_group_name_H-M   'P 1'
_cell_length_a   7.75322680
_cell_length_b   7.75322680
_cell_length_c   4.14929700
_cell_angle_alpha   90.00000000
_cell_angle_beta   90.00000000
_cell_angle_gamma   89.58928176
_symmetry_Int_Tables_number   1
_chemical_formula_structural   La2Zn8Ir3Pt
_chemical_formula_sum   'La2 Zn8 Ir3 Pt1'
_cell_volume   249.41831464
_cell_formula_units_Z   1
loop_
 _symmetry_equiv_pos_site_id
 _symmetry_equiv_pos_as_xyz
  1  'x, y, z'
loop_
 _atom_site_type_symbol
 _atom_site_label
 _atom_site_symmetry_multiplicity
 _atom_site_fract_x
 _atom_site_fract_y
 _atom_site_fract_z
 _atom_site_occupancy
  La  La0  1  0.494034  0.494034  0.500000  1
  La  La1  1  0.003874  0.003874  0.000000  1
  Zn  Zn2  1  0.347725  0.090012  0.500000  1
  Zn  Zn3  1  0.652309  0.911659  0.500000  1
  Zn  Zn4  1  0.850338  0.406231  0.000000  1
  Zn  Zn5  1  0.154555  0.590952  0.000000  1
  Zn  Zn6  1  0.090012  0.347725  0.500000  1
  Zn  Zn7  1  0.911659  0.652309  0.500000  1
  Zn  Zn8  1  0.406231  0.850338  0.000000  1
  Zn  Zn9  1  0.590952  0.154555  0.000000  1
  Ir  Ir10  1  0.780467  0.219616  0.500000  1
  Ir  Ir11  1  0.219616  0.780467  0.500000  1
  Ir  Ir12  1  0.281388  0.281388  0.000000  1
  Pt  Pt13  1  0.716842  0.716842  0.000000  1
