# generated using pymatgen
data_Y20(Ir3Ru)3
_symmetry_space_group_name_H-M   'P 1'
_cell_length_a   10.89580800
_cell_length_b   10.89580800
_cell_length_c   6.44975800
_cell_angle_alpha   90.00000000
_cell_angle_beta   90.00000000
_cell_angle_gamma   90.00000000
_symmetry_Int_Tables_number   1
_chemical_formula_structural   Y20(Ir3Ru)3
_chemical_formula_sum   'Y20 Ir9 Ru3'
_cell_volume   765.70644632
_cell_formula_units_Z   1
loop_
 _symmetry_equiv_pos_site_id
 _symmetry_equiv_pos_as_xyz
  1  'x, y, z'
loop_
 _atom_site_type_symbol
 _atom_site_label
 _atom_site_symmetry_multiplicity
 _atom_site_fract_x
 _atom_site_fract_y
 _atom_site_fract_z
 _atom_site_occupancy
  Y  Y0  1  0.293819  0.086654  0.378144  1
  Y  Y1  1  0.293818  0.913498  0.878292  1
  Y  Y2  1  0.706182  0.086502  0.878292  1
  Y  Y3  1  0.706181  0.913346  0.378144  1
  Y  Y4  1  0.586502  0.793818  0.878292  1
  Y  Y5  1  0.586654  0.206181  0.378144  1
  Y  Y6  1  0.413346  0.793819  0.378144  1
  Y  Y7  1  0.413498  0.206182  0.878292  1
  Y  Y8  1  0.207743  0.412675  0.623070  1
  Y  Y9  1  0.207517  0.587307  0.120441  1
  Y  Y10  1  0.792483  0.412693  0.120441  1
  Y  Y11  1  0.792257  0.587325  0.623070  1
  Y  Y12  1  0.912693  0.707517  0.120441  1
  Y  Y13  1  0.912675  0.292257  0.623070  1
  Y  Y14  1  0.087325  0.707743  0.623070  1
  Y  Y15  1  0.087307  0.292483  0.120441  1
  Y  Y16  1  0.000000  0.000000  0.499708  1
  Y  Y17  1  0.000000  0.000000  0.999693  1
  Y  Y18  1  0.500000  0.500000  0.999693  1
  Y  Y19  1  0.500000  0.500000  0.499708  1
  Ir  Ir20  1  0.847511  0.153093  0.250058  1
  Ir  Ir21  1  0.847269  0.846896  0.749825  1
  Ir  Ir22  1  0.152731  0.153104  0.749825  1
  Ir  Ir23  1  0.152489  0.846907  0.250058  1
  Ir  Ir24  1  0.653104  0.347269  0.749825  1
  Ir  Ir25  1  0.653093  0.652489  0.250058  1
  Ir  Ir26  1  0.346907  0.347511  0.250058  1
  Ir  Ir27  1  0.346896  0.652731  0.749825  1
  Ir  Ir28  1  0.000000  0.500000  0.376749  1
  Ru  Ru29  1  0.500000  0.000000  0.124337  1
  Ru  Ru30  1  0.500000  0.000000  0.624347  1
  Ru  Ru31  1  0.000000  0.500000  0.876442  1
