# generated using pymatgen
data_Y20(OsRh3)3
_symmetry_space_group_name_H-M   'P 1'
_cell_length_a   10.93985000
_cell_length_b   10.93985000
_cell_length_c   6.43382300
_cell_angle_alpha   90.00000000
_cell_angle_beta   90.00000000
_cell_angle_gamma   90.00000000
_symmetry_Int_Tables_number   1
_chemical_formula_structural   Y20(OsRh3)3
_chemical_formula_sum   'Y20 Os3 Rh9'
_cell_volume   770.00198274
_cell_formula_units_Z   1
loop_
 _symmetry_equiv_pos_site_id
 _symmetry_equiv_pos_as_xyz
  1  'x, y, z'
loop_
 _atom_site_type_symbol
 _atom_site_label
 _atom_site_symmetry_multiplicity
 _atom_site_fract_x
 _atom_site_fract_y
 _atom_site_fract_z
 _atom_site_occupancy
  Y  Y0  1  0.294569  0.086471  0.377567  1
  Y  Y1  1  0.294600  0.913733  0.877506  1
  Y  Y2  1  0.705400  0.086267  0.877506  1
  Y  Y3  1  0.705431  0.913529  0.377567  1
  Y  Y4  1  0.586267  0.794600  0.877506  1
  Y  Y5  1  0.586471  0.205431  0.377567  1
  Y  Y6  1  0.413529  0.794569  0.377567  1
  Y  Y7  1  0.413733  0.205400  0.877506  1
  Y  Y8  1  0.207469  0.412816  0.624387  1
  Y  Y9  1  0.207127  0.587237  0.119627  1
  Y  Y10  1  0.792873  0.412763  0.119627  1
  Y  Y11  1  0.792531  0.587184  0.624387  1
  Y  Y12  1  0.912763  0.707127  0.119627  1
  Y  Y13  1  0.912816  0.292531  0.624387  1
  Y  Y14  1  0.087184  0.707469  0.624387  1
  Y  Y15  1  0.087237  0.292873  0.119627  1
  Y  Y16  1  0.000000  0.000000  0.499677  1
  Y  Y17  1  0.000000  0.000000  0.999968  1
  Y  Y18  1  0.500000  0.500000  0.999968  1
  Y  Y19  1  0.500000  0.500000  0.499677  1
  Os  Os20  1  0.500000  0.000000  0.124843  1
  Os  Os21  1  0.500000  0.000000  0.624672  1
  Os  Os22  1  0.000000  0.500000  0.875699  1
  Rh  Rh23  1  0.848286  0.153209  0.250512  1
  Rh  Rh24  1  0.848145  0.846930  0.749987  1
  Rh  Rh25  1  0.151855  0.153070  0.749987  1
  Rh  Rh26  1  0.151714  0.846791  0.250512  1
  Rh  Rh27  1  0.653070  0.348145  0.749987  1
  Rh  Rh28  1  0.653209  0.651714  0.250512  1
  Rh  Rh29  1  0.346791  0.348286  0.250512  1
  Rh  Rh30  1  0.346930  0.651855  0.749987  1
  Rh  Rh31  1  0.000000  0.500000  0.377155  1
