# generated using pymatgen
data_Nd2BePd5Rh
_symmetry_space_group_name_H-M   'P 1'
_cell_length_a   6.04039343
_cell_length_b   6.06479696
_cell_length_c   6.06479590
_cell_angle_alpha   59.73397308
_cell_angle_beta   60.13301269
_cell_angle_gamma   60.13301082
_symmetry_Int_Tables_number   1
_chemical_formula_structural   Nd2BePd5Rh
_chemical_formula_sum   'Nd2 Be1 Pd5 Rh1'
_cell_volume   157.09728067
_cell_formula_units_Z   1
loop_
 _symmetry_equiv_pos_site_id
 _symmetry_equiv_pos_as_xyz
  1  'x, y, z'
loop_
 _atom_site_type_symbol
 _atom_site_label
 _atom_site_symmetry_multiplicity
 _atom_site_fract_x
 _atom_site_fract_y
 _atom_site_fract_z
 _atom_site_occupancy
  Nd  Nd0  1  0.249789  0.250211  0.250211  1
  Nd  Nd1  1  0.749789  0.750211  0.750211  1
  Be  Be2  1  0.503676  0.496324  0.496324  1
  Pd  Pd3  1  0.237773  0.762227  0.238230  1
  Pd  Pd4  1  0.761770  0.762227  0.238230  1
  Pd  Pd5  1  0.237773  0.238230  0.762227  1
  Pd  Pd6  1  0.761770  0.238230  0.762227  1
  Pd  Pd7  1  0.238525  0.761475  0.761475  1
  Rh  Rh8  1  0.759135  0.240865  0.240865  1
