# generated using pymatgen
data_YbDy3(SiAu2)8
_symmetry_space_group_name_H-M   'P 1'
_cell_length_a   4.43084300
_cell_length_b   4.44490300
_cell_length_c   26.81221100
_cell_angle_alpha   90.00000000
_cell_angle_beta   90.00000000
_cell_angle_gamma   90.00000000
_symmetry_Int_Tables_number   1
_chemical_formula_structural   YbDy3(SiAu2)8
_chemical_formula_sum   'Yb1 Dy3 Si8 Au16'
_cell_volume   528.05757638
_cell_formula_units_Z   1
loop_
 _symmetry_equiv_pos_site_id
 _symmetry_equiv_pos_as_xyz
  1  'x, y, z'
loop_
 _atom_site_type_symbol
 _atom_site_label
 _atom_site_symmetry_multiplicity
 _atom_site_fract_x
 _atom_site_fract_y
 _atom_site_fract_z
 _atom_site_occupancy
  Yb  Yb0  1  0.000000  0.500000  0.749472  1
  Dy  Dy1  1  0.500000  0.000000  0.250463  1
  Dy  Dy2  1  0.500000  0.500000  0.000302  1
  Dy  Dy3  1  0.500000  0.500000  0.499737  1
  Si  Si4  1  0.000000  0.000000  0.956342  1
  Si  Si5  1  0.000000  0.000000  0.456753  1
  Si  Si6  1  0.500000  0.000000  0.793658  1
  Si  Si7  1  0.500000  0.000000  0.705417  1
  Si  Si8  1  0.000000  0.500000  0.206853  1
  Si  Si9  1  0.000000  0.500000  0.294020  1
  Si  Si10  1  0.000000  0.000000  0.043377  1
  Si  Si11  1  0.000000  0.000000  0.543575  1
  Au  Au12  1  0.500000  0.000000  0.085546  1
  Au  Au13  1  0.500000  0.500000  0.663878  1
  Au  Au14  1  0.500000  0.500000  0.835178  1
  Au  Au15  1  0.000000  0.500000  0.085079  1
  Au  Au16  1  0.500000  0.000000  0.914343  1
  Au  Au17  1  0.000000  0.000000  0.664298  1
  Au  Au18  1  0.000000  0.500000  0.415336  1
  Au  Au19  1  0.500000  0.500000  0.336412  1
  Au  Au20  1  0.500000  0.000000  0.414831  1
  Au  Au21  1  0.000000  0.000000  0.335447  1
  Au  Au22  1  0.000000  0.000000  0.165432  1
  Au  Au23  1  0.500000  0.000000  0.585239  1
  Au  Au24  1  0.000000  0.000000  0.834853  1
  Au  Au25  1  0.500000  0.500000  0.164444  1
  Au  Au26  1  0.000000  0.500000  0.584372  1
  Au  Au27  1  0.000000  0.500000  0.915342  1
