# generated using pymatgen
data_CdTcBr6
_symmetry_space_group_name_H-M   'P 1'
_cell_length_a   6.91234900
_cell_length_b   6.91234753
_cell_length_c   13.89610100
_cell_angle_alpha   90.00000000
_cell_angle_beta   90.00000000
_cell_angle_gamma   119.99999269
_symmetry_Int_Tables_number   1
_chemical_formula_structural   CdTcBr6
_chemical_formula_sum   'Cd2 Tc2 Br12'
_cell_volume   575.00927202
_cell_formula_units_Z   2
loop_
 _symmetry_equiv_pos_site_id
 _symmetry_equiv_pos_as_xyz
  1  'x, y, z'
loop_
 _atom_site_type_symbol
 _atom_site_label
 _atom_site_symmetry_multiplicity
 _atom_site_fract_x
 _atom_site_fract_y
 _atom_site_fract_z
 _atom_site_occupancy
  Cd  Cd0  1  0.000000  0.000000  0.250000  1
  Cd  Cd1  1  0.000000  0.000000  0.750000  1
  Tc  Tc2  1  0.333333  0.666667  0.250000  1
  Tc  Tc3  1  0.666667  0.333333  0.750000  1
  Br  Br4  1  0.636687  0.958449  0.142735  1
  Br  Br5  1  0.041551  0.678240  0.142735  1
  Br  Br6  1  0.321760  0.363313  0.142735  1
  Br  Br7  1  0.041551  0.363313  0.357265  1
  Br  Br8  1  0.363313  0.321760  0.642735  1
  Br  Br9  1  0.678240  0.041551  0.642735  1
  Br  Br10  1  0.958449  0.636687  0.642735  1
  Br  Br11  1  0.678240  0.636687  0.857265  1
  Br  Br12  1  0.958449  0.321760  0.857265  1
  Br  Br13  1  0.363313  0.041551  0.857265  1
  Br  Br14  1  0.636687  0.678240  0.357265  1
  Br  Br15  1  0.321760  0.958449  0.357265  1
