# generated using pymatgen
data_YPa(Be12Ni)2
_symmetry_space_group_name_H-M   'P 1'
_cell_length_a   7.24802884
_cell_length_b   7.30965784
_cell_length_c   7.22693461
_cell_angle_alpha   59.81237794
_cell_angle_beta   59.76655822
_cell_angle_gamma   59.52694963
_symmetry_Int_Tables_number   1
_chemical_formula_structural   YPa(Be12Ni)2
_chemical_formula_sum   'Y1 Pa1 Be24 Ni2'
_cell_volume   268.90552868
_cell_formula_units_Z   1
loop_
 _symmetry_equiv_pos_site_id
 _symmetry_equiv_pos_as_xyz
  1  'x, y, z'
loop_
 _atom_site_type_symbol
 _atom_site_label
 _atom_site_symmetry_multiplicity
 _atom_site_fract_x
 _atom_site_fract_y
 _atom_site_fract_z
 _atom_site_occupancy
  Y  Y0  1  0.249151  0.250849  0.249151  1
  Pa  Pa1  1  0.753736  0.746264  0.753736  1
  Be  Be2  1  0.499665  0.500335  0.499665  1
  Be  Be3  1  0.000509  0.999491  0.000509  1
  Be  Be4  1  0.568327  0.787930  0.434778  1
  Be  Be5  1  0.434778  0.208965  0.568327  1
  Be  Be6  1  0.295549  0.936070  0.706747  1
  Be  Be7  1  0.706747  0.061633  0.295549  1
  Be  Be8  1  0.932652  0.284409  0.066260  1
  Be  Be9  1  0.066260  0.716680  0.932652  1
  Be  Be10  1  0.205941  0.797969  0.558518  1
  Be  Be11  1  0.792485  0.202573  0.441031  1
  Be  Be12  1  0.441031  0.563911  0.792485  1
  Be  Be13  1  0.558518  0.437572  0.205941  1
  Be  Be14  1  0.712037  0.286570  0.935473  1
  Be  Be15  1  0.290927  0.716940  0.061121  1
  Be  Be16  1  0.061121  0.931012  0.290927  1
  Be  Be17  1  0.935473  0.065920  0.712037  1
  Be  Be18  1  0.562501  0.205780  0.793512  1
  Be  Be19  1  0.438867  0.792164  0.205086  1
  Be  Be20  1  0.793512  0.438208  0.562501  1
  Be  Be21  1  0.205086  0.563882  0.438867  1
  Be  Be22  1  0.935312  0.711546  0.291095  1
  Be  Be23  1  0.060971  0.289452  0.711871  1
  Be  Be24  1  0.291095  0.062046  0.935312  1
  Be  Be25  1  0.711871  0.937707  0.060971  1
  Ni  Ni26  1  0.798674  0.559586  0.197204  1
  Ni  Ni27  1  0.197204  0.444536  0.798674  1
