# generated using pymatgen
data_Ti10Zn2SnSb5
_symmetry_space_group_name_H-M   'P 1'
_cell_length_a   8.20408300
_cell_length_b   8.21202140
_cell_length_c   5.54378300
_cell_angle_alpha   90.00000000
_cell_angle_beta   90.00000000
_cell_angle_gamma   119.96803166
_symmetry_Int_Tables_number   1
_chemical_formula_structural   Ti10Zn2SnSb5
_chemical_formula_sum   'Ti10 Zn2 Sn1 Sb5'
_cell_volume   323.56145733
_cell_formula_units_Z   1
loop_
 _symmetry_equiv_pos_site_id
 _symmetry_equiv_pos_as_xyz
  1  'x, y, z'
loop_
 _atom_site_type_symbol
 _atom_site_label
 _atom_site_symmetry_multiplicity
 _atom_site_fract_x
 _atom_site_fract_y
 _atom_site_fract_z
 _atom_site_occupancy
  Ti  Ti0  1  0.728073  0.728329  0.250000  1
  Ti  Ti1  1  0.728688  0.000000  0.750000  1
  Ti  Ti2  1  0.999744  0.271671  0.250000  1
  Ti  Ti3  1  0.998889  0.726686  0.750000  1
  Ti  Ti4  1  0.272204  0.273314  0.750000  1
  Ti  Ti5  1  0.270967  0.000000  0.250000  1
  Ti  Ti6  1  0.332995  0.665119  0.500121  1
  Ti  Ti7  1  0.667878  0.334881  0.999879  1
  Ti  Ti8  1  0.667878  0.334881  0.500121  1
  Ti  Ti9  1  0.332995  0.665119  0.999879  1
  Zn  Zn10  1  0.001109  0.000000  0.999306  1
  Zn  Zn11  1  0.001109  0.000000  0.500694  1
  Sn  Sn12  1  0.382233  0.000000  0.750000  1
  Sb  Sb13  1  0.383688  0.383093  0.250000  1
  Sb  Sb14  1  0.000594  0.616907  0.250000  1
  Sb  Sb15  1  0.999994  0.383416  0.750000  1
  Sb  Sb16  1  0.616578  0.616584  0.750000  1
  Sb  Sb17  1  0.614387  0.000000  0.250000  1
