# generated using pymatgen
data_La2Ni2SnBiH4
_symmetry_space_group_name_H-M   'P 1'
_cell_length_a   4.48951900
_cell_length_b   4.48951931
_cell_length_c   8.68720200
_cell_angle_alpha   90.00000000
_cell_angle_beta   90.00000000
_cell_angle_gamma   120.00001980
_symmetry_Int_Tables_number   1
_chemical_formula_structural   La2Ni2SnBiH4
_chemical_formula_sum   'La2 Ni2 Sn1 Bi1 H4'
_cell_volume   151.63872465
_cell_formula_units_Z   1
loop_
 _symmetry_equiv_pos_site_id
 _symmetry_equiv_pos_as_xyz
  1  'x, y, z'
loop_
 _atom_site_type_symbol
 _atom_site_label
 _atom_site_symmetry_multiplicity
 _atom_site_fract_x
 _atom_site_fract_y
 _atom_site_fract_z
 _atom_site_occupancy
  La  La0  1  0.000000  0.000000  0.504366  1
  La  La1  1  0.000000  0.000000  0.995634  1
  Ni  Ni2  1  0.333333  0.666667  0.750000  1
  Ni  Ni3  1  0.666667  0.333333  0.250000  1
  Sn  Sn4  1  0.666667  0.333333  0.750000  1
  Bi  Bi5  1  0.333333  0.666667  0.250000  1
  H  H6  1  0.666667  0.333333  0.062270  1
  H  H7  1  0.333333  0.666667  0.931413  1
  H  H8  1  0.666667  0.333333  0.437730  1
  H  H9  1  0.333333  0.666667  0.568587  1
