# generated using pymatgen
data_Ho2Al2CoPd
_symmetry_space_group_name_H-M   'P 1'
_cell_length_a   4.25443900
_cell_length_b   6.77245600
_cell_length_c   7.85593900
_cell_angle_alpha   90.00000000
_cell_angle_beta   90.00000000
_cell_angle_gamma   90.00000000
_symmetry_Int_Tables_number   1
_chemical_formula_structural   Ho2Al2CoPd
_chemical_formula_sum   'Ho4 Al4 Co2 Pd2'
_cell_volume   226.35317773
_cell_formula_units_Z   2
loop_
 _symmetry_equiv_pos_site_id
 _symmetry_equiv_pos_as_xyz
  1  'x, y, z'
loop_
 _atom_site_type_symbol
 _atom_site_label
 _atom_site_symmetry_multiplicity
 _atom_site_fract_x
 _atom_site_fract_y
 _atom_site_fract_z
 _atom_site_occupancy
  Ho  Ho0  1  0.250000  0.042679  0.669262  1
  Ho  Ho1  1  0.250000  0.542679  0.830738  1
  Ho  Ho2  1  0.750000  0.973205  0.315809  1
  Ho  Ho3  1  0.750000  0.473205  0.184191  1
  Al  Al4  1  0.250000  0.130603  0.067642  1
  Al  Al5  1  0.250000  0.630603  0.432358  1
  Al  Al6  1  0.750000  0.855892  0.949047  1
  Al  Al7  1  0.750000  0.355892  0.550953  1
  Co  Co8  1  0.250000  0.266290  0.376357  1
  Co  Co9  1  0.250000  0.766290  0.123643  1
  Pd  Pd10  1  0.750000  0.731330  0.622607  1
  Pd  Pd11  1  0.750000  0.231330  0.877393  1
