# generated using pymatgen
data_La2Al16TcPt8
_symmetry_space_group_name_H-M   'P 1'
_cell_length_a   11.21430548
_cell_length_b   11.21430644
_cell_length_c   11.21430675
_cell_angle_alpha   158.43091470
_cell_angle_beta   116.62624649
_cell_angle_gamma   67.78125813
_symmetry_Int_Tables_number   1
_chemical_formula_structural   La2Al16TcPt8
_chemical_formula_sum   'La2 Al16 Tc1 Pt8'
_cell_volume   460.26641798
_cell_formula_units_Z   1
loop_
 _symmetry_equiv_pos_site_id
 _symmetry_equiv_pos_as_xyz
  1  'x, y, z'
loop_
 _atom_site_type_symbol
 _atom_site_label
 _atom_site_symmetry_multiplicity
 _atom_site_fract_x
 _atom_site_fract_y
 _atom_site_fract_z
 _atom_site_occupancy
  La  La0  1  0.230044  0.230208  0.999836  1
  La  La1  1  0.769628  0.769792  0.999836  1
  Al  Al2  1  0.275649  0.392419  0.883229  1
  Al  Al3  1  0.090883  0.923971  0.166911  1
  Al  Al4  1  0.505101  0.201196  0.303904  1
  Al  Al5  1  0.242940  0.076029  0.166911  1
  Al  Al6  1  0.908933  0.416601  0.492333  1
  Al  Al7  1  0.721763  0.597717  0.124047  1
  Al  Al8  1  0.901571  0.207704  0.693867  1
  Al  Al9  1  0.486163  0.792296  0.693867  1
  Al  Al10  1  0.387435  0.000000  0.387435  1
  Al  Al11  1  0.626520  0.000000  0.626520  1
  Al  Al12  1  0.490810  0.607581  0.883229  1
  Al  Al13  1  0.102708  0.798804  0.303904  1
  Al  Al14  1  0.905611  0.084663  0.820948  1
  Al  Al15  1  0.736285  0.915337  0.820948  1
  Al  Al16  1  0.526329  0.402283  0.124047  1
  Al  Al17  1  0.075732  0.583399  0.492333  1
  Tc  Tc18  1  0.784301  0.500000  0.284301  1
  Pt  Pt19  1  0.027782  0.343548  0.684234  1
  Pt  Pt20  1  0.625478  0.123261  0.502217  1
  Pt  Pt21  1  0.252226  0.500000  0.752226  1
  Pt  Pt22  1  0.378956  0.876739  0.502217  1
  Pt  Pt23  1  0.986491  0.000000  0.986491  1
  Pt  Pt24  1  0.646328  0.336339  0.309988  1
  Pt  Pt25  1  0.340685  0.656452  0.684234  1
  Pt  Pt26  1  0.973649  0.663661  0.309988  1
