# generated using pymatgen
data_YLu7(BCl6)2
_symmetry_space_group_name_H-M   'P 1'
_cell_length_a   3.77732800
_cell_length_b   12.40060215
_cell_length_c   12.84463420
_cell_angle_alpha   90.33572921
_cell_angle_beta   90.00000000
_cell_angle_gamma   90.00000000
_symmetry_Int_Tables_number   1
_chemical_formula_structural   YLu7(BCl6)2
_chemical_formula_sum   'Y1 Lu7 B2 Cl12'
_cell_volume   601.64700210
_cell_formula_units_Z   1
loop_
 _symmetry_equiv_pos_site_id
 _symmetry_equiv_pos_as_xyz
  1  'x, y, z'
loop_
 _atom_site_type_symbol
 _atom_site_label
 _atom_site_symmetry_multiplicity
 _atom_site_fract_x
 _atom_site_fract_y
 _atom_site_fract_z
 _atom_site_occupancy
  Y  Y0  1  0.500000  0.126983  0.850624  1
  Lu  Lu1  1  0.000000  0.104472  0.083322  1
  Lu  Lu2  1  0.000000  0.895143  0.917108  1
  Lu  Lu3  1  0.000000  0.604901  0.416862  1
  Lu  Lu4  1  0.000000  0.396101  0.582245  1
  Lu  Lu5  1  0.500000  0.874180  0.148032  1
  Lu  Lu6  1  0.500000  0.625847  0.647608  1
  Lu  Lu7  1  0.500000  0.374495  0.352052  1
  B  B8  1  0.500000  0.998429  0.001841  1
  B  B9  1  0.500000  0.500536  0.499553  1
  Cl  Cl10  1  0.500000  0.270659  0.679597  1
  Cl  Cl11  1  0.500000  0.731591  0.317306  1
  Cl  Cl12  1  0.500000  0.767307  0.817112  1
  Cl  Cl13  1  0.500000  0.231882  0.183807  1
  Cl  Cl14  1  0.000000  0.261272  0.935005  1
  Cl  Cl15  1  0.000000  0.742442  0.070895  1
  Cl  Cl16  1  0.000000  0.477864  0.242762  1
  Cl  Cl17  1  0.000000  0.522333  0.756900  1
  Cl  Cl18  1  0.000000  0.977935  0.257832  1
  Cl  Cl19  1  0.000000  0.015394  0.739849  1
  Cl  Cl20  1  0.000000  0.243179  0.428827  1
  Cl  Cl21  1  0.000000  0.757056  0.570860  1
