# generated using pymatgen
data_Tb3Ce(Hf3Ge4)2
_symmetry_space_group_name_H-M   'P 1'
_cell_length_a   7.41734577
_cell_length_b   7.41820140
_cell_length_c   13.59922900
_cell_angle_alpha   90.00000000
_cell_angle_beta   90.00000000
_cell_angle_gamma   89.92529204
_symmetry_Int_Tables_number   1
_chemical_formula_structural   Tb3Ce(Hf3Ge4)2
_chemical_formula_sum   'Tb6 Ce2 Hf12 Ge16'
_cell_volume   748.27470120
_cell_formula_units_Z   2
loop_
 _symmetry_equiv_pos_site_id
 _symmetry_equiv_pos_as_xyz
  1  'x, y, z'
loop_
 _atom_site_type_symbol
 _atom_site_label
 _atom_site_symmetry_multiplicity
 _atom_site_fract_x
 _atom_site_fract_y
 _atom_site_fract_z
 _atom_site_occupancy
  Tb  Tb0  1  0.158846  0.499778  0.469592  1
  Tb  Tb1  1  0.499496  0.841504  0.031100  1
  Tb  Tb2  1  0.841154  0.500222  0.969592  1
  Tb  Tb3  1  0.500504  0.158496  0.531100  1
  Tb  Tb4  1  0.340752  0.997417  0.781933  1
  Tb  Tb5  1  0.659248  0.002583  0.281933  1
  Ce  Ce6  1  0.997017  0.341744  0.216469  1
  Ce  Ce7  1  0.002983  0.658256  0.716469  1
  Hf  Hf8  1  0.171605  0.171707  0.000883  1
  Hf  Hf9  1  0.828395  0.828293  0.500883  1
  Hf  Hf10  1  0.327151  0.670790  0.250224  1
  Hf  Hf11  1  0.672849  0.329210  0.750224  1
  Hf  Hf12  1  0.160547  0.998309  0.375675  1
  Hf  Hf13  1  0.839453  0.001691  0.875675  1
  Hf  Hf14  1  0.503584  0.658866  0.626705  1
  Hf  Hf15  1  0.339409  0.496353  0.872127  1
  Hf  Hf16  1  0.496416  0.341134  0.126705  1
  Hf  Hf17  1  0.660591  0.503647  0.372127  1
  Hf  Hf18  1  0.996121  0.158707  0.624689  1
  Hf  Hf19  1  0.003879  0.841293  0.124689  1
  Ge  Ge20  1  0.367913  0.302414  0.323705  1
  Ge  Ge21  1  0.632087  0.697586  0.823705  1
  Ge  Ge22  1  0.201060  0.870531  0.571358  1
  Ge  Ge23  1  0.131030  0.801451  0.928646  1
  Ge  Ge24  1  0.798940  0.129469  0.071358  1
  Ge  Ge25  1  0.868970  0.198549  0.428646  1
  Ge  Ge26  1  0.302653  0.366058  0.676709  1
  Ge  Ge27  1  0.697347  0.633942  0.176709  1
  Ge  Ge28  1  0.295825  0.035801  0.182120  1
  Ge  Ge29  1  0.704175  0.964199  0.682120  1
  Ge  Ge30  1  0.464861  0.794971  0.431415  1
  Ge  Ge31  1  0.207664  0.538380  0.066674  1
  Ge  Ge32  1  0.535139  0.205029  0.931415  1
  Ge  Ge33  1  0.792336  0.461620  0.566674  1
  Ge  Ge34  1  0.035169  0.293745  0.819977  1
  Ge  Ge35  1  0.964831  0.706255  0.319977  1
