# generated using pymatgen
data_TbEr(H2Cl)2
_symmetry_space_group_name_H-M   'P 1'
_cell_length_a   11.02837191
_cell_length_b   11.02837183
_cell_length_c   11.02837064
_cell_angle_alpha   19.32014295
_cell_angle_beta   19.32014285
_cell_angle_gamma   19.32014566
_symmetry_Int_Tables_number   1
_chemical_formula_structural   TbEr(H2Cl)2
_chemical_formula_sum   'Tb1 Er1 H4 Cl2'
_cell_volume   128.35470473
_cell_formula_units_Z   1
loop_
 _symmetry_equiv_pos_site_id
 _symmetry_equiv_pos_as_xyz
  1  'x, y, z'
loop_
 _atom_site_type_symbol
 _atom_site_label
 _atom_site_symmetry_multiplicity
 _atom_site_fract_x
 _atom_site_fract_y
 _atom_site_fract_z
 _atom_site_occupancy
  Tb  Tb0  1  0.117155  0.117155  0.117155  1
  Er  Er1  1  0.882656  0.882656  0.882656  1
  H  H2  1  0.815482  0.815482  0.815482  1
  H  H3  1  0.185332  0.185332  0.185332  1
  H  H4  1  0.542443  0.542443  0.542443  1
  H  H5  1  0.457985  0.457985  0.457985  1
  Cl  Cl6  1  0.728993  0.728993  0.728993  1
  Cl  Cl7  1  0.269954  0.269954  0.269954  1
