# generated using pymatgen
data_La10BrN5O4
_symmetry_space_group_name_H-M   'P 1'
_cell_length_a   3.70063055
_cell_length_b   3.70063113
_cell_length_c   31.80358937
_cell_angle_alpha   89.99999966
_cell_angle_beta   93.33531705
_cell_angle_gamma   119.99998738
_symmetry_Int_Tables_number   1
_chemical_formula_structural   La10BrN5O4
_chemical_formula_sum   'La10 Br1 N5 O4'
_cell_volume   376.33631069
_cell_formula_units_Z   1
loop_
 _symmetry_equiv_pos_site_id
 _symmetry_equiv_pos_as_xyz
  1  'x, y, z'
loop_
 _atom_site_type_symbol
 _atom_site_label
 _atom_site_symmetry_multiplicity
 _atom_site_fract_x
 _atom_site_fract_y
 _atom_site_fract_z
 _atom_site_occupancy
  La  La0  1  0.283952  0.641976  0.925927  1
  La  La1  1  0.492798  0.246399  0.739197  1
  La  La2  1  0.698253  0.849127  0.547380  1
  La  La3  1  0.108717  0.054358  0.163075  1
  La  La4  1  0.902515  0.451258  0.353773  1
  La  La5  1  0.891283  0.945642  0.836925  1
  La  La6  1  0.097485  0.548742  0.646227  1
  La  La7  1  0.301747  0.150873  0.452620  1
  La  La8  1  0.716048  0.358024  0.074073  1
  La  La9  1  0.507202  0.753601  0.260803  1
  Br  Br10  1  0.000000  0.000000  0.000000  1
  N  N11  1  0.587963  0.293981  0.881945  1
  N  N12  1  0.795533  0.897767  0.693300  1
  N  N13  1  0.000000  0.500000  0.500000  1
  N  N14  1  0.412037  0.706019  0.118055  1
  N  N15  1  0.204467  0.102233  0.306700  1
  O  O16  1  0.808549  0.404274  0.212823  1
  O  O17  1  0.602496  0.801248  0.403745  1
  O  O18  1  0.397504  0.198752  0.596255  1
  O  O19  1  0.191451  0.595726  0.787177  1
