# generated using pymatgen
data_Ho20Cd3Hg3Ru2
_symmetry_space_group_name_H-M   'P 1'
_cell_length_a   9.54894000
_cell_length_b   9.54893946
_cell_length_c   9.74337500
_cell_angle_alpha   90.00000000
_cell_angle_beta   90.00000000
_cell_angle_gamma   120.00000186
_symmetry_Int_Tables_number   1
_chemical_formula_structural   Ho20Cd3Hg3Ru2
_chemical_formula_sum   'Ho20 Cd3 Hg3 Ru2'
_cell_volume   769.39674744
_cell_formula_units_Z   1
loop_
 _symmetry_equiv_pos_site_id
 _symmetry_equiv_pos_as_xyz
  1  'x, y, z'
loop_
 _atom_site_type_symbol
 _atom_site_label
 _atom_site_symmetry_multiplicity
 _atom_site_fract_x
 _atom_site_fract_y
 _atom_site_fract_z
 _atom_site_occupancy
  Ho  Ho0  1  0.000000  0.000000  0.491381  1
  Ho  Ho1  1  0.000000  0.000000  0.008619  1
  Ho  Ho2  1  0.209523  0.790477  0.439333  1
  Ho  Ho3  1  0.209523  0.419048  0.439333  1
  Ho  Ho4  1  0.580952  0.790477  0.439333  1
  Ho  Ho5  1  0.790250  0.209750  0.559656  1
  Ho  Ho6  1  0.790250  0.580499  0.559656  1
  Ho  Ho7  1  0.419501  0.209750  0.559656  1
  Ho  Ho8  1  0.790250  0.209750  0.940344  1
  Ho  Ho9  1  0.790250  0.580499  0.940344  1
  Ho  Ho10  1  0.419501  0.209750  0.940344  1
  Ho  Ho11  1  0.209523  0.790477  0.060667  1
  Ho  Ho12  1  0.209523  0.419048  0.060667  1
  Ho  Ho13  1  0.580952  0.790477  0.060667  1
  Ho  Ho14  1  0.541241  0.458759  0.250000  1
  Ho  Ho15  1  0.541241  0.082483  0.250000  1
  Ho  Ho16  1  0.917517  0.458759  0.250000  1
  Ho  Ho17  1  0.458839  0.541161  0.750000  1
  Ho  Ho18  1  0.458839  0.917677  0.750000  1
  Ho  Ho19  1  0.082323  0.541161  0.750000  1
  Cd  Cd20  1  0.113358  0.886642  0.750000  1
  Cd  Cd21  1  0.113358  0.226716  0.750000  1
  Cd  Cd22  1  0.773284  0.886642  0.750000  1
  Hg  Hg23  1  0.879762  0.120238  0.250000  1
  Hg  Hg24  1  0.879762  0.759524  0.250000  1
  Hg  Hg25  1  0.240476  0.120238  0.250000  1
  Ru  Ru26  1  0.333333  0.666667  0.250000  1
  Ru  Ru27  1  0.666667  0.333333  0.750000  1
