# generated using pymatgen
data_Sc8Ti5Si8Ge8W7
_symmetry_space_group_name_H-M   'P 1'
_cell_length_a   6.62802323
_cell_length_b   6.80518805
_cell_length_c   13.04805634
_cell_angle_alpha   89.97840775
_cell_angle_beta   89.99721677
_cell_angle_gamma   89.96714762
_symmetry_Int_Tables_number   1
_chemical_formula_structural   Sc8Ti5Si8Ge8W7
_chemical_formula_sum   'Sc8 Ti5 Si8 Ge8 W7'
_cell_volume   588.53171786
_cell_formula_units_Z   1
loop_
 _symmetry_equiv_pos_site_id
 _symmetry_equiv_pos_as_xyz
  1  'x, y, z'
loop_
 _atom_site_type_symbol
 _atom_site_label
 _atom_site_symmetry_multiplicity
 _atom_site_fract_x
 _atom_site_fract_y
 _atom_site_fract_z
 _atom_site_occupancy
  Sc  Sc0  1  0.492044  0.673829  0.597496  1
  Sc  Sc1  1  0.992458  0.825973  0.904137  1
  Sc  Sc2  1  0.506913  0.325573  0.096886  1
  Sc  Sc3  1  0.005424  0.176359  0.403051  1
  Sc  Sc4  1  0.506281  0.324922  0.403134  1
  Sc  Sc5  1  0.006098  0.178493  0.096824  1
  Sc  Sc6  1  0.493277  0.678473  0.903764  1
  Sc  Sc7  1  0.994449  0.822582  0.595846  1
  Ti  Ti8  1  0.659664  0.166292  0.627840  1
  Ti  Ti9  1  0.158927  0.334209  0.872261  1
  Ti  Ti10  1  0.341926  0.833275  0.127757  1
  Ti  Ti11  1  0.838059  0.665112  0.371156  1
  Ti  Ti12  1  0.338340  0.833431  0.371277  1
  Si  Si13  1  0.461941  0.384821  0.751367  1
  Si  Si14  1  0.962109  0.114234  0.748959  1
  Si  Si15  1  0.538362  0.615025  0.250580  1
  Si  Si16  1  0.039051  0.883277  0.249627  1
  Si  Si17  1  0.699634  0.858168  0.747832  1
  Si  Si18  1  0.198684  0.642626  0.752029  1
  Si  Si19  1  0.299837  0.140403  0.249764  1
  Si  Si20  1  0.800734  0.358057  0.250863  1
  Ge  Ge21  1  0.682312  0.960719  0.459394  1
  Ge  Ge22  1  0.180925  0.539118  0.040532  1
  Ge  Ge23  1  0.319146  0.039912  0.960047  1
  Ge  Ge24  1  0.819239  0.460464  0.539911  1
  Ge  Ge25  1  0.319211  0.038143  0.539756  1
  Ge  Ge26  1  0.819251  0.460540  0.959335  1
  Ge  Ge27  1  0.681121  0.961936  0.040677  1
  Ge  Ge28  1  0.180544  0.540760  0.459960  1
  W  W29  1  0.835072  0.663438  0.128582  1
  W  W30  1  0.665086  0.162803  0.870052  1
  W  W31  1  0.163890  0.336001  0.630906  1
  W  W32  1  0.835220  0.492072  0.749644  1
  W  W33  1  0.335654  0.008996  0.750781  1
  W  W34  1  0.164513  0.507160  0.248968  1
  W  W35  1  0.664604  0.992806  0.249009  1
