# generated using pymatgen
data_Pr5In2BiBr
_symmetry_space_group_name_H-M   'P 1'
_cell_length_a   9.69885677
_cell_length_b   9.69885650
_cell_length_c   6.89167700
_cell_angle_alpha   90.00000000
_cell_angle_beta   90.00000000
_cell_angle_gamma   120.47184850
_symmetry_Int_Tables_number   1
_chemical_formula_structural   Pr5In2BiBr
_chemical_formula_sum   'Pr10 In4 Bi2 Br2'
_cell_volume   558.74288444
_cell_formula_units_Z   2
loop_
 _symmetry_equiv_pos_site_id
 _symmetry_equiv_pos_as_xyz
  1  'x, y, z'
loop_
 _atom_site_type_symbol
 _atom_site_label
 _atom_site_symmetry_multiplicity
 _atom_site_fract_x
 _atom_site_fract_y
 _atom_site_fract_z
 _atom_site_occupancy
  Pr  Pr0  1  0.265635  0.997589  0.750000  1
  Pr  Pr1  1  0.734365  0.002411  0.250000  1
  Pr  Pr2  1  0.997589  0.265635  0.750000  1
  Pr  Pr3  1  0.002411  0.734365  0.250000  1
  Pr  Pr4  1  0.736710  0.736710  0.750000  1
  Pr  Pr5  1  0.263290  0.263290  0.250000  1
  Pr  Pr6  1  0.328677  0.671323  0.500000  1
  Pr  Pr7  1  0.671323  0.328677  0.500000  1
  Pr  Pr8  1  0.671323  0.328677  0.000000  1
  Pr  Pr9  1  0.328677  0.671323  0.000000  1
  In  In10  1  0.608406  0.998959  0.750000  1
  In  In11  1  0.391594  0.001041  0.250000  1
  In  In12  1  0.998959  0.608406  0.750000  1
  In  In13  1  0.001041  0.391594  0.250000  1
  Bi  Bi14  1  0.386897  0.386897  0.750000  1
  Bi  Bi15  1  0.613103  0.613103  0.250000  1
  Br  Br16  1  0.000000  0.000000  0.500000  1
  Br  Br17  1  0.000000  0.000000  0.000000  1
