# generated using pymatgen
data_La11Pr2Th3(CdIr)4
_symmetry_space_group_name_H-M   'P 1'
_cell_length_a   10.11492215
_cell_length_b   10.10980086
_cell_length_c   10.10240600
_cell_angle_alpha   60.02419991
_cell_angle_beta   60.04093080
_cell_angle_gamma   60.08752001
_symmetry_Int_Tables_number   1
_chemical_formula_structural   La11Pr2Th3(CdIr)4
_chemical_formula_sum   'La11 Pr2 Th3 Cd4 Ir4'
_cell_volume   731.33314914
_cell_formula_units_Z   1
loop_
 _symmetry_equiv_pos_site_id
 _symmetry_equiv_pos_as_xyz
  1  'x, y, z'
loop_
 _atom_site_type_symbol
 _atom_site_label
 _atom_site_symmetry_multiplicity
 _atom_site_fract_x
 _atom_site_fract_y
 _atom_site_fract_z
 _atom_site_occupancy
  La  La0  1  0.956741  0.347687  0.347785  1
  La  La1  1  0.807150  0.192264  0.192790  1
  La  La2  1  0.191027  0.808628  0.808379  1
  La  La3  1  0.191027  0.808628  0.191968  1
  La  La4  1  0.807150  0.192264  0.807794  1
  La  La5  1  0.191156  0.190870  0.808987  1
  La  La6  1  0.806712  0.807337  0.192975  1
  La  La7  1  0.941319  0.560406  0.563006  1
  La  La8  1  0.559843  0.940185  0.938187  1
  La  La9  1  0.559843  0.940185  0.561786  1
  La  La10  1  0.941319  0.560406  0.935268  1
  Pr  Pr11  1  0.558815  0.560141  0.940522  1
  Pr  Pr12  1  0.941948  0.937623  0.560214  1
  Th  Th13  1  0.345260  0.345967  0.345242  1
  Th  Th14  1  0.345260  0.345967  0.963530  1
  Th  Th15  1  0.345663  0.962647  0.345844  1
  Cd  Cd16  1  0.577232  0.580449  0.581161  1
  Cd  Cd17  1  0.577232  0.580449  0.261157  1
  Cd  Cd18  1  0.578204  0.260857  0.580469  1
  Cd  Cd19  1  0.260002  0.581446  0.579276  1
  Ir  Ir20  1  0.151448  0.141290  0.140956  1
  Ir  Ir21  1  0.151448  0.141290  0.566305  1
  Ir  Ir22  1  0.151407  0.566997  0.140797  1
  Ir  Ir23  1  0.562792  0.146012  0.145598  1
