# generated using pymatgen
data_TmNbB6W
_symmetry_space_group_name_H-M   'P 1'
_cell_length_a   3.53798800
_cell_length_b   8.91442300
_cell_length_c   11.25240500
_cell_angle_alpha   90.00000000
_cell_angle_beta   90.00000000
_cell_angle_gamma   90.00000000
_symmetry_Int_Tables_number   1
_chemical_formula_structural   TmNbB6W
_chemical_formula_sum   'Tm4 Nb4 B24 W4'
_cell_volume   354.89096960
_cell_formula_units_Z   4
loop_
 _symmetry_equiv_pos_site_id
 _symmetry_equiv_pos_as_xyz
  1  'x, y, z'
loop_
 _atom_site_type_symbol
 _atom_site_label
 _atom_site_symmetry_multiplicity
 _atom_site_fract_x
 _atom_site_fract_y
 _atom_site_fract_z
 _atom_site_occupancy
  Tm  Tm0  1  0.000000  0.320767  0.413576  1
  Tm  Tm1  1  0.000000  0.679233  0.586424  1
  Tm  Tm2  1  0.000000  0.820767  0.086424  1
  Tm  Tm3  1  0.000000  0.179233  0.913576  1
  Nb  Nb4  1  0.000000  0.945906  0.373810  1
  Nb  Nb5  1  0.000000  0.054094  0.626190  1
  Nb  Nb6  1  0.000000  0.445906  0.126190  1
  Nb  Nb7  1  0.000000  0.554094  0.873810  1
  B  B8  1  0.500000  0.553149  0.434538  1
  B  B9  1  0.500000  0.446851  0.565462  1
  B  B10  1  0.500000  0.053149  0.065462  1
  B  B11  1  0.500000  0.946851  0.934538  1
  B  B12  1  0.500000  0.755824  0.420084  1
  B  B13  1  0.500000  0.244176  0.579916  1
  B  B14  1  0.500000  0.255824  0.079916  1
  B  B15  1  0.500000  0.744176  0.920084  1
  B  B16  1  0.500000  0.798090  0.263328  1
  B  B17  1  0.500000  0.201910  0.736672  1
  B  B18  1  0.500000  0.298090  0.236672  1
  B  B19  1  0.500000  0.701910  0.763328  1
  B  B20  1  0.500000  0.630181  0.180240  1
  B  B21  1  0.500000  0.369819  0.819760  1
  B  B22  1  0.500000  0.130181  0.319760  1
  B  B23  1  0.500000  0.869819  0.680240  1
  B  B24  1  0.500000  0.979662  0.213846  1
  B  B25  1  0.500000  0.020338  0.786154  1
  B  B26  1  0.500000  0.479662  0.286154  1
  B  B27  1  0.500000  0.520338  0.713846  1
  B  B28  1  0.500000  0.598400  0.026206  1
  B  B29  1  0.500000  0.401600  0.973794  1
  B  B30  1  0.500000  0.098400  0.473794  1
  B  B31  1  0.500000  0.901600  0.526206  1
  W  W32  1  0.000000  0.642838  0.316729  1
  W  W33  1  0.000000  0.357162  0.683271  1
  W  W34  1  0.000000  0.142838  0.183271  1
  W  W35  1  0.000000  0.857162  0.816729  1
