# generated using pymatgen
data_Lu5Ta3(ReB6)4
_symmetry_space_group_name_H-M   'P 1'
_cell_length_a   3.55608300
_cell_length_b   8.92736310
_cell_length_c   11.27751079
_cell_angle_alpha   89.91992106
_cell_angle_beta   90.00000000
_cell_angle_gamma   90.00000000
_symmetry_Int_Tables_number   1
_chemical_formula_structural   Lu5Ta3(ReB6)4
_chemical_formula_sum   'Lu5 Ta3 Re4 B24'
_cell_volume   358.02051705
_cell_formula_units_Z   1
loop_
 _symmetry_equiv_pos_site_id
 _symmetry_equiv_pos_as_xyz
  1  'x, y, z'
loop_
 _atom_site_type_symbol
 _atom_site_label
 _atom_site_symmetry_multiplicity
 _atom_site_fract_x
 _atom_site_fract_y
 _atom_site_fract_z
 _atom_site_occupancy
  Lu  Lu0  1  0.000000  0.321918  0.413729  1
  Lu  Lu1  1  0.000000  0.677534  0.587533  1
  Lu  Lu2  1  0.000000  0.822020  0.086452  1
  Lu  Lu3  1  0.000000  0.177661  0.912332  1
  Lu  Lu4  1  0.000000  0.945200  0.373763  1
  Ta  Ta5  1  0.000000  0.055466  0.627446  1
  Ta  Ta6  1  0.000000  0.445386  0.123747  1
  Ta  Ta7  1  0.000000  0.555471  0.875937  1
  Re  Re8  1  0.000000  0.635390  0.315474  1
  Re  Re9  1  0.000000  0.358760  0.683509  1
  Re  Re10  1  0.000000  0.146625  0.177911  1
  Re  Re11  1  0.000000  0.857370  0.820252  1
  B  B12  1  0.500000  0.551645  0.434319  1
  B  B13  1  0.500000  0.445425  0.566160  1
  B  B14  1  0.500000  0.054567  0.064952  1
  B  B15  1  0.500000  0.946318  0.934333  1
  B  B16  1  0.500000  0.749791  0.418758  1
  B  B17  1  0.500000  0.246034  0.582195  1
  B  B18  1  0.500000  0.255165  0.079312  1
  B  B19  1  0.500000  0.745693  0.919535  1
  B  B20  1  0.500000  0.793936  0.262785  1
  B  B21  1  0.500000  0.204008  0.738096  1
  B  B22  1  0.500000  0.296802  0.235168  1
  B  B23  1  0.500000  0.703642  0.762975  1
  B  B24  1  0.500000  0.628441  0.181537  1
  B  B25  1  0.500000  0.371124  0.818685  1
  B  B26  1  0.500000  0.132416  0.316227  1
  B  B27  1  0.500000  0.870989  0.682402  1
  B  B28  1  0.500000  0.982748  0.211320  1
  B  B29  1  0.500000  0.019627  0.787807  1
  B  B30  1  0.500000  0.478970  0.286557  1
  B  B31  1  0.500000  0.520296  0.712875  1
  B  B32  1  0.500000  0.599659  0.026087  1
  B  B33  1  0.500000  0.401146  0.972605  1
  B  B34  1  0.500000  0.101917  0.476624  1
  B  B35  1  0.500000  0.900838  0.530603  1
