# generated using pymatgen
data_Ca2GaPt3
_symmetry_space_group_name_H-M   'P 1'
_cell_length_a   5.62562238
_cell_length_b   5.62562266
_cell_length_c   5.27798060
_cell_angle_alpha   57.79614568
_cell_angle_beta   57.79614261
_cell_angle_gamma   60.00000652
_symmetry_Int_Tables_number   1
_chemical_formula_structural   Ca2GaPt3
_chemical_formula_sum   'Ca2 Ga1 Pt3'
_cell_volume   114.02330881
_cell_formula_units_Z   1
loop_
 _symmetry_equiv_pos_site_id
 _symmetry_equiv_pos_as_xyz
  1  'x, y, z'
loop_
 _atom_site_type_symbol
 _atom_site_label
 _atom_site_symmetry_multiplicity
 _atom_site_fract_x
 _atom_site_fract_y
 _atom_site_fract_z
 _atom_site_occupancy
  Ca  Ca0  1  0.000259  0.000259  0.999224  1
  Ca  Ca1  1  0.249741  0.249741  0.250776  1
  Ga  Ga2  1  0.625000  0.625000  0.125000  1
  Pt  Pt3  1  0.125000  0.625000  0.625000  1
  Pt  Pt4  1  0.625000  0.625000  0.625000  1
  Pt  Pt5  1  0.625000  0.125000  0.625000  1
