# generated using pymatgen
data_Nd7Y3(Pb3Cl)2
_symmetry_space_group_name_H-M   'P 1'
_cell_length_a   9.43896300
_cell_length_b   9.43896211
_cell_length_c   6.74706000
_cell_angle_alpha   90.00000000
_cell_angle_beta   90.00000000
_cell_angle_gamma   119.99999963
_symmetry_Int_Tables_number   1
_chemical_formula_structural   Nd7Y3(Pb3Cl)2
_chemical_formula_sum   'Nd7 Y3 Pb6 Cl2'
_cell_volume   520.58749512
_cell_formula_units_Z   1
loop_
 _symmetry_equiv_pos_site_id
 _symmetry_equiv_pos_as_xyz
  1  'x, y, z'
loop_
 _atom_site_type_symbol
 _atom_site_label
 _atom_site_symmetry_multiplicity
 _atom_site_fract_x
 _atom_site_fract_y
 _atom_site_fract_z
 _atom_site_occupancy
  Nd  Nd0  1  0.259733  0.000208  0.750561  1
  Nd  Nd1  1  0.740474  0.000208  0.249439  1
  Nd  Nd2  1  0.999792  0.259526  0.750561  1
  Nd  Nd3  1  0.999792  0.740267  0.249439  1
  Nd  Nd4  1  0.740474  0.740267  0.750561  1
  Nd  Nd5  1  0.259733  0.259526  0.249439  1
  Nd  Nd6  1  0.333333  0.666667  0.500000  1
  Y  Y7  1  0.666667  0.333333  0.500000  1
  Y  Y8  1  0.666667  0.333333  0.000000  1
  Y  Y9  1  0.333333  0.666667  0.000000  1
  Pb  Pb10  1  0.609617  0.002405  0.751676  1
  Pb  Pb11  1  0.392788  0.002405  0.248324  1
  Pb  Pb12  1  0.997595  0.607212  0.751676  1
  Pb  Pb13  1  0.997595  0.390383  0.248324  1
  Pb  Pb14  1  0.392788  0.390383  0.751676  1
  Pb  Pb15  1  0.609617  0.607212  0.248324  1
  Cl  Cl16  1  0.000000  0.000000  0.500000  1
  Cl  Cl17  1  0.000000  0.000000  0.000000  1
