# generated using pymatgen
data_ZnGa3Ir4
_symmetry_space_group_name_H-M   'P 1'
_cell_length_a   4.31395413
_cell_length_b   4.31974142
_cell_length_c   7.47479316
_cell_angle_alpha   73.08110172
_cell_angle_beta   89.99935960
_cell_angle_gamma   60.04298875
_symmetry_Int_Tables_number   1
_chemical_formula_structural   ZnGa3Ir4
_chemical_formula_sum   'Zn1 Ga3 Ir4'
_cell_volume   113.67291067
_cell_formula_units_Z   1
loop_
 _symmetry_equiv_pos_site_id
 _symmetry_equiv_pos_as_xyz
  1  'x, y, z'
loop_
 _atom_site_type_symbol
 _atom_site_label
 _atom_site_symmetry_multiplicity
 _atom_site_fract_x
 _atom_site_fract_y
 _atom_site_fract_z
 _atom_site_occupancy
  Zn  Zn0  1  0.620117  0.835200  0.559510  1
  Ga  Ga1  1  0.367630  0.340849  0.801973  1
  Ga  Ga2  1  0.872866  0.330748  0.317039  1
  Ga  Ga3  1  0.120407  0.836422  0.059513  1
  Ir  Ir4  1  0.493589  0.089959  0.178880  1
  Ir  Ir5  1  0.997079  0.081544  0.690562  1
  Ir  Ir6  1  0.243281  0.589382  0.428467  1
  Ir  Ir7  1  0.747165  0.582646  0.940146  1
