# generated using pymatgen
data_Nd6Sc2SnAu9
_symmetry_space_group_name_H-M   'P 1'
_cell_length_a   8.17804217
_cell_length_b   8.17804291
_cell_length_c   8.17804296
_cell_angle_alpha   65.65005699
_cell_angle_beta   65.65005767
_cell_angle_gamma   65.65003194
_symmetry_Int_Tables_number   1
_chemical_formula_structural   Nd6Sc2SnAu9
_chemical_formula_sum   'Nd6 Sc2 Sn1 Au9'
_cell_volume   434.19343142
_cell_formula_units_Z   1
loop_
 _symmetry_equiv_pos_site_id
 _symmetry_equiv_pos_as_xyz
  1  'x, y, z'
loop_
 _atom_site_type_symbol
 _atom_site_label
 _atom_site_symmetry_multiplicity
 _atom_site_fract_x
 _atom_site_fract_y
 _atom_site_fract_z
 _atom_site_occupancy
  Nd  Nd0  1  0.895499  0.184356  0.624130  1
  Nd  Nd1  1  0.624130  0.895499  0.184356  1
  Nd  Nd2  1  0.184356  0.624130  0.895499  1
  Nd  Nd3  1  0.104501  0.815644  0.375870  1
  Nd  Nd4  1  0.375870  0.104501  0.815644  1
  Nd  Nd5  1  0.815644  0.375870  0.104501  1
  Sc  Sc6  1  0.660488  0.660488  0.660488  1
  Sc  Sc7  1  0.339512  0.339512  0.339512  1
  Sn  Sn8  1  0.500000  0.500000  0.500000  1
  Au  Au9  1  0.000000  0.000000  0.000000  1
  Au  Au10  1  0.801881  0.801881  0.801881  1
  Au  Au11  1  0.198119  0.198119  0.198119  1
  Au  Au12  1  0.940441  0.547654  0.325412  1
  Au  Au13  1  0.325412  0.940441  0.547654  1
  Au  Au14  1  0.547654  0.325412  0.940441  1
  Au  Au15  1  0.059559  0.452346  0.674588  1
  Au  Au16  1  0.674588  0.059559  0.452346  1
  Au  Au17  1  0.452346  0.674588  0.059559  1
