# generated using pymatgen
data_Dy(FeB)4
_symmetry_space_group_name_H-M   'P 1'
_cell_length_a   6.94201706
_cell_length_b   6.94433308
_cell_length_c   3.81980002
_cell_angle_alpha   89.99070315
_cell_angle_beta   89.99536872
_cell_angle_gamma   89.98535233
_symmetry_Int_Tables_number   1
_chemical_formula_structural   Dy(FeB)4
_chemical_formula_sum   'Dy2 Fe8 B8'
_cell_volume   184.14368291
_cell_formula_units_Z   2
loop_
 _symmetry_equiv_pos_site_id
 _symmetry_equiv_pos_as_xyz
  1  'x, y, z'
loop_
 _atom_site_type_symbol
 _atom_site_label
 _atom_site_symmetry_multiplicity
 _atom_site_fract_x
 _atom_site_fract_y
 _atom_site_fract_z
 _atom_site_occupancy
  Dy  Dy0  1  0.000057  0.999921  0.000001  1
  Dy  Dy1  1  0.499943  0.500079  0.499999  1
  Fe  Fe2  1  0.867788  0.385578  0.109215  1
  Fe  Fe3  1  0.132253  0.614473  0.109219  1
  Fe  Fe4  1  0.885523  0.632179  0.609230  1
  Fe  Fe5  1  0.114445  0.367905  0.609213  1
  Fe  Fe6  1  0.632212  0.114422  0.390785  1
  Fe  Fe7  1  0.367747  0.885527  0.390781  1
  Fe  Fe8  1  0.614477  0.867821  0.890770  1
  Fe  Fe9  1  0.385555  0.132095  0.890787  1
  B  B10  1  0.333310  0.800407  0.893382  1
  B  B11  1  0.666734  0.199624  0.893218  1
  B  B12  1  0.300499  0.166611  0.393189  1
  B  B13  1  0.699448  0.833345  0.393217  1
  B  B14  1  0.166690  0.699593  0.606618  1
  B  B15  1  0.833266  0.300376  0.606782  1
  B  B16  1  0.199501  0.333389  0.106811  1
  B  B17  1  0.800552  0.666655  0.106783  1
