# generated using pymatgen
data_Sc4Tc7RuW4
_symmetry_space_group_name_H-M   'P 1'
_cell_length_a   6.32380300
_cell_length_b   4.49312100
_cell_length_c   8.95284600
_cell_angle_alpha   90.00000000
_cell_angle_beta   90.00215866
_cell_angle_gamma   90.00000000
_symmetry_Int_Tables_number   1
_chemical_formula_structural   Sc4Tc7RuW4
_chemical_formula_sum   'Sc4 Tc7 Ru1 W4'
_cell_volume   254.38269298
_cell_formula_units_Z   1
loop_
 _symmetry_equiv_pos_site_id
 _symmetry_equiv_pos_as_xyz
  1  'x, y, z'
loop_
 _atom_site_type_symbol
 _atom_site_label
 _atom_site_symmetry_multiplicity
 _atom_site_fract_x
 _atom_site_fract_y
 _atom_site_fract_z
 _atom_site_occupancy
  Sc  Sc0  1  0.246959  0.250001  0.124959  1
  Sc  Sc1  1  0.752081  0.749999  0.374166  1
  Sc  Sc2  1  0.249127  0.250001  0.624999  1
  Sc  Sc3  1  0.751903  0.749999  0.875858  1
  Tc  Tc4  1  0.499832  0.749999  0.125006  1
  Tc  Tc5  1  0.999694  0.250001  0.373663  1
  Tc  Tc6  1  0.500239  0.250001  0.374640  1
  Tc  Tc7  1  0.500078  0.749999  0.624989  1
  Tc  Tc8  1  0.000555  0.749999  0.625021  1
  Tc  Tc9  1  0.500111  0.250001  0.875349  1
  Tc  Tc10  1  0.999542  0.250001  0.876323  1
  Ru  Ru11  1  0.000352  0.749999  0.125017  1
  W  W12  1  0.744301  0.250001  0.125019  1
  W  W13  1  0.252315  0.749999  0.377292  1
  W  W14  1  0.750790  0.250001  0.625033  1
  W  W15  1  0.252122  0.749999  0.872668  1
