# generated using pymatgen
data_TmLu(Co3As2)2
_symmetry_space_group_name_H-M   'P 1'
_cell_length_a   3.77478300
_cell_length_b   10.86227803
_cell_length_c   12.63667304
_cell_angle_alpha   89.99135529
_cell_angle_beta   90.00000000
_cell_angle_gamma   90.00000000
_symmetry_Int_Tables_number   1
_chemical_formula_structural   TmLu(Co3As2)2
_chemical_formula_sum   'Tm3 Lu3 Co18 As12'
_cell_volume   518.13824405
_cell_formula_units_Z   3
loop_
 _symmetry_equiv_pos_site_id
 _symmetry_equiv_pos_as_xyz
  1  'x, y, z'
loop_
 _atom_site_type_symbol
 _atom_site_label
 _atom_site_symmetry_multiplicity
 _atom_site_fract_x
 _atom_site_fract_y
 _atom_site_fract_z
 _atom_site_occupancy
  Tm  Tm0  1  0.000000  0.500117  0.523623  1
  Tm  Tm1  1  0.500000  0.000072  0.476379  1
  Tm  Tm2  1  0.500000  0.818701  0.206540  1
  Lu  Lu3  1  0.500000  0.180953  0.206942  1
  Lu  Lu4  1  0.000000  0.680916  0.793437  1
  Lu  Lu5  1  0.000000  0.319245  0.792965  1
  Co  Co6  1  0.500000  0.499853  0.157129  1
  Co  Co7  1  0.000000  0.999949  0.842678  1
  Co  Co8  1  0.500000  0.499908  0.703739  1
  Co  Co9  1  0.000000  0.000381  0.296450  1
  Co  Co10  1  0.000000  0.499493  0.986797  1
  Co  Co11  1  0.500000  0.000372  0.012714  1
  Co  Co12  1  0.500000  0.332528  0.996029  1
  Co  Co13  1  0.500000  0.667046  0.995649  1
  Co  Co14  1  0.000000  0.167300  0.003686  1
  Co  Co15  1  0.000000  0.832777  0.003918  1
  Co  Co16  1  0.500000  0.298464  0.431633  1
  Co  Co17  1  0.500000  0.701928  0.431580  1
  Co  Co18  1  0.000000  0.201735  0.568524  1
  Co  Co19  1  0.000000  0.798390  0.568985  1
  Co  Co20  1  0.500000  0.878627  0.707170  1
  Co  Co21  1  0.500000  0.121669  0.706652  1
  Co  Co22  1  0.000000  0.621056  0.293504  1
  Co  Co23  1  0.000000  0.378547  0.293201  1
  As  As24  1  0.500000  0.499774  0.880669  1
  As  As25  1  0.000000  0.000400  0.119024  1
  As  As26  1  0.500000  0.500086  0.348196  1
  As  As27  1  0.000000  0.999997  0.651855  1
  As  As28  1  0.500000  0.314531  0.616821  1
  As  As29  1  0.500000  0.685610  0.617033  1
  As  As30  1  0.000000  0.185762  0.383255  1
  As  As31  1  0.000000  0.814519  0.383656  1
  As  As32  1  0.500000  0.845642  0.889092  1
  As  As33  1  0.500000  0.154522  0.888721  1
  As  As34  1  0.000000  0.653671  0.110701  1
  As  As35  1  0.000000  0.345461  0.111053  1
