# generated using pymatgen
data_Yb2B(PdPt2)2
_symmetry_space_group_name_H-M   'P 1'
_cell_length_a   5.86523350
_cell_length_b   5.86523334
_cell_length_c   5.92929300
_cell_angle_alpha   59.63803737
_cell_angle_beta   59.63803830
_cell_angle_gamma   60.52526996
_symmetry_Int_Tables_number   1
_chemical_formula_structural   Yb2B(PdPt2)2
_chemical_formula_sum   'Yb2 B1 Pd2 Pt4'
_cell_volume   143.99113160
_cell_formula_units_Z   1
loop_
 _symmetry_equiv_pos_site_id
 _symmetry_equiv_pos_as_xyz
  1  'x, y, z'
loop_
 _atom_site_type_symbol
 _atom_site_label
 _atom_site_symmetry_multiplicity
 _atom_site_fract_x
 _atom_site_fract_y
 _atom_site_fract_z
 _atom_site_occupancy
  Yb  Yb0  1  0.249866  0.249866  0.249731  1
  Yb  Yb1  1  0.750134  0.750134  0.749463  1
  B  B2  1  0.000000  0.000000  0.004296  1
  Pd  Pd3  1  0.743719  0.256281  0.742850  1
  Pd  Pd4  1  0.256281  0.743719  0.742850  1
  Pt  Pt5  1  0.741602  0.258398  0.256921  1
  Pt  Pt6  1  0.258398  0.741602  0.256921  1
  Pt  Pt7  1  0.743669  0.743669  0.254815  1
  Pt  Pt8  1  0.256331  0.256331  0.742153  1
