# generated using pymatgen
data_Nd8Nb11Si16Os
_symmetry_space_group_name_H-M   'P 1'
_cell_length_a   6.99166861
_cell_length_b   7.22145718
_cell_length_c   13.58864900
_cell_angle_alpha   90.02573029
_cell_angle_beta   89.96108258
_cell_angle_gamma   89.92959438
_symmetry_Int_Tables_number   1
_chemical_formula_structural   Nd8Nb11Si16Os
_chemical_formula_sum   'Nd8 Nb11 Si16 Os1'
_cell_volume   686.09062505
_cell_formula_units_Z   1
loop_
 _symmetry_equiv_pos_site_id
 _symmetry_equiv_pos_as_xyz
  1  'x, y, z'
loop_
 _atom_site_type_symbol
 _atom_site_label
 _atom_site_symmetry_multiplicity
 _atom_site_fract_x
 _atom_site_fract_y
 _atom_site_fract_z
 _atom_site_occupancy
  Nd  Nd0  1  0.505304  0.331634  0.095859  1
  Nd  Nd1  1  0.002972  0.170567  0.404196  1
  Nd  Nd2  1  0.495146  0.667848  0.595713  1
  Nd  Nd3  1  0.996822  0.832640  0.903388  1
  Nd  Nd4  1  0.494658  0.668246  0.902017  1
  Nd  Nd5  1  0.994995  0.831806  0.595674  1
  Nd  Nd6  1  0.504883  0.330670  0.405233  1
  Nd  Nd7  1  0.005982  0.169530  0.096514  1
  Nb  Nb8  1  0.839296  0.327940  0.625461  1
  Nb  Nb9  1  0.337851  0.173538  0.871240  1
  Nb  Nb10  1  0.162641  0.675121  0.127026  1
  Nb  Nb11  1  0.659933  0.829344  0.375406  1
  Nb  Nb12  1  0.165303  0.674583  0.376081  1
  Nb  Nb13  1  0.662942  0.825333  0.126988  1
  Nb  Nb14  1  0.837606  0.324163  0.871660  1
  Nb  Nb15  1  0.664790  0.013581  0.749385  1
  Nb  Nb16  1  0.159617  0.486061  0.748792  1
  Nb  Nb17  1  0.338155  0.990641  0.251347  1
  Nb  Nb18  1  0.838960  0.511745  0.250261  1
  Si  Si19  1  0.650476  0.043377  0.546567  1
  Si  Si20  1  0.157347  0.459066  0.956493  1
  Si  Si21  1  0.342423  0.958726  0.042828  1
  Si  Si22  1  0.842426  0.542825  0.456544  1
  Si  Si23  1  0.339886  0.960207  0.459365  1
  Si  Si24  1  0.842987  0.540435  0.042361  1
  Si  Si25  1  0.656025  0.039150  0.957001  1
  Si  Si26  1  0.160280  0.451953  0.546263  1
  Si  Si27  1  0.536320  0.366869  0.746418  1
  Si  Si28  1  0.044856  0.130211  0.747447  1
  Si  Si29  1  0.459613  0.629266  0.251280  1
  Si  Si30  1  0.958736  0.870813  0.251252  1
  Si  Si31  1  0.797497  0.615741  0.749315  1
  Si  Si32  1  0.301636  0.888172  0.748380  1
  Si  Si33  1  0.203682  0.383498  0.250688  1
  Si  Si34  1  0.702092  0.117434  0.249989  1
  Os  Os35  1  0.335860  0.167269  0.625574  1
