# generated using pymatgen
data_Yb3Lu(OsC2)2
_symmetry_space_group_name_H-M   'P 1'
_cell_length_a   5.09281300
_cell_length_b   6.43155872
_cell_length_c   10.05692519
_cell_angle_alpha   90.71833079
_cell_angle_beta   90.00000000
_cell_angle_gamma   90.00000000
_symmetry_Int_Tables_number   1
_chemical_formula_structural   Yb3Lu(OsC2)2
_chemical_formula_sum   'Yb6 Lu2 Os4 C8'
_cell_volume   329.38593893
_cell_formula_units_Z   2
loop_
 _symmetry_equiv_pos_site_id
 _symmetry_equiv_pos_as_xyz
  1  'x, y, z'
loop_
 _atom_site_type_symbol
 _atom_site_label
 _atom_site_symmetry_multiplicity
 _atom_site_fract_x
 _atom_site_fract_y
 _atom_site_fract_z
 _atom_site_occupancy
  Yb  Yb0  1  0.750000  0.807431  0.053687  1
  Yb  Yb1  1  0.250000  0.192569  0.946313  1
  Yb  Yb2  1  0.250000  0.533697  0.221658  1
  Yb  Yb3  1  0.750000  0.466303  0.778342  1
  Yb  Yb4  1  0.750000  0.966622  0.723940  1
  Yb  Yb5  1  0.250000  0.033378  0.276060  1
  Lu  Lu6  1  0.250000  0.678965  0.553979  1
  Lu  Lu7  1  0.750000  0.321035  0.446021  1
  Os  Os8  1  0.250000  0.727988  0.852127  1
  Os  Os9  1  0.750000  0.272012  0.147873  1
  Os  Os10  1  0.750000  0.774805  0.361824  1
  Os  Os11  1  0.250000  0.225195  0.638176  1
  C  C12  1  0.250000  0.464207  0.752716  1
  C  C13  1  0.750000  0.535793  0.247284  1
  C  C14  1  0.750000  0.039909  0.267613  1
  C  C15  1  0.250000  0.960091  0.732387  1
  C  C16  1  0.250000  0.799022  0.030787  1
  C  C17  1  0.750000  0.200978  0.969213  1
  C  C18  1  0.750000  0.679404  0.540106  1
  C  C19  1  0.250000  0.320596  0.459894  1
