# generated using pymatgen
data_Tb3U5Re3TcB24
_symmetry_space_group_name_H-M   'P 1'
_cell_length_a   3.64483100
_cell_length_b   9.31327338
_cell_length_c   11.41330721
_cell_angle_alpha   90.00527608
_cell_angle_beta   90.00000000
_cell_angle_gamma   90.00000000
_symmetry_Int_Tables_number   1
_chemical_formula_structural   Tb3U5Re3TcB24
_chemical_formula_sum   'Tb3 U5 Re3 Tc1 B24'
_cell_volume   387.42822146
_cell_formula_units_Z   1
loop_
 _symmetry_equiv_pos_site_id
 _symmetry_equiv_pos_as_xyz
  1  'x, y, z'
loop_
 _atom_site_type_symbol
 _atom_site_label
 _atom_site_symmetry_multiplicity
 _atom_site_fract_x
 _atom_site_fract_y
 _atom_site_fract_z
 _atom_site_occupancy
  Tb  Tb0  1  0.000000  0.337155  0.407719  1
  Tb  Tb1  1  0.000000  0.663133  0.592002  1
  Tb  Tb2  1  0.000000  0.835825  0.092912  1
  U  U3  1  0.000000  0.163462  0.907299  1
  U  U4  1  0.000000  0.956263  0.396818  1
  U  U5  1  0.000000  0.042511  0.603228  1
  U  U6  1  0.000000  0.457859  0.103962  1
  U  U7  1  0.000000  0.543330  0.897242  1
  Re  Re8  1  0.000000  0.351896  0.684058  1
  Re  Re9  1  0.000000  0.146273  0.178008  1
  Re  Re10  1  0.000000  0.857156  0.819227  1
  Tc  Tc11  1  0.000000  0.645889  0.318692  1
  B  B12  1  0.500000  0.552218  0.430915  1
  B  B13  1  0.500000  0.447240  0.569909  1
  B  B14  1  0.500000  0.052941  0.067620  1
  B  B15  1  0.500000  0.950083  0.930289  1
  B  B16  1  0.500000  0.743201  0.422846  1
  B  B17  1  0.500000  0.256614  0.577075  1
  B  B18  1  0.500000  0.243092  0.075975  1
  B  B19  1  0.500000  0.756381  0.922533  1
  B  B20  1  0.500000  0.802333  0.275061  1
  B  B21  1  0.500000  0.196285  0.726509  1
  B  B22  1  0.500000  0.302455  0.224893  1
  B  B23  1  0.500000  0.697937  0.774893  1
  B  B24  1  0.500000  0.643994  0.188728  1
  B  B25  1  0.500000  0.354583  0.812344  1
  B  B26  1  0.500000  0.144279  0.310989  1
  B  B27  1  0.500000  0.855343  0.688300  1
  B  B28  1  0.500000  0.989627  0.219510  1
  B  B29  1  0.500000  0.012860  0.780986  1
  B  B30  1  0.500000  0.489332  0.280709  1
  B  B31  1  0.500000  0.510671  0.719832  1
  B  B32  1  0.500000  0.640510  0.038784  1
  B  B33  1  0.500000  0.357423  0.960654  1
  B  B34  1  0.500000  0.139701  0.460907  1
  B  B35  1  0.500000  0.860144  0.538570  1
