# generated using pymatgen
data_SrCrFe(Sb6Pt)2
_symmetry_space_group_name_H-M   'P 1'
_cell_length_a   8.11491451
_cell_length_b   8.15938500
_cell_length_c   8.15988051
_cell_angle_alpha   109.65226640
_cell_angle_beta   109.19665621
_cell_angle_gamma   109.23371642
_symmetry_Int_Tables_number   1
_chemical_formula_structural   SrCrFe(Sb6Pt)2
_chemical_formula_sum   'Sr1 Cr1 Fe1 Sb12 Pt2'
_cell_volume   417.59810646
_cell_formula_units_Z   1
loop_
 _symmetry_equiv_pos_site_id
 _symmetry_equiv_pos_as_xyz
  1  'x, y, z'
loop_
 _atom_site_type_symbol
 _atom_site_label
 _atom_site_symmetry_multiplicity
 _atom_site_fract_x
 _atom_site_fract_y
 _atom_site_fract_z
 _atom_site_occupancy
  Sr  Sr0  1  0.000000  0.000000  0.000000  1
  Cr  Cr1  1  0.500000  0.000000  0.000000  1
  Fe  Fe2  1  0.500000  0.500000  0.500000  1
  Sb  Sb3  1  0.350097  0.182577  0.851079  1
  Sb  Sb4  1  0.649903  0.817423  0.148921  1
  Sb  Sb5  1  0.648039  0.500359  0.829747  1
  Sb  Sb6  1  0.351961  0.499641  0.170253  1
  Sb  Sb7  1  0.196810  0.847179  0.348138  1
  Sb  Sb8  1  0.803190  0.152821  0.651862  1
  Sb  Sb9  1  0.505099  0.834421  0.668465  1
  Sb  Sb10  1  0.494901  0.165579  0.331535  1
  Sb  Sb11  1  0.833413  0.331362  0.182401  1
  Sb  Sb12  1  0.166587  0.668638  0.817599  1
  Sb  Sb13  1  0.832290  0.650484  0.501829  1
  Sb  Sb14  1  0.167710  0.349516  0.498171  1
  Pt  Pt15  1  0.000000  0.000000  0.500000  1
  Pt  Pt16  1  0.000000  0.500000  0.000000  1
