# generated using pymatgen
data_DySi2Ni8Rh
_symmetry_space_group_name_H-M   'P 1'
_cell_length_a   7.62623556
_cell_length_b   7.62636323
_cell_length_c   7.62623747
_cell_angle_alpha   99.47745269
_cell_angle_beta   99.40060388
_cell_angle_gamma   132.22086407
_symmetry_Int_Tables_number   1
_chemical_formula_structural   DySi2Ni8Rh
_chemical_formula_sum   'Dy2 Si4 Ni16 Rh2'
_cell_volume   300.33336970
_cell_formula_units_Z   2
loop_
 _symmetry_equiv_pos_site_id
 _symmetry_equiv_pos_as_xyz
  1  'x, y, z'
loop_
 _atom_site_type_symbol
 _atom_site_label
 _atom_site_symmetry_multiplicity
 _atom_site_fract_x
 _atom_site_fract_y
 _atom_site_fract_z
 _atom_site_occupancy
  Dy  Dy0  1  0.499671  0.499772  0.000101  1
  Dy  Dy1  1  0.750329  0.250228  0.499899  1
  Si  Si2  1  0.625000  0.875000  0.750000  1
  Si  Si3  1  0.125000  0.375000  0.250000  1
  Si  Si4  1  0.125000  0.875000  0.750000  1
  Si  Si5  1  0.125000  0.875000  0.250000  1
  Ni  Ni6  1  0.685573  0.015958  0.081612  1
  Ni  Ni7  1  0.685123  0.603280  0.669810  1
  Ni  Ni8  1  0.266352  0.435334  0.582185  1
  Ni  Ni9  1  0.266357  0.684600  0.830991  1
  Ni  Ni10  1  0.934345  0.015958  0.330385  1
  Ni  Ni11  1  0.933469  0.603280  0.918157  1
  Ni  Ni12  1  0.853149  0.435334  0.168983  1
  Ni  Ni13  1  0.853609  0.684600  0.418244  1
  Ni  Ni14  1  0.564427  0.734042  0.418388  1
  Ni  Ni15  1  0.564877  0.146720  0.830190  1
  Ni  Ni16  1  0.983648  0.314666  0.917815  1
  Ni  Ni17  1  0.983643  0.065400  0.669009  1
  Ni  Ni18  1  0.315655  0.734042  0.169615  1
  Ni  Ni19  1  0.316531  0.146720  0.581843  1
  Ni  Ni20  1  0.396851  0.314666  0.331017  1
  Ni  Ni21  1  0.396391  0.065400  0.081756  1
  Rh  Rh22  1  0.249808  0.749771  0.499963  1
  Rh  Rh23  1  0.000192  0.000229  0.000037  1
