# generated using pymatgen
data_Li8Tb3Dy5SnBi2Pb5
_symmetry_space_group_name_H-M   'P 1'
_cell_length_a   9.54292857
_cell_length_b   9.54568555
_cell_length_c   7.31472100
_cell_angle_alpha   89.99935382
_cell_angle_beta   90.08479526
_cell_angle_gamma   120.01528623
_symmetry_Int_Tables_number   1
_chemical_formula_structural   Li8Tb3Dy5SnBi2Pb5
_chemical_formula_sum   'Li8 Tb3 Dy5 Sn1 Bi2 Pb5'
_cell_volume   576.96523848
_cell_formula_units_Z   1
loop_
 _symmetry_equiv_pos_site_id
 _symmetry_equiv_pos_as_xyz
  1  'x, y, z'
loop_
 _atom_site_type_symbol
 _atom_site_label
 _atom_site_symmetry_multiplicity
 _atom_site_fract_x
 _atom_site_fract_y
 _atom_site_fract_z
 _atom_site_occupancy
  Li  Li0  1  0.167679  0.334285  0.283031  1
  Li  Li1  1  0.167696  0.833388  0.283031  1
  Li  Li2  1  0.664995  0.832460  0.285070  1
  Li  Li3  1  0.829992  0.663821  0.785560  1
  Li  Li4  1  0.830024  0.166248  0.785568  1
  Li  Li5  1  0.337422  0.168732  0.789669  1
  Li  Li6  1  0.335937  0.667979  0.671506  1
  Li  Li7  1  0.666371  0.333182  0.174056  1
  Tb  Tb8  1  0.516308  0.027347  0.493054  1
  Tb  Tb9  1  0.516309  0.488993  0.493010  1
  Tb  Tb10  1  0.971575  0.485783  0.491333  1
  Dy  Dy11  1  0.492498  0.979829  0.995648  1
  Dy  Dy12  1  0.492519  0.512677  0.995601  1
  Dy  Dy13  1  0.017206  0.508588  0.996858  1
  Dy  Dy14  1  0.996763  0.998368  0.496936  1
  Dy  Dy15  1  0.996973  0.998510  0.004149  1
  Sn  Sn16  1  0.667199  0.333563  0.762044  1
  Bi  Bi17  1  0.166300  0.333459  0.734069  1
  Bi  Bi18  1  0.166299  0.832827  0.734007  1
  Pb  Pb19  1  0.666816  0.833506  0.732045  1
  Pb  Pb20  1  0.833941  0.667012  0.232631  1
  Pb  Pb21  1  0.833770  0.166705  0.232632  1
  Pb  Pb22  1  0.333418  0.166709  0.231864  1
  Pb  Pb23  1  0.331989  0.666026  0.258622  1
