# generated using pymatgen
data_YHoMnC2
_symmetry_space_group_name_H-M   'P 1'
_cell_length_a   5.03648000
_cell_length_b   6.35600700
_cell_length_c   9.64384600
_cell_angle_alpha   90.00000000
_cell_angle_beta   90.00000000
_cell_angle_gamma   90.00000000
_symmetry_Int_Tables_number   1
_chemical_formula_structural   YHoMnC2
_chemical_formula_sum   'Y4 Ho4 Mn4 C8'
_cell_volume   308.71785436
_cell_formula_units_Z   4
loop_
 _symmetry_equiv_pos_site_id
 _symmetry_equiv_pos_as_xyz
  1  'x, y, z'
loop_
 _atom_site_type_symbol
 _atom_site_label
 _atom_site_symmetry_multiplicity
 _atom_site_fract_x
 _atom_site_fract_y
 _atom_site_fract_z
 _atom_site_occupancy
  Y  Y0  1  0.250000  0.523842  0.213973  1
  Y  Y1  1  0.750000  0.476158  0.786027  1
  Y  Y2  1  0.750000  0.976158  0.713973  1
  Y  Y3  1  0.250000  0.023842  0.286027  1
  Ho  Ho4  1  0.250000  0.682493  0.555095  1
  Ho  Ho5  1  0.750000  0.317507  0.444905  1
  Ho  Ho6  1  0.750000  0.817507  0.055095  1
  Ho  Ho7  1  0.250000  0.182493  0.944905  1
  Mn  Mn8  1  0.250000  0.730779  0.856992  1
  Mn  Mn9  1  0.750000  0.269221  0.143008  1
  Mn  Mn10  1  0.750000  0.769221  0.356992  1
  Mn  Mn11  1  0.250000  0.230779  0.643008  1
  C  C12  1  0.250000  0.464638  0.760536  1
  C  C13  1  0.750000  0.535362  0.239464  1
  C  C14  1  0.750000  0.035362  0.260536  1
  C  C15  1  0.250000  0.964638  0.739464  1
  C  C16  1  0.250000  0.811870  0.035189  1
  C  C17  1  0.750000  0.188130  0.964811  1
  C  C18  1  0.750000  0.688130  0.535189  1
  C  C19  1  0.250000  0.311870  0.464811  1
