# generated using pymatgen
data_Tb8Tm3Lu9Pb16
_symmetry_space_group_name_H-M   'P 1'
_cell_length_a   8.13977211
_cell_length_b   8.21535312
_cell_length_c   15.48567601
_cell_angle_alpha   89.99609369
_cell_angle_beta   90.00040360
_cell_angle_gamma   89.98104754
_symmetry_Int_Tables_number   1
_chemical_formula_structural   Tb8Tm3Lu9Pb16
_chemical_formula_sum   'Tb8 Tm3 Lu9 Pb16'
_cell_volume   1035.54416377
_cell_formula_units_Z   1
loop_
 _symmetry_equiv_pos_site_id
 _symmetry_equiv_pos_as_xyz
  1  'x, y, z'
loop_
 _atom_site_type_symbol
 _atom_site_label
 _atom_site_symmetry_multiplicity
 _atom_site_fract_x
 _atom_site_fract_y
 _atom_site_fract_z
 _atom_site_occupancy
  Tb  Tb0  1  0.535332  0.322754  0.900393  1
  Tb  Tb1  1  0.035261  0.177195  0.599595  1
  Tb  Tb2  1  0.464707  0.677160  0.400391  1
  Tb  Tb3  1  0.964719  0.822738  0.099583  1
  Tb  Tb4  1  0.464695  0.677246  0.099703  1
  Tb  Tb5  1  0.964781  0.822684  0.400299  1
  Tb  Tb6  1  0.535230  0.322704  0.599678  1
  Tb  Tb7  1  0.035267  0.177362  0.900432  1
  Tm  Tm8  1  0.376064  0.840991  0.878744  1
  Tm  Tm9  1  0.876070  0.658990  0.621291  1
  Tm  Tm10  1  0.623965  0.159025  0.378687  1
  Lu  Lu11  1  0.123971  0.341022  0.121329  1
  Lu  Lu12  1  0.624000  0.158874  0.121248  1
  Lu  Lu13  1  0.124039  0.341069  0.378715  1
  Lu  Lu14  1  0.375991  0.841069  0.621267  1
  Lu  Lu15  1  0.875964  0.658956  0.878704  1
  Lu  Lu16  1  0.207349  0.505216  0.749993  1
  Lu  Lu17  1  0.707334  0.994727  0.750014  1
  Lu  Lu18  1  0.792760  0.494707  0.249913  1
  Lu  Lu19  1  0.292563  0.005413  0.249951  1
  Pb  Pb20  1  0.283459  0.034942  0.043089  1
  Pb  Pb21  1  0.783626  0.465443  0.456969  1
  Pb  Pb22  1  0.716339  0.965466  0.543026  1
  Pb  Pb23  1  0.216245  0.534366  0.957173  1
  Pb  Pb24  1  0.716778  0.965390  0.957181  1
  Pb  Pb25  1  0.216760  0.534600  0.542837  1
  Pb  Pb26  1  0.283235  0.034608  0.457173  1
  Pb  Pb27  1  0.783580  0.465295  0.042879  1
  Pb  Pb28  1  0.570097  0.628703  0.749948  1
  Pb  Pb29  1  0.070146  0.871283  0.750064  1
  Pb  Pb30  1  0.429702  0.371304  0.249868  1
  Pb  Pb31  1  0.930044  0.128860  0.249936  1
  Pb  Pb32  1  0.345920  0.152571  0.749937  1
  Pb  Pb33  1  0.845931  0.347447  0.750054  1
  Pb  Pb34  1  0.654040  0.847412  0.249943  1
  Pb  Pb35  1  0.154034  0.652405  0.249993  1
