# generated using pymatgen
data_Ho3Al12RuRh3
_symmetry_space_group_name_H-M   'P 1'
_cell_length_a   8.81141900
_cell_length_b   8.81141901
_cell_length_c   9.48143200
_cell_angle_alpha   90.00000000
_cell_angle_beta   90.00000000
_cell_angle_gamma   119.99999620
_symmetry_Int_Tables_number   1
_chemical_formula_structural   Ho3Al12RuRh3
_chemical_formula_sum   'Ho6 Al24 Ru2 Rh6'
_cell_volume   637.52363512
_cell_formula_units_Z   2
loop_
 _symmetry_equiv_pos_site_id
 _symmetry_equiv_pos_as_xyz
  1  'x, y, z'
loop_
 _atom_site_type_symbol
 _atom_site_label
 _atom_site_symmetry_multiplicity
 _atom_site_fract_x
 _atom_site_fract_y
 _atom_site_fract_z
 _atom_site_occupancy
  Ho  Ho0  1  0.191770  0.383541  0.250000  1
  Ho  Ho1  1  0.808230  0.616459  0.750000  1
  Ho  Ho2  1  0.616459  0.808230  0.250000  1
  Ho  Ho3  1  0.383541  0.191770  0.750000  1
  Ho  Ho4  1  0.191770  0.808230  0.250000  1
  Ho  Ho5  1  0.808230  0.191770  0.750000  1
  Al  Al6  1  0.333333  0.666667  0.031999  1
  Al  Al7  1  0.666667  0.333333  0.968001  1
  Al  Al8  1  0.666667  0.333333  0.531999  1
  Al  Al9  1  0.333333  0.666667  0.468001  1
  Al  Al10  1  0.163022  0.326045  0.576302  1
  Al  Al11  1  0.836978  0.673955  0.423698  1
  Al  Al12  1  0.673955  0.836978  0.576302  1
  Al  Al13  1  0.836978  0.673955  0.076302  1
  Al  Al14  1  0.326045  0.163022  0.423698  1
  Al  Al15  1  0.163022  0.326045  0.923698  1
  Al  Al16  1  0.163022  0.836978  0.576302  1
  Al  Al17  1  0.326045  0.163022  0.076302  1
  Al  Al18  1  0.836978  0.163022  0.423698  1
  Al  Al19  1  0.673955  0.836978  0.923698  1
  Al  Al20  1  0.836978  0.163022  0.076302  1
  Al  Al21  1  0.163022  0.836978  0.923698  1
  Al  Al22  1  0.561795  0.123591  0.250000  1
  Al  Al23  1  0.438205  0.876409  0.750000  1
  Al  Al24  1  0.876409  0.438205  0.250000  1
  Al  Al25  1  0.123591  0.561795  0.750000  1
  Al  Al26  1  0.561795  0.438205  0.250000  1
  Al  Al27  1  0.438205  0.561795  0.750000  1
  Al  Al28  1  0.000000  0.000000  0.250000  1
  Al  Al29  1  0.000000  0.000000  0.750000  1
  Ru  Ru30  1  0.000000  0.000000  0.000000  1
  Ru  Ru31  1  0.000000  0.000000  0.500000  1
  Rh  Rh32  1  0.500000  0.000000  0.000000  1
  Rh  Rh33  1  0.000000  0.500000  0.000000  1
  Rh  Rh34  1  0.500000  0.000000  0.500000  1
  Rh  Rh35  1  0.500000  0.500000  0.000000  1
  Rh  Rh36  1  0.000000  0.500000  0.500000  1
  Rh  Rh37  1  0.500000  0.500000  0.500000  1
