# generated using pymatgen
data_Tb11YPdRh3
_symmetry_space_group_name_H-M   'P 1'
_cell_length_a   6.34711722
_cell_length_b   7.18574422
_cell_length_c   9.58959900
_cell_angle_alpha   90.00000000
_cell_angle_beta   90.00000000
_cell_angle_gamma   89.91021441
_symmetry_Int_Tables_number   1
_chemical_formula_structural   Tb11YPdRh3
_chemical_formula_sum   'Tb11 Y1 Pd1 Rh3'
_cell_volume   437.36919075
_cell_formula_units_Z   1
loop_
 _symmetry_equiv_pos_site_id
 _symmetry_equiv_pos_as_xyz
  1  'x, y, z'
loop_
 _atom_site_type_symbol
 _atom_site_label
 _atom_site_symmetry_multiplicity
 _atom_site_fract_x
 _atom_site_fract_y
 _atom_site_fract_z
 _atom_site_occupancy
  Tb  Tb0  1  0.333694  0.675691  0.061022  1
  Tb  Tb1  1  0.171552  0.182289  0.439698  1
  Tb  Tb2  1  0.671685  0.320808  0.563966  1
  Tb  Tb3  1  0.829347  0.822120  0.934939  1
  Tb  Tb4  1  0.671685  0.320808  0.936034  1
  Tb  Tb5  1  0.829347  0.822120  0.565061  1
  Tb  Tb6  1  0.333694  0.675691  0.438978  1
  Tb  Tb7  1  0.171552  0.182289  0.060302  1
  Tb  Tb8  1  0.628557  0.034581  0.250000  1
  Tb  Tb9  1  0.134515  0.467341  0.750000  1
  Tb  Tb10  1  0.364083  0.967162  0.750000  1
  Y  Y11  1  0.862090  0.524631  0.250000  1
  Pd  Pd12  1  0.062792  0.885784  0.250000  1
  Rh  Rh13  1  0.436421  0.382468  0.250000  1
  Rh  Rh14  1  0.940292  0.118462  0.750000  1
  Rh  Rh15  1  0.558697  0.617755  0.750000  1
