# generated using pymatgen
data_Ce3Er(MgIr)4
_symmetry_space_group_name_H-M   'P 1'
_cell_length_a   7.08832351
_cell_length_b   4.07804600
_cell_length_c   8.69735707
_cell_angle_alpha   90.00000000
_cell_angle_beta   90.31703115
_cell_angle_gamma   90.00000000
_symmetry_Int_Tables_number   1
_chemical_formula_structural   Ce3Er(MgIr)4
_chemical_formula_sum   'Ce3 Er1 Mg4 Ir4'
_cell_volume   251.40638469
_cell_formula_units_Z   1
loop_
 _symmetry_equiv_pos_site_id
 _symmetry_equiv_pos_as_xyz
  1  'x, y, z'
loop_
 _atom_site_type_symbol
 _atom_site_label
 _atom_site_symmetry_multiplicity
 _atom_site_fract_x
 _atom_site_fract_y
 _atom_site_fract_z
 _atom_site_occupancy
  Ce  Ce0  1  0.462468  0.250000  0.313398  1
  Ce  Ce1  1  0.036365  0.750000  0.824068  1
  Ce  Ce2  1  0.535607  0.750000  0.681138  1
  Er  Er3  1  0.958294  0.250000  0.179483  1
  Mg  Mg4  1  0.865467  0.250000  0.555966  1
  Mg  Mg5  1  0.365682  0.250000  0.944992  1
  Mg  Mg6  1  0.130887  0.750000  0.439160  1
  Mg  Mg7  1  0.639599  0.750000  0.057924  1
  Ir  Ir8  1  0.759131  0.250000  0.865165  1
  Ir  Ir9  1  0.257926  0.250000  0.634770  1
  Ir  Ir10  1  0.248586  0.750000  0.133895  1
  Ir  Ir11  1  0.739987  0.750000  0.370041  1
