# generated using pymatgen
data_NdErNi2(B4Os3)2
_symmetry_space_group_name_H-M   'P 1'
_cell_length_a   7.60677789
_cell_length_b   7.28034386
_cell_length_c   4.00108300
_cell_angle_alpha   90.00000000
_cell_angle_beta   90.00000000
_cell_angle_gamma   87.61856198
_symmetry_Int_Tables_number   1
_chemical_formula_structural   NdErNi2(B4Os3)2
_chemical_formula_sum   'Nd1 Er1 Ni2 B8 Os6'
_cell_volume   221.38844287
_cell_formula_units_Z   1
loop_
 _symmetry_equiv_pos_site_id
 _symmetry_equiv_pos_as_xyz
  1  'x, y, z'
loop_
 _atom_site_type_symbol
 _atom_site_label
 _atom_site_symmetry_multiplicity
 _atom_site_fract_x
 _atom_site_fract_y
 _atom_site_fract_z
 _atom_site_occupancy
  Nd  Nd0  1  0.500000  0.500000  0.989241  1
  Er  Er1  1  0.000000  0.000000  0.404085  1
  Ni  Ni2  1  0.359375  0.114502  0.118738  1
  Ni  Ni3  1  0.640625  0.885498  0.118738  1
  B  B4  1  0.655146  0.808257  0.615601  1
  B  B5  1  0.173146  0.278421  0.892702  1
  B  B6  1  0.290275  0.833149  0.117812  1
  B  B7  1  0.709725  0.166851  0.117812  1
  B  B8  1  0.344854  0.191743  0.615601  1
  B  B9  1  0.826854  0.721579  0.892702  1
  B  B10  1  0.216988  0.666042  0.397321  1
  B  B11  1  0.783012  0.333958  0.397321  1
  Os  Os12  1  0.620744  0.130735  0.623578  1
  Os  Os13  1  0.101367  0.653794  0.894554  1
  Os  Os14  1  0.151758  0.384238  0.393031  1
  Os  Os15  1  0.848242  0.615762  0.393031  1
  Os  Os16  1  0.898633  0.346206  0.894554  1
  Os  Os17  1  0.379256  0.869265  0.623578  1
