# generated using pymatgen
data_Cs4Na2SmDySb4
_symmetry_space_group_name_H-M   'P 1'
_cell_length_a   11.68847931
_cell_length_b   11.68847800
_cell_length_c   7.62453800
_cell_angle_alpha   90.00000000
_cell_angle_beta   90.00000000
_cell_angle_gamma   99.55202456
_symmetry_Int_Tables_number   1
_chemical_formula_structural   Cs4Na2SmDySb4
_chemical_formula_sum   'Cs8 Na4 Sm2 Dy2 Sb8'
_cell_volume   1027.22605998
_cell_formula_units_Z   2
loop_
 _symmetry_equiv_pos_site_id
 _symmetry_equiv_pos_as_xyz
  1  'x, y, z'
loop_
 _atom_site_type_symbol
 _atom_site_label
 _atom_site_symmetry_multiplicity
 _atom_site_fract_x
 _atom_site_fract_y
 _atom_site_fract_z
 _atom_site_occupancy
  Cs  Cs0  1  0.070002  0.429998  0.250000  1
  Cs  Cs1  1  0.429998  0.070002  0.750000  1
  Cs  Cs2  1  0.929508  0.570492  0.750000  1
  Cs  Cs3  1  0.570492  0.929508  0.250000  1
  Cs  Cs4  1  0.677600  0.322828  0.212294  1
  Cs  Cs5  1  0.822400  0.177172  0.712294  1
  Cs  Cs6  1  0.322828  0.677600  0.787706  1
  Cs  Cs7  1  0.177172  0.822400  0.287706  1
  Na  Na8  1  0.382595  0.382595  0.000000  1
  Na  Na9  1  0.117405  0.117405  0.500000  1
  Na  Na10  1  0.618052  0.618052  0.000000  1
  Na  Na11  1  0.881948  0.881948  0.500000  1
  Sm  Sm12  1  0.130916  0.130916  0.000000  1
  Sm  Sm13  1  0.369084  0.369084  0.500000  1
  Dy  Dy14  1  0.868415  0.868415  0.000000  1
  Dy  Dy15  1  0.631585  0.631585  0.500000  1
  Sb  Sb16  1  0.841098  0.658901  0.250000  1
  Sb  Sb17  1  0.658901  0.841098  0.750000  1
  Sb  Sb18  1  0.155854  0.344145  0.750000  1
  Sb  Sb19  1  0.344145  0.155854  0.250000  1
  Sb  Sb20  1  0.902439  0.093581  0.212233  1
  Sb  Sb21  1  0.597561  0.406419  0.712233  1
  Sb  Sb22  1  0.093581  0.902439  0.787767  1
  Sb  Sb23  1  0.406419  0.597561  0.287767  1
