# generated using pymatgen
data_Nd5P12Ru17Rh2
_symmetry_space_group_name_H-M   'P 1'
_cell_length_a   12.67381200
_cell_length_b   12.63581119
_cell_length_c   4.02266600
_cell_angle_alpha   90.00000000
_cell_angle_beta   90.00000000
_cell_angle_gamma   120.09953887
_symmetry_Int_Tables_number   1
_chemical_formula_structural   Nd5P12Ru17Rh2
_chemical_formula_sum   'Nd5 P12 Ru17 Rh2'
_cell_volume   557.33782002
_cell_formula_units_Z   1
loop_
 _symmetry_equiv_pos_site_id
 _symmetry_equiv_pos_as_xyz
  1  'x, y, z'
loop_
 _atom_site_type_symbol
 _atom_site_label
 _atom_site_symmetry_multiplicity
 _atom_site_fract_x
 _atom_site_fract_y
 _atom_site_fract_z
 _atom_site_occupancy
  Nd  Nd0  1  0.001070  0.183756  0.500000  1
  Nd  Nd1  1  0.817314  0.816244  0.500000  1
  Nd  Nd2  1  0.184325  0.000000  0.500000  1
  Nd  Nd3  1  0.665596  0.331743  0.000000  1
  Nd  Nd4  1  0.333853  0.668257  0.000000  1
  P  P5  1  0.999157  0.811325  0.000000  1
  P  P6  1  0.187832  0.188675  0.000000  1
  P  P7  1  0.813313  0.000000  0.000000  1
  P  P8  1  0.695200  0.171022  0.500000  1
  P  P9  1  0.824029  0.521779  0.500000  1
  P  P10  1  0.476220  0.301602  0.500000  1
  P  P11  1  0.174618  0.698398  0.500000  1
  P  P12  1  0.524178  0.828978  0.500000  1
  P  P13  1  0.302250  0.478221  0.500000  1
  P  P14  1  0.999756  0.372531  0.000000  1
  P  P15  1  0.627225  0.627469  0.000000  1
  P  P16  1  0.374695  0.000000  0.000000  1
  Ru  Ru17  1  0.554649  0.000000  0.000000  1
  Ru  Ru18  1  0.998970  0.712065  0.500000  1
  Ru  Ru19  1  0.286904  0.287935  0.500000  1
  Ru  Ru20  1  0.715592  0.000000  0.500000  1
  Ru  Ru21  1  0.806454  0.184629  0.000000  1
  Ru  Ru22  1  0.814168  0.619974  0.000000  1
  Ru  Ru23  1  0.377786  0.193438  0.000000  1
  Ru  Ru24  1  0.184348  0.806562  0.000000  1
  Ru  Ru25  1  0.621825  0.815371  0.000000  1
  Ru  Ru26  1  0.194194  0.380026  0.000000  1
  Ru  Ru27  1  0.875285  0.366971  0.500000  1
  Ru  Ru28  1  0.630695  0.507790  0.500000  1
  Ru  Ru29  1  0.492104  0.124075  0.500000  1
  Ru  Ru30  1  0.368030  0.875925  0.500000  1
  Ru  Ru31  1  0.508314  0.633029  0.500000  1
  Ru  Ru32  1  0.122905  0.492210  0.500000  1
  Ru  Ru33  1  0.000808  0.000000  0.000000  1
  Rh  Rh34  1  0.999806  0.553274  0.000000  1
  Rh  Rh35  1  0.446532  0.446726  0.000000  1
