# generated using pymatgen
data_LaTbEu2(NiAs)4
_symmetry_space_group_name_H-M   'P 1'
_cell_length_a   4.09131500
_cell_length_b   4.09131376
_cell_length_c   16.67659400
_cell_angle_alpha   90.00000000
_cell_angle_beta   90.00000000
_cell_angle_gamma   120.00001814
_symmetry_Int_Tables_number   1
_chemical_formula_structural   LaTbEu2(NiAs)4
_chemical_formula_sum   'La1 Tb1 Eu2 Ni4 As4'
_cell_volume   241.74840218
_cell_formula_units_Z   1
loop_
 _symmetry_equiv_pos_site_id
 _symmetry_equiv_pos_as_xyz
  1  'x, y, z'
loop_
 _atom_site_type_symbol
 _atom_site_label
 _atom_site_symmetry_multiplicity
 _atom_site_fract_x
 _atom_site_fract_y
 _atom_site_fract_z
 _atom_site_occupancy
  La  La0  1  0.000000  0.000000  0.500000  1
  Tb  Tb1  1  0.000000  0.000000  0.000000  1
  Eu  Eu2  1  0.000000  0.000000  0.245319  1
  Eu  Eu3  1  0.000000  0.000000  0.754681  1
  Ni  Ni4  1  0.333333  0.666667  0.115062  1
  Ni  Ni5  1  0.666667  0.333333  0.884938  1
  Ni  Ni6  1  0.666667  0.333333  0.624002  1
  Ni  Ni7  1  0.333333  0.666667  0.375998  1
  As  As8  1  0.333333  0.666667  0.628322  1
  As  As9  1  0.666667  0.333333  0.371678  1
  As  As10  1  0.666667  0.333333  0.117110  1
  As  As11  1  0.333333  0.666667  0.882890  1
