# generated using pymatgen
data_DyEr2V(Co4P3)2
_symmetry_space_group_name_H-M   'P 1'
_cell_length_a   3.67275200
_cell_length_b   10.51923300
_cell_length_c   12.18752800
_cell_angle_alpha   90.00000000
_cell_angle_beta   90.00000000
_cell_angle_gamma   90.00000000
_symmetry_Int_Tables_number   1
_chemical_formula_structural   DyEr2V(Co4P3)2
_chemical_formula_sum   'Dy2 Er4 V2 Co16 P12'
_cell_volume   470.85946537
_cell_formula_units_Z   2
loop_
 _symmetry_equiv_pos_site_id
 _symmetry_equiv_pos_as_xyz
  1  'x, y, z'
loop_
 _atom_site_type_symbol
 _atom_site_label
 _atom_site_symmetry_multiplicity
 _atom_site_fract_x
 _atom_site_fract_y
 _atom_site_fract_z
 _atom_site_occupancy
  Dy  Dy0  1  0.000000  0.500000  0.523279  1
  Dy  Dy1  1  0.500000  0.000000  0.476721  1
  Er  Er2  1  0.500000  0.819057  0.204304  1
  Er  Er3  1  0.500000  0.180943  0.204304  1
  Er  Er4  1  0.000000  0.680943  0.795696  1
  Er  Er5  1  0.000000  0.319057  0.795696  1
  V  V6  1  0.500000  0.500000  0.154100  1
  V  V7  1  0.000000  0.000000  0.845900  1
  Co  Co8  1  0.500000  0.500000  0.702389  1
  Co  Co9  1  0.000000  0.000000  0.297611  1
  Co  Co10  1  0.000000  0.500000  0.986927  1
  Co  Co11  1  0.500000  0.000000  0.013073  1
  Co  Co12  1  0.500000  0.332348  0.992810  1
  Co  Co13  1  0.500000  0.667652  0.992810  1
  Co  Co14  1  0.000000  0.167652  0.007190  1
  Co  Co15  1  0.000000  0.832348  0.007190  1
  Co  Co16  1  0.500000  0.295778  0.430969  1
  Co  Co17  1  0.500000  0.704222  0.430969  1
  Co  Co18  1  0.000000  0.204222  0.569031  1
  Co  Co19  1  0.000000  0.795778  0.569031  1
  Co  Co20  1  0.500000  0.878414  0.707799  1
  Co  Co21  1  0.500000  0.121586  0.707799  1
  Co  Co22  1  0.000000  0.621586  0.292201  1
  Co  Co23  1  0.000000  0.378414  0.292201  1
  P  P24  1  0.500000  0.500000  0.881761  1
  P  P25  1  0.000000  0.000000  0.118239  1
  P  P26  1  0.500000  0.500000  0.346851  1
  P  P27  1  0.000000  0.000000  0.653149  1
  P  P28  1  0.500000  0.311320  0.616341  1
  P  P29  1  0.500000  0.688680  0.616341  1
  P  P30  1  0.000000  0.188680  0.383659  1
  P  P31  1  0.000000  0.811320  0.383659  1
  P  P32  1  0.500000  0.845497  0.891470  1
  P  P33  1  0.500000  0.154503  0.891470  1
  P  P34  1  0.000000  0.654503  0.108530  1
  P  P35  1  0.000000  0.345497  0.108530  1
