# generated using pymatgen
data_Ho3Ga6Co5Ni4
_symmetry_space_group_name_H-M   'P 1'
_cell_length_a   4.07081800
_cell_length_b   8.71208462
_cell_length_c   8.71179016
_cell_angle_alpha   60.03308673
_cell_angle_beta   90.00000000
_cell_angle_gamma   90.00000000
_symmetry_Int_Tables_number   1
_chemical_formula_structural   Ho3Ga6Co5Ni4
_chemical_formula_sum   'Ho3 Ga6 Co5 Ni4'
_cell_volume   267.66186990
_cell_formula_units_Z   1
loop_
 _symmetry_equiv_pos_site_id
 _symmetry_equiv_pos_as_xyz
  1  'x, y, z'
loop_
 _atom_site_type_symbol
 _atom_site_label
 _atom_site_symmetry_multiplicity
 _atom_site_fract_x
 _atom_site_fract_y
 _atom_site_fract_z
 _atom_site_occupancy
  Ho  Ho0  1  0.500000  0.334146  0.333690  1
  Ho  Ho1  1  0.500000  0.664895  0.670609  1
  Ho  Ho2  1  0.000000  0.001417  0.998172  1
  Ga  Ga3  1  0.500000  0.727421  0.272414  1
  Ga  Ga4  1  0.500000  0.274933  0.999157  1
  Ga  Ga5  1  0.500000  0.999564  0.725175  1
  Ga  Ga6  1  0.000000  0.488001  0.508895  1
  Ga  Ga7  1  0.000000  0.509020  0.000532  1
  Ga  Ga8  1  0.000000  0.000493  0.490551  1
  Co  Co9  1  0.000000  0.187028  0.177825  1
  Co  Co10  1  0.000000  0.175708  0.637343  1
  Co  Co11  1  0.000000  0.636797  0.186676  1
  Co  Co12  1  0.000000  0.822266  0.813086  1
  Co  Co13  1  0.000000  0.365643  0.821229  1
  Ni  Ni14  1  0.000000  0.809832  0.368650  1
  Ni  Ni15  1  0.500000  0.298467  0.701389  1
  Ni  Ni16  1  0.500000  0.702250  0.999949  1
  Ni  Ni17  1  0.500000  0.002020  0.294754  1
