# generated using pymatgen
data_Ca3Yb2Ge12Rh19
_symmetry_space_group_name_H-M   'P 1'
_cell_length_a   13.10587800
_cell_length_b   13.10587639
_cell_length_c   4.09632300
_cell_angle_alpha   90.00000000
_cell_angle_beta   90.00000000
_cell_angle_gamma   119.99999903
_symmetry_Int_Tables_number   1
_chemical_formula_structural   Ca3Yb2Ge12Rh19
_chemical_formula_sum   'Ca3 Yb2 Ge12 Rh19'
_cell_volume   609.33625376
_cell_formula_units_Z   1
loop_
 _symmetry_equiv_pos_site_id
 _symmetry_equiv_pos_as_xyz
  1  'x, y, z'
loop_
 _atom_site_type_symbol
 _atom_site_label
 _atom_site_symmetry_multiplicity
 _atom_site_fract_x
 _atom_site_fract_y
 _atom_site_fract_z
 _atom_site_occupancy
  Ca  Ca0  1  0.000000  0.183104  0.500000  1
  Ca  Ca1  1  0.816896  0.816896  0.500000  1
  Ca  Ca2  1  0.183104  0.000000  0.500000  1
  Yb  Yb3  1  0.666667  0.333333  0.000000  1
  Yb  Yb4  1  0.333333  0.666667  0.000000  1
  Ge  Ge5  1  0.480547  0.316106  0.500000  1
  Ge  Ge6  1  0.817124  0.000000  0.000000  1
  Ge  Ge7  1  0.182876  0.182876  0.000000  1
  Ge  Ge8  1  0.000000  0.817124  0.000000  1
  Ge  Ge9  1  0.370360  0.000000  0.000000  1
  Ge  Ge10  1  0.683894  0.164440  0.500000  1
  Ge  Ge11  1  0.835560  0.519453  0.500000  1
  Ge  Ge12  1  0.519453  0.835560  0.500000  1
  Ge  Ge13  1  0.164440  0.683894  0.500000  1
  Ge  Ge14  1  0.316106  0.480547  0.500000  1
  Ge  Ge15  1  0.000000  0.370360  0.000000  1
  Ge  Ge16  1  0.629640  0.629640  0.000000  1
  Rh  Rh17  1  0.804423  0.183619  0.000000  1
  Rh  Rh18  1  0.379196  0.195577  0.000000  1
  Rh  Rh19  1  0.642533  0.517006  0.500000  1
  Rh  Rh20  1  0.874473  0.357467  0.500000  1
  Rh  Rh21  1  0.357467  0.874473  0.500000  1
  Rh  Rh22  1  0.517006  0.642533  0.500000  1
  Rh  Rh23  1  0.125527  0.482994  0.500000  1
  Rh  Rh24  1  0.816381  0.620804  0.000000  1
  Rh  Rh25  1  0.620804  0.816381  0.000000  1
  Rh  Rh26  1  0.183619  0.804423  0.000000  1
  Rh  Rh27  1  0.195577  0.379196  0.000000  1
  Rh  Rh28  1  0.000000  0.718083  0.500000  1
  Rh  Rh29  1  0.281917  0.281917  0.500000  1
  Rh  Rh30  1  0.718083  0.000000  0.500000  1
  Rh  Rh31  1  0.000000  0.555573  0.000000  1
  Rh  Rh32  1  0.444427  0.444427  0.000000  1
  Rh  Rh33  1  0.555573  0.000000  0.000000  1
  Rh  Rh34  1  0.000000  0.000000  0.000000  1
  Rh  Rh35  1  0.482994  0.125527  0.500000  1
