# generated using pymatgen
data_Nd16Tm4Si15Os
_symmetry_space_group_name_H-M   'P 1'
_cell_length_a   7.60306603
_cell_length_b   7.96202582
_cell_length_c   15.00982500
_cell_angle_alpha   90.00000000
_cell_angle_beta   90.00000000
_cell_angle_gamma   89.90265496
_symmetry_Int_Tables_number   1
_chemical_formula_structural   Nd16Tm4Si15Os
_chemical_formula_sum   'Nd16 Tm4 Si15 Os1'
_cell_volume   908.63057356
_cell_formula_units_Z   1
loop_
 _symmetry_equiv_pos_site_id
 _symmetry_equiv_pos_as_xyz
  1  'x, y, z'
loop_
 _atom_site_type_symbol
 _atom_site_label
 _atom_site_symmetry_multiplicity
 _atom_site_fract_x
 _atom_site_fract_y
 _atom_site_fract_z
 _atom_site_occupancy
  Nd  Nd0  1  0.809913  0.322422  0.622577  1
  Nd  Nd1  1  0.465217  0.687890  0.900573  1
  Nd  Nd2  1  0.965658  0.815610  0.901958  1
  Nd  Nd3  1  0.198599  0.674459  0.127466  1
  Nd  Nd4  1  0.682262  0.814928  0.125257  1
  Nd  Nd5  1  0.309931  0.179990  0.876614  1
  Nd  Nd6  1  0.198599  0.674459  0.372534  1
  Nd  Nd7  1  0.034511  0.185472  0.099021  1
  Nd  Nd8  1  0.309931  0.179990  0.623386  1
  Nd  Nd9  1  0.529403  0.323072  0.399540  1
  Nd  Nd10  1  0.809913  0.322422  0.877423  1
  Nd  Nd11  1  0.965658  0.815610  0.598042  1
  Nd  Nd12  1  0.465217  0.687890  0.599427  1
  Nd  Nd13  1  0.034511  0.185472  0.400979  1
  Nd  Nd14  1  0.682262  0.814928  0.374743  1
  Nd  Nd15  1  0.529403  0.323072  0.100460  1
  Tm  Tm16  1  0.142205  0.518932  0.750000  1
  Tm  Tm17  1  0.845760  0.484601  0.250000  1
  Tm  Tm18  1  0.362792  0.015063  0.250000  1
  Tm  Tm19  1  0.639737  0.984112  0.750000  1
  Si  Si20  1  0.243606  0.363257  0.250000  1
  Si  Si21  1  0.867174  0.524511  0.457785  1
  Si  Si22  1  0.512515  0.407302  0.750000  1
  Si  Si23  1  0.636036  0.023841  0.957429  1
  Si  Si24  1  0.008321  0.095145  0.750000  1
  Si  Si25  1  0.759154  0.628914  0.750000  1
  Si  Si26  1  0.748943  0.124860  0.250000  1
  Si  Si27  1  0.359443  0.976583  0.458530  1
  Si  Si28  1  0.990068  0.907022  0.250000  1
  Si  Si29  1  0.359443  0.976583  0.041470  1
  Si  Si30  1  0.636036  0.023841  0.542571  1
  Si  Si31  1  0.141238  0.475563  0.959426  1
  Si  Si32  1  0.141238  0.475563  0.540574  1
  Si  Si33  1  0.867174  0.524511  0.042215  1
  Si  Si34  1  0.255575  0.871586  0.750000  1
  Os  Os35  1  0.492558  0.590519  0.250000  1
