# generated using pymatgen
data_Tc2Ag6PtF18
_symmetry_space_group_name_H-M   'P 1'
_cell_length_a   9.98363600
_cell_length_b   9.98363619
_cell_length_c   5.36844800
_cell_angle_alpha   90.00000000
_cell_angle_beta   90.00000000
_cell_angle_gamma   120.00000073
_symmetry_Int_Tables_number   1
_chemical_formula_structural   Tc2Ag6PtF18
_chemical_formula_sum   'Tc2 Ag6 Pt1 F18'
_cell_volume   463.40089090
_cell_formula_units_Z   1
loop_
 _symmetry_equiv_pos_site_id
 _symmetry_equiv_pos_as_xyz
  1  'x, y, z'
loop_
 _atom_site_type_symbol
 _atom_site_label
 _atom_site_symmetry_multiplicity
 _atom_site_fract_x
 _atom_site_fract_y
 _atom_site_fract_z
 _atom_site_occupancy
  Tc  Tc0  1  0.000000  0.000000  0.499617  1
  Tc  Tc1  1  0.333333  0.666667  0.002831  1
  Ag  Ag2  1  0.998684  0.626476  0.500057  1
  Ag  Ag3  1  0.627792  0.001316  0.500057  1
  Ag  Ag4  1  0.373524  0.372208  0.500057  1
  Ag  Ag5  1  0.294441  0.001344  0.000374  1
  Ag  Ag6  1  0.706903  0.705559  0.000374  1
  Ag  Ag7  1  0.998656  0.293097  0.000374  1
  Pt  Pt8  1  0.666667  0.333333  0.997056  1
  F  F9  1  0.087709  0.897017  0.298155  1
  F  F10  1  0.809308  0.912291  0.298155  1
  F  F11  1  0.102983  0.190692  0.298155  1
  F  F12  1  0.912608  0.809608  0.701233  1
  F  F13  1  0.897001  0.087392  0.701233  1
  F  F14  1  0.190392  0.102999  0.701233  1
  F  F15  1  0.225062  0.746073  0.794658  1
  F  F16  1  0.521010  0.774938  0.794658  1
  F  F17  1  0.253927  0.478990  0.794658  1
  F  F18  1  0.776192  0.522964  0.205338  1
  F  F19  1  0.746773  0.223808  0.205338  1
  F  F20  1  0.477036  0.253227  0.205338  1
  F  F21  1  0.409010  0.853550  0.211907  1
  F  F22  1  0.444541  0.590990  0.211907  1
  F  F23  1  0.146450  0.555459  0.211907  1
  F  F24  1  0.590235  0.446080  0.788443  1
  F  F25  1  0.855844  0.409765  0.788443  1
  F  F26  1  0.553920  0.144156  0.788443  1
