# generated using pymatgen
data_Lu4GePd3F28
_symmetry_space_group_name_H-M   'P 1'
_cell_length_a   5.41582538
_cell_length_b   8.64046204
_cell_length_c   11.69326689
_cell_angle_alpha   62.79964401
_cell_angle_beta   90.04093496
_cell_angle_gamma   90.02992015
_symmetry_Int_Tables_number   1
_chemical_formula_structural   Lu4GePd3F28
_chemical_formula_sum   'Lu4 Ge1 Pd3 F28'
_cell_volume   486.67730440
_cell_formula_units_Z   1
loop_
 _symmetry_equiv_pos_site_id
 _symmetry_equiv_pos_as_xyz
  1  'x, y, z'
loop_
 _atom_site_type_symbol
 _atom_site_label
 _atom_site_symmetry_multiplicity
 _atom_site_fract_x
 _atom_site_fract_y
 _atom_site_fract_z
 _atom_site_occupancy
  Lu  Lu0  1  0.260839  0.813345  0.261608  1
  Lu  Lu1  1  0.737381  0.182877  0.737546  1
  Lu  Lu2  1  0.763120  0.186368  0.235415  1
  Lu  Lu3  1  0.237216  0.811748  0.768650  1
  Ge  Ge4  1  0.758831  0.726256  0.044032  1
  Pd  Pd5  1  0.240829  0.271749  0.957000  1
  Pd  Pd6  1  0.259443  0.271867  0.457042  1
  Pd  Pd7  1  0.740716  0.728117  0.543083  1
  F  F8  1  0.936309  0.699432  0.414767  1
  F  F9  1  0.063292  0.300744  0.584728  1
  F  F10  1  0.437204  0.301173  0.084971  1
  F  F11  1  0.570080  0.704116  0.922815  1
  F  F12  1  0.480030  0.726285  0.134330  1
  F  F13  1  0.538507  0.276192  0.863394  1
  F  F14  1  0.961047  0.278015  0.361847  1
  F  F15  1  0.038736  0.723062  0.637624  1
  F  F16  1  0.944828  0.746196  0.169813  1
  F  F17  1  0.051486  0.252687  0.822183  1
  F  F18  1  0.449086  0.254072  0.321122  1
  F  F19  1  0.551036  0.746762  0.679055  1
  F  F20  1  0.778366  0.489063  0.137639  1
  F  F21  1  0.221040  0.523983  0.857198  1
  F  F22  1  0.278879  0.524795  0.355508  1
  F  F23  1  0.720999  0.475461  0.643746  1
  F  F24  1  0.932714  0.278423  0.042210  1
  F  F25  1  0.048601  0.723699  0.960389  1
  F  F26  1  0.432640  0.722592  0.457215  1
  F  F27  1  0.566814  0.277425  0.542477  1
  F  F28  1  0.747020  0.980272  0.450143  1
  F  F29  1  0.253098  0.020117  0.549987  1
  F  F30  1  0.246583  0.019839  0.049485  1
  F  F31  1  0.754150  0.963723  0.953600  1
  F  F32  1  0.584990  0.970475  0.232198  1
  F  F33  1  0.413252  0.029671  0.768267  1
  F  F34  1  0.085464  0.029280  0.267394  1
  F  F35  1  0.915372  0.970117  0.731521  1
