# generated using pymatgen
data_SrCu4Rh
_symmetry_space_group_name_H-M   'P 1'
_cell_length_a   5.27520047
_cell_length_b   5.27520033
_cell_length_c   4.06055500
_cell_angle_alpha   90.00000000
_cell_angle_beta   90.00000000
_cell_angle_gamma   121.32843786
_symmetry_Int_Tables_number   1
_chemical_formula_structural   SrCu4Rh
_chemical_formula_sum   'Sr1 Cu4 Rh1'
_cell_volume   96.52133765
_cell_formula_units_Z   1
loop_
 _symmetry_equiv_pos_site_id
 _symmetry_equiv_pos_as_xyz
  1  'x, y, z'
loop_
 _atom_site_type_symbol
 _atom_site_label
 _atom_site_symmetry_multiplicity
 _atom_site_fract_x
 _atom_site_fract_y
 _atom_site_fract_z
 _atom_site_occupancy
  Sr  Sr0  1  0.000000  0.000000  0.000000  1
  Cu  Cu1  1  0.000000  0.500000  0.500000  1
  Cu  Cu2  1  0.332211  0.667789  0.000000  1
  Cu  Cu3  1  0.667789  0.332211  0.000000  1
  Cu  Cu4  1  0.500000  0.000000  0.500000  1
  Rh  Rh5  1  0.500000  0.500000  0.500000  1
