# generated using pymatgen
data_EuBe2Pd3
_symmetry_space_group_name_H-M   'P 1'
_cell_length_a   5.66467100
_cell_length_b   5.66468255
_cell_length_c   3.53897100
_cell_angle_alpha   90.00000000
_cell_angle_beta   90.00000000
_cell_angle_gamma   120.00002013
_symmetry_Int_Tables_number   1
_chemical_formula_structural   EuBe2Pd3
_chemical_formula_sum   'Eu1 Be2 Pd3'
_cell_volume   98.34625257
_cell_formula_units_Z   1
loop_
 _symmetry_equiv_pos_site_id
 _symmetry_equiv_pos_as_xyz
  1  'x, y, z'
loop_
 _atom_site_type_symbol
 _atom_site_label
 _atom_site_symmetry_multiplicity
 _atom_site_fract_x
 _atom_site_fract_y
 _atom_site_fract_z
 _atom_site_occupancy
  Eu  Eu0  1  0.000000  0.000000  0.000000  1
  Be  Be1  1  0.666667  0.333333  0.000000  1
  Be  Be2  1  0.333333  0.666666  0.000000  1
  Pd  Pd3  1  0.500000  0.000000  0.500001  1
  Pd  Pd4  1  0.000000  0.499999  0.500001  1
  Pd  Pd5  1  0.499999  0.499999  0.500001  1
