# generated using pymatgen
data_Nd6Cu3Sb8Pd3
_symmetry_space_group_name_H-M   'P 1'
_cell_length_a   8.55587961
_cell_length_b   8.55587951
_cell_length_c   8.54376216
_cell_angle_alpha   108.99607938
_cell_angle_beta   109.98460429
_cell_angle_gamma   109.49193053
_symmetry_Int_Tables_number   1
_chemical_formula_structural   Nd6Cu3Sb8Pd3
_chemical_formula_sum   'Nd6 Cu3 Sb8 Pd3'
_cell_volume   481.07853140
_cell_formula_units_Z   1
loop_
 _symmetry_equiv_pos_site_id
 _symmetry_equiv_pos_as_xyz
  1  'x, y, z'
loop_
 _atom_site_type_symbol
 _atom_site_label
 _atom_site_symmetry_multiplicity
 _atom_site_fract_x
 _atom_site_fract_y
 _atom_site_fract_z
 _atom_site_occupancy
  Nd  Nd0  1  0.872074  0.122074  0.750000  1
  Nd  Nd1  1  0.127123  0.750260  0.875772  1
  Nd  Nd2  1  0.749078  0.875637  0.125548  1
  Nd  Nd3  1  0.250088  0.623529  0.374452  1
  Nd  Nd4  1  0.627620  0.377620  0.250000  1
  Nd  Nd5  1  0.374488  0.251352  0.624228  1
  Cu  Cu6  1  0.625027  0.750071  0.375118  1
  Cu  Cu7  1  0.874953  0.249909  0.124882  1
  Cu  Cu8  1  0.375298  0.625298  0.750000  1
  Sb  Sb9  1  0.502534  0.995805  0.340299  1
  Sb  Sb10  1  0.001985  0.340720  0.495676  1
  Sb  Sb11  1  0.345044  0.506309  0.004324  1
  Sb  Sb12  1  0.992787  0.836474  0.495356  1
  Sb  Sb13  1  0.655676  0.661305  0.657563  1
  Sb  Sb14  1  0.841118  0.497431  0.004644  1
  Sb  Sb15  1  0.155506  0.162236  0.159701  1
  Sb  Sb16  1  0.503742  0.998113  0.842437  1
  Pd  Pd17  1  0.124932  0.874932  0.250000  1
  Pd  Pd18  1  0.250308  0.125507  0.874888  1
  Pd  Pd19  1  0.750619  0.375420  0.625112  1
