# generated using pymatgen
data_VRe(Sb6Pt)2
_symmetry_space_group_name_H-M   'P 1'
_cell_length_a   8.15029851
_cell_length_b   8.21934280
_cell_length_c   8.22823200
_cell_angle_alpha   109.74838284
_cell_angle_beta   109.25143582
_cell_angle_gamma   109.22038319
_symmetry_Int_Tables_number   1
_chemical_formula_structural   VRe(Sb6Pt)2
_chemical_formula_sum   'V1 Re1 Sb12 Pt2'
_cell_volume   425.32323124
_cell_formula_units_Z   1
loop_
 _symmetry_equiv_pos_site_id
 _symmetry_equiv_pos_as_xyz
  1  'x, y, z'
loop_
 _atom_site_type_symbol
 _atom_site_label
 _atom_site_symmetry_multiplicity
 _atom_site_fract_x
 _atom_site_fract_y
 _atom_site_fract_z
 _atom_site_occupancy
  V  V0  1  0.000000  0.500000  0.000000  1
  Re  Re1  1  0.500000  0.000000  0.000000  1
  Sb  Sb2  1  0.156582  0.813397  0.664429  1
  Sb  Sb3  1  0.843418  0.186603  0.335571  1
  Sb  Sb4  1  0.847788  0.503695  0.657176  1
  Sb  Sb5  1  0.152212  0.496305  0.342824  1
  Sb  Sb6  1  0.810492  0.658257  0.154639  1
  Sb  Sb7  1  0.189508  0.341743  0.845361  1
  Sb  Sb8  1  0.509211  0.665699  0.851157  1
  Sb  Sb9  1  0.490789  0.334301  0.148843  1
  Sb  Sb10  1  0.661842  0.151759  0.819110  1
  Sb  Sb11  1  0.338158  0.848241  0.180890  1
  Sb  Sb12  1  0.652932  0.846713  0.501923  1
  Sb  Sb13  1  0.347068  0.153287  0.498077  1
  Pt  Pt14  1  0.000000  0.000000  0.500000  1
  Pt  Pt15  1  0.500000  0.500000  0.500000  1
