# generated using pymatgen
data_Ba8As5Br
_symmetry_space_group_name_H-M   'P 1'
_cell_length_a   8.77620052
_cell_length_b   8.77621076
_cell_length_c   8.77621077
_cell_angle_alpha   109.46422386
_cell_angle_beta   109.46426276
_cell_angle_gamma   109.48518520
_symmetry_Int_Tables_number   1
_chemical_formula_structural   Ba8As5Br
_chemical_formula_sum   'Ba8 As5 Br1'
_cell_volume   520.35372507
_cell_formula_units_Z   1
loop_
 _symmetry_equiv_pos_site_id
 _symmetry_equiv_pos_as_xyz
  1  'x, y, z'
loop_
 _atom_site_type_symbol
 _atom_site_label
 _atom_site_symmetry_multiplicity
 _atom_site_fract_x
 _atom_site_fract_y
 _atom_site_fract_z
 _atom_site_occupancy
  Ba  Ba0  1  0.737116  0.367184  0.244486  1
  Ba  Ba1  1  0.985380  0.738978  0.098722  1
  Ba  Ba2  1  0.640257  0.886659  0.901280  1
  Ba  Ba3  1  0.122698  0.492630  0.755514  1
  Ba  Ba4  1  0.632817  0.877302  0.369932  1
  Ba  Ba5  1  0.507370  0.262885  0.630067  1
  Ba  Ba6  1  0.261023  0.359742  0.246401  1
  Ba  Ba7  1  0.113340  0.014620  0.753598  1
  As  As8  1  0.747734  0.632263  0.626037  1
  As  As9  1  0.367737  0.993775  0.115472  1
  As  As10  1  0.006225  0.121697  0.373963  1
  As  As11  1  0.500000  0.500000  0.000000  1
  As  As12  1  0.878303  0.252265  0.884528  1
  Br  Br13  1  0.250000  0.750000  0.500000  1
