# generated using pymatgen
data_NdThCo22
_symmetry_space_group_name_H-M   'P 1'
_cell_length_a   7.63455886
_cell_length_b   7.63592121
_cell_length_c   7.63455818
_cell_angle_alpha   99.83979342
_cell_angle_beta   99.79555312
_cell_angle_gamma   131.21033952
_symmetry_Int_Tables_number   1
_chemical_formula_structural   NdThCo22
_chemical_formula_sum   'Nd1 Th1 Co22'
_cell_volume   304.95941690
_cell_formula_units_Z   1
loop_
 _symmetry_equiv_pos_site_id
 _symmetry_equiv_pos_as_xyz
  1  'x, y, z'
loop_
 _atom_site_type_symbol
 _atom_site_label
 _atom_site_symmetry_multiplicity
 _atom_site_fract_x
 _atom_site_fract_y
 _atom_site_fract_z
 _atom_site_occupancy
  Nd  Nd0  1  0.999757  0.999586  0.999829  1
  Th  Th1  1  0.249468  0.749750  0.500282  1
  Co  Co2  1  0.433855  0.103998  0.919916  1
  Co  Co3  1  0.183892  0.513834  0.079964  1
  Co  Co4  1  0.500036  0.499932  0.999897  1
  Co  Co5  1  0.750096  0.250213  0.500116  1
  Co  Co6  1  0.625944  0.376653  0.750709  1
  Co  Co7  1  0.124992  0.374348  0.750674  1
  Co  Co8  1  0.623675  0.374348  0.249356  1
  Co  Co9  1  0.625926  0.875173  0.249247  1
  Co  Co10  1  0.184082  0.103998  0.670143  1
  Co  Co11  1  0.762598  0.933449  0.579644  1
  Co  Co12  1  0.353995  0.183033  0.420563  1
  Co  Co13  1  0.433869  0.513834  0.329941  1
  Co  Co14  1  0.896166  0.815882  0.329868  1
  Co  Co15  1  0.486107  0.566153  0.670228  1
  Co  Co16  1  0.066713  0.237653  0.420598  1
  Co  Co17  1  0.817055  0.645998  0.579493  1
  Co  Co18  1  0.066505  0.645998  0.828943  1
  Co  Co19  1  0.486013  0.815882  0.919717  1
  Co  Co20  1  0.895924  0.566153  0.080044  1
  Co  Co21  1  0.817056  0.237653  0.170941  1
  Co  Co22  1  0.353805  0.933449  0.170852  1
  Co  Co23  1  0.762471  0.183033  0.829038  1
