# generated using pymatgen
data_Ba4DyPa3F24
_symmetry_space_group_name_H-M   'P 1'
_cell_length_a   7.58351514
_cell_length_b   8.80683048
_cell_length_c   8.94772100
_cell_angle_alpha   102.20038833
_cell_angle_beta   96.51381483
_cell_angle_gamma   114.63457902
_symmetry_Int_Tables_number   1
_chemical_formula_structural   Ba4DyPa3F24
_chemical_formula_sum   'Ba4 Dy1 Pa3 F24'
_cell_volume   517.09128972
_cell_formula_units_Z   1
loop_
 _symmetry_equiv_pos_site_id
 _symmetry_equiv_pos_as_xyz
  1  'x, y, z'
loop_
 _atom_site_type_symbol
 _atom_site_label
 _atom_site_symmetry_multiplicity
 _atom_site_fract_x
 _atom_site_fract_y
 _atom_site_fract_z
 _atom_site_occupancy
  Ba  Ba0  1  0.294027  0.770930  0.546467  1
  Ba  Ba1  1  0.297663  0.309536  0.769246  1
  Ba  Ba2  1  0.708362  0.237813  0.464472  1
  Ba  Ba3  1  0.709914  0.672706  0.229297  1
  Dy  Dy4  1  0.766490  0.223647  0.929955  1
  Pa  Pa5  1  0.172871  0.261305  0.276332  1
  Pa  Pa6  1  0.245920  0.783306  0.064746  1
  Pa  Pa7  1  0.813818  0.745023  0.722167  1
  F  F8  1  0.084925  0.957417  0.694781  1
  F  F9  1  0.412868  0.632452  0.004411  1
  F  F10  1  0.914146  0.035209  0.301365  1
  F  F11  1  0.229596  0.039028  0.146272  1
  F  F12  1  0.766847  0.960106  0.857144  1
  F  F13  1  0.092486  0.759621  0.271774  1
  F  F14  1  0.883350  0.611933  0.502628  1
  F  F15  1  0.128407  0.713492  0.799500  1
  F  F16  1  0.482055  0.624735  0.699755  1
  F  F17  1  0.308441  0.186251  0.470959  1
  F  F18  1  0.106922  0.240610  0.019532  1
  F  F19  1  0.300590  0.546179  0.287611  1
  F  F20  1  0.693875  0.460247  0.707986  1
  F  F21  1  0.596272  0.368253  0.995605  1
  F  F22  1  0.869484  0.279462  0.198299  1
  F  F23  1  0.520411  0.102532  0.711067  1
  F  F24  1  0.490063  0.989604  0.997142  1
  F  F25  1  0.900813  0.759934  0.980859  1
  F  F26  1  0.917112  0.246759  0.731135  1
  F  F27  1  0.482698  0.899189  0.288559  1
  F  F28  1  0.507055  0.375027  0.303216  1
  F  F29  1  0.007503  0.505152  0.005589  1
  F  F30  1  0.114564  0.392202  0.497930  1
  F  F31  1  0.680453  0.810340  0.524200  1
