# generated using pymatgen
data_Tm8Hf11ZrSi16
_symmetry_space_group_name_H-M   'P 1'
_cell_length_a   7.24963315
_cell_length_b   7.24963421
_cell_length_c   13.31195703
_cell_angle_alpha   90.01355268
_cell_angle_beta   89.98644680
_cell_angle_gamma   89.99557631
_symmetry_Int_Tables_number   1
_chemical_formula_structural   Tm8Hf11ZrSi16
_chemical_formula_sum   'Tm8 Hf11 Zr1 Si16'
_cell_volume   699.63899351
_cell_formula_units_Z   1
loop_
 _symmetry_equiv_pos_site_id
 _symmetry_equiv_pos_as_xyz
  1  'x, y, z'
loop_
 _atom_site_type_symbol
 _atom_site_label
 _atom_site_symmetry_multiplicity
 _atom_site_fract_x
 _atom_site_fract_y
 _atom_site_fract_z
 _atom_site_occupancy
  Tm  Tm0  1  0.996275  0.344366  0.215182  1
  Tm  Tm1  1  0.003514  0.655770  0.714963  1
  Tm  Tm2  1  0.155732  0.496321  0.465128  1
  Tm  Tm3  1  0.503387  0.844619  0.034960  1
  Tm  Tm4  1  0.844619  0.503387  0.965040  1
  Tm  Tm5  1  0.496321  0.155732  0.534872  1
  Tm  Tm6  1  0.344366  0.996275  0.784818  1
  Tm  Tm7  1  0.655770  0.003514  0.285037  1
  Hf  Hf8  1  0.825558  0.825558  0.500000  1
  Hf  Hf9  1  0.325560  0.674611  0.250235  1
  Hf  Hf10  1  0.674611  0.325560  0.749765  1
  Hf  Hf11  1  0.148408  0.996508  0.374747  1
  Hf  Hf12  1  0.851708  0.003325  0.874340  1
  Hf  Hf13  1  0.503124  0.648781  0.624471  1
  Hf  Hf14  1  0.351428  0.496561  0.875548  1
  Hf  Hf15  1  0.496561  0.351428  0.124452  1
  Hf  Hf16  1  0.648781  0.503124  0.375529  1
  Hf  Hf17  1  0.996508  0.148408  0.625253  1
  Hf  Hf18  1  0.003325  0.851708  0.125660  1
  Zr  Zr19  1  0.174370  0.174370  0.000000  1
  Si  Si20  1  0.361068  0.295003  0.317901  1
  Si  Si21  1  0.638953  0.704902  0.817728  1
  Si  Si22  1  0.204980  0.860855  0.567804  1
  Si  Si23  1  0.138539  0.793658  0.932048  1
  Si  Si24  1  0.793658  0.138539  0.067952  1
  Si  Si25  1  0.860855  0.204980  0.432196  1
  Si  Si26  1  0.295003  0.361068  0.682099  1
  Si  Si27  1  0.704902  0.638953  0.182272  1
  Si  Si28  1  0.297613  0.047960  0.186569  1
  Si  Si29  1  0.702844  0.951567  0.685482  1
  Si  Si30  1  0.451849  0.797065  0.435692  1
  Si  Si31  1  0.203315  0.549901  0.064555  1
  Si  Si32  1  0.549901  0.203315  0.935445  1
  Si  Si33  1  0.797065  0.451849  0.564308  1
  Si  Si34  1  0.047960  0.297613  0.813431  1
  Si  Si35  1  0.951567  0.702844  0.314518  1
