# generated using pymatgen
data_Dy3Er2InBi2
_symmetry_space_group_name_H-M   'P 1'
_cell_length_a   9.06216718
_cell_length_b   9.06216753
_cell_length_c   6.48723800
_cell_angle_alpha   90.00000000
_cell_angle_beta   90.00000000
_cell_angle_gamma   119.68008549
_symmetry_Int_Tables_number   1
_chemical_formula_structural   Dy3Er2InBi2
_chemical_formula_sum   'Dy6 Er4 In2 Bi4'
_cell_volume   462.85571945
_cell_formula_units_Z   2
loop_
 _symmetry_equiv_pos_site_id
 _symmetry_equiv_pos_as_xyz
  1  'x, y, z'
loop_
 _atom_site_type_symbol
 _atom_site_label
 _atom_site_symmetry_multiplicity
 _atom_site_fract_x
 _atom_site_fract_y
 _atom_site_fract_z
 _atom_site_occupancy
  Dy  Dy0  1  0.761456  0.761456  0.750000  1
  Dy  Dy1  1  0.234808  0.997826  0.750000  1
  Dy  Dy2  1  0.997826  0.234808  0.750000  1
  Dy  Dy3  1  0.234899  0.234899  0.250000  1
  Dy  Dy4  1  0.765748  0.008543  0.250000  1
  Dy  Dy5  1  0.008543  0.765748  0.250000  1
  Er  Er6  1  0.668998  0.329072  0.003795  1
  Er  Er7  1  0.329072  0.668998  0.003795  1
  Er  Er8  1  0.329072  0.668998  0.496205  1
  Er  Er9  1  0.668998  0.329072  0.496205  1
  In  In10  1  0.397401  0.002049  0.250000  1
  In  In11  1  0.002049  0.397401  0.250000  1
  Bi  Bi12  1  0.393950  0.393950  0.750000  1
  Bi  Bi13  1  0.601804  0.996890  0.750000  1
  Bi  Bi14  1  0.996890  0.601804  0.750000  1
  Bi  Bi15  1  0.608487  0.608487  0.250000  1
