# generated using pymatgen
data_Dy3Y6Ho7(CdIr)4
_symmetry_space_group_name_H-M   'P 1'
_cell_length_a   9.62533959
_cell_length_b   9.62526053
_cell_length_c   9.62526100
_cell_angle_alpha   59.99999496
_cell_angle_beta   60.00026665
_cell_angle_gamma   60.00026821
_symmetry_Int_Tables_number   1
_chemical_formula_structural   Dy3Y6Ho7(CdIr)4
_chemical_formula_sum   'Dy3 Y6 Ho7 Cd4 Ir4'
_cell_volume   630.56202185
_cell_formula_units_Z   1
loop_
 _symmetry_equiv_pos_site_id
 _symmetry_equiv_pos_as_xyz
  1  'x, y, z'
loop_
 _atom_site_type_symbol
 _atom_site_label
 _atom_site_symmetry_multiplicity
 _atom_site_fract_x
 _atom_site_fract_y
 _atom_site_fract_z
 _atom_site_occupancy
  Dy  Dy0  1  0.348932  0.348976  0.348976  1
  Dy  Dy1  1  0.348932  0.348976  0.953115  1
  Dy  Dy2  1  0.348932  0.953115  0.348976  1
  Y  Y3  1  0.938076  0.561929  0.561929  1
  Y  Y4  1  0.562126  0.937961  0.937961  1
  Y  Y5  1  0.562126  0.937961  0.561951  1
  Y  Y6  1  0.938076  0.561929  0.938067  1
  Y  Y7  1  0.562126  0.561951  0.937961  1
  Y  Y8  1  0.938076  0.938067  0.561929  1
  Ho  Ho9  1  0.953667  0.348778  0.348778  1
  Ho  Ho10  1  0.811227  0.188786  0.188786  1
  Ho  Ho11  1  0.188632  0.811297  0.811297  1
  Ho  Ho12  1  0.188632  0.811297  0.188774  1
  Ho  Ho13  1  0.811227  0.188786  0.811200  1
  Ho  Ho14  1  0.188632  0.188774  0.811297  1
  Ho  Ho15  1  0.811227  0.811200  0.188786  1
  Cd  Cd16  1  0.580432  0.580277  0.580277  1
  Cd  Cd17  1  0.580432  0.580277  0.259014  1
  Cd  Cd18  1  0.580432  0.259014  0.580277  1
  Cd  Cd19  1  0.258974  0.580342  0.580342  1
  Ir  Ir20  1  0.141223  0.141834  0.141834  1
  Ir  Ir21  1  0.141223  0.141834  0.575108  1
  Ir  Ir22  1  0.141223  0.575108  0.141834  1
  Ir  Ir23  1  0.575414  0.141529  0.141529  1
