# generated using pymatgen
data_Tm4Al4IrPt2Rh
_symmetry_space_group_name_H-M   'P 1'
_cell_length_a   4.28042000
_cell_length_b   6.77649068
_cell_length_c   7.88872905
_cell_angle_alpha   90.05340421
_cell_angle_beta   90.00000000
_cell_angle_gamma   90.00000000
_symmetry_Int_Tables_number   1
_chemical_formula_structural   Tm4Al4IrPt2Rh
_chemical_formula_sum   'Tm4 Al4 Ir1 Pt2 Rh1'
_cell_volume   228.82216027
_cell_formula_units_Z   1
loop_
 _symmetry_equiv_pos_site_id
 _symmetry_equiv_pos_as_xyz
  1  'x, y, z'
loop_
 _atom_site_type_symbol
 _atom_site_label
 _atom_site_symmetry_multiplicity
 _atom_site_fract_x
 _atom_site_fract_y
 _atom_site_fract_z
 _atom_site_occupancy
  Tm  Tm0  1  0.250000  0.960836  0.321826  1
  Tm  Tm1  1  0.750000  0.538469  0.822679  1
  Tm  Tm2  1  0.250000  0.472157  0.177226  1
  Tm  Tm3  1  0.750000  0.030192  0.677880  1
  Al  Al4  1  0.750000  0.639226  0.439034  1
  Al  Al5  1  0.750000  0.135160  0.061298  1
  Al  Al6  1  0.250000  0.365235  0.561046  1
  Al  Al7  1  0.250000  0.859905  0.940669  1
  Ir  Ir8  1  0.750000  0.762504  0.124000  1
  Pt  Pt9  1  0.750000  0.264562  0.376418  1
  Pt  Pt10  1  0.250000  0.233950  0.875602  1
  Rh  Rh11  1  0.250000  0.737803  0.622323  1
