# generated using pymatgen
data_LaTbSn5Ir3
_symmetry_space_group_name_H-M   'P 1'
_cell_length_a   13.60587228
_cell_length_b   13.60587230
_cell_length_c   7.32166500
_cell_angle_alpha   90.00000000
_cell_angle_beta   90.00000000
_cell_angle_gamma   161.00388570
_symmetry_Int_Tables_number   1
_chemical_formula_structural   LaTbSn5Ir3
_chemical_formula_sum   'La2 Tb2 Sn10 Ir6'
_cell_volume   441.18323876
_cell_formula_units_Z   2
loop_
 _symmetry_equiv_pos_site_id
 _symmetry_equiv_pos_as_xyz
  1  'x, y, z'
loop_
 _atom_site_type_symbol
 _atom_site_label
 _atom_site_symmetry_multiplicity
 _atom_site_fract_x
 _atom_site_fract_y
 _atom_site_fract_z
 _atom_site_occupancy
  La  La0  1  0.171796  0.828204  0.755783  1
  La  La1  1  0.828204  0.171796  0.255783  1
  Tb  Tb2  1  0.476675  0.523325  0.735974  1
  Tb  Tb3  1  0.523325  0.476675  0.235974  1
  Sn  Sn4  1  0.880591  0.119409  0.732698  1
  Sn  Sn5  1  0.119409  0.880591  0.232698  1
  Sn  Sn6  1  0.704986  0.295014  0.052281  1
  Sn  Sn7  1  0.295014  0.704986  0.552281  1
  Sn  Sn8  1  0.595119  0.404881  0.610597  1
  Sn  Sn9  1  0.404881  0.595119  0.110597  1
  Sn  Sn10  1  0.952805  0.047195  0.398384  1
  Sn  Sn11  1  0.047195  0.952805  0.898384  1
  Sn  Sn12  1  0.290485  0.709515  0.975601  1
  Sn  Sn13  1  0.709515  0.290485  0.475601  1
  Ir  Ir14  1  0.049505  0.950495  0.518059  1
  Ir  Ir15  1  0.950495  0.049505  0.018059  1
  Ir  Ir16  1  0.777231  0.222769  0.764393  1
  Ir  Ir17  1  0.222769  0.777231  0.264393  1
  Ir  Ir18  1  0.395119  0.604881  0.484228  1
  Ir  Ir19  1  0.604881  0.395119  0.984228  1
