# generated using pymatgen
data_Tb6Zn15Au8Se
_symmetry_space_group_name_H-M   'P 1'
_cell_length_a   9.16574337
_cell_length_b   9.16574316
_cell_length_c   9.16574300
_cell_angle_alpha   60.00000418
_cell_angle_beta   60.00000495
_cell_angle_gamma   59.99999836
_symmetry_Int_Tables_number   1
_chemical_formula_structural   Tb6Zn15Au8Se
_chemical_formula_sum   'Tb6 Zn15 Au8 Se1'
_cell_volume   544.48770723
_cell_formula_units_Z   1
loop_
 _symmetry_equiv_pos_site_id
 _symmetry_equiv_pos_as_xyz
  1  'x, y, z'
loop_
 _atom_site_type_symbol
 _atom_site_label
 _atom_site_symmetry_multiplicity
 _atom_site_fract_x
 _atom_site_fract_y
 _atom_site_fract_z
 _atom_site_occupancy
  Tb  Tb0  1  0.717936  0.282064  0.282064  1
  Tb  Tb1  1  0.282064  0.717936  0.717936  1
  Tb  Tb2  1  0.282064  0.717936  0.282064  1
  Tb  Tb3  1  0.717936  0.282064  0.717936  1
  Tb  Tb4  1  0.282064  0.282064  0.717936  1
  Tb  Tb5  1  0.717936  0.717936  0.282064  1
  Zn  Zn6  1  0.500000  0.000000  0.000000  1
  Zn  Zn7  1  0.000000  0.500000  0.500000  1
  Zn  Zn8  1  0.000000  0.500000  0.000000  1
  Zn  Zn9  1  0.500000  0.000000  0.500000  1
  Zn  Zn10  1  0.000000  0.000000  0.500000  1
  Zn  Zn11  1  0.500000  0.500000  0.000000  1
  Zn  Zn12  1  0.330731  0.330731  0.330731  1
  Zn  Zn13  1  0.669269  0.669269  0.669269  1
  Zn  Zn14  1  0.330731  0.330731  0.007806  1
  Zn  Zn15  1  0.330731  0.007806  0.330731  1
  Zn  Zn16  1  0.669269  0.669269  0.992194  1
  Zn  Zn17  1  0.669269  0.992194  0.669269  1
  Zn  Zn18  1  0.007806  0.330731  0.330731  1
  Zn  Zn19  1  0.992194  0.669269  0.669269  1
  Zn  Zn20  1  0.000000  0.000000  0.000000  1
  Au  Au21  1  0.122944  0.122944  0.122944  1
  Au  Au22  1  0.877056  0.877056  0.877056  1
  Au  Au23  1  0.122944  0.122944  0.631169  1
  Au  Au24  1  0.122944  0.631169  0.122944  1
  Au  Au25  1  0.877056  0.877056  0.368831  1
  Au  Au26  1  0.877056  0.368831  0.877056  1
  Au  Au27  1  0.631169  0.122944  0.122944  1
  Au  Au28  1  0.368831  0.877056  0.877056  1
  Se  Se29  1  0.500000  0.500000  0.500000  1
