# generated using pymatgen
data_Dy4Tm16Ga5Bi7
_symmetry_space_group_name_H-M   'P 1'
_cell_length_a   7.99572000
_cell_length_b   9.25635740
_cell_length_c   11.77423980
_cell_angle_alpha   89.96515056
_cell_angle_beta   90.08515206
_cell_angle_gamma   89.94830493
_symmetry_Int_Tables_number   1
_chemical_formula_structural   Dy4Tm16Ga5Bi7
_chemical_formula_sum   'Dy4 Tm16 Ga5 Bi7'
_cell_volume   871.42463153
_cell_formula_units_Z   1
loop_
 _symmetry_equiv_pos_site_id
 _symmetry_equiv_pos_as_xyz
  1  'x, y, z'
loop_
 _atom_site_type_symbol
 _atom_site_label
 _atom_site_symmetry_multiplicity
 _atom_site_fract_x
 _atom_site_fract_y
 _atom_site_fract_z
 _atom_site_occupancy
  Dy  Dy0  1  0.329415  0.241359  0.215505  1
  Dy  Dy1  1  0.809518  0.237236  0.285917  1
  Dy  Dy2  1  0.675295  0.749779  0.786805  1
  Dy  Dy3  1  0.178405  0.748990  0.713171  1
  Tm  Tm4  1  0.358536  0.762490  0.210687  1
  Tm  Tm5  1  0.835293  0.758408  0.295032  1
  Tm  Tm6  1  0.652373  0.250458  0.794505  1
  Tm  Tm7  1  0.154645  0.250638  0.704143  1
  Tm  Tm8  1  0.684908  0.555007  0.058735  1
  Tm  Tm9  1  0.190568  0.949405  0.441021  1
  Tm  Tm10  1  0.315418  0.055771  0.944326  1
  Tm  Tm11  1  0.813837  0.446489  0.555733  1
  Tm  Tm12  1  0.317176  0.443466  0.943352  1
  Tm  Tm13  1  0.815735  0.054471  0.553301  1
  Tm  Tm14  1  0.680511  0.944984  0.063933  1
  Tm  Tm15  1  0.185263  0.555722  0.443938  1
  Tm  Tm16  1  0.467628  0.236122  0.485265  1
  Tm  Tm17  1  0.964249  0.251192  0.007846  1
  Tm  Tm18  1  0.537827  0.762017  0.499115  1
  Tm  Tm19  1  0.037972  0.748489  0.994665  1
  Ga  Ga20  1  0.410238  0.749496  0.962625  1
  Ga  Ga21  1  0.913100  0.749238  0.537500  1
  Ga  Ga22  1  0.591648  0.250609  0.036770  1
  Ga  Ga23  1  0.087150  0.251689  0.461266  1
  Ga  Ga24  1  0.551743  0.999119  0.325589  1
  Bi  Bi25  1  0.056477  0.500093  0.181738  1
  Bi  Bi26  1  0.443633  0.497078  0.672353  1
  Bi  Bi27  1  0.943299  0.001397  0.822403  1
  Bi  Bi28  1  0.443124  0.001542  0.679680  1
  Bi  Bi29  1  0.942961  0.498832  0.822214  1
  Bi  Bi30  1  0.556244  0.500414  0.323423  1
  Bi  Bi31  1  0.055811  0.998000  0.177444  1
