# generated using pymatgen
data_Cs6YTe4Cl
_symmetry_space_group_name_H-M   'P 1'
_cell_length_a   12.44105200
_cell_length_b   12.44105243
_cell_length_c   9.09379100
_cell_angle_alpha   90.00000000
_cell_angle_beta   90.00000000
_cell_angle_gamma   120.00000418
_symmetry_Int_Tables_number   1
_chemical_formula_structural   Cs6YTe4Cl
_chemical_formula_sum   'Cs12 Y2 Te8 Cl2'
_cell_volume   1218.96099135
_cell_formula_units_Z   2
loop_
 _symmetry_equiv_pos_site_id
 _symmetry_equiv_pos_as_xyz
  1  'x, y, z'
loop_
 _atom_site_type_symbol
 _atom_site_label
 _atom_site_symmetry_multiplicity
 _atom_site_fract_x
 _atom_site_fract_y
 _atom_site_fract_z
 _atom_site_occupancy
  Cs  Cs0  1  0.124462  0.875538  0.511959  1
  Cs  Cs1  1  0.751076  0.875538  0.511959  1
  Cs  Cs2  1  0.943059  0.471530  0.316164  1
  Cs  Cs3  1  0.528470  0.471530  0.316164  1
  Cs  Cs4  1  0.875538  0.751076  0.011959  1
  Cs  Cs5  1  0.248924  0.124462  0.011959  1
  Cs  Cs6  1  0.528470  0.056941  0.316164  1
  Cs  Cs7  1  0.124462  0.248924  0.511959  1
  Cs  Cs8  1  0.875538  0.124462  0.011959  1
  Cs  Cs9  1  0.056941  0.528470  0.816164  1
  Cs  Cs10  1  0.471530  0.943059  0.816164  1
  Cs  Cs11  1  0.471530  0.528470  0.816164  1
  Y  Y12  1  0.666667  0.333333  0.714460  1
  Y  Y13  1  0.333333  0.666667  0.214460  1
  Te  Te14  1  0.407954  0.203977  0.609710  1
  Te  Te15  1  0.592046  0.796023  0.109710  1
  Te  Te16  1  0.666667  0.333333  0.038125  1
  Te  Te17  1  0.796023  0.592046  0.609710  1
  Te  Te18  1  0.203977  0.407954  0.109710  1
  Te  Te19  1  0.333333  0.666667  0.538125  1
  Te  Te20  1  0.203977  0.796023  0.109710  1
  Te  Te21  1  0.796023  0.203977  0.609710  1
  Cl  Cl22  1  0.000000  0.000000  0.274516  1
  Cl  Cl23  1  0.000000  0.000000  0.774516  1
