# generated using pymatgen
data_Ho20FeCo3Bi8
_symmetry_space_group_name_H-M   'P 1'
_cell_length_a   7.97579421
_cell_length_b   8.88092700
_cell_length_c   12.37519133
_cell_angle_alpha   90.00000000
_cell_angle_beta   89.97371674
_cell_angle_gamma   90.00000000
_symmetry_Int_Tables_number   1
_chemical_formula_structural   Ho20FeCo3Bi8
_chemical_formula_sum   'Ho20 Fe1 Co3 Bi8'
_cell_volume   876.56498086
_cell_formula_units_Z   1
loop_
 _symmetry_equiv_pos_site_id
 _symmetry_equiv_pos_as_xyz
  1  'x, y, z'
loop_
 _atom_site_type_symbol
 _atom_site_label
 _atom_site_symmetry_multiplicity
 _atom_site_fract_x
 _atom_site_fract_y
 _atom_site_fract_z
 _atom_site_occupancy
  Ho  Ho0  1  0.345903  0.750000  0.700392  1
  Ho  Ho1  1  0.653381  0.250000  0.300543  1
  Ho  Ho2  1  0.846490  0.250000  0.799984  1
  Ho  Ho3  1  0.152595  0.750000  0.199325  1
  Ho  Ho4  1  0.886695  0.750000  0.811450  1
  Ho  Ho5  1  0.114421  0.250000  0.189213  1
  Ho  Ho6  1  0.385782  0.250000  0.688567  1
  Ho  Ho7  1  0.613970  0.750000  0.311871  1
  Ho  Ho8  1  0.675463  0.537479  0.563147  1
  Ho  Ho9  1  0.324694  0.461381  0.436919  1
  Ho  Ho10  1  0.174331  0.463835  0.937579  1
  Ho  Ho11  1  0.324694  0.038619  0.436919  1
  Ho  Ho12  1  0.824774  0.538504  0.062730  1
  Ho  Ho13  1  0.675463  0.962521  0.563147  1
  Ho  Ho14  1  0.824774  0.961496  0.062730  1
  Ho  Ho15  1  0.174331  0.036165  0.937579  1
  Ho  Ho16  1  0.052896  0.750000  0.497365  1
  Ho  Ho17  1  0.947174  0.250000  0.502400  1
  Ho  Ho18  1  0.553911  0.250000  0.002549  1
  Ho  Ho19  1  0.445420  0.750000  0.996991  1
  Fe  Fe20  1  0.069183  0.750000  0.990927  1
  Co  Co21  1  0.932348  0.250000  0.008534  1
  Co  Co22  1  0.566559  0.250000  0.508447  1
  Co  Co23  1  0.433563  0.750000  0.491977  1
  Bi  Bi24  1  0.572062  0.509622  0.826430  1
  Bi  Bi25  1  0.428652  0.490454  0.173220  1
  Bi  Bi26  1  0.071814  0.490600  0.673185  1
  Bi  Bi27  1  0.428652  0.009546  0.173220  1
  Bi  Bi28  1  0.928064  0.509603  0.326521  1
  Bi  Bi29  1  0.572062  0.990378  0.826430  1
  Bi  Bi30  1  0.928064  0.990397  0.326521  1
  Bi  Bi31  1  0.071814  0.009400  0.673185  1
