# generated using pymatgen
data_CaLa7(As7Rh8)2
_symmetry_space_group_name_H-M   'P 1'
_cell_length_a   4.15755100
_cell_length_b   13.23824355
_cell_length_c   13.66117081
_cell_angle_alpha   81.93510482
_cell_angle_beta   90.00000000
_cell_angle_gamma   90.00000000
_symmetry_Int_Tables_number   1
_chemical_formula_structural   CaLa7(As7Rh8)2
_chemical_formula_sum   'Ca1 La7 As14 Rh16'
_cell_volume   744.45634123
_cell_formula_units_Z   1
loop_
 _symmetry_equiv_pos_site_id
 _symmetry_equiv_pos_as_xyz
  1  'x, y, z'
loop_
 _atom_site_type_symbol
 _atom_site_label
 _atom_site_symmetry_multiplicity
 _atom_site_fract_x
 _atom_site_fract_y
 _atom_site_fract_z
 _atom_site_occupancy
  Ca  Ca0  1  0.750000  0.790058  0.563094  1
  La  La1  1  0.250000  0.100705  0.790593  1
  La  La2  1  0.750000  0.899134  0.206543  1
  La  La3  1  0.250000  0.285002  0.102229  1
  La  La4  1  0.750000  0.714711  0.895758  1
  La  La5  1  0.250000  0.518703  0.291227  1
  La  La6  1  0.750000  0.483260  0.708951  1
  La  La7  1  0.250000  0.210347  0.437561  1
  As  As8  1  0.250000  0.054579  0.098945  1
  As  As9  1  0.750000  0.944963  0.898527  1
  As  As10  1  0.250000  0.312996  0.687156  1
  As  As11  1  0.750000  0.688503  0.313599  1
  As  As12  1  0.250000  0.610946  0.565131  1
  As  As13  1  0.750000  0.394792  0.436933  1
  As  As14  1  0.250000  0.846836  0.718408  1
  As  As15  1  0.750000  0.149185  0.280603  1
  As  As16  1  0.750000  0.257358  0.920139  1
  As  As17  1  0.250000  0.742182  0.079241  1
  As  As18  1  0.750000  0.093528  0.587220  1
  As  As19  1  0.250000  0.905301  0.415200  1
  As  As20  1  0.750000  0.471349  0.127932  1
  As  As21  1  0.250000  0.527432  0.873046  1
  Rh  Rh22  1  0.250000  0.988114  0.573684  1
  Rh  Rh23  1  0.750000  0.011199  0.426918  1
  Rh  Rh24  1  0.250000  0.665179  0.732490  1
  Rh  Rh25  1  0.750000  0.333322  0.269543  1
  Rh  Rh26  1  0.250000  0.553845  0.046912  1
  Rh  Rh27  1  0.750000  0.445910  0.953165  1
  Rh  Rh28  1  0.250000  0.052400  0.279982  1
  Rh  Rh29  1  0.750000  0.943748  0.718725  1
  Rh  Rh30  1  0.250000  0.428326  0.527920  1
  Rh  Rh31  1  0.750000  0.576672  0.473936  1
  Rh  Rh32  1  0.250000  0.917960  0.995615  1
  Rh  Rh33  1  0.750000  0.080941  0.001758  1
  Rh  Rh34  1  0.250000  0.722084  0.400964  1
  Rh  Rh35  1  0.750000  0.279513  0.598840  1
  Rh  Rh36  1  0.250000  0.342328  0.861528  1
  Rh  Rh37  1  0.750000  0.656587  0.139983  1
