# generated using pymatgen
data_Dy3HoGa18(NiIr2)2
_symmetry_space_group_name_H-M   'P 1'
_cell_length_a   7.54984711
_cell_length_b   7.54975934
_cell_length_c   9.43389200
_cell_angle_alpha   90.00000000
_cell_angle_beta   90.00000000
_cell_angle_gamma   120.08265599
_symmetry_Int_Tables_number   1
_chemical_formula_structural   Dy3HoGa18(NiIr2)2
_chemical_formula_sum   'Dy3 Ho1 Ga18 Ni2 Ir4'
_cell_volume   465.29723499
_cell_formula_units_Z   1
loop_
 _symmetry_equiv_pos_site_id
 _symmetry_equiv_pos_as_xyz
  1  'x, y, z'
loop_
 _atom_site_type_symbol
 _atom_site_label
 _atom_site_symmetry_multiplicity
 _atom_site_fract_x
 _atom_site_fract_y
 _atom_site_fract_z
 _atom_site_occupancy
  Dy  Dy0  1  0.003312  0.339148  0.750000  1
  Dy  Dy1  1  0.660822  0.996635  0.250000  1
  Dy  Dy2  1  0.339120  0.003313  0.750000  1
  Ho  Ho3  1  0.996671  0.660748  0.250000  1
  Ga  Ga4  1  0.109952  0.109835  0.250000  1
  Ga  Ga5  1  0.889970  0.889959  0.750000  1
  Ga  Ga6  1  0.999286  0.327420  0.078646  1
  Ga  Ga7  1  0.000719  0.672750  0.921633  1
  Ga  Ga8  1  0.000719  0.672750  0.578367  1
  Ga  Ga9  1  0.327066  0.999105  0.421363  1
  Ga  Ga10  1  0.999286  0.327420  0.421354  1
  Ga  Ga11  1  0.672747  0.000708  0.578481  1
  Ga  Ga12  1  0.672747  0.000708  0.921519  1
  Ga  Ga13  1  0.327066  0.999105  0.078637  1
  Ga  Ga14  1  0.326472  0.326475  0.565069  1
  Ga  Ga15  1  0.673690  0.673543  0.434746  1
  Ga  Ga16  1  0.673690  0.673543  0.065254  1
  Ga  Ga17  1  0.326472  0.326475  0.934931  1
  Ga  Ga18  1  0.337918  0.540728  0.250000  1
  Ga  Ga19  1  0.662035  0.459332  0.750000  1
  Ga  Ga20  1  0.540863  0.338122  0.250000  1
  Ga  Ga21  1  0.459329  0.662044  0.750000  1
  Ni  Ni22  1  0.000007  0.999995  0.000022  1
  Ni  Ni23  1  0.000007  0.999995  0.499978  1
  Ir  Ir24  1  0.671674  0.328461  0.000073  1
  Ir  Ir25  1  0.328343  0.671611  0.000065  1
  Ir  Ir26  1  0.328343  0.671611  0.499935  1
  Ir  Ir27  1  0.671674  0.328461  0.499927  1
