# generated using pymatgen
data_Nb3GaMo3P2
_symmetry_space_group_name_H-M   'P 1'
_cell_length_a   6.94891400
_cell_length_b   6.94891309
_cell_length_c   3.32984600
_cell_angle_alpha   90.00000000
_cell_angle_beta   90.00000000
_cell_angle_gamma   120.00000434
_symmetry_Int_Tables_number   1
_chemical_formula_structural   Nb3GaMo3P2
_chemical_formula_sum   'Nb3 Ga1 Mo3 P2'
_cell_volume   139.24787554
_cell_formula_units_Z   1
loop_
 _symmetry_equiv_pos_site_id
 _symmetry_equiv_pos_as_xyz
  1  'x, y, z'
loop_
 _atom_site_type_symbol
 _atom_site_label
 _atom_site_symmetry_multiplicity
 _atom_site_fract_x
 _atom_site_fract_y
 _atom_site_fract_z
 _atom_site_occupancy
  Nb  Nb0  1  0.394267  0.985498  0.500001  1
  Nb  Nb1  1  0.014502  0.408768  0.500001  1
  Nb  Nb2  1  0.591232  0.605732  0.500001  1
  Ga  Ga3  1  0.666667  0.333333  0.000000  1
  Mo  Mo4  1  0.742674  0.990518  0.000000  1
  Mo  Mo5  1  0.247843  0.257325  0.000000  1
  Mo  Mo6  1  0.009482  0.752156  0.000000  1
  P  P7  1  0.333333  0.666666  0.000000  1
  P  P8  1  0.000000  0.000000  0.500001  1
