# generated using pymatgen
data_Zr4Nb6GaSi7
_symmetry_space_group_name_H-M   'P 1'
_cell_length_a   6.92921826
_cell_length_b   6.90161031
_cell_length_c   12.82607600
_cell_angle_alpha   90.00000000
_cell_angle_beta   90.00000000
_cell_angle_gamma   90.09311876
_symmetry_Int_Tables_number   1
_chemical_formula_structural   Zr4Nb6GaSi7
_chemical_formula_sum   'Zr8 Nb12 Ga2 Si14'
_cell_volume   613.37759756
_cell_formula_units_Z   2
loop_
 _symmetry_equiv_pos_site_id
 _symmetry_equiv_pos_as_xyz
  1  'x, y, z'
loop_
 _atom_site_type_symbol
 _atom_site_label
 _atom_site_symmetry_multiplicity
 _atom_site_fract_x
 _atom_site_fract_y
 _atom_site_fract_z
 _atom_site_occupancy
  Zr  Zr0  1  0.000954  0.661133  0.032701  1
  Zr  Zr1  1  0.999046  0.338867  0.532701  1
  Zr  Zr2  1  0.654901  0.999484  0.968509  1
  Zr  Zr3  1  0.160991  0.500902  0.780501  1
  Zr  Zr4  1  0.839009  0.499098  0.280501  1
  Zr  Zr5  1  0.499192  0.157952  0.218321  1
  Zr  Zr6  1  0.500808  0.842048  0.718321  1
  Zr  Zr7  1  0.345099  0.000516  0.468509  1
  Nb  Nb8  1  0.352162  0.502015  0.375727  1
  Nb  Nb9  1  0.843950  0.000053  0.372054  1
  Nb  Nb10  1  0.005375  0.152273  0.128875  1
  Nb  Nb11  1  0.994625  0.847727  0.628875  1
  Nb  Nb12  1  0.647838  0.497985  0.875727  1
  Nb  Nb13  1  0.504287  0.347645  0.623664  1
  Nb  Nb14  1  0.495713  0.652355  0.123664  1
  Nb  Nb15  1  0.156050  0.999947  0.872054  1
  Nb  Nb16  1  0.666204  0.670918  0.501191  1
  Nb  Nb17  1  0.827423  0.168956  0.748272  1
  Nb  Nb18  1  0.172577  0.831044  0.248272  1
  Nb  Nb19  1  0.333796  0.329082  0.001191  1
  Ga  Ga20  1  0.043292  0.701543  0.435677  1
  Ga  Ga21  1  0.956708  0.298457  0.935677  1
  Si  Si22  1  0.704049  0.045104  0.562521  1
  Si  Si23  1  0.202388  0.454788  0.187490  1
  Si  Si24  1  0.797612  0.545212  0.687490  1
  Si  Si25  1  0.454252  0.203191  0.813139  1
  Si  Si26  1  0.545748  0.796809  0.313139  1
  Si  Si27  1  0.295951  0.954896  0.062521  1
  Si  Si28  1  0.864058  0.792620  0.823173  1
  Si  Si29  1  0.135942  0.207380  0.323173  1
  Si  Si30  1  0.792947  0.863823  0.177951  1
  Si  Si31  1  0.292794  0.636344  0.572672  1
  Si  Si32  1  0.707206  0.363656  0.072672  1
  Si  Si33  1  0.637117  0.293536  0.427563  1
  Si  Si34  1  0.362883  0.706464  0.927563  1
  Si  Si35  1  0.207053  0.136177  0.677951  1
