# generated using pymatgen
data_Ac7Dy13Si15Hg
_symmetry_space_group_name_H-M   'P 1'
_cell_length_a   7.91759706
_cell_length_b   7.89942824
_cell_length_c   15.21266300
_cell_angle_alpha   90.17113120
_cell_angle_beta   89.64257916
_cell_angle_gamma   89.99931231
_symmetry_Int_Tables_number   1
_chemical_formula_structural   Ac7Dy13Si15Hg
_chemical_formula_sum   'Ac7 Dy13 Si15 Hg1'
_cell_volume   951.44548787
_cell_formula_units_Z   1
loop_
 _symmetry_equiv_pos_site_id
 _symmetry_equiv_pos_as_xyz
  1  'x, y, z'
loop_
 _atom_site_type_symbol
 _atom_site_label
 _atom_site_symmetry_multiplicity
 _atom_site_fract_x
 _atom_site_fract_y
 _atom_site_fract_z
 _atom_site_occupancy
  Ac  Ac0  1  0.359843  0.012663  0.451154  1
  Ac  Ac1  1  0.487396  0.859887  0.704867  1
  Ac  Ac2  1  0.512687  0.134091  0.202063  1
  Ac  Ac3  1  0.860234  0.484875  0.290610  1
  Ac  Ac4  1  0.133734  0.523341  0.798459  1
  Ac  Ac5  1  0.643599  0.985000  0.960616  1
  Ac  Ac6  1  0.007591  0.366565  0.542585  1
  Dy  Dy7  1  0.314271  0.316620  0.999817  1
  Dy  Dy8  1  0.181048  0.813430  0.248089  1
  Dy  Dy9  1  0.806070  0.183528  0.754219  1
  Dy  Dy10  1  0.680593  0.680579  0.497879  1
  Dy  Dy11  1  0.000547  0.627696  0.053068  1
  Dy  Dy12  1  0.130328  0.983552  0.884439  1
  Dy  Dy13  1  0.513705  0.637927  0.126670  1
  Dy  Dy14  1  0.493050  0.365737  0.626157  1
  Dy  Dy15  1  0.642492  0.520499  0.879713  1
  Dy  Dy16  1  0.365949  0.489958  0.369300  1
  Dy  Dy17  1  0.862729  0.009007  0.373362  1
  Dy  Dy18  1  0.992127  0.134107  0.123042  1
  Dy  Dy19  1  0.001936  0.856072  0.618857  1
  Si  Si20  1  0.336406  0.694325  0.956033  1
  Si  Si21  1  0.654265  0.300646  0.446774  1
  Si  Si22  1  0.714752  0.356302  0.054709  1
  Si  Si23  1  0.302043  0.655163  0.547622  1
  Si  Si24  1  0.807673  0.839575  0.191975  1
  Si  Si25  1  0.155586  0.197812  0.298910  1
  Si  Si26  1  0.838688  0.807432  0.798976  1
  Si  Si27  1  0.279423  0.923089  0.064665  1
  Si  Si28  1  0.572441  0.783505  0.310494  1
  Si  Si29  1  0.442863  0.224889  0.819189  1
  Si  Si30  1  0.782638  0.570302  0.687212  1
  Si  Si31  1  0.216272  0.433949  0.184306  1
  Si  Si32  1  0.713167  0.069356  0.560449  1
  Si  Si33  1  0.935638  0.294947  0.941893  1
  Si  Si34  1  0.068669  0.713760  0.433418  1
  Hg  Hg35  1  0.189545  0.149812  0.698413  1
