# generated using pymatgen
data_RbEr(PSe3)2
_symmetry_space_group_name_H-M   'P 1'
_cell_length_a   7.61523400
_cell_length_b   6.90673045
_cell_length_c   11.08677483
_cell_angle_alpha   85.80220949
_cell_angle_beta   90.00000000
_cell_angle_gamma   90.00000000
_symmetry_Int_Tables_number   1
_chemical_formula_structural   RbEr(PSe3)2
_chemical_formula_sum   'Rb2 Er2 P4 Se12'
_cell_volume   581.55974828
_cell_formula_units_Z   2
loop_
 _symmetry_equiv_pos_site_id
 _symmetry_equiv_pos_as_xyz
  1  'x, y, z'
loop_
 _atom_site_type_symbol
 _atom_site_label
 _atom_site_symmetry_multiplicity
 _atom_site_fract_x
 _atom_site_fract_y
 _atom_site_fract_z
 _atom_site_occupancy
  Rb  Rb0  1  0.678869  0.195927  0.000586  1
  Rb  Rb1  1  0.178869  0.804073  0.999414  1
  Er  Er2  1  0.890760  0.279531  0.500606  1
  Er  Er3  1  0.390760  0.720469  0.499394  1
  P  P4  1  0.153691  0.290956  0.774037  1
  P  P5  1  0.653691  0.709044  0.225963  1
  P  P6  1  0.875691  0.825469  0.336250  1
  P  P7  1  0.375691  0.174531  0.663750  1
  Se  Se8  1  0.076482  0.588345  0.343189  1
  Se  Se9  1  0.940021  0.085848  0.749878  1
  Se  Se10  1  0.576482  0.411655  0.656811  1
  Se  Se11  1  0.234767  0.317484  0.958636  1
  Se  Se12  1  0.579474  0.447806  0.348345  1
  Se  Se13  1  0.079474  0.552194  0.651655  1
  Se  Se14  1  0.750582  0.872617  0.515565  1
  Se  Se15  1  0.250582  0.127383  0.484435  1
  Se  Se16  1  0.471465  0.891207  0.738952  1
  Se  Se17  1  0.971465  0.108793  0.261048  1
  Se  Se18  1  0.734767  0.682516  0.041364  1
  Se  Se19  1  0.440021  0.914152  0.250122  1
