# generated using pymatgen
data_La3Pr2Al2Os3
_symmetry_space_group_name_H-M   'P 1'
_cell_length_a   8.66596452
_cell_length_b   8.66596480
_cell_length_c   8.66596400
_cell_angle_alpha   109.47121409
_cell_angle_beta   109.47121474
_cell_angle_gamma   109.47122587
_symmetry_Int_Tables_number   1
_chemical_formula_structural   La3Pr2Al2Os3
_chemical_formula_sum   'La6 Pr4 Al4 Os6'
_cell_volume   500.98976739
_cell_formula_units_Z   2
loop_
 _symmetry_equiv_pos_site_id
 _symmetry_equiv_pos_as_xyz
  1  'x, y, z'
loop_
 _atom_site_type_symbol
 _atom_site_label
 _atom_site_symmetry_multiplicity
 _atom_site_fract_x
 _atom_site_fract_y
 _atom_site_fract_z
 _atom_site_occupancy
  La  La0  1  0.250000  0.687876  0.437876  1
  La  La1  1  0.750000  0.812124  0.062124  1
  La  La2  1  0.437876  0.250000  0.687876  1
  La  La3  1  0.687876  0.437876  0.250000  1
  La  La4  1  0.062124  0.750000  0.812124  1
  La  La5  1  0.812124  0.062124  0.750000  1
  Pr  Pr6  1  0.215189  0.215189  0.215189  1
  Pr  Pr7  1  0.500000  0.000000  0.284811  1
  Pr  Pr8  1  0.284811  0.500000  0.000000  1
  Pr  Pr9  1  0.000000  0.284811  0.500000  1
  Al  Al10  1  0.587110  0.587110  0.587110  1
  Al  Al11  1  0.500000  0.000000  0.912890  1
  Al  Al12  1  0.912890  0.500000  0.000000  1
  Al  Al13  1  0.000000  0.912890  0.500000  1
  Os  Os14  1  0.250000  0.113800  0.863800  1
  Os  Os15  1  0.750000  0.386200  0.636200  1
  Os  Os16  1  0.863799  0.250000  0.113800  1
  Os  Os17  1  0.113800  0.863799  0.250000  1
  Os  Os18  1  0.636200  0.750000  0.386200  1
  Os  Os19  1  0.386200  0.636200  0.750000  1
