# generated using pymatgen
data_Er12Th4MgCd2HgIr4
_symmetry_space_group_name_H-M   'P 1'
_cell_length_a   9.70756435
_cell_length_b   9.70756465
_cell_length_c   9.70756500
_cell_angle_alpha   59.85821857
_cell_angle_beta   59.85821073
_cell_angle_gamma   59.85822201
_symmetry_Int_Tables_number   1
_chemical_formula_structural   Er12Th4MgCd2HgIr4
_chemical_formula_sum   'Er12 Th4 Mg1 Cd2 Hg1 Ir4'
_cell_volume   644.78706232
_cell_formula_units_Z   1
loop_
 _symmetry_equiv_pos_site_id
 _symmetry_equiv_pos_as_xyz
  1  'x, y, z'
loop_
 _atom_site_type_symbol
 _atom_site_label
 _atom_site_symmetry_multiplicity
 _atom_site_fract_x
 _atom_site_fract_y
 _atom_site_fract_z
 _atom_site_occupancy
  Er  Er0  1  0.061831  0.438356  0.438770  1
  Er  Er1  1  0.437248  0.063935  0.063963  1
  Er  Er2  1  0.438356  0.061831  0.438770  1
  Er  Er3  1  0.063935  0.437248  0.063963  1
  Er  Er4  1  0.438339  0.438339  0.062007  1
  Er  Er5  1  0.063925  0.063925  0.437626  1
  Er  Er6  1  0.186907  0.816216  0.816328  1
  Er  Er7  1  0.815207  0.184992  0.187264  1
  Er  Er8  1  0.816216  0.186907  0.816328  1
  Er  Er9  1  0.184992  0.815207  0.187264  1
  Er  Er10  1  0.816014  0.816014  0.188372  1
  Er  Er11  1  0.185910  0.185910  0.815391  1
  Th  Th12  1  0.599348  0.599348  0.599361  1
  Th  Th13  1  0.600962  0.600962  0.198543  1
  Th  Th14  1  0.601259  0.197861  0.600988  1
  Th  Th15  1  0.197861  0.601259  0.600988  1
  Mg  Mg16  1  0.827983  0.827983  0.827707  1
  Cd  Cd17  1  0.831546  0.499231  0.832359  1
  Cd  Cd18  1  0.499231  0.831546  0.832359  1
  Hg  Hg19  1  0.834335  0.834335  0.492948  1
  Ir  Ir20  1  0.393166  0.393166  0.393150  1
  Ir  Ir21  1  0.391763  0.391763  0.821931  1
  Ir  Ir22  1  0.391815  0.821847  0.391808  1
  Ir  Ir23  1  0.821847  0.391815  0.391808  1
