# generated using pymatgen
data_Pr8Dy12Si15Au
_symmetry_space_group_name_H-M   'P 1'
_cell_length_a   7.51673502
_cell_length_b   7.86067681
_cell_length_c   14.93967100
_cell_angle_alpha   90.00000000
_cell_angle_beta   90.00000000
_cell_angle_gamma   90.61404951
_symmetry_Int_Tables_number   1
_chemical_formula_structural   Pr8Dy12Si15Au
_chemical_formula_sum   'Pr8 Dy12 Si15 Au1'
_cell_volume   882.68403820
_cell_formula_units_Z   1
loop_
 _symmetry_equiv_pos_site_id
 _symmetry_equiv_pos_as_xyz
  1  'x, y, z'
loop_
 _atom_site_type_symbol
 _atom_site_label
 _atom_site_symmetry_multiplicity
 _atom_site_fract_x
 _atom_site_fract_y
 _atom_site_fract_z
 _atom_site_occupancy
  Pr  Pr0  1  0.021160  0.182456  0.401239  1
  Pr  Pr1  1  0.520626  0.321065  0.400700  1
  Pr  Pr2  1  0.485853  0.668847  0.908771  1
  Pr  Pr3  1  0.485853  0.668847  0.591229  1
  Pr  Pr4  1  0.978430  0.822159  0.593980  1
  Pr  Pr5  1  0.978430  0.822159  0.906020  1
  Pr  Pr6  1  0.520626  0.321065  0.099300  1
  Pr  Pr7  1  0.021160  0.182456  0.098761  1
  Dy  Dy8  1  0.322229  0.184414  0.621203  1
  Dy  Dy9  1  0.677439  0.823139  0.375564  1
  Dy  Dy10  1  0.650471  0.977534  0.750000  1
  Dy  Dy11  1  0.177682  0.678082  0.376838  1
  Dy  Dy12  1  0.823850  0.319077  0.878242  1
  Dy  Dy13  1  0.823850  0.319077  0.621758  1
  Dy  Dy14  1  0.843087  0.490535  0.250000  1
  Dy  Dy15  1  0.342441  0.012922  0.250000  1
  Dy  Dy16  1  0.322229  0.184414  0.878797  1
  Dy  Dy17  1  0.177682  0.678082  0.123162  1
  Dy  Dy18  1  0.677439  0.823139  0.124436  1
  Dy  Dy19  1  0.161712  0.513749  0.750000  1
  Si  Si20  1  0.469251  0.612598  0.250000  1
  Si  Si21  1  0.025741  0.117876  0.750000  1
  Si  Si22  1  0.534766  0.387005  0.750000  1
  Si  Si23  1  0.146403  0.470665  0.539255  1
  Si  Si24  1  0.971953  0.887171  0.250000  1
  Si  Si25  1  0.726196  0.122017  0.250000  1
  Si  Si26  1  0.849577  0.532431  0.039968  1
  Si  Si27  1  0.353452  0.968219  0.038698  1
  Si  Si28  1  0.146403  0.470665  0.960745  1
  Si  Si29  1  0.645064  0.031463  0.538361  1
  Si  Si30  1  0.353452  0.968219  0.461302  1
  Si  Si31  1  0.849577  0.532431  0.460032  1
  Si  Si32  1  0.772515  0.615283  0.750000  1
  Si  Si33  1  0.227281  0.381619  0.250000  1
  Si  Si34  1  0.645064  0.031463  0.961639  1
  Au  Au35  1  0.271056  0.877660  0.750000  1
