# generated using pymatgen
data_Dy8Tm11Si16Ag
_symmetry_space_group_name_H-M   'P 1'
_cell_length_a   7.23830169
_cell_length_b   7.62934677
_cell_length_c   14.45237100
_cell_angle_alpha   90.00000000
_cell_angle_beta   90.00000000
_cell_angle_gamma   89.99025163
_symmetry_Int_Tables_number   1
_chemical_formula_structural   Dy8Tm11Si16Ag
_chemical_formula_sum   'Dy8 Tm11 Si16 Ag1'
_cell_volume   798.11069522
_cell_formula_units_Z   1
loop_
 _symmetry_equiv_pos_site_id
 _symmetry_equiv_pos_as_xyz
  1  'x, y, z'
loop_
 _atom_site_type_symbol
 _atom_site_label
 _atom_site_symmetry_multiplicity
 _atom_site_fract_x
 _atom_site_fract_y
 _atom_site_fract_z
 _atom_site_occupancy
  Dy  Dy0  1  0.016284  0.180517  0.096239  1
  Dy  Dy1  1  0.985405  0.808344  0.899566  1
  Dy  Dy2  1  0.477478  0.675946  0.900358  1
  Dy  Dy3  1  0.985405  0.808344  0.600434  1
  Dy  Dy4  1  0.515258  0.320781  0.095509  1
  Dy  Dy5  1  0.016284  0.180517  0.403761  1
  Dy  Dy6  1  0.515258  0.320781  0.404491  1
  Dy  Dy7  1  0.477478  0.675946  0.599642  1
  Tm  Tm8  1  0.838851  0.489509  0.250000  1
  Tm  Tm9  1  0.343595  0.011608  0.250000  1
  Tm  Tm10  1  0.653369  0.990087  0.750000  1
  Tm  Tm11  1  0.320654  0.185238  0.627191  1
  Tm  Tm12  1  0.674640  0.822635  0.377102  1
  Tm  Tm13  1  0.172861  0.682931  0.375711  1
  Tm  Tm14  1  0.674640  0.822635  0.122898  1
  Tm  Tm15  1  0.836999  0.325946  0.627143  1
  Tm  Tm16  1  0.320654  0.185238  0.872809  1
  Tm  Tm17  1  0.836999  0.325946  0.872857  1
  Tm  Tm18  1  0.172861  0.682931  0.124289  1
  Si  Si19  1  0.024424  0.083030  0.750000  1
  Si  Si20  1  0.970500  0.897179  0.250000  1
  Si  Si21  1  0.467652  0.609777  0.250000  1
  Si  Si22  1  0.532090  0.397559  0.750000  1
  Si  Si23  1  0.278523  0.872584  0.750000  1
  Si  Si24  1  0.722278  0.129231  0.250000  1
  Si  Si25  1  0.220450  0.372856  0.250000  1
  Si  Si26  1  0.769995  0.629465  0.750000  1
  Si  Si27  1  0.160875  0.462695  0.531017  1
  Si  Si28  1  0.845712  0.531464  0.462279  1
  Si  Si29  1  0.347129  0.969778  0.464361  1
  Si  Si30  1  0.845712  0.531464  0.037721  1
  Si  Si31  1  0.655303  0.031107  0.540934  1
  Si  Si32  1  0.160875  0.462695  0.968983  1
  Si  Si33  1  0.655303  0.031107  0.959066  1
  Si  Si34  1  0.347129  0.969778  0.035639  1
  Ag  Ag35  1  0.161071  0.522347  0.750000  1
