# generated using pymatgen
data_Er4Al18PtRh5
_symmetry_space_group_name_H-M   'P 1'
_cell_length_a   7.55230410
_cell_length_b   7.55230429
_cell_length_c   9.43866700
_cell_angle_alpha   89.99841284
_cell_angle_beta   89.99840949
_cell_angle_gamma   119.54513377
_symmetry_Int_Tables_number   1
_chemical_formula_structural   Er4Al18PtRh5
_chemical_formula_sum   'Er4 Al18 Pt1 Rh5'
_cell_volume   468.35229771
_cell_formula_units_Z   1
loop_
 _symmetry_equiv_pos_site_id
 _symmetry_equiv_pos_as_xyz
  1  'x, y, z'
loop_
 _atom_site_type_symbol
 _atom_site_label
 _atom_site_symmetry_multiplicity
 _atom_site_fract_x
 _atom_site_fract_y
 _atom_site_fract_z
 _atom_site_occupancy
  Er  Er0  1  0.994785  0.669733  0.750094  1
  Er  Er1  1  0.004620  0.329542  0.250110  1
  Er  Er2  1  0.670458  0.995380  0.749890  1
  Er  Er3  1  0.330267  0.005215  0.249906  1
  Al  Al4  1  0.126453  0.125798  0.750257  1
  Al  Al5  1  0.874202  0.873547  0.249743  1
  Al  Al6  1  0.003790  0.334930  0.576348  1
  Al  Al7  1  0.002988  0.668587  0.423654  1
  Al  Al8  1  0.000374  0.665241  0.074732  1
  Al  Al9  1  0.334759  0.999626  0.925268  1
  Al  Al10  1  0.000558  0.334676  0.924962  1
  Al  Al11  1  0.665324  0.999442  0.075038  1
  Al  Al12  1  0.665070  0.996210  0.423652  1
  Al  Al13  1  0.331413  0.997012  0.576346  1
  Al  Al14  1  0.332511  0.332620  0.052636  1
  Al  Al15  1  0.667380  0.667489  0.947364  1
  Al  Al16  1  0.666717  0.670002  0.554356  1
  Al  Al17  1  0.329998  0.333283  0.445644  1
  Al  Al18  1  0.339489  0.549777  0.750272  1
  Al  Al19  1  0.660885  0.453381  0.246964  1
  Al  Al20  1  0.546619  0.339115  0.753036  1
  Al  Al21  1  0.450223  0.660511  0.249728  1
  Pt  Pt22  1  0.672400  0.327600  0.500000  1
  Rh  Rh23  1  0.328067  0.671933  0.500000  1
  Rh  Rh24  1  0.328158  0.671842  0.000000  1
  Rh  Rh25  1  0.672356  0.327644  0.000000  1
  Rh  Rh26  1  0.000011  0.999989  0.500000  1
  Rh  Rh27  1  0.000124  0.999876  0.000000  1
