# generated using pymatgen
data_YHoTm2(Al3Rh)6
_symmetry_space_group_name_H-M   'P 1'
_cell_length_a   7.52728100
_cell_length_b   7.52709159
_cell_length_c   9.43374700
_cell_angle_alpha   90.00000000
_cell_angle_beta   90.00000000
_cell_angle_gamma   119.32395616
_symmetry_Int_Tables_number   1
_chemical_formula_structural   YHoTm2(Al3Rh)6
_chemical_formula_sum   'Y1 Ho1 Tm2 Al18 Rh6'
_cell_volume   466.01359723
_cell_formula_units_Z   1
loop_
 _symmetry_equiv_pos_site_id
 _symmetry_equiv_pos_as_xyz
  1  'x, y, z'
loop_
 _atom_site_type_symbol
 _atom_site_label
 _atom_site_symmetry_multiplicity
 _atom_site_fract_x
 _atom_site_fract_y
 _atom_site_fract_z
 _atom_site_occupancy
  Y  Y0  1  0.672305  0.994155  0.250000  1
  Ho  Ho1  1  0.994213  0.672230  0.250000  1
  Tm  Tm2  1  0.005842  0.327413  0.750000  1
  Tm  Tm3  1  0.327495  0.005869  0.750000  1
  Al  Al4  1  0.129132  0.128943  0.250000  1
  Al  Al5  1  0.871771  0.871923  0.750000  1
  Al  Al6  1  0.001029  0.335813  0.074727  1
  Al  Al7  1  0.999630  0.664232  0.923514  1
  Al  Al8  1  0.999630  0.664232  0.576486  1
  Al  Al9  1  0.335399  0.000770  0.425218  1
  Al  Al10  1  0.001029  0.335813  0.425273  1
  Al  Al11  1  0.664213  0.999675  0.576468  1
  Al  Al12  1  0.664213  0.999675  0.923532  1
  Al  Al13  1  0.335399  0.000770  0.074782  1
  Al  Al14  1  0.332399  0.332387  0.551348  1
  Al  Al15  1  0.667350  0.667161  0.450909  1
  Al  Al16  1  0.667350  0.667161  0.049091  1
  Al  Al17  1  0.332399  0.332387  0.948652  1
  Al  Al18  1  0.339812  0.550064  0.250000  1
  Al  Al19  1  0.659833  0.449106  0.750000  1
  Al  Al20  1  0.550306  0.340089  0.250000  1
  Al  Al21  1  0.449184  0.659974  0.750000  1
  Rh  Rh22  1  0.671993  0.327629  0.999392  1
  Rh  Rh23  1  0.327435  0.671883  0.999424  1
  Rh  Rh24  1  0.327435  0.671883  0.500576  1
  Rh  Rh25  1  0.671993  0.327629  0.500608  1
  Rh  Rh26  1  0.000605  0.000566  0.999103  1
  Rh  Rh27  1  0.000605  0.000566  0.500897  1
