# generated using pymatgen
data_Tb3Ho7(In2Ir)4
_symmetry_space_group_name_H-M   'P 1'
_cell_length_a   3.65040900
_cell_length_b   8.01031932
_cell_length_c   18.28973457
_cell_angle_alpha   89.99799955
_cell_angle_beta   90.00000000
_cell_angle_gamma   90.00000000
_symmetry_Int_Tables_number   1
_chemical_formula_structural   Tb3Ho7(In2Ir)4
_chemical_formula_sum   'Tb3 Ho7 In8 Ir4'
_cell_volume   534.80906292
_cell_formula_units_Z   1
loop_
 _symmetry_equiv_pos_site_id
 _symmetry_equiv_pos_as_xyz
  1  'x, y, z'
loop_
 _atom_site_type_symbol
 _atom_site_label
 _atom_site_symmetry_multiplicity
 _atom_site_fract_x
 _atom_site_fract_y
 _atom_site_fract_z
 _atom_site_occupancy
  Tb  Tb0  1  0.000000  0.499478  0.500267  1
  Tb  Tb1  1  0.000000  0.000123  0.999911  1
  Tb  Tb2  1  0.000000  0.117568  0.411101  1
  Ho  Ho3  1  0.000000  0.746492  0.277451  1
  Ho  Ho4  1  0.000000  0.254018  0.722370  1
  Ho  Ho5  1  0.000000  0.754063  0.778143  1
  Ho  Ho6  1  0.000000  0.246140  0.221656  1
  Ho  Ho7  1  0.000000  0.617359  0.089230  1
  Ho  Ho8  1  0.000000  0.382927  0.910563  1
  Ho  Ho9  1  0.000000  0.882480  0.589805  1
  In  In10  1  0.500000  0.705398  0.931662  1
  In  In11  1  0.500000  0.294835  0.068134  1
  In  In12  1  0.500000  0.792655  0.431294  1
  In  In13  1  0.500000  0.205472  0.569379  1
  In  In14  1  0.500000  0.570619  0.650447  1
  In  In15  1  0.500000  0.430643  0.349360  1
  In  In16  1  0.500000  0.929030  0.149880  1
  In  In17  1  0.500000  0.071040  0.849909  1
  Ir  Ir18  1  0.500000  0.521676  0.195172  1
  Ir  Ir19  1  0.500000  0.478441  0.804587  1
  Ir  Ir20  1  0.500000  0.978018  0.695896  1
  Ir  Ir21  1  0.500000  0.021526  0.303783  1
