# generated using pymatgen
data_Hf4V4SiP3
_symmetry_space_group_name_H-M   'P 1'
_cell_length_a   3.47674300
_cell_length_b   6.64658733
_cell_length_c   7.92831895
_cell_angle_alpha   89.88539463
_cell_angle_beta   90.00000000
_cell_angle_gamma   90.00000000
_symmetry_Int_Tables_number   1
_chemical_formula_structural   Hf4V4SiP3
_chemical_formula_sum   'Hf4 V4 Si1 P3'
_cell_volume   183.21100164
_cell_formula_units_Z   1
loop_
 _symmetry_equiv_pos_site_id
 _symmetry_equiv_pos_as_xyz
  1  'x, y, z'
loop_
 _atom_site_type_symbol
 _atom_site_label
 _atom_site_symmetry_multiplicity
 _atom_site_fract_x
 _atom_site_fract_y
 _atom_site_fract_z
 _atom_site_occupancy
  Hf  Hf0  1  0.250000  0.039109  0.830325  1
  Hf  Hf1  1  0.250000  0.539713  0.670040  1
  Hf  Hf2  1  0.750000  0.962114  0.165289  1
  Hf  Hf3  1  0.750000  0.455026  0.331343  1
  V  V4  1  0.250000  0.133163  0.442395  1
  V  V5  1  0.250000  0.628376  0.055608  1
  V  V6  1  0.750000  0.872636  0.562732  1
  V  V7  1  0.750000  0.368926  0.940646  1
  Si  Si8  1  0.250000  0.761096  0.364170  1
  P  P9  1  0.250000  0.261764  0.136810  1
  P  P10  1  0.750000  0.240015  0.637572  1
  P  P11  1  0.750000  0.738062  0.863070  1
