# generated using pymatgen
data_CaY4In5
_symmetry_space_group_name_H-M   'P 1'
_cell_length_a   3.65682800
_cell_length_b   3.65682800
_cell_length_c   20.17296200
_cell_angle_alpha   90.00000000
_cell_angle_beta   90.00000000
_cell_angle_gamma   90.00000000
_symmetry_Int_Tables_number   1
_chemical_formula_structural   CaY4In5
_chemical_formula_sum   'Ca1 Y4 In5'
_cell_volume   269.76073593
_cell_formula_units_Z   1
loop_
 _symmetry_equiv_pos_site_id
 _symmetry_equiv_pos_as_xyz
  1  'x, y, z'
loop_
 _atom_site_type_symbol
 _atom_site_label
 _atom_site_symmetry_multiplicity
 _atom_site_fract_x
 _atom_site_fract_y
 _atom_site_fract_z
 _atom_site_occupancy
  Ca  Ca0  1  0.000000  0.000000  0.000000  1
  Y  Y1  1  0.000000  0.000000  0.202095  1
  Y  Y2  1  0.000000  0.000000  0.400874  1
  Y  Y3  1  0.000000  0.000000  0.599126  1
  Y  Y4  1  0.000000  0.000000  0.797905  1
  In  In5  1  0.500000  0.500000  0.102896  1
  In  In6  1  0.500000  0.500000  0.301530  1
  In  In7  1  0.500000  0.500000  0.500000  1
  In  In8  1  0.500000  0.500000  0.698470  1
  In  In9  1  0.500000  0.500000  0.897104  1
