# generated using pymatgen
data_Nd5YAl24Os7Ru
_symmetry_space_group_name_H-M   'P 1'
_cell_length_a   8.88625300
_cell_length_b   8.90737023
_cell_length_c   9.69814600
_cell_angle_alpha   89.99680588
_cell_angle_beta   90.00000000
_cell_angle_gamma   119.92161057
_symmetry_Int_Tables_number   1
_chemical_formula_structural   Nd5YAl24Os7Ru
_chemical_formula_sum   'Nd5 Y1 Al24 Os7 Ru1'
_cell_volume   665.31916821
_cell_formula_units_Z   1
loop_
 _symmetry_equiv_pos_site_id
 _symmetry_equiv_pos_as_xyz
  1  'x, y, z'
loop_
 _atom_site_type_symbol
 _atom_site_label
 _atom_site_symmetry_multiplicity
 _atom_site_fract_x
 _atom_site_fract_y
 _atom_site_fract_z
 _atom_site_occupancy
  Nd  Nd0  1  0.807214  0.614428  0.749822  1
  Nd  Nd1  1  0.616160  0.808689  0.250152  1
  Nd  Nd2  1  0.383934  0.191080  0.749890  1
  Nd  Nd3  1  0.192530  0.808689  0.250152  1
  Nd  Nd4  1  0.807145  0.191080  0.749890  1
  Y  Y5  1  0.194003  0.388005  0.250154  1
  Al  Al6  1  0.333169  0.666340  0.013529  1
  Al  Al7  1  0.666506  0.333012  0.989358  1
  Al  Al8  1  0.666506  0.333012  0.509825  1
  Al  Al9  1  0.333172  0.666346  0.487257  1
  Al  Al10  1  0.163524  0.327049  0.572558  1
  Al  Al11  1  0.836329  0.672657  0.424400  1
  Al  Al12  1  0.672299  0.836112  0.573306  1
  Al  Al13  1  0.836337  0.672675  0.074906  1
  Al  Al14  1  0.326408  0.164346  0.425164  1
  Al  Al15  1  0.163520  0.327040  0.928187  1
  Al  Al16  1  0.163812  0.836112  0.573306  1
  Al  Al17  1  0.326418  0.164213  0.074146  1
  Al  Al18  1  0.837939  0.164346  0.425164  1
  Al  Al19  1  0.672337  0.836231  0.927334  1
  Al  Al20  1  0.837794  0.164213  0.074146  1
  Al  Al21  1  0.163894  0.836231  0.927334  1
  Al  Al22  1  0.562750  0.125500  0.249833  1
  Al  Al23  1  0.437206  0.874411  0.750140  1
  Al  Al24  1  0.877685  0.437621  0.249895  1
  Al  Al25  1  0.124484  0.561523  0.750161  1
  Al  Al26  1  0.559936  0.437621  0.249895  1
  Al  Al27  1  0.437040  0.561523  0.750161  1
  Al  Al28  1  0.002287  0.004574  0.251430  1
  Al  Al29  1  0.999329  0.998657  0.748441  1
  Os  Os30  1  0.499895  0.999790  0.000218  1
  Os  Os31  1  0.000734  0.499379  0.001059  1
  Os  Os32  1  0.499895  0.999791  0.499752  1
  Os  Os33  1  0.498644  0.499379  0.001059  1
  Os  Os34  1  0.000711  0.499362  0.499035  1
  Os  Os35  1  0.498650  0.499362  0.499035  1
  Os  Os36  1  0.999878  0.999757  0.000233  1
  Ru  Ru37  1  0.999922  0.999845  0.499672  1
