# generated using pymatgen
data_Tb4Pt11Au
_symmetry_space_group_name_H-M   'P 1'
_cell_length_a   4.14547000
_cell_length_b   5.86779334
_cell_length_c   11.74553621
_cell_angle_alpha   89.91092702
_cell_angle_beta   90.00000000
_cell_angle_gamma   90.00000000
_symmetry_Int_Tables_number   1
_chemical_formula_structural   Tb4Pt11Au
_chemical_formula_sum   'Tb4 Pt11 Au1'
_cell_volume   285.70701905
_cell_formula_units_Z   1
loop_
 _symmetry_equiv_pos_site_id
 _symmetry_equiv_pos_as_xyz
  1  'x, y, z'
loop_
 _atom_site_type_symbol
 _atom_site_label
 _atom_site_symmetry_multiplicity
 _atom_site_fract_x
 _atom_site_fract_y
 _atom_site_fract_z
 _atom_site_occupancy
  Tb  Tb0  1  0.500000  0.754616  0.375278  1
  Tb  Tb1  1  0.500000  0.737864  0.871031  1
  Tb  Tb2  1  0.500000  0.262136  0.128969  1
  Tb  Tb3  1  0.500000  0.245384  0.624722  1
  Pt  Pt4  1  0.000000  0.007980  0.251613  1
  Pt  Pt5  1  0.000000  0.992020  0.748387  1
  Pt  Pt6  1  0.000000  0.500000  0.000000  1
  Pt  Pt7  1  0.000000  0.500000  0.500000  1
  Pt  Pt8  1  0.000000  0.509173  0.249973  1
  Pt  Pt9  1  0.000000  0.490827  0.750027  1
  Pt  Pt10  1  0.500000  0.254958  0.375849  1
  Pt  Pt11  1  0.500000  0.243271  0.874661  1
  Pt  Pt12  1  0.500000  0.756729  0.125339  1
  Pt  Pt13  1  0.500000  0.745042  0.624151  1
  Pt  Pt14  1  0.000000  0.000000  0.500000  1
  Au  Au15  1  0.000000  0.000000  0.000000  1
