# generated using pymatgen
data_Lu10Si6S
_symmetry_space_group_name_H-M   'P 1'
_cell_length_a   8.33578600
_cell_length_b   8.33578562
_cell_length_c   6.25074800
_cell_angle_alpha   90.00000000
_cell_angle_beta   90.00000000
_cell_angle_gamma   120.00000150
_symmetry_Int_Tables_number   1
_chemical_formula_structural   Lu10Si6S
_chemical_formula_sum   'Lu10 Si6 S1'
_cell_volume   376.14536047
_cell_formula_units_Z   1
loop_
 _symmetry_equiv_pos_site_id
 _symmetry_equiv_pos_as_xyz
  1  'x, y, z'
loop_
 _atom_site_type_symbol
 _atom_site_label
 _atom_site_symmetry_multiplicity
 _atom_site_fract_x
 _atom_site_fract_y
 _atom_site_fract_z
 _atom_site_occupancy
  Lu  Lu0  1  0.333333  0.666667  0.500000  1
  Lu  Lu1  1  0.666667  0.333333  0.500000  1
  Lu  Lu2  1  0.666667  0.333333  0.000000  1
  Lu  Lu3  1  0.333333  0.666667  0.000000  1
  Lu  Lu4  1  0.000000  0.749737  0.242739  1
  Lu  Lu5  1  0.250263  0.250263  0.242739  1
  Lu  Lu6  1  0.749737  0.000000  0.242739  1
  Lu  Lu7  1  0.000000  0.250263  0.757261  1
  Lu  Lu8  1  0.749737  0.749737  0.757261  1
  Lu  Lu9  1  0.250263  0.000000  0.757261  1
  Si  Si10  1  0.000000  0.394119  0.246196  1
  Si  Si11  1  0.605881  0.605881  0.246196  1
  Si  Si12  1  0.394119  0.000000  0.246196  1
  Si  Si13  1  0.000000  0.605881  0.753804  1
  Si  Si14  1  0.394119  0.394119  0.753804  1
  Si  Si15  1  0.605881  0.000000  0.753804  1
  S  S16  1  0.000000  0.000000  0.500000  1
