# generated using pymatgen
data_TbDyNp2O8
_symmetry_space_group_name_H-M   'P 1'
_cell_length_a   6.49833450
_cell_length_b   6.49833552
_cell_length_c   5.40729503
_cell_angle_alpha   67.79428960
_cell_angle_beta   67.79428960
_cell_angle_gamma   111.69777337
_symmetry_Int_Tables_number   1
_chemical_formula_structural   TbDyNp2O8
_chemical_formula_sum   'Tb1 Dy1 Np2 O8'
_cell_volume   156.88106296
_cell_formula_units_Z   1
loop_
 _symmetry_equiv_pos_site_id
 _symmetry_equiv_pos_as_xyz
  1  'x, y, z'
loop_
 _atom_site_type_symbol
 _atom_site_label
 _atom_site_symmetry_multiplicity
 _atom_site_fract_x
 _atom_site_fract_y
 _atom_site_fract_z
 _atom_site_occupancy
  Tb  Tb0  1  0.626359  0.373641  0.250000  1
  Dy  Dy1  1  0.373586  0.626414  0.750000  1
  Np  Np2  1  0.121920  0.878080  0.250000  1
  Np  Np3  1  0.878118  0.121882  0.750000  1
  O  O4  1  0.541735  0.033966  0.723204  1
  O  O5  1  0.766262  0.760515  0.764792  1
  O  O6  1  0.239485  0.233738  0.735208  1
  O  O7  1  0.035231  0.542158  0.222251  1
  O  O8  1  0.966034  0.458265  0.776796  1
  O  O9  1  0.759983  0.766556  0.265659  1
  O  O10  1  0.233444  0.240017  0.234341  1
  O  O11  1  0.457842  0.964769  0.277749  1
