# generated using pymatgen
data_Dy3Ho9Tc3Ru
_symmetry_space_group_name_H-M   'P 1'
_cell_length_a   6.27015101
_cell_length_b   7.38013167
_cell_length_c   9.13011900
_cell_angle_alpha   90.00000000
_cell_angle_beta   90.00000000
_cell_angle_gamma   89.95769847
_symmetry_Int_Tables_number   1
_chemical_formula_structural   Dy3Ho9Tc3Ru
_chemical_formula_sum   'Dy3 Ho9 Tc3 Ru1'
_cell_volume   422.49194237
_cell_formula_units_Z   1
loop_
 _symmetry_equiv_pos_site_id
 _symmetry_equiv_pos_as_xyz
  1  'x, y, z'
loop_
 _atom_site_type_symbol
 _atom_site_label
 _atom_site_symmetry_multiplicity
 _atom_site_fract_x
 _atom_site_fract_y
 _atom_site_fract_z
 _atom_site_occupancy
  Dy  Dy0  1  0.873509  0.540275  0.250000  1
  Dy  Dy1  1  0.625809  0.039085  0.250000  1
  Dy  Dy2  1  0.131063  0.458848  0.750000  1
  Ho  Ho3  1  0.334924  0.676646  0.063323  1
  Ho  Ho4  1  0.162509  0.175542  0.437364  1
  Ho  Ho5  1  0.662964  0.324449  0.562978  1
  Ho  Ho6  1  0.836062  0.824129  0.937406  1
  Ho  Ho7  1  0.662964  0.324449  0.937022  1
  Ho  Ho8  1  0.836062  0.824129  0.562594  1
  Ho  Ho9  1  0.334924  0.676646  0.436677  1
  Ho  Ho10  1  0.162509  0.175542  0.062636  1
  Ho  Ho11  1  0.373326  0.958001  0.750000  1
  Tc  Tc12  1  0.040126  0.884504  0.250000  1
  Tc  Tc13  1  0.461970  0.386676  0.250000  1
  Tc  Tc14  1  0.961735  0.115083  0.750000  1
  Ru  Ru15  1  0.539545  0.615993  0.750000  1
