# generated using pymatgen
data_Be14VIr16W
_symmetry_space_group_name_H-M   'P 1'
_cell_length_a   8.54451330
_cell_length_b   8.54460663
_cell_length_c   8.54460722
_cell_angle_alpha   140.90986999
_cell_angle_beta   96.51863894
_cell_angle_gamma   96.33383150
_symmetry_Int_Tables_number   1
_chemical_formula_structural   Be14VIr16W
_chemical_formula_sum   'Be14 V1 Ir16 W1'
_cell_volume   370.68898881
_cell_formula_units_Z   1
loop_
 _symmetry_equiv_pos_site_id
 _symmetry_equiv_pos_as_xyz
  1  'x, y, z'
loop_
 _atom_site_type_symbol
 _atom_site_label
 _atom_site_symmetry_multiplicity
 _atom_site_fract_x
 _atom_site_fract_y
 _atom_site_fract_z
 _atom_site_occupancy
  Be  Be0  1  0.124726  0.249855  0.874870  1
  Be  Be1  1  0.377265  0.250257  0.127007  1
  Be  Be2  1  0.873368  0.250233  0.623134  1
  Be  Be3  1  0.372994  0.497961  0.875032  1
  Be  Be4  1  0.634559  0.498939  0.135621  1
  Be  Be5  1  0.113272  0.499020  0.614251  1
  Be  Be6  1  0.877598  0.502467  0.375130  1
  Be  Be7  1  0.877162  0.002153  0.875009  1
  Be  Be8  1  0.136450  0.000593  0.135856  1
  Be  Be9  1  0.614565  0.000504  0.614061  1
  Be  Be10  1  0.372848  0.997774  0.375074  1
  Be  Be11  1  0.624892  0.750044  0.874847  1
  Be  Be12  1  0.881793  0.750254  0.131538  1
  Be  Be13  1  0.368963  0.750279  0.618683  1
  V  V14  1  0.124738  0.749783  0.374956  1
  Ir  Ir15  1  0.125243  0.366692  0.245557  1
  Ir  Ir16  1  0.125243  0.879686  0.758550  1
  Ir  Ir17  1  0.871042  0.366640  0.991446  1
  Ir  Ir18  1  0.366732  0.860972  0.985737  1
  Ir  Ir19  1  0.871042  0.879596  0.504401  1
  Ir  Ir20  1  0.366732  0.380995  0.505760  1
  Ir  Ir21  1  0.625252  0.860926  0.244193  1
  Ir  Ir22  1  0.625252  0.381060  0.764326  1
  Ir  Ir23  1  0.883207  0.118992  0.244136  1
  Ir  Ir24  1  0.883207  0.639072  0.764216  1
  Ir  Ir25  1  0.624888  0.119093  0.985861  1
  Ir  Ir26  1  0.124935  0.620394  0.991631  1
  Ir  Ir27  1  0.624888  0.639028  0.505794  1
  Ir  Ir28  1  0.124935  0.133305  0.504542  1
  Ir  Ir29  1  0.378658  0.620326  0.245420  1
  Ir  Ir30  1  0.378658  0.133238  0.758331  1
  W  W31  1  0.624892  0.249866  0.375026  1
