# generated using pymatgen
data_Tb2Ho(SiNi3)2
_symmetry_space_group_name_H-M   'P 1'
_cell_length_a   7.60052631
_cell_length_b   7.60052615
_cell_length_c   7.60177358
_cell_angle_alpha   109.43765233
_cell_angle_beta   109.43765628
_cell_angle_gamma   109.53173945
_symmetry_Int_Tables_number   1
_chemical_formula_structural   Tb2Ho(SiNi3)2
_chemical_formula_sum   'Tb4 Ho2 Si4 Ni12'
_cell_volume   338.07691297
_cell_formula_units_Z   2
loop_
 _symmetry_equiv_pos_site_id
 _symmetry_equiv_pos_as_xyz
  1  'x, y, z'
loop_
 _atom_site_type_symbol
 _atom_site_label
 _atom_site_symmetry_multiplicity
 _atom_site_fract_x
 _atom_site_fract_y
 _atom_site_fract_z
 _atom_site_occupancy
  Tb  Tb0  1  0.715026  0.715026  0.000088  1
  Tb  Tb1  1  0.285170  0.000048  0.285217  1
  Tb  Tb2  1  0.000048  0.285170  0.285217  1
  Tb  Tb3  1  0.285062  0.285062  0.000088  1
  Ho  Ho4  1  0.713635  0.000080  0.713715  1
  Ho  Ho5  1  0.000080  0.713635  0.713715  1
  Si  Si6  1  0.999870  0.999870  0.500938  1
  Si  Si7  1  0.999898  0.499898  0.999797  1
  Si  Si8  1  0.499898  0.999898  0.999797  1
  Si  Si9  1  0.501068  0.501068  0.500938  1
  Ni  Ni10  1  0.330754  0.330754  0.661509  1
  Ni  Ni11  1  0.668449  0.999401  0.331447  1
  Ni  Ni12  1  0.999401  0.668449  0.331447  1
  Ni  Ni13  1  0.668474  0.329065  0.997540  1
  Ni  Ni14  1  0.332047  0.662998  0.331447  1
  Ni  Ni15  1  0.999334  0.330576  0.669258  1
  Ni  Ni16  1  0.329065  0.668474  0.997540  1
  Ni  Ni17  1  0.330576  0.999334  0.669258  1
  Ni  Ni18  1  0.662998  0.332047  0.331447  1
  Ni  Ni19  1  0.670541  0.670541  0.341082  1
  Ni  Ni20  1  0.669924  0.338682  0.669258  1
  Ni  Ni21  1  0.338682  0.669924  0.669258  1
