# generated using pymatgen
data_Nd5GeTe4
_symmetry_space_group_name_H-M   'P 1'
_cell_length_a   7.83377330
_cell_length_b   7.83377195
_cell_length_c   11.04240600
_cell_angle_alpha   61.11789332
_cell_angle_beta   61.11789877
_cell_angle_gamma   32.46922381
_symmetry_Int_Tables_number   1
_chemical_formula_structural   Nd5GeTe4
_chemical_formula_sum   'Nd5 Ge1 Te4'
_cell_volume   314.40781394
_cell_formula_units_Z   1
loop_
 _symmetry_equiv_pos_site_id
 _symmetry_equiv_pos_as_xyz
  1  'x, y, z'
loop_
 _atom_site_type_symbol
 _atom_site_label
 _atom_site_symmetry_multiplicity
 _atom_site_fract_x
 _atom_site_fract_y
 _atom_site_fract_z
 _atom_site_occupancy
  Nd  Nd0  1  0.000000  0.000000  0.500000  1
  Nd  Nd1  1  0.587825  0.587825  0.090772  1
  Nd  Nd2  1  0.186226  0.186226  0.725632  1
  Nd  Nd3  1  0.813774  0.813774  0.274368  1
  Nd  Nd4  1  0.412175  0.412175  0.909228  1
  Ge  Ge5  1  0.000000  0.000000  0.000000  1
  Te  Te6  1  0.606570  0.606570  0.591402  1
  Te  Te7  1  0.196075  0.196075  0.196289  1
  Te  Te8  1  0.803925  0.803925  0.803711  1
  Te  Te9  1  0.393430  0.393430  0.408598  1
