# generated using pymatgen
data_Zr6Zn15Si(Ag3Au)2
_symmetry_space_group_name_H-M   'P 1'
_cell_length_a   8.94772404
_cell_length_b   8.92574008
_cell_length_c   8.92574000
_cell_angle_alpha   60.00000028
_cell_angle_beta   60.08124177
_cell_angle_gamma   60.08123422
_symmetry_Int_Tables_number   1
_chemical_formula_structural   Zr6Zn15Si(Ag3Au)2
_chemical_formula_sum   'Zr6 Zn15 Si1 Ag6 Au2'
_cell_volume   504.68249069
_cell_formula_units_Z   1
loop_
 _symmetry_equiv_pos_site_id
 _symmetry_equiv_pos_as_xyz
  1  'x, y, z'
loop_
 _atom_site_type_symbol
 _atom_site_label
 _atom_site_symmetry_multiplicity
 _atom_site_fract_x
 _atom_site_fract_y
 _atom_site_fract_z
 _atom_site_occupancy
  Zr  Zr0  1  0.706984  0.291283  0.291283  1
  Zr  Zr1  1  0.293016  0.708717  0.708717  1
  Zr  Zr2  1  0.293016  0.708717  0.289549  1
  Zr  Zr3  1  0.706984  0.291283  0.710451  1
  Zr  Zr4  1  0.293016  0.289549  0.708717  1
  Zr  Zr5  1  0.706984  0.710451  0.291283  1
  Zn  Zn6  1  0.500000  0.000000  0.000000  1
  Zn  Zn7  1  0.000000  0.500000  0.500000  1
  Zn  Zn8  1  0.000000  0.500000  0.000000  1
  Zn  Zn9  1  0.500000  0.000000  0.500000  1
  Zn  Zn10  1  0.000000  0.000000  0.500000  1
  Zn  Zn11  1  0.500000  0.500000  0.000000  1
  Zn  Zn12  1  0.336500  0.337134  0.337134  1
  Zn  Zn13  1  0.663500  0.662866  0.662866  1
  Zn  Zn14  1  0.336500  0.337134  0.989231  1
  Zn  Zn15  1  0.336500  0.989231  0.337134  1
  Zn  Zn16  1  0.663500  0.662866  0.010769  1
  Zn  Zn17  1  0.663500  0.010769  0.662866  1
  Zn  Zn18  1  0.989380  0.336873  0.336873  1
  Zn  Zn19  1  0.010620  0.663127  0.663127  1
  Zn  Zn20  1  0.000000  0.000000  0.000000  1
  Si  Si21  1  0.500000  0.500000  0.500000  1
  Ag  Ag22  1  0.120627  0.122343  0.122343  1
  Ag  Ag23  1  0.879373  0.877657  0.877657  1
  Ag  Ag24  1  0.120627  0.122343  0.634686  1
  Ag  Ag25  1  0.120627  0.634686  0.122343  1
  Ag  Ag26  1  0.879373  0.877657  0.365314  1
  Ag  Ag27  1  0.879373  0.365314  0.877657  1
  Au  Au28  1  0.636635  0.121122  0.121122  1
  Au  Au29  1  0.363365  0.878878  0.878878  1
