# generated using pymatgen
data_Tm3Mg3SnPbAu
_symmetry_space_group_name_H-M   'P 1'
_cell_length_a   7.47943900
_cell_length_b   7.47944046
_cell_length_c   4.45661700
_cell_angle_alpha   90.00000000
_cell_angle_beta   90.00000000
_cell_angle_gamma   120.00000681
_symmetry_Int_Tables_number   1
_chemical_formula_structural   Tm3Mg3SnPbAu
_chemical_formula_sum   'Tm3 Mg3 Sn1 Pb1 Au1'
_cell_volume   215.91064180
_cell_formula_units_Z   1
loop_
 _symmetry_equiv_pos_site_id
 _symmetry_equiv_pos_as_xyz
  1  'x, y, z'
loop_
 _atom_site_type_symbol
 _atom_site_label
 _atom_site_symmetry_multiplicity
 _atom_site_fract_x
 _atom_site_fract_y
 _atom_site_fract_z
 _atom_site_occupancy
  Tm  Tm0  1  0.594084  0.997331  0.000000  1
  Tm  Tm1  1  0.002669  0.596753  0.000000  1
  Tm  Tm2  1  0.403247  0.405916  0.000000  1
  Mg  Mg3  1  0.234020  0.997868  0.500000  1
  Mg  Mg4  1  0.002132  0.236152  0.500000  1
  Mg  Mg5  1  0.763848  0.765980  0.500000  1
  Sn  Sn6  1  0.333333  0.666667  0.500000  1
  Pb  Pb7  1  0.666667  0.333333  0.500000  1
  Au  Au8  1  0.000000  0.000000  0.000000  1
