# generated using pymatgen
data_Er4BC2I3
_symmetry_space_group_name_H-M   'P 1'
_cell_length_a   10.45010766
_cell_length_b   3.71144200
_cell_length_c   12.40116137
_cell_angle_alpha   90.00000000
_cell_angle_beta   104.56115881
_cell_angle_gamma   90.00000000
_symmetry_Int_Tables_number   1
_chemical_formula_structural   Er4BC2I3
_chemical_formula_sum   'Er8 B2 C4 I6'
_cell_volume   465.52953577
_cell_formula_units_Z   2
loop_
 _symmetry_equiv_pos_site_id
 _symmetry_equiv_pos_as_xyz
  1  'x, y, z'
loop_
 _atom_site_type_symbol
 _atom_site_label
 _atom_site_symmetry_multiplicity
 _atom_site_fract_x
 _atom_site_fract_y
 _atom_site_fract_z
 _atom_site_occupancy
  Er  Er0  1  0.723524  0.250000  0.001169  1
  Er  Er1  1  0.541899  0.750000  0.194977  1
  Er  Er2  1  0.311620  0.250000  0.272162  1
  Er  Er3  1  0.610233  0.250000  0.458398  1
  Er  Er4  1  0.389766  0.750000  0.541602  1
  Er  Er5  1  0.688380  0.750000  0.727838  1
  Er  Er6  1  0.458101  0.250000  0.805023  1
  Er  Er7  1  0.276476  0.750000  0.998831  1
  B  B8  1  0.472416  0.250000  0.022759  1
  B  B9  1  0.527583  0.750000  0.977241  1
  C  C10  1  0.388917  0.250000  0.111547  1
  C  C11  1  0.460183  0.750000  0.367453  1
  C  C12  1  0.539816  0.250000  0.632548  1
  C  C13  1  0.611084  0.750000  0.888453  1
  I  I14  1  0.072190  0.750000  0.143466  1
  I  I15  1  0.784894  0.250000  0.262080  1
  I  I16  1  0.150120  0.250000  0.450075  1
  I  I17  1  0.849881  0.750000  0.549925  1
  I  I18  1  0.215106  0.750000  0.737919  1
  I  I19  1  0.927810  0.250000  0.856534  1
