# generated using pymatgen
data_MgTa2TiPd12
_symmetry_space_group_name_H-M   'P 1'
_cell_length_a   5.61128100
_cell_length_b   5.61128048
_cell_length_c   9.10811600
_cell_angle_alpha   90.00000000
_cell_angle_beta   90.00000000
_cell_angle_gamma   120.00000898
_symmetry_Int_Tables_number   1
_chemical_formula_structural   MgTa2TiPd12
_chemical_formula_sum   'Mg1 Ta2 Ti1 Pd12'
_cell_volume   248.36085162
_cell_formula_units_Z   1
loop_
 _symmetry_equiv_pos_site_id
 _symmetry_equiv_pos_as_xyz
  1  'x, y, z'
loop_
 _atom_site_type_symbol
 _atom_site_label
 _atom_site_symmetry_multiplicity
 _atom_site_fract_x
 _atom_site_fract_y
 _atom_site_fract_z
 _atom_site_occupancy
  Mg  Mg0  1  0.333333  0.666667  0.249319  1
  Ta  Ta1  1  0.000000  0.000000  0.492419  1
  Ta  Ta2  1  0.666667  0.333333  0.753272  1
  Ti  Ti3  1  0.000000  0.000000  0.005667  1
  Pd  Pd4  1  0.501734  0.498266  0.504070  1
  Pd  Pd5  1  0.501734  0.003467  0.504070  1
  Pd  Pd6  1  0.996533  0.498266  0.504070  1
  Pd  Pd7  1  0.501787  0.498213  0.995887  1
  Pd  Pd8  1  0.501787  0.003573  0.995887  1
  Pd  Pd9  1  0.996427  0.498213  0.995887  1
  Pd  Pd10  1  0.832960  0.665920  0.250129  1
  Pd  Pd11  1  0.334080  0.167040  0.250129  1
  Pd  Pd12  1  0.832960  0.167040  0.250129  1
  Pd  Pd13  1  0.165803  0.331606  0.749688  1
  Pd  Pd14  1  0.668394  0.834197  0.749688  1
  Pd  Pd15  1  0.165803  0.834197  0.749688  1
