# generated using pymatgen
data_LiHo16Cd(InRh2)2
_symmetry_space_group_name_H-M   'P 1'
_cell_length_a   9.62840447
_cell_length_b   9.58769374
_cell_length_c   9.62388500
_cell_angle_alpha   59.97085298
_cell_angle_beta   59.98446705
_cell_angle_gamma   59.85944472
_symmetry_Int_Tables_number   1
_chemical_formula_structural   LiHo16Cd(InRh2)2
_chemical_formula_sum   'Li1 Ho16 Cd1 In2 Rh4'
_cell_volume   627.32706075
_cell_formula_units_Z   1
loop_
 _symmetry_equiv_pos_site_id
 _symmetry_equiv_pos_as_xyz
  1  'x, y, z'
loop_
 _atom_site_type_symbol
 _atom_site_label
 _atom_site_symmetry_multiplicity
 _atom_site_fract_x
 _atom_site_fract_y
 _atom_site_fract_z
 _atom_site_occupancy
  Li  Li0  1  0.927434  0.928346  0.216786  1
  Ho  Ho1  1  0.936801  0.936892  0.563493  1
  Ho  Ho2  1  0.566607  0.561194  0.937096  1
  Ho  Ho3  1  0.686655  0.688734  0.313195  1
  Ho  Ho4  1  0.153156  0.546950  0.146739  1
  Ho  Ho5  1  0.688462  0.310581  0.691216  1
  Ho  Ho6  1  0.154771  0.151784  0.150275  1
  Ho  Ho7  1  0.543167  0.151784  0.150275  1
  Ho  Ho8  1  0.686556  0.312962  0.313924  1
  Ho  Ho9  1  0.150183  0.148228  0.551404  1
  Ho  Ho10  1  0.311416  0.688734  0.313195  1
  Ho  Ho11  1  0.308299  0.690933  0.692469  1
  Ho  Ho12  1  0.938619  0.561065  0.561695  1
  Ho  Ho13  1  0.935101  0.561194  0.937096  1
  Ho  Ho14  1  0.562815  0.936892  0.563493  1
  Ho  Ho15  1  0.564734  0.934243  0.936289  1
  Ho  Ho16  1  0.309740  0.310581  0.691216  1
  Cd  Cd17  1  0.916558  0.244638  0.922245  1
  In  In18  1  0.245251  0.918015  0.921362  1
  In  In19  1  0.915374  0.918015  0.921362  1
  Rh  Rh20  1  0.358066  0.357374  0.926493  1
  Rh  Rh21  1  0.356924  0.927163  0.358990  1
  Rh  Rh22  1  0.927234  0.356846  0.359845  1
  Rh  Rh23  1  0.356075  0.356846  0.359845  1
