# generated using pymatgen
data_Rb4HfSe4
_symmetry_space_group_name_H-M   'P 1'
_cell_length_a   9.34053588
_cell_length_b   9.34053647
_cell_length_c   8.21023587
_cell_angle_alpha   99.94856772
_cell_angle_beta   99.94856841
_cell_angle_gamma   89.19779484
_symmetry_Int_Tables_number   1
_chemical_formula_structural   Rb4HfSe4
_chemical_formula_sum   'Rb8 Hf2 Se8'
_cell_volume   694.83444737
_cell_formula_units_Z   2
loop_
 _symmetry_equiv_pos_site_id
 _symmetry_equiv_pos_as_xyz
  1  'x, y, z'
loop_
 _atom_site_type_symbol
 _atom_site_label
 _atom_site_symmetry_multiplicity
 _atom_site_fract_x
 _atom_site_fract_y
 _atom_site_fract_z
 _atom_site_occupancy
  Rb  Rb0  1  0.593163  0.386631  0.020301  1
  Rb  Rb1  1  0.227774  0.950686  0.396897  1
  Rb  Rb2  1  0.789660  0.780470  0.416551  1
  Rb  Rb3  1  0.027845  0.392547  0.446280  1
  Rb  Rb4  1  0.386630  0.593163  0.520302  1
  Rb  Rb5  1  0.950686  0.227774  0.896898  1
  Rb  Rb6  1  0.780471  0.789660  0.916552  1
  Rb  Rb7  1  0.392547  0.027845  0.946279  1
  Hf  Hf8  1  0.621002  0.207476  0.461046  1
  Hf  Hf9  1  0.207476  0.621002  0.961046  1
  Se  Se10  1  0.448377  0.722393  0.131713  1
  Se  Se11  1  0.029173  0.612490  0.159588  1
  Se  Se12  1  0.786228  0.112924  0.249468  1
  Se  Se13  1  0.372423  0.250332  0.304853  1
  Se  Se14  1  0.722393  0.448376  0.631713  1
  Se  Se15  1  0.612490  0.029173  0.659588  1
  Se  Se16  1  0.112923  0.786228  0.749468  1
  Se  Se17  1  0.250332  0.372423  0.804853  1
