# generated using pymatgen
data_La2NdCd3Ge2Au
_symmetry_space_group_name_H-M   'P 1'
_cell_length_a   7.58501209
_cell_length_b   7.58501355
_cell_length_c   4.48103300
_cell_angle_alpha   90.00000000
_cell_angle_beta   90.00000000
_cell_angle_gamma   119.98246521
_symmetry_Int_Tables_number   1
_chemical_formula_structural   La2NdCd3Ge2Au
_chemical_formula_sum   'La2 Nd1 Cd3 Ge2 Au1'
_cell_volume   223.30483230
_cell_formula_units_Z   1
loop_
 _symmetry_equiv_pos_site_id
 _symmetry_equiv_pos_as_xyz
  1  'x, y, z'
loop_
 _atom_site_type_symbol
 _atom_site_label
 _atom_site_symmetry_multiplicity
 _atom_site_fract_x
 _atom_site_fract_y
 _atom_site_fract_z
 _atom_site_occupancy
  La  La0  1  0.586327  0.999582  0.000000  1
  La  La1  1  0.999582  0.586327  0.000000  1
  Nd  Nd2  1  0.412606  0.412606  0.000000  1
  Cd  Cd3  1  0.247416  0.001246  0.500000  1
  Cd  Cd4  1  0.001246  0.247416  0.500000  1
  Cd  Cd5  1  0.751767  0.751767  0.500000  1
  Ge  Ge6  1  0.334461  0.665343  0.500000  1
  Ge  Ge7  1  0.665343  0.334461  0.500000  1
  Au  Au8  1  0.001252  0.001252  0.000000  1
