# generated using pymatgen
data_Pr16Lu4Si15Rh
_symmetry_space_group_name_H-M   'P 1'
_cell_length_a   7.88283090
_cell_length_b   7.80034611
_cell_length_c   15.07531672
_cell_angle_alpha   89.91165083
_cell_angle_beta   89.71881714
_cell_angle_gamma   90.31706825
_symmetry_Int_Tables_number   1
_chemical_formula_structural   Pr16Lu4Si15Rh
_chemical_formula_sum   'Pr16 Lu4 Si15 Rh1'
_cell_volume   926.93677812
_cell_formula_units_Z   1
loop_
 _symmetry_equiv_pos_site_id
 _symmetry_equiv_pos_as_xyz
  1  'x, y, z'
loop_
 _atom_site_type_symbol
 _atom_site_label
 _atom_site_symmetry_multiplicity
 _atom_site_fract_x
 _atom_site_fract_y
 _atom_site_fract_z
 _atom_site_occupancy
  Pr  Pr0  1  0.373666  0.011016  0.448423  1
  Pr  Pr1  1  0.488803  0.873893  0.699958  1
  Pr  Pr2  1  0.511591  0.124758  0.198158  1
  Pr  Pr3  1  0.874042  0.486890  0.300369  1
  Pr  Pr4  1  0.125961  0.505809  0.798008  1
  Pr  Pr5  1  0.628511  0.987868  0.949785  1
  Pr  Pr6  1  0.004017  0.373802  0.552045  1
  Pr  Pr7  1  0.987636  0.626834  0.051249  1
  Pr  Pr8  1  0.134795  0.986062  0.873171  1
  Pr  Pr9  1  0.520119  0.632487  0.126508  1
  Pr  Pr10  1  0.470982  0.361356  0.630839  1
  Pr  Pr11  1  0.628434  0.518855  0.872948  1
  Pr  Pr12  1  0.371760  0.480013  0.372679  1
  Pr  Pr13  1  0.873504  0.021932  0.378340  1
  Pr  Pr14  1  0.980400  0.126355  0.122651  1
  Pr  Pr15  1  0.027012  0.881994  0.623095  1
  Lu  Lu16  1  0.310052  0.309083  0.000029  1
  Lu  Lu17  1  0.187014  0.809799  0.250451  1
  Lu  Lu18  1  0.817394  0.189046  0.749129  1
  Lu  Lu19  1  0.688692  0.685905  0.501102  1
  Si  Si20  1  0.329747  0.689617  0.952853  1
  Si  Si21  1  0.665631  0.309538  0.455842  1
  Si  Si22  1  0.692810  0.332837  0.047212  1
  Si  Si23  1  0.310560  0.669304  0.545594  1
  Si  Si24  1  0.811346  0.830389  0.206502  1
  Si  Si25  1  0.170392  0.190260  0.294154  1
  Si  Si26  1  0.832132  0.809237  0.795078  1
  Si  Si27  1  0.286806  0.924601  0.062502  1
  Si  Si28  1  0.578138  0.785233  0.314436  1
  Si  Si29  1  0.433747  0.207587  0.816907  1
  Si  Si30  1  0.781019  0.581740  0.685228  1
  Si  Si31  1  0.213195  0.425139  0.185695  1
  Si  Si32  1  0.706849  0.071807  0.562467  1
  Si  Si33  1  0.921805  0.286657  0.937320  1
  Si  Si34  1  0.079621  0.715964  0.436520  1
  Rh  Rh35  1  0.181815  0.176334  0.702754  1
