# generated using pymatgen
data_Te12HIr2Br5
_symmetry_space_group_name_H-M   'P 1'
_cell_length_a   9.37175802
_cell_length_b   9.37175840
_cell_length_c   9.54346126
_cell_angle_alpha   109.30245596
_cell_angle_beta   109.30245972
_cell_angle_gamma   106.61253747
_symmetry_Int_Tables_number   1
_chemical_formula_structural   Te12HIr2Br5
_chemical_formula_sum   'Te12 H1 Ir2 Br5'
_cell_volume   669.11898252
_cell_formula_units_Z   1
loop_
 _symmetry_equiv_pos_site_id
 _symmetry_equiv_pos_as_xyz
  1  'x, y, z'
loop_
 _atom_site_type_symbol
 _atom_site_label
 _atom_site_symmetry_multiplicity
 _atom_site_fract_x
 _atom_site_fract_y
 _atom_site_fract_z
 _atom_site_occupancy
  Te  Te0  1  0.938009  0.202449  0.192361  1
  Te  Te1  1  0.184472  0.925282  0.165754  1
  Te  Te2  1  0.170346  0.188973  0.931478  1
  Te  Te3  1  0.673322  0.671233  0.428504  1
  Te  Te4  1  0.418259  0.689691  0.673267  1
  Te  Te5  1  0.672564  0.437159  0.691528  1
  Te  Te6  1  0.062841  0.827436  0.808472  1
  Te  Te7  1  0.810309  0.081741  0.826733  1
  Te  Te8  1  0.828767  0.826678  0.071496  1
  Te  Te9  1  0.311027  0.329654  0.568522  1
  Te  Te10  1  0.574718  0.315528  0.334246  1
  Te  Te11  1  0.297551  0.561991  0.307639  1
  H  H12  1  0.050942  0.449058  0.250000  1
  Ir  Ir13  1  0.251170  0.248830  0.250000  1
  Ir  Ir14  1  0.742621  0.757379  0.750000  1
  Br  Br15  1  0.246308  0.977425  0.506189  1
  Br  Br16  1  0.522575  0.253692  0.993811  1
  Br  Br17  1  0.752193  0.022498  0.489944  1
  Br  Br18  1  0.477502  0.747807  0.010056  1
  Br  Br19  1  0.014504  0.485496  0.750000  1
