# generated using pymatgen
data_Tb12Ce8FeCo3Bi8
_symmetry_space_group_name_H-M   'P 1'
_cell_length_a   7.97591806
_cell_length_b   9.08997800
_cell_length_c   12.29850208
_cell_angle_alpha   90.00000000
_cell_angle_beta   89.98657238
_cell_angle_gamma   90.00000000
_symmetry_Int_Tables_number   1
_chemical_formula_structural   Tb12Ce8FeCo3Bi8
_chemical_formula_sum   'Tb12 Ce8 Fe1 Co3 Bi8'
_cell_volume   891.65268692
_cell_formula_units_Z   1
loop_
 _symmetry_equiv_pos_site_id
 _symmetry_equiv_pos_as_xyz
  1  'x, y, z'
loop_
 _atom_site_type_symbol
 _atom_site_label
 _atom_site_symmetry_multiplicity
 _atom_site_fract_x
 _atom_site_fract_y
 _atom_site_fract_z
 _atom_site_occupancy
  Tb  Tb0  1  0.835278  0.750000  0.789676  1
  Tb  Tb1  1  0.163405  0.250000  0.209536  1
  Tb  Tb2  1  0.336895  0.250000  0.709305  1
  Tb  Tb3  1  0.663489  0.750000  0.290749  1
  Tb  Tb4  1  0.366283  0.750000  0.702530  1
  Tb  Tb5  1  0.633490  0.250000  0.299154  1
  Tb  Tb6  1  0.866399  0.250000  0.799009  1
  Tb  Tb7  1  0.133560  0.750000  0.201172  1
  Tb  Tb8  1  0.978524  0.750000  0.500135  1
  Tb  Tb9  1  0.021168  0.250000  0.499903  1
  Tb  Tb10  1  0.479457  0.250000  0.000091  1
  Tb  Tb11  1  0.520649  0.750000  0.000083  1
  Ce  Ce12  1  0.656259  0.004717  0.550901  1
  Ce  Ce13  1  0.345075  0.986475  0.448780  1
  Ce  Ce14  1  0.154835  0.987847  0.948961  1
  Ce  Ce15  1  0.345075  0.513525  0.448780  1
  Ce  Ce16  1  0.845585  0.012128  0.050950  1
  Ce  Ce17  1  0.656259  0.495283  0.550901  1
  Ce  Ce18  1  0.845585  0.487872  0.050950  1
  Ce  Ce19  1  0.154835  0.512153  0.948961  1
  Fe  Fe20  1  0.629152  0.750000  0.538667  1
  Co  Co21  1  0.368298  0.250000  0.460782  1
  Co  Co22  1  0.130045  0.250000  0.960569  1
  Co  Co23  1  0.869978  0.750000  0.038666  1
  Bi  Bi24  1  0.566252  0.493880  0.825820  1
  Bi  Bi25  1  0.433560  0.505704  0.174569  1
  Bi  Bi26  1  0.066474  0.505574  0.674799  1
  Bi  Bi27  1  0.433560  0.994296  0.174569  1
  Bi  Bi28  1  0.933925  0.494124  0.325207  1
  Bi  Bi29  1  0.566252  0.006120  0.825820  1
  Bi  Bi30  1  0.933925  0.005876  0.325207  1
  Bi  Bi31  1  0.066474  0.994426  0.674799  1
