# generated using pymatgen
data_Dy15Zr5Rh12
_symmetry_space_group_name_H-M   'P 1'
_cell_length_a   10.86631541
_cell_length_b   10.83239461
_cell_length_c   6.19345027
_cell_angle_alpha   89.70012623
_cell_angle_beta   89.82073092
_cell_angle_gamma   90.12017600
_symmetry_Int_Tables_number   1
_chemical_formula_structural   Dy15Zr5Rh12
_chemical_formula_sum   'Dy15 Zr5 Rh12'
_cell_volume   729.00480378
_cell_formula_units_Z   1
loop_
 _symmetry_equiv_pos_site_id
 _symmetry_equiv_pos_as_xyz
  1  'x, y, z'
loop_
 _atom_site_type_symbol
 _atom_site_label
 _atom_site_symmetry_multiplicity
 _atom_site_fract_x
 _atom_site_fract_y
 _atom_site_fract_z
 _atom_site_occupancy
  Dy  Dy0  1  0.287367  0.915808  0.870153  1
  Dy  Dy1  1  0.708656  0.087407  0.873669  1
  Dy  Dy2  1  0.711497  0.912155  0.372606  1
  Dy  Dy3  1  0.586148  0.789187  0.876032  1
  Dy  Dy4  1  0.586682  0.210710  0.373047  1
  Dy  Dy5  1  0.411276  0.789909  0.374276  1
  Dy  Dy6  1  0.409047  0.210187  0.871492  1
  Dy  Dy7  1  0.210163  0.410810  0.625010  1
  Dy  Dy8  1  0.210935  0.586755  0.127643  1
  Dy  Dy9  1  0.790086  0.412428  0.127721  1
  Dy  Dy10  1  0.788757  0.587800  0.627360  1
  Dy  Dy11  1  0.913127  0.712082  0.126068  1
  Dy  Dy12  1  0.911775  0.288718  0.630308  1
  Dy  Dy13  1  0.087946  0.711233  0.623298  1
  Dy  Dy14  1  0.090833  0.283094  0.132416  1
  Zr  Zr15  1  0.293223  0.087488  0.382106  1
  Zr  Zr16  1  0.002137  0.001993  0.494928  1
  Zr  Zr17  1  0.999551  0.000744  0.996109  1
  Zr  Zr18  1  0.499026  0.497888  0.002612  1
  Zr  Zr19  1  0.498752  0.498811  0.500439  1
  Rh  Rh20  1  0.854297  0.147321  0.246907  1
  Rh  Rh21  1  0.855003  0.854445  0.749169  1
  Rh  Rh22  1  0.148167  0.145763  0.732557  1
  Rh  Rh23  1  0.153868  0.865170  0.256147  1
  Rh  Rh24  1  0.646467  0.354542  0.751733  1
  Rh  Rh25  1  0.646340  0.645213  0.249299  1
  Rh  Rh26  1  0.353613  0.344011  0.258105  1
  Rh  Rh27  1  0.353988  0.644563  0.752098  1
  Rh  Rh28  1  0.494723  0.002191  0.121996  1
  Rh  Rh29  1  0.495400  0.002038  0.613109  1
  Rh  Rh30  1  0.000809  0.499932  0.881943  1
  Rh  Rh31  1  0.000342  0.499606  0.379644  1
