# generated using pymatgen
data_Pm2Np2NbO12
_symmetry_space_group_name_H-M   'P 1'
_cell_length_a   6.89924981
_cell_length_b   7.14592340
_cell_length_c   12.21729326
_cell_angle_alpha   81.74240889
_cell_angle_beta   74.59614010
_cell_angle_gamma   110.28399885
_symmetry_Int_Tables_number   1
_chemical_formula_structural   Pm2Np2NbO12
_chemical_formula_sum   'Pm4 Np4 Nb2 O24'
_cell_volume   525.85400261
_cell_formula_units_Z   2
loop_
 _symmetry_equiv_pos_site_id
 _symmetry_equiv_pos_as_xyz
  1  'x, y, z'
loop_
 _atom_site_type_symbol
 _atom_site_label
 _atom_site_symmetry_multiplicity
 _atom_site_fract_x
 _atom_site_fract_y
 _atom_site_fract_z
 _atom_site_occupancy
  Pm  Pm0  1  0.196386  0.447262  0.604208  1
  Pm  Pm1  1  0.803614  0.552738  0.395792  1
  Pm  Pm2  1  0.559540  0.809762  0.908141  1
  Pm  Pm3  1  0.440460  0.190238  0.091859  1
  Np  Np4  1  0.677575  0.999473  0.580844  1
  Np  Np5  1  0.322425  0.000527  0.419156  1
  Np  Np6  1  0.577404  0.418031  0.749213  1
  Np  Np7  1  0.422596  0.581969  0.250787  1
  Nb  Nb8  1  0.007819  0.298875  0.958076  1
  Nb  Nb9  1  0.992181  0.701125  0.041924  1
  O  O10  1  0.563184  0.440010  0.591384  1
  O  O11  1  0.436816  0.559990  0.408616  1
  O  O12  1  0.545900  0.432122  0.907697  1
  O  O13  1  0.454100  0.567878  0.092303  1
  O  O14  1  0.556863  0.071468  0.726645  1
  O  O15  1  0.443137  0.928532  0.273355  1
  O  O16  1  0.885214  0.475330  0.717940  1
  O  O17  1  0.114786  0.524670  0.282060  1
  O  O18  1  0.728078  0.125325  0.951035  1
  O  O19  1  0.271922  0.874675  0.048965  1
  O  O20  1  0.917891  0.272388  0.535076  1
  O  O21  1  0.082109  0.727612  0.464924  1
  O  O22  1  0.386613  0.807459  0.574576  1
  O  O23  1  0.613387  0.192541  0.425424  1
  O  O24  1  0.185874  0.605986  0.925494  1
  O  O25  1  0.814126  0.394014  0.074506  1
  O  O26  1  0.227802  0.339767  0.792326  1
  O  O27  1  0.772198  0.660233  0.207674  1
  O  O28  1  0.660707  0.751316  0.717948  1
  O  O29  1  0.339293  0.248684  0.282052  1
  O  O30  1  0.900045  0.830960  0.941626  1
  O  O31  1  0.099955  0.169040  0.058374  1
  O  O32  1  0.191690  0.093574  0.543623  1
  O  O33  1  0.808310  0.906426  0.456377  1
