# generated using pymatgen
data_TbEr2Ag(Pt2O7)2
_symmetry_space_group_name_H-M   'P 1'
_cell_length_a   7.31535992
_cell_length_b   7.32028360
_cell_length_c   7.18999864
_cell_angle_alpha   59.39875028
_cell_angle_beta   59.32196527
_cell_angle_gamma   59.97774057
_symmetry_Int_Tables_number   1
_chemical_formula_structural   TbEr2Ag(Pt2O7)2
_chemical_formula_sum   'Tb1 Er2 Ag1 Pt4 O14'
_cell_volume   269.54926558
_cell_formula_units_Z   1
loop_
 _symmetry_equiv_pos_site_id
 _symmetry_equiv_pos_as_xyz
  1  'x, y, z'
loop_
 _atom_site_type_symbol
 _atom_site_label
 _atom_site_symmetry_multiplicity
 _atom_site_fract_x
 _atom_site_fract_y
 _atom_site_fract_z
 _atom_site_occupancy
  Tb  Tb0  1  0.125000  0.625000  0.625000  1
  Er  Er1  1  0.625000  0.625000  0.625000  1
  Er  Er2  1  0.625000  0.125000  0.625000  1
  Ag  Ag3  1  0.625000  0.625000  0.125000  1
  Pt  Pt4  1  0.625000  0.125000  0.125000  1
  Pt  Pt5  1  0.125000  0.125000  0.125000  1
  Pt  Pt6  1  0.125000  0.625000  0.125000  1
  Pt  Pt7  1  0.125000  0.125000  0.625000  1
  O  O8  1  0.029350  0.465582  0.471630  1
  O  O9  1  0.791971  0.792345  0.221165  1
  O  O10  1  0.791971  0.194520  0.221165  1
  O  O11  1  0.741520  0.747864  0.762751  1
  O  O12  1  0.053467  0.457343  0.031846  1
  O  O13  1  0.466043  0.031224  0.471510  1
  O  O14  1  0.029350  0.033438  0.471630  1
  O  O15  1  0.508480  0.502136  0.487249  1
  O  O16  1  0.220650  0.216562  0.778370  1
  O  O17  1  0.196533  0.792657  0.218154  1
  O  O18  1  0.783957  0.218776  0.778490  1
  O  O19  1  0.458029  0.055480  0.028835  1
  O  O20  1  0.458029  0.457655  0.028835  1
  O  O21  1  0.220650  0.784418  0.778370  1
