# generated using pymatgen
data_Nd3WO7
_symmetry_space_group_name_H-M   'P 1'
_cell_length_a   6.70042878
_cell_length_b   6.70042860
_cell_length_c   7.72937500
_cell_angle_alpha   90.00000000
_cell_angle_beta   90.00000000
_cell_angle_gamma   109.07969479
_symmetry_Int_Tables_number   1
_chemical_formula_structural   Nd3WO7
_chemical_formula_sum   'Nd6 W2 O14'
_cell_volume   327.95265607
_cell_formula_units_Z   2
loop_
 _symmetry_equiv_pos_site_id
 _symmetry_equiv_pos_as_xyz
  1  'x, y, z'
loop_
 _atom_site_type_symbol
 _atom_site_label
 _atom_site_symmetry_multiplicity
 _atom_site_fract_x
 _atom_site_fract_y
 _atom_site_fract_z
 _atom_site_occupancy
  Nd  Nd0  1  0.465214  0.000495  0.254382  1
  Nd  Nd1  1  0.999505  0.534786  0.245618  1
  Nd  Nd2  1  0.477919  0.477919  0.000000  1
  Nd  Nd3  1  0.522081  0.522081  0.500000  1
  Nd  Nd4  1  0.534786  0.999505  0.754382  1
  Nd  Nd5  1  0.000495  0.465214  0.745618  1
  W  W6  1  0.000108  0.000108  0.500000  1
  W  W7  1  0.999892  0.999892  0.000000  1
  O  O8  1  0.934157  0.065843  0.750000  1
  O  O9  1  0.635842  0.364158  0.750000  1
  O  O10  1  0.307808  0.060884  0.532083  1
  O  O11  1  0.939116  0.692192  0.967917  1
  O  O12  1  0.630073  0.369927  0.250000  1
  O  O13  1  0.921498  0.681874  0.524867  1
  O  O14  1  0.318126  0.078502  0.975133  1
  O  O15  1  0.078502  0.318126  0.024867  1
  O  O16  1  0.681874  0.921498  0.475133  1
  O  O17  1  0.369927  0.630073  0.750000  1
  O  O18  1  0.692192  0.939116  0.032083  1
  O  O19  1  0.060884  0.307808  0.467917  1
  O  O20  1  0.364158  0.635842  0.250000  1
  O  O21  1  0.065843  0.934157  0.250000  1
