# generated using pymatgen
data_Tb2PrAs4Pd7
_symmetry_space_group_name_H-M   'P 1'
_cell_length_a   8.17295329
_cell_length_b   8.17295367
_cell_length_c   9.73830915
_cell_angle_alpha   55.74724059
_cell_angle_beta   55.74723694
_cell_angle_gamma   29.42840776
_symmetry_Int_Tables_number   1
_chemical_formula_structural   Tb2PrAs4Pd7
_chemical_formula_sum   'Tb2 Pr1 As4 Pd7'
_cell_volume   259.91916968
_cell_formula_units_Z   1
loop_
 _symmetry_equiv_pos_site_id
 _symmetry_equiv_pos_as_xyz
  1  'x, y, z'
loop_
 _atom_site_type_symbol
 _atom_site_label
 _atom_site_symmetry_multiplicity
 _atom_site_fract_x
 _atom_site_fract_y
 _atom_site_fract_z
 _atom_site_occupancy
  Tb  Tb0  1  0.676565  0.676565  0.329630  1
  Tb  Tb1  1  0.323435  0.323435  0.670370  1
  Pr  Pr2  1  0.000000  0.000000  0.000000  1
  As  As3  1  0.337575  0.337575  0.257449  1
  As  As4  1  0.662425  0.662425  0.742551  1
  As  As5  1  0.893054  0.893054  0.819835  1
  As  As6  1  0.106946  0.106946  0.180165  1
  Pd  Pd7  1  0.305968  0.305968  0.026390  1
  Pd  Pd8  1  0.694032  0.694032  0.973610  1
  Pd  Pd9  1  0.512172  0.512172  0.704865  1
  Pd  Pd10  1  0.831719  0.831719  0.429095  1
  Pd  Pd11  1  0.487828  0.487828  0.295135  1
  Pd  Pd12  1  0.168281  0.168281  0.570905  1
  Pd  Pd13  1  0.000000  0.000000  0.500000  1
