# generated using pymatgen
data_NdDy15(HoSn4)4
_symmetry_space_group_name_H-M   'P 1'
_cell_length_a   8.04491519
_cell_length_b   8.18955511
_cell_length_c   15.47908914
_cell_angle_alpha   90.00038511
_cell_angle_beta   89.77759393
_cell_angle_gamma   90.12811297
_symmetry_Int_Tables_number   1
_chemical_formula_structural   NdDy15(HoSn4)4
_chemical_formula_sum   'Nd1 Dy15 Ho4 Sn16'
_cell_volume   1019.81835390
_cell_formula_units_Z   1
loop_
 _symmetry_equiv_pos_site_id
 _symmetry_equiv_pos_as_xyz
  1  'x, y, z'
loop_
 _atom_site_type_symbol
 _atom_site_label
 _atom_site_symmetry_multiplicity
 _atom_site_fract_x
 _atom_site_fract_y
 _atom_site_fract_z
 _atom_site_occupancy
  Nd  Nd0  1  0.517639  0.319532  0.403286  1
  Dy  Dy1  1  0.019333  0.179255  0.402176  1
  Dy  Dy2  1  0.367618  0.836938  0.121264  1
  Dy  Dy3  1  0.133237  0.337144  0.622220  1
  Dy  Dy4  1  0.480622  0.679895  0.902146  1
  Dy  Dy5  1  0.867805  0.663051  0.121497  1
  Dy  Dy6  1  0.132326  0.337292  0.878194  1
  Dy  Dy7  1  0.481181  0.680688  0.598059  1
  Dy  Dy8  1  0.633373  0.162385  0.622259  1
  Dy  Dy9  1  0.867293  0.663225  0.377885  1
  Dy  Dy10  1  0.019480  0.179638  0.097191  1
  Dy  Dy11  1  0.980561  0.820133  0.902112  1
  Dy  Dy12  1  0.632408  0.162725  0.878208  1
  Dy  Dy13  1  0.519746  0.319907  0.098121  1
  Dy  Dy14  1  0.367181  0.837125  0.378130  1
  Dy  Dy15  1  0.980947  0.819750  0.597937  1
  Ho  Ho16  1  0.198153  0.503349  0.249333  1
  Ho  Ho17  1  0.698728  0.996802  0.249483  1
  Ho  Ho18  1  0.301520  0.002948  0.750156  1
  Ho  Ho19  1  0.801663  0.497159  0.750120  1
  Sn  Sn20  1  0.794939  0.465363  0.543378  1
  Sn  Sn21  1  0.709011  0.961619  0.458524  1
  Sn  Sn22  1  0.672235  0.852647  0.750084  1
  Sn  Sn23  1  0.203790  0.539284  0.458876  1
  Sn  Sn24  1  0.291941  0.036295  0.957741  1
  Sn  Sn25  1  0.829216  0.352939  0.249308  1
  Sn  Sn26  1  0.792021  0.463834  0.957818  1
  Sn  Sn27  1  0.564883  0.620369  0.249536  1
  Sn  Sn28  1  0.208194  0.535833  0.042060  1
  Sn  Sn29  1  0.435519  0.380977  0.750155  1
  Sn  Sn30  1  0.172307  0.647213  0.749995  1
  Sn  Sn31  1  0.935566  0.118656  0.750139  1
  Sn  Sn32  1  0.291883  0.035850  0.542415  1
  Sn  Sn33  1  0.707971  0.963819  0.041945  1
  Sn  Sn34  1  0.325282  0.145356  0.248363  1
  Sn  Sn35  1  0.064430  0.881008  0.249884  1
