# generated using pymatgen
data_Lu2TaB2Ru5
_symmetry_space_group_name_H-M   'P 1'
_cell_length_a   9.61814500
_cell_length_b   9.61814500
_cell_length_c   3.10903600
_cell_angle_alpha   90.00000000
_cell_angle_beta   90.00000000
_cell_angle_gamma   90.00000000
_symmetry_Int_Tables_number   1
_chemical_formula_structural   Lu2TaB2Ru5
_chemical_formula_sum   'Lu4 Ta2 B4 Ru10'
_cell_volume   287.61291978
_cell_formula_units_Z   2
loop_
 _symmetry_equiv_pos_site_id
 _symmetry_equiv_pos_as_xyz
  1  'x, y, z'
loop_
 _atom_site_type_symbol
 _atom_site_label
 _atom_site_symmetry_multiplicity
 _atom_site_fract_x
 _atom_site_fract_y
 _atom_site_fract_z
 _atom_site_occupancy
  Lu  Lu0  1  0.824933  0.675067  0.000000  1
  Lu  Lu1  1  0.175067  0.324933  0.000000  1
  Lu  Lu2  1  0.324933  0.824933  0.000000  1
  Lu  Lu3  1  0.675067  0.175067  0.000000  1
  Ta  Ta4  1  0.500000  0.500000  0.000000  1
  Ta  Ta5  1  0.000000  0.000000  0.000000  1
  B  B6  1  0.620437  0.879563  0.000000  1
  B  B7  1  0.379563  0.120437  0.000000  1
  B  B8  1  0.120437  0.620437  0.000000  1
  B  B9  1  0.879563  0.379563  0.000000  1
  Ru  Ru10  1  0.570944  0.717947  0.500000  1
  Ru  Ru11  1  0.429056  0.282053  0.500000  1
  Ru  Ru12  1  0.070944  0.782053  0.500000  1
  Ru  Ru13  1  0.929056  0.217947  0.500000  1
  Ru  Ru14  1  0.282053  0.570944  0.500000  1
  Ru  Ru15  1  0.717947  0.429056  0.500000  1
  Ru  Ru16  1  0.217947  0.070944  0.500000  1
  Ru  Ru17  1  0.782053  0.929056  0.500000  1
  Ru  Ru18  1  0.500000  0.000000  0.500000  1
  Ru  Ru19  1  0.000000  0.500000  0.500000  1
