# generated using pymatgen
data_Er10Tl3In4HgPd4
_symmetry_space_group_name_H-M   'P 1'
_cell_length_a   3.59127800
_cell_length_b   8.15657002
_cell_length_c   18.23038405
_cell_angle_alpha   90.16308550
_cell_angle_beta   90.00000000
_cell_angle_gamma   90.00000000
_symmetry_Int_Tables_number   1
_chemical_formula_structural   Er10Tl3In4HgPd4
_chemical_formula_sum   'Er10 Tl3 In4 Hg1 Pd4'
_cell_volume   534.01155217
_cell_formula_units_Z   1
loop_
 _symmetry_equiv_pos_site_id
 _symmetry_equiv_pos_as_xyz
  1  'x, y, z'
loop_
 _atom_site_type_symbol
 _atom_site_label
 _atom_site_symmetry_multiplicity
 _atom_site_fract_x
 _atom_site_fract_y
 _atom_site_fract_z
 _atom_site_occupancy
  Er  Er0  1  0.000000  0.500070  0.500426  1
  Er  Er1  1  0.000000  0.993006  0.997111  1
  Er  Er2  1  0.000000  0.741957  0.280260  1
  Er  Er3  1  0.000000  0.258283  0.719262  1
  Er  Er4  1  0.000000  0.758682  0.786202  1
  Er  Er5  1  0.000000  0.242590  0.218254  1
  Er  Er6  1  0.000000  0.616172  0.083597  1
  Er  Er7  1  0.000000  0.390522  0.914716  1
  Er  Er8  1  0.000000  0.882180  0.586528  1
  Er  Er9  1  0.000000  0.116850  0.414145  1
  Tl  Tl10  1  0.500000  0.288927  0.064875  1
  Tl  Tl11  1  0.500000  0.791297  0.434069  1
  Tl  Tl12  1  0.500000  0.208148  0.566197  1
  In  In13  1  0.500000  0.583935  0.651431  1
  In  In14  1  0.500000  0.418482  0.349626  1
  In  In15  1  0.500000  0.917383  0.148728  1
  In  In16  1  0.500000  0.083493  0.850364  1
  Hg  Hg17  1  0.500000  0.707972  0.934767  1
  Pd  Pd18  1  0.500000  0.528803  0.197106  1
  Pd  Pd19  1  0.500000  0.472530  0.802285  1
  Pd  Pd20  1  0.500000  0.969944  0.698451  1
  Pd  Pd21  1  0.500000  0.028775  0.301600  1
