# generated using pymatgen
data_NaZr(CuSb)2
_symmetry_space_group_name_H-M   'P 1'
_cell_length_a   4.18354900
_cell_length_b   8.30988099
_cell_length_c   7.60119217
_cell_angle_alpha   86.69690616
_cell_angle_beta   90.00000000
_cell_angle_gamma   90.00000000
_symmetry_Int_Tables_number   1
_chemical_formula_structural   NaZr(CuSb)2
_chemical_formula_sum   'Na2 Zr2 Cu4 Sb4'
_cell_volume   263.81487929
_cell_formula_units_Z   2
loop_
 _symmetry_equiv_pos_site_id
 _symmetry_equiv_pos_as_xyz
  1  'x, y, z'
loop_
 _atom_site_type_symbol
 _atom_site_label
 _atom_site_symmetry_multiplicity
 _atom_site_fract_x
 _atom_site_fract_y
 _atom_site_fract_z
 _atom_site_occupancy
  Na  Na0  1  0.750000  0.009405  0.751849  1
  Na  Na1  1  0.250000  0.990595  0.248151  1
  Zr  Zr2  1  0.750000  0.482992  0.700568  1
  Zr  Zr3  1  0.250000  0.517008  0.299432  1
  Cu  Cu4  1  0.250000  0.595964  0.931411  1
  Cu  Cu5  1  0.750000  0.404036  0.068589  1
  Cu  Cu6  1  0.250000  0.292894  0.585709  1
  Cu  Cu7  1  0.750000  0.707106  0.414291  1
  Sb  Sb8  1  0.250000  0.744275  0.608764  1
  Sb  Sb9  1  0.750000  0.255725  0.391236  1
  Sb  Sb10  1  0.250000  0.266534  0.925560  1
  Sb  Sb11  1  0.750000  0.733466  0.074440  1
