# generated using pymatgen
data_Ac2Si4Ir5Ru
_symmetry_space_group_name_H-M   'P 1'
_cell_length_a   6.83112571
_cell_length_b   6.80590079
_cell_length_c   6.83112486
_cell_angle_alpha   130.10058675
_cell_angle_beta   115.74827314
_cell_angle_gamma   85.61527617
_symmetry_Int_Tables_number   1
_chemical_formula_structural   Ac2Si4Ir5Ru
_chemical_formula_sum   'Ac2 Si4 Ir5 Ru1'
_cell_volume   209.06100254
_cell_formula_units_Z   1
loop_
 _symmetry_equiv_pos_site_id
 _symmetry_equiv_pos_as_xyz
  1  'x, y, z'
loop_
 _atom_site_type_symbol
 _atom_site_label
 _atom_site_symmetry_multiplicity
 _atom_site_fract_x
 _atom_site_fract_y
 _atom_site_fract_z
 _atom_site_occupancy
  Ac  Ac0  1  0.748869  0.025358  0.274323  1
  Ac  Ac1  1  0.248965  0.974642  0.723511  1
  Si  Si2  1  0.579682  0.373756  0.796605  1
  Si  Si3  1  0.078059  0.288894  0.208618  1
  Si  Si4  1  0.422848  0.626244  0.205926  1
  Si  Si5  1  0.919724  0.711106  0.789165  1
  Ir  Ir6  1  0.003898  0.498299  0.001148  1
  Ir  Ir7  1  0.723450  0.000000  0.723450  1
  Ir  Ir8  1  0.219801  0.500000  0.719801  1
  Ir  Ir9  1  0.275798  0.000000  0.275798  1
  Ir  Ir10  1  0.502848  0.501701  0.505598  1
  Ru  Ru11  1  0.776056  0.500000  0.276056  1
