# generated using pymatgen
data_Hf18VRe6Ge2W
_symmetry_space_group_name_H-M   'P 1'
_cell_length_a   8.64415300
_cell_length_b   8.64415180
_cell_length_c   8.60916400
_cell_angle_alpha   90.00000000
_cell_angle_beta   90.00000000
_cell_angle_gamma   120.00000075
_symmetry_Int_Tables_number   1
_chemical_formula_structural   Hf18VRe6Ge2W
_chemical_formula_sum   'Hf18 V1 Re6 Ge2 W1'
_cell_volume   557.10420915
_cell_formula_units_Z   1
loop_
 _symmetry_equiv_pos_site_id
 _symmetry_equiv_pos_as_xyz
  1  'x, y, z'
loop_
 _atom_site_type_symbol
 _atom_site_label
 _atom_site_symmetry_multiplicity
 _atom_site_fract_x
 _atom_site_fract_y
 _atom_site_fract_z
 _atom_site_occupancy
  Hf  Hf0  1  0.193438  0.806562  0.453427  1
  Hf  Hf1  1  0.193438  0.386877  0.453427  1
  Hf  Hf2  1  0.613123  0.806562  0.453427  1
  Hf  Hf3  1  0.806562  0.193438  0.546573  1
  Hf  Hf4  1  0.806562  0.613123  0.546573  1
  Hf  Hf5  1  0.386877  0.193438  0.546573  1
  Hf  Hf6  1  0.805504  0.194496  0.952922  1
  Hf  Hf7  1  0.805504  0.611008  0.952922  1
  Hf  Hf8  1  0.388992  0.194496  0.952922  1
  Hf  Hf9  1  0.194496  0.805504  0.047078  1
  Hf  Hf10  1  0.194496  0.388992  0.047078  1
  Hf  Hf11  1  0.611008  0.805504  0.047078  1
  Hf  Hf12  1  0.540523  0.459477  0.249893  1
  Hf  Hf13  1  0.540523  0.081044  0.249893  1
  Hf  Hf14  1  0.918956  0.459477  0.249893  1
  Hf  Hf15  1  0.459477  0.540523  0.750107  1
  Hf  Hf16  1  0.459477  0.918956  0.750107  1
  Hf  Hf17  1  0.081044  0.540523  0.750107  1
  V  V18  1  0.000000  0.000000  0.500000  1
  Re  Re19  1  0.890644  0.109356  0.253239  1
  Re  Re20  1  0.890644  0.781288  0.253239  1
  Re  Re21  1  0.218712  0.109356  0.253239  1
  Re  Re22  1  0.109356  0.890644  0.746761  1
  Re  Re23  1  0.109356  0.218712  0.746761  1
  Re  Re24  1  0.781288  0.890644  0.746761  1
  Ge  Ge25  1  0.333333  0.666667  0.251014  1
  Ge  Ge26  1  0.666667  0.333333  0.748986  1
  W  W27  1  0.000000  0.000000  0.000000  1
