# generated using pymatgen
data_Y5Er15(Bi2Ir)4
_symmetry_space_group_name_H-M   'P 1'
_cell_length_a   7.94760123
_cell_length_b   8.98062000
_cell_length_c   12.47700395
_cell_angle_alpha   90.00000000
_cell_angle_beta   90.06392018
_cell_angle_gamma   90.00000000
_symmetry_Int_Tables_number   1
_chemical_formula_structural   Y5Er15(Bi2Ir)4
_chemical_formula_sum   'Y5 Er15 Bi8 Ir4'
_cell_volume   890.53794892
_cell_formula_units_Z   1
loop_
 _symmetry_equiv_pos_site_id
 _symmetry_equiv_pos_as_xyz
  1  'x, y, z'
loop_
 _atom_site_type_symbol
 _atom_site_label
 _atom_site_symmetry_multiplicity
 _atom_site_fract_x
 _atom_site_fract_y
 _atom_site_fract_z
 _atom_site_occupancy
  Y  Y0  1  0.661996  0.750000  0.707916  1
  Y  Y1  1  0.337305  0.250000  0.291718  1
  Y  Y2  1  0.162247  0.250000  0.792096  1
  Y  Y3  1  0.837388  0.750000  0.208379  1
  Y  Y4  1  0.127148  0.750000  0.807505  1
  Er  Er5  1  0.874469  0.250000  0.190759  1
  Er  Er6  1  0.625305  0.250000  0.690489  1
  Er  Er7  1  0.374490  0.750000  0.309322  1
  Er  Er8  1  0.555378  0.750000  0.998519  1
  Er  Er9  1  0.444964  0.250000  0.001814  1
  Er  Er10  1  0.055055  0.250000  0.501293  1
  Er  Er11  1  0.945052  0.750000  0.498576  1
  Er  Er12  1  0.825478  0.457252  0.934091  1
  Er  Er13  1  0.173703  0.542209  0.066855  1
  Er  Er14  1  0.326108  0.541993  0.565956  1
  Er  Er15  1  0.173703  0.957791  0.066855  1
  Er  Er16  1  0.674282  0.457623  0.433595  1
  Er  Er17  1  0.825478  0.042748  0.934091  1
  Er  Er18  1  0.674282  0.042377  0.433595  1
  Er  Er19  1  0.326108  0.958007  0.565956  1
  Bi  Bi20  1  0.933988  0.009122  0.671602  1
  Bi  Bi21  1  0.065330  0.991474  0.328303  1
  Bi  Bi22  1  0.435856  0.992244  0.828018  1
  Bi  Bi23  1  0.065330  0.508526  0.328303  1
  Bi  Bi24  1  0.565090  0.008413  0.172004  1
  Bi  Bi25  1  0.933988  0.490878  0.671602  1
  Bi  Bi26  1  0.565090  0.491587  0.172004  1
  Bi  Bi27  1  0.435856  0.507756  0.828018  1
  Ir  Ir28  1  0.927858  0.750000  0.991280  1
  Ir  Ir29  1  0.071478  0.250000  0.009893  1
  Ir  Ir30  1  0.428951  0.250000  0.509345  1
  Ir  Ir31  1  0.571246  0.750000  0.490246  1
