# generated using pymatgen
data_Lu3Th(Ga8Pt3)3
_symmetry_space_group_name_H-M   'P 1'
_cell_length_a   7.53752621
_cell_length_b   7.61123433
_cell_length_c   13.31679946
_cell_angle_alpha   84.67357082
_cell_angle_beta   79.38773500
_cell_angle_gamma   60.09748365
_symmetry_Int_Tables_number   1
_chemical_formula_structural   Lu3Th(Ga8Pt3)3
_chemical_formula_sum   'Lu3 Th1 Ga24 Pt9'
_cell_volume   650.94969451
_cell_formula_units_Z   1
loop_
 _symmetry_equiv_pos_site_id
 _symmetry_equiv_pos_as_xyz
  1  'x, y, z'
loop_
 _atom_site_type_symbol
 _atom_site_label
 _atom_site_symmetry_multiplicity
 _atom_site_fract_x
 _atom_site_fract_y
 _atom_site_fract_z
 _atom_site_occupancy
  Lu  Lu0  1  0.606309  0.829210  0.190437  1
  Lu  Lu1  1  0.733163  0.496874  0.809970  1
  Lu  Lu2  1  0.266453  0.502775  0.190078  1
  Th  Th3  1  0.392956  0.170337  0.810411  1
  Ga  Ga4  1  0.687555  0.828593  0.940445  1
  Ga  Ga5  1  0.316315  0.166098  0.064964  1
  Ga  Ga6  1  0.143976  0.833821  0.559018  1
  Ga  Ga7  1  0.856303  0.166393  0.439643  1
  Ga  Ga8  1  0.478675  0.166526  0.555122  1
  Ga  Ga9  1  0.522114  0.833018  0.443303  1
  Ga  Ga10  1  0.224165  0.165825  0.320889  1
  Ga  Ga11  1  0.781218  0.829942  0.676040  1
  Ga  Ga12  1  0.438607  0.507244  0.674624  1
  Ga  Ga13  1  0.562407  0.497440  0.321668  1
  Ga  Ga14  1  0.101917  0.164540  0.674319  1
  Ga  Ga15  1  0.894797  0.835200  0.321362  1
  Ga  Ga16  1  0.357969  0.502468  0.941136  1
  Ga  Ga17  1  0.640921  0.503052  0.062508  1
  Ga  Ga18  1  0.014058  0.170756  0.944979  1
  Ga  Ga19  1  0.978952  0.829173  0.059556  1
  Ga  Ga20  1  0.186935  0.501333  0.442686  1
  Ga  Ga21  1  0.812936  0.499111  0.556350  1
  Ga  Ga22  1  0.731095  0.164897  0.181529  1
  Ga  Ga23  1  0.268162  0.830953  0.818945  1
  Ga  Ga24  1  0.057795  0.634513  0.817561  1
  Ga  Ga25  1  0.938072  0.370331  0.182815  1
  Ga  Ga26  1  0.861456  0.039045  0.817207  1
  Ga  Ga27  1  0.143424  0.960198  0.183287  1
  Pt  Pt28  1  0.117586  0.494750  0.639821  1
  Pt  Pt29  1  0.883091  0.505409  0.359528  1
  Pt  Pt30  1  0.659987  0.168954  0.998711  1
  Pt  Pt31  1  0.339161  0.832033  0.001868  1
  Pt  Pt32  1  0.541983  0.166460  0.359286  1
  Pt  Pt33  1  0.457986  0.833790  0.640087  1
  Pt  Pt34  1  0.778647  0.171402  0.638047  1
  Pt  Pt35  1  0.221269  0.828419  0.361542  1
  Pt  Pt36  1  0.001586  0.499116  0.000256  1
