# generated using pymatgen
data_LiS27
_symmetry_space_group_name_H-M   'P 1'
_cell_length_a   14.46968205
_cell_length_b   14.46968267
_cell_length_c   14.46968264
_cell_angle_alpha   118.82079024
_cell_angle_beta   118.82079134
_cell_angle_gamma   118.82078836
_symmetry_Int_Tables_number   1
_chemical_formula_structural   LiS27
_chemical_formula_sum   'Li1 S27'
_cell_volume   850.22093005
_cell_formula_units_Z   1
loop_
 _symmetry_equiv_pos_site_id
 _symmetry_equiv_pos_as_xyz
  1  'x, y, z'
loop_
 _atom_site_type_symbol
 _atom_site_label
 _atom_site_symmetry_multiplicity
 _atom_site_fract_x
 _atom_site_fract_y
 _atom_site_fract_z
 _atom_site_occupancy
  Li  Li0  1  0.443676  0.443676  0.443676  1
  S  S1  1  0.018121  0.621776  0.621776  1
  S  S2  1  0.621776  0.621776  0.018121  1
  S  S3  1  0.621776  0.018121  0.621776  1
  S  S4  1  0.248473  0.864493  0.730584  1
  S  S5  1  0.864493  0.730584  0.248473  1
  S  S6  1  0.730584  0.248473  0.864493  1
  S  S7  1  0.864493  0.248473  0.730584  1
  S  S8  1  0.248473  0.730584  0.864493  1
  S  S9  1  0.730584  0.864493  0.248473  1
  S  S10  1  0.094546  0.626242  0.436898  1
  S  S11  1  0.626242  0.436898  0.094546  1
  S  S12  1  0.436898  0.094546  0.626242  1
  S  S13  1  0.626242  0.094546  0.436898  1
  S  S14  1  0.094546  0.436898  0.626242  1
  S  S15  1  0.436898  0.626242  0.094546  1
  S  S16  1  0.359494  0.742593  0.607695  1
  S  S17  1  0.742593  0.607695  0.359494  1
  S  S18  1  0.607695  0.359494  0.742593  1
  S  S19  1  0.742593  0.359494  0.607695  1
  S  S20  1  0.359494  0.607695  0.742593  1
  S  S21  1  0.607695  0.742593  0.359494  1
  S  S22  1  0.178250  0.448250  0.448250  1
  S  S23  1  0.448250  0.448250  0.178250  1
  S  S24  1  0.448250  0.178250  0.448250  1
  S  S25  1  0.007762  0.918602  0.918602  1
  S  S26  1  0.918602  0.918602  0.007762  1
  S  S27  1  0.918602  0.007762  0.918602  1
