# generated using pymatgen
data_YbY3Os5Ru3
_symmetry_space_group_name_H-M   'P 1'
_cell_length_a   5.31667159
_cell_length_b   5.17673870
_cell_length_c   9.03774191
_cell_angle_alpha   90.03317643
_cell_angle_beta   89.94939266
_cell_angle_gamma   119.44841871
_symmetry_Int_Tables_number   1
_chemical_formula_structural   YbY3Os5Ru3
_chemical_formula_sum   'Yb1 Y3 Os5 Ru3'
_cell_volume   216.60754881
_cell_formula_units_Z   1
loop_
 _symmetry_equiv_pos_site_id
 _symmetry_equiv_pos_as_xyz
  1  'x, y, z'
loop_
 _atom_site_type_symbol
 _atom_site_label
 _atom_site_symmetry_multiplicity
 _atom_site_fract_x
 _atom_site_fract_y
 _atom_site_fract_z
 _atom_site_occupancy
  Yb  Yb0  1  0.666775  0.333512  0.936407  1
  Y  Y1  1  0.667797  0.333962  0.571298  1
  Y  Y2  1  0.330995  0.665555  0.432739  1
  Y  Y3  1  0.330361  0.665356  0.061867  1
  Os  Os4  1  0.171533  0.339504  0.749920  1
  Os  Os5  1  0.172587  0.830952  0.749546  1
  Os  Os6  1  0.661126  0.830246  0.750063  1
  Os  Os7  1  0.835727  0.664010  0.249735  1
  Os  Os8  1  0.835000  0.172440  0.249665  1
  Ru  Ru9  1  0.989580  0.995066  0.498330  1
  Ru  Ru10  1  0.987507  0.993988  0.999774  1
  Ru  Ru11  1  0.351010  0.175411  0.250656  1
