# generated using pymatgen
data_LiNd6(DyPt3)2
_symmetry_space_group_name_H-M   'P 1'
_cell_length_a   7.72240974
_cell_length_b   7.72241015
_cell_length_c   7.72241054
_cell_angle_alpha   68.95911319
_cell_angle_beta   68.95911287
_cell_angle_gamma   68.95911153
_symmetry_Int_Tables_number   1
_chemical_formula_structural   LiNd6(DyPt3)2
_chemical_formula_sum   'Li1 Nd6 Dy2 Pt6'
_cell_volume   386.91335831
_cell_formula_units_Z   1
loop_
 _symmetry_equiv_pos_site_id
 _symmetry_equiv_pos_as_xyz
  1  'x, y, z'
loop_
 _atom_site_type_symbol
 _atom_site_label
 _atom_site_symmetry_multiplicity
 _atom_site_fract_x
 _atom_site_fract_y
 _atom_site_fract_z
 _atom_site_occupancy
  Li  Li0  1  0.000000  0.000000  0.000000  1
  Nd  Nd1  1  0.321435  0.610252  0.860798  1
  Nd  Nd2  1  0.860798  0.321435  0.610252  1
  Nd  Nd3  1  0.610252  0.860798  0.321435  1
  Nd  Nd4  1  0.678565  0.389748  0.139202  1
  Nd  Nd5  1  0.139202  0.678565  0.389748  1
  Nd  Nd6  1  0.389748  0.139202  0.678565  1
  Dy  Dy7  1  0.818524  0.818524  0.818524  1
  Dy  Dy8  1  0.181476  0.181476  0.181476  1
  Pt  Pt9  1  0.177158  0.954406  0.571944  1
  Pt  Pt10  1  0.571944  0.177158  0.954406  1
  Pt  Pt11  1  0.954406  0.571944  0.177158  1
  Pt  Pt12  1  0.822842  0.045594  0.428056  1
  Pt  Pt13  1  0.428056  0.822842  0.045594  1
  Pt  Pt14  1  0.045594  0.428056  0.822842  1
