# generated using pymatgen
data_Na2Ta4Se4O19
_symmetry_space_group_name_H-M   'P 1'
_cell_length_a   3.90989299
_cell_length_b   10.37453409
_cell_length_c   11.13687000
_cell_angle_alpha   106.04275450
_cell_angle_beta   90.04070896
_cell_angle_gamma   97.11611151
_symmetry_Int_Tables_number   1
_chemical_formula_structural   Na2Ta4Se4O19
_chemical_formula_sum   'Na2 Ta4 Se4 O19'
_cell_volume   430.52182155
_cell_formula_units_Z   1
loop_
 _symmetry_equiv_pos_site_id
 _symmetry_equiv_pos_as_xyz
  1  'x, y, z'
loop_
 _atom_site_type_symbol
 _atom_site_label
 _atom_site_symmetry_multiplicity
 _atom_site_fract_x
 _atom_site_fract_y
 _atom_site_fract_z
 _atom_site_occupancy
  Na  Na0  1  0.780888  0.938429  0.860350  1
  Na  Na1  1  0.219112  0.061571  0.139650  1
  Ta  Ta2  1  0.371342  0.190684  0.704189  1
  Ta  Ta3  1  0.628658  0.809316  0.295811  1
  Ta  Ta4  1  0.532893  0.555275  0.680667  1
  Ta  Ta5  1  0.467107  0.444725  0.319333  1
  Se  Se6  1  0.334074  0.829180  0.587948  1
  Se  Se7  1  0.665926  0.170820  0.412052  1
  Se  Se8  1  0.278238  0.714956  0.985631  1
  Se  Se9  1  0.721762  0.285044  0.014369  1
  O  O10  1  0.639272  0.875199  0.487339  1
  O  O11  1  0.360728  0.124801  0.512661  1
  O  O12  1  0.319263  0.980925  0.701157  1
  O  O13  1  0.680737  0.019075  0.298843  1
  O  O14  1  0.600269  0.762951  0.673393  1
  O  O15  1  0.399731  0.237049  0.326607  1
  O  O16  1  0.565031  0.644791  0.873398  1
  O  O17  1  0.434969  0.355209  0.126602  1
  O  O18  1  0.599759  0.765492  0.110725  1
  O  O19  1  0.400241  0.234508  0.889275  1
  O  O20  1  0.248591  0.866114  0.960985  1
  O  O21  1  0.751409  0.133886  0.039015  1
  O  O22  1  0.883461  0.177093  0.705142  1
  O  O23  1  0.116539  0.822907  0.294858  1
  O  O24  1  0.457388  0.374109  0.697022  1
  O  O25  1  0.542612  0.625891  0.302978  1
  O  O26  1  0.500000  0.500000  0.500000  1
  O  O27  1  0.028561  0.575666  0.692528  1
  O  O28  1  0.971439  0.424334  0.307472  1
