# generated using pymatgen
data_Yb12Dy5Er3Si16
_symmetry_space_group_name_H-M   'P 1'
_cell_length_a   7.40006415
_cell_length_b   7.79418908
_cell_length_c   15.09307716
_cell_angle_alpha   90.00220473
_cell_angle_beta   89.98330920
_cell_angle_gamma   90.01617738
_symmetry_Int_Tables_number   1
_chemical_formula_structural   Yb12Dy5Er3Si16
_chemical_formula_sum   'Yb12 Dy5 Er3 Si16'
_cell_volume   870.53087371
_cell_formula_units_Z   1
loop_
 _symmetry_equiv_pos_site_id
 _symmetry_equiv_pos_as_xyz
  1  'x, y, z'
loop_
 _atom_site_type_symbol
 _atom_site_label
 _atom_site_symmetry_multiplicity
 _atom_site_fract_x
 _atom_site_fract_y
 _atom_site_fract_z
 _atom_site_occupancy
  Yb  Yb0  1  0.972018  0.816049  0.403522  1
  Yb  Yb1  1  0.472124  0.683885  0.096472  1
  Yb  Yb2  1  0.527941  0.316146  0.596542  1
  Yb  Yb3  1  0.027887  0.183880  0.903508  1
  Yb  Yb4  1  0.028146  0.183934  0.596540  1
  Yb  Yb5  1  0.528198  0.316111  0.903503  1
  Yb  Yb6  1  0.471893  0.683865  0.403505  1
  Yb  Yb7  1  0.971761  0.816063  0.096474  1
  Yb  Yb8  1  0.353657  0.019316  0.749975  1
  Yb  Yb9  1  0.853654  0.480667  0.750031  1
  Yb  Yb10  1  0.146284  0.519408  0.249979  1
  Yb  Yb11  1  0.646427  0.980633  0.249920  1
  Dy  Dy12  1  0.314233  0.176852  0.120988  1
  Dy  Dy13  1  0.814252  0.323258  0.378961  1
  Dy  Dy14  1  0.185729  0.676893  0.878918  1
  Dy  Dy15  1  0.685811  0.823068  0.621150  1
  Dy  Dy16  1  0.314098  0.176773  0.378975  1
  Er  Er17  1  0.814171  0.323503  0.120961  1
  Er  Er18  1  0.185856  0.676568  0.621016  1
  Er  Er19  1  0.685871  0.823416  0.879026  1
  Si  Si20  1  0.858414  0.533589  0.538557  1
  Si  Si21  1  0.358487  0.966519  0.961464  1
  Si  Si22  1  0.641972  0.033242  0.461625  1
  Si  Si23  1  0.141522  0.466494  0.038530  1
  Si  Si24  1  0.142338  0.466934  0.461859  1
  Si  Si25  1  0.642787  0.033375  0.038313  1
  Si  Si26  1  0.357419  0.966302  0.538557  1
  Si  Si27  1  0.857198  0.533394  0.961698  1
  Si  Si28  1  0.977845  0.882696  0.750120  1
  Si  Si29  1  0.477830  0.617290  0.749896  1
  Si  Si30  1  0.522481  0.383048  0.249773  1
  Si  Si31  1  0.021855  0.117116  0.249889  1
  Si  Si32  1  0.249161  0.395069  0.749824  1
  Si  Si33  1  0.749183  0.104909  0.750193  1
  Si  Si34  1  0.250589  0.894771  0.249958  1
  Si  Si35  1  0.750908  0.604963  0.249778  1
