# generated using pymatgen
data_Ho3Lu5(InIr)2
_symmetry_space_group_name_H-M   'P 1'
_cell_length_a   9.53721434
_cell_length_b   9.53721444
_cell_length_c   9.53721400
_cell_angle_alpha   60.00000153
_cell_angle_beta   60.00000119
_cell_angle_gamma   59.99999914
_symmetry_Int_Tables_number   1
_chemical_formula_structural   Ho3Lu5(InIr)2
_chemical_formula_sum   'Ho6 Lu10 In4 Ir4'
_cell_volume   613.40826997
_cell_formula_units_Z   2
loop_
 _symmetry_equiv_pos_site_id
 _symmetry_equiv_pos_as_xyz
  1  'x, y, z'
loop_
 _atom_site_type_symbol
 _atom_site_label
 _atom_site_symmetry_multiplicity
 _atom_site_fract_x
 _atom_site_fract_y
 _atom_site_fract_z
 _atom_site_occupancy
  Ho  Ho0  1  0.190346  0.809654  0.809654  1
  Ho  Ho1  1  0.809654  0.190346  0.190346  1
  Ho  Ho2  1  0.809654  0.190346  0.809654  1
  Ho  Ho3  1  0.190346  0.809654  0.190346  1
  Ho  Ho4  1  0.809654  0.809654  0.190346  1
  Ho  Ho5  1  0.190346  0.190346  0.809654  1
  Lu  Lu6  1  0.598360  0.598360  0.598360  1
  Lu  Lu7  1  0.598360  0.598360  0.204919  1
  Lu  Lu8  1  0.598360  0.204919  0.598360  1
  Lu  Lu9  1  0.204919  0.598360  0.598360  1
  Lu  Lu10  1  0.060454  0.439546  0.439546  1
  Lu  Lu11  1  0.439546  0.060454  0.060454  1
  Lu  Lu12  1  0.439546  0.060454  0.439546  1
  Lu  Lu13  1  0.060454  0.439546  0.060454  1
  Lu  Lu14  1  0.439546  0.439546  0.060454  1
  Lu  Lu15  1  0.060454  0.060454  0.439546  1
  In  In16  1  0.832571  0.832571  0.832571  1
  In  In17  1  0.832571  0.832571  0.502287  1
  In  In18  1  0.832571  0.502287  0.832571  1
  In  In19  1  0.502287  0.832571  0.832571  1
  Ir  Ir20  1  0.391053  0.391053  0.391053  1
  Ir  Ir21  1  0.391053  0.391053  0.826841  1
  Ir  Ir22  1  0.391053  0.826841  0.391053  1
  Ir  Ir23  1  0.826841  0.391053  0.391053  1
