# generated using pymatgen
data_Rb2NdNpO6
_symmetry_space_group_name_H-M   'P 1'
_cell_length_a   6.20082080
_cell_length_b   6.20082106
_cell_length_c   6.19815200
_cell_angle_alpha   60.10072772
_cell_angle_beta   60.10071567
_cell_angle_gamma   90.19911556
_symmetry_Int_Tables_number   1
_chemical_formula_structural   Rb2NdNpO6
_chemical_formula_sum   'Rb2 Nd1 Np1 O6'
_cell_volume   168.73710072
_cell_formula_units_Z   1
loop_
 _symmetry_equiv_pos_site_id
 _symmetry_equiv_pos_as_xyz
  1  'x, y, z'
loop_
 _atom_site_type_symbol
 _atom_site_label
 _atom_site_symmetry_multiplicity
 _atom_site_fract_x
 _atom_site_fract_y
 _atom_site_fract_z
 _atom_site_occupancy
  Rb  Rb0  1  0.250002  0.749999  0.499999  1
  Rb  Rb1  1  0.750001  0.249998  0.500002  1
  Nd  Nd2  1  0.500001  0.500001  0.000000  1
  Np  Np3  1  0.999999  0.999999  0.000000  1
  O  O4  1  0.231435  0.231435  0.000000  1
  O  O5  1  0.768773  0.231227  0.000001  1
  O  O6  1  0.231227  0.768773  0.000000  1
  O  O7  1  0.768565  0.768564  0.000000  1
  O  O8  1  0.768707  0.768707  0.462587  1
  O  O9  1  0.231294  0.231293  0.537413  1
