# generated using pymatgen
data_Tl2(TcS2)3
_symmetry_space_group_name_H-M   'P 1'
_cell_length_a   9.65222500
_cell_length_b   9.66094874
_cell_length_c   11.85502200
_cell_angle_alpha   90.46427475
_cell_angle_beta   90.00000000
_cell_angle_gamma   119.97013042
_symmetry_Int_Tables_number   1
_chemical_formula_structural   Tl2(TcS2)3
_chemical_formula_sum   'Tl8 Tc12 S24'
_cell_volume   957.61700328
_cell_formula_units_Z   4
loop_
 _symmetry_equiv_pos_site_id
 _symmetry_equiv_pos_as_xyz
  1  'x, y, z'
loop_
 _atom_site_type_symbol
 _atom_site_label
 _atom_site_symmetry_multiplicity
 _atom_site_fract_x
 _atom_site_fract_y
 _atom_site_fract_z
 _atom_site_occupancy
  Tl  Tl0  1  0.142412  0.783192  0.512773  1
  Tl  Tl1  1  0.792359  0.000000  0.750000  1
  Tl  Tl2  1  0.359220  0.216808  0.987227  1
  Tl  Tl3  1  0.207641  0.000000  0.250000  1
  Tl  Tl4  1  0.405682  0.000000  0.750000  1
  Tl  Tl5  1  0.640780  0.783192  0.012773  1
  Tl  Tl6  1  0.857588  0.216808  0.487227  1
  Tl  Tl7  1  0.594318  0.000000  0.250000  1
  Tc  Tc8  1  0.120320  0.588425  0.130215  1
  Tc  Tc9  1  0.602256  0.416293  0.584729  1
  Tc  Tc10  1  0.307125  0.315369  0.523045  1
  Tc  Tc11  1  0.008244  0.315369  0.023045  1
  Tc  Tc12  1  0.692875  0.684631  0.476955  1
  Tc  Tc13  1  0.879680  0.411575  0.869785  1
  Tc  Tc14  1  0.814039  0.416293  0.084729  1
  Tc  Tc15  1  0.991756  0.684631  0.976955  1
  Tc  Tc16  1  0.185961  0.583707  0.915271  1
  Tc  Tc17  1  0.468105  0.588425  0.630215  1
  Tc  Tc18  1  0.531895  0.411575  0.369785  1
  Tc  Tc19  1  0.397744  0.583707  0.415271  1
  S  S20  1  0.070120  0.327051  0.826688  1
  S  S21  1  0.288953  0.487993  0.063135  1
  S  S22  1  0.256931  0.327051  0.326688  1
  S  S23  1  0.929880  0.672949  0.173312  1
  S  S24  1  0.199042  0.487993  0.563135  1
  S  S25  1  0.612845  0.662793  0.283402  1
  S  S26  1  0.725156  0.170379  0.978525  1
  S  S27  1  0.274564  0.711480  0.304460  1
  S  S28  1  0.008949  0.066560  0.073222  1
  S  S29  1  0.991051  0.933440  0.926778  1
  S  S30  1  0.743069  0.672949  0.673312  1
  S  S31  1  0.942389  0.933440  0.426778  1
  S  S32  1  0.711047  0.512007  0.936865  1
  S  S33  1  0.436917  0.711480  0.804460  1
  S  S34  1  0.049948  0.662793  0.783402  1
  S  S35  1  0.057611  0.066560  0.573222  1
  S  S36  1  0.554776  0.829621  0.521475  1
  S  S37  1  0.950052  0.337207  0.216598  1
  S  S38  1  0.725436  0.288520  0.695540  1
  S  S39  1  0.563083  0.288520  0.195540  1
  S  S40  1  0.445224  0.170379  0.478525  1
  S  S41  1  0.800958  0.512007  0.436865  1
  S  S42  1  0.274844  0.829621  0.021475  1
  S  S43  1  0.387155  0.337207  0.716598  1
