# generated using pymatgen
data_NdYHoGa8Ag3
_symmetry_space_group_name_H-M   'P 1'
_cell_length_a   4.36009783
_cell_length_b   8.41007183
_cell_length_c   8.41007110
_cell_angle_alpha   69.19299911
_cell_angle_beta   74.97627779
_cell_angle_gamma   74.97627883
_symmetry_Int_Tables_number   1
_chemical_formula_structural   NdYHoGa8Ag3
_chemical_formula_sum   'Nd1 Y1 Ho1 Ga8 Ag3'
_cell_volume   273.60812329
_cell_formula_units_Z   1
loop_
 _symmetry_equiv_pos_site_id
 _symmetry_equiv_pos_as_xyz
  1  'x, y, z'
loop_
 _atom_site_type_symbol
 _atom_site_label
 _atom_site_symmetry_multiplicity
 _atom_site_fract_x
 _atom_site_fract_y
 _atom_site_fract_z
 _atom_site_occupancy
  Nd  Nd0  1  0.500028  0.499972  0.499972  1
  Y  Y1  1  0.200237  0.799763  0.799763  1
  Ho  Ho2  1  0.799944  0.200056  0.200056  1
  Ga  Ga3  1  0.355532  0.360886  0.928049  1
  Ga  Ga4  1  0.644356  0.638545  0.072745  1
  Ga  Ga5  1  0.355532  0.928049  0.360886  1
  Ga  Ga6  1  0.644356  0.072745  0.638545  1
  Ga  Ga7  1  0.160197  0.472062  0.207542  1
  Ga  Ga8  1  0.840151  0.527366  0.792334  1
  Ga  Ga9  1  0.160197  0.207542  0.472062  1
  Ga  Ga10  1  0.840151  0.792334  0.527366  1
  Ag  Ag11  1  0.499797  0.000203  0.000203  1
  Ag  Ag12  1  0.999761  0.806722  0.193755  1
  Ag  Ag13  1  0.999761  0.193755  0.806722  1
