# generated using pymatgen
data_Yb3InPt3RhO14
_symmetry_space_group_name_H-M   'P 1'
_cell_length_a   7.26047716
_cell_length_b   7.18708399
_cell_length_c   7.26047700
_cell_angle_alpha   59.66162235
_cell_angle_beta   60.00000529
_cell_angle_gamma   59.66163123
_symmetry_Int_Tables_number   1
_chemical_formula_structural   Yb3InPt3RhO14
_chemical_formula_sum   'Yb3 In1 Pt3 Rh1 O14'
_cell_volume   266.51877935
_cell_formula_units_Z   1
loop_
 _symmetry_equiv_pos_site_id
 _symmetry_equiv_pos_as_xyz
  1  'x, y, z'
loop_
 _atom_site_type_symbol
 _atom_site_label
 _atom_site_symmetry_multiplicity
 _atom_site_fract_x
 _atom_site_fract_y
 _atom_site_fract_z
 _atom_site_occupancy
  Yb  Yb0  1  0.125000  0.125000  0.125000  1
  Yb  Yb1  1  0.625000  0.125000  0.125000  1
  Yb  Yb2  1  0.125000  0.125000  0.625000  1
  In  In3  1  0.125000  0.625000  0.125000  1
  Pt  Pt4  1  0.625000  0.625000  0.125000  1
  Pt  Pt5  1  0.125000  0.625000  0.625000  1
  Pt  Pt6  1  0.625000  0.625000  0.625000  1
  Rh  Rh7  1  0.625000  0.125000  0.625000  1
  O  O8  1  0.242355  0.272935  0.242355  1
  O  O9  1  0.706595  0.292149  0.294659  1
  O  O10  1  0.706595  0.292149  0.706595  1
  O  O11  1  0.292030  0.703730  0.292030  1
  O  O12  1  0.712210  0.703730  0.292030  1
  O  O13  1  0.294659  0.292149  0.706595  1
  O  O14  1  0.957970  0.546270  0.537790  1
  O  O15  1  0.292030  0.703730  0.712210  1
  O  O16  1  0.955341  0.957851  0.543405  1
  O  O17  1  0.543405  0.957851  0.543405  1
  O  O18  1  0.537790  0.546270  0.957970  1
  O  O19  1  0.957970  0.546270  0.957970  1
  O  O20  1  0.543405  0.957851  0.955341  1
  O  O21  1  0.007645  0.977065  0.007645  1
