# generated using pymatgen
data_Sc12Co4AgOs
_symmetry_space_group_name_H-M   'P 1'
_cell_length_a   7.69825333
_cell_length_b   7.69719036
_cell_length_c   7.69825214
_cell_angle_alpha   112.04472266
_cell_angle_beta   111.37937079
_cell_angle_gamma   105.08288337
_symmetry_Int_Tables_number   1
_chemical_formula_structural   Sc12Co4AgOs
_chemical_formula_sum   'Sc12 Co4 Ag1 Os1'
_cell_volume   349.58503892
_cell_formula_units_Z   1
loop_
 _symmetry_equiv_pos_site_id
 _symmetry_equiv_pos_as_xyz
  1  'x, y, z'
loop_
 _atom_site_type_symbol
 _atom_site_label
 _atom_site_symmetry_multiplicity
 _atom_site_fract_x
 _atom_site_fract_y
 _atom_site_fract_z
 _atom_site_occupancy
  Sc  Sc0  1  0.424405  0.227567  0.196790  1
  Sc  Sc1  1  0.575595  0.772433  0.803210  1
  Sc  Sc2  1  0.030776  0.227567  0.803162  1
  Sc  Sc3  1  0.969224  0.772433  0.196838  1
  Sc  Sc4  1  0.311152  0.614354  0.303202  1
  Sc  Sc5  1  0.688848  0.385646  0.696798  1
  Sc  Sc6  1  0.311107  0.007907  0.696800  1
  Sc  Sc7  1  0.688893  0.992093  0.303200  1
  Sc  Sc8  1  0.183274  0.273270  0.456535  1
  Sc  Sc9  1  0.816726  0.726729  0.543465  1
  Sc  Sc10  1  0.183264  0.726729  0.910004  1
  Sc  Sc11  1  0.816736  0.273270  0.089996  1
  Co  Co12  1  0.364269  0.000000  0.364269  1
  Co  Co13  1  0.635731  0.000000  0.635731  1
  Co  Co14  1  0.118167  0.618175  0.500008  1
  Co  Co15  1  0.881833  0.381825  0.499992  1
  Ag  Ag16  1  0.500000  0.500000  0.000000  1
  Os  Os17  1  0.000000  0.000000  0.000000  1
