# generated using pymatgen
data_Rb3ScRhBr9
_symmetry_space_group_name_H-M   'P 1'
_cell_length_a   7.66354300
_cell_length_b   7.66354332
_cell_length_c   19.30122600
_cell_angle_alpha   90.00000000
_cell_angle_beta   90.00000000
_cell_angle_gamma   120.00000294
_symmetry_Int_Tables_number   1
_chemical_formula_structural   Rb3ScRhBr9
_chemical_formula_sum   'Rb6 Sc2 Rh2 Br18'
_cell_volume   981.69082026
_cell_formula_units_Z   2
loop_
 _symmetry_equiv_pos_site_id
 _symmetry_equiv_pos_as_xyz
  1  'x, y, z'
loop_
 _atom_site_type_symbol
 _atom_site_label
 _atom_site_symmetry_multiplicity
 _atom_site_fract_x
 _atom_site_fract_y
 _atom_site_fract_z
 _atom_site_occupancy
  Rb  Rb0  1  0.333333  0.666667  0.066270  1
  Rb  Rb1  1  0.666667  0.333333  0.933730  1
  Rb  Rb2  1  0.666667  0.333333  0.567016  1
  Rb  Rb3  1  0.333333  0.666667  0.432984  1
  Rb  Rb4  1  0.000000  0.000000  0.254551  1
  Rb  Rb5  1  0.000000  0.000000  0.745449  1
  Sc  Sc6  1  0.666667  0.333333  0.160399  1
  Sc  Sc7  1  0.333333  0.666667  0.839601  1
  Rh  Rh8  1  0.333333  0.666667  0.665981  1
  Rh  Rh9  1  0.666667  0.333333  0.334019  1
  Br  Br10  1  0.179392  0.358785  0.592128  1
  Br  Br11  1  0.820608  0.641215  0.407872  1
  Br  Br12  1  0.641215  0.820608  0.592128  1
  Br  Br13  1  0.831114  0.662226  0.089706  1
  Br  Br14  1  0.358785  0.179392  0.407872  1
  Br  Br15  1  0.168886  0.337774  0.910294  1
  Br  Br16  1  0.179392  0.820608  0.592128  1
  Br  Br17  1  0.337774  0.168886  0.089706  1
  Br  Br18  1  0.820608  0.179392  0.407872  1
  Br  Br19  1  0.662226  0.831114  0.910294  1
  Br  Br20  1  0.831114  0.168886  0.089706  1
  Br  Br21  1  0.168886  0.831114  0.910294  1
  Br  Br22  1  0.510307  0.020616  0.255668  1
  Br  Br23  1  0.489693  0.979384  0.744332  1
  Br  Br24  1  0.979384  0.489693  0.255668  1
  Br  Br25  1  0.020616  0.510307  0.744332  1
  Br  Br26  1  0.510307  0.489693  0.255668  1
  Br  Br27  1  0.489693  0.510307  0.744332  1
