# generated using pymatgen
data_Th5Sc3(P3Ir4)4
_symmetry_space_group_name_H-M   'P 1'
_cell_length_a   12.97218800
_cell_length_b   12.97218906
_cell_length_c   4.03206000
_cell_angle_alpha   90.00000000
_cell_angle_beta   90.00000000
_cell_angle_gamma   120.00000239
_symmetry_Int_Tables_number   1
_chemical_formula_structural   Th5Sc3(P3Ir4)4
_chemical_formula_sum   'Th5 Sc3 P12 Ir16'
_cell_volume   587.60314430
_cell_formula_units_Z   1
loop_
 _symmetry_equiv_pos_site_id
 _symmetry_equiv_pos_as_xyz
  1  'x, y, z'
loop_
 _atom_site_type_symbol
 _atom_site_label
 _atom_site_symmetry_multiplicity
 _atom_site_fract_x
 _atom_site_fract_y
 _atom_site_fract_z
 _atom_site_occupancy
  Th  Th0  1  0.333333  0.666667  0.500000  1
  Th  Th1  1  0.666667  0.333333  0.500000  1
  Th  Th2  1  0.000000  0.814113  0.000000  1
  Th  Th3  1  0.185887  0.185887  0.000000  1
  Th  Th4  1  0.814113  0.000000  0.000000  1
  Sc  Sc5  1  0.000000  0.443256  0.500000  1
  Sc  Sc6  1  0.556744  0.556744  0.500000  1
  Sc  Sc7  1  0.443256  0.000000  0.500000  1
  P  P8  1  0.000000  0.641732  0.500000  1
  P  P9  1  0.358268  0.358268  0.500000  1
  P  P10  1  0.641732  0.000000  0.500000  1
  P  P11  1  0.519822  0.684856  0.000000  1
  P  P12  1  0.315144  0.834967  0.000000  1
  P  P13  1  0.165033  0.480178  0.000000  1
  P  P14  1  0.480178  0.165033  0.000000  1
  P  P15  1  0.684856  0.519822  0.000000  1
  P  P16  1  0.834967  0.315144  0.000000  1
  P  P17  1  0.000000  0.177828  0.500000  1
  P  P18  1  0.822172  0.822172  0.500000  1
  P  P19  1  0.177828  0.000000  0.500000  1
  Ir  Ir20  1  0.510298  0.865873  0.000000  1
  Ir  Ir21  1  0.134127  0.644427  0.000000  1
  Ir  Ir22  1  0.355573  0.489702  0.000000  1
  Ir  Ir23  1  0.489702  0.355573  0.000000  1
  Ir  Ir24  1  0.865873  0.510298  0.000000  1
  Ir  Ir25  1  0.644427  0.134127  0.000000  1
  Ir  Ir26  1  0.000000  0.281335  0.000000  1
  Ir  Ir27  1  0.718665  0.718665  0.000000  1
  Ir  Ir28  1  0.281335  0.000000  0.000000  1
  Ir  Ir29  1  0.627151  0.806033  0.500000  1
  Ir  Ir30  1  0.193967  0.821118  0.500000  1
  Ir  Ir31  1  0.178882  0.372849  0.500000  1
  Ir  Ir32  1  0.372849  0.178882  0.500000  1
  Ir  Ir33  1  0.806033  0.627151  0.500000  1
  Ir  Ir34  1  0.821118  0.193967  0.500000  1
  Ir  Ir35  1  0.000000  0.000000  0.500000  1
