# generated using pymatgen
data_Yb9Sc(AlSb3)4
_symmetry_space_group_name_H-M   'P 1'
_cell_length_a   4.40718300
_cell_length_b   7.41910636
_cell_length_c   22.80995124
_cell_angle_alpha   90.72371562
_cell_angle_beta   90.00000000
_cell_angle_gamma   90.00000000
_symmetry_Int_Tables_number   1
_chemical_formula_structural   Yb9Sc(AlSb3)4
_chemical_formula_sum   'Yb9 Sc1 Al4 Sb12'
_cell_volume   745.76567747
_cell_formula_units_Z   1
loop_
 _symmetry_equiv_pos_site_id
 _symmetry_equiv_pos_as_xyz
  1  'x, y, z'
loop_
 _atom_site_type_symbol
 _atom_site_label
 _atom_site_symmetry_multiplicity
 _atom_site_fract_x
 _atom_site_fract_y
 _atom_site_fract_z
 _atom_site_occupancy
  Yb  Yb0  1  0.000000  0.459662  0.915488  1
  Yb  Yb1  1  0.000000  0.272171  0.749180  1
  Yb  Yb2  1  0.000000  0.770335  0.755474  1
  Yb  Yb3  1  0.000000  0.540338  0.084512  1
  Yb  Yb4  1  0.000000  0.948830  0.590482  1
  Yb  Yb5  1  0.000000  0.727829  0.250820  1
  Yb  Yb6  1  0.000000  0.051170  0.409518  1
  Yb  Yb7  1  0.000000  0.500000  0.500000  1
  Yb  Yb8  1  0.000000  0.229665  0.244526  1
  Sc  Sc9  1  0.000000  0.000000  0.000000  1
  Al  Al10  1  0.500000  0.824782  0.881694  1
  Al  Al11  1  0.500000  0.175218  0.118306  1
  Al  Al12  1  0.500000  0.686509  0.377351  1
  Al  Al13  1  0.500000  0.313491  0.622649  1
  Sb  Sb14  1  0.500000  0.803611  0.494578  1
  Sb  Sb15  1  0.000000  0.473362  0.363070  1
  Sb  Sb16  1  0.000000  0.963451  0.132008  1
  Sb  Sb17  1  0.500000  0.519334  0.814591  1
  Sb  Sb18  1  0.500000  0.480666  0.185409  1
  Sb  Sb19  1  0.000000  0.036549  0.867992  1
  Sb  Sb20  1  0.000000  0.526638  0.636930  1
  Sb  Sb21  1  0.500000  0.985124  0.310229  1
  Sb  Sb22  1  0.500000  0.196389  0.505422  1
  Sb  Sb23  1  0.500000  0.014876  0.689771  1
  Sb  Sb24  1  0.500000  0.270401  0.002857  1
  Sb  Sb25  1  0.500000  0.729599  0.997143  1
