# generated using pymatgen
data_La8Y2OsRu3
_symmetry_space_group_name_H-M   'P 1'
_cell_length_a   6.70250724
_cell_length_b   7.30441240
_cell_length_c   9.08426977
_cell_angle_alpha   94.65026117
_cell_angle_beta   111.88250608
_cell_angle_gamma   89.73801315
_symmetry_Int_Tables_number   1
_chemical_formula_structural   La8Y2OsRu3
_chemical_formula_sum   'La8 Y2 Os1 Ru3'
_cell_volume   411.18591595
_cell_formula_units_Z   1
loop_
 _symmetry_equiv_pos_site_id
 _symmetry_equiv_pos_as_xyz
  1  'x, y, z'
loop_
 _atom_site_type_symbol
 _atom_site_label
 _atom_site_symmetry_multiplicity
 _atom_site_fract_x
 _atom_site_fract_y
 _atom_site_fract_z
 _atom_site_occupancy
  La  La0  1  0.982560  0.909410  0.181723  1
  La  La1  1  0.798870  0.595422  0.818828  1
  La  La2  1  0.019237  0.094769  0.818005  1
  La  La3  1  0.201202  0.405806  0.182589  1
  La  La4  1  0.635282  0.817477  0.422843  1
  La  La5  1  0.209333  0.681201  0.575277  1
  La  La6  1  0.365993  0.181760  0.577078  1
  La  La7  1  0.789054  0.317544  0.424483  1
  Y  Y8  1  0.433763  0.749446  0.001265  1
  Y  Y9  1  0.570008  0.252405  0.001088  1
  Os  Os10  1  0.821007  0.575383  0.218423  1
  Ru  Ru11  1  0.605669  0.920755  0.778887  1
  Ru  Ru12  1  0.173302  0.419695  0.779176  1
  Ru  Ru13  1  0.394719  0.078927  0.220334  1
