# generated using pymatgen
data_PrNbP3Ir4
_symmetry_space_group_name_H-M   'P 1'
_cell_length_a   4.08022200
_cell_length_b   11.10527500
_cell_length_c   12.57868300
_cell_angle_alpha   90.00000000
_cell_angle_beta   90.00000000
_cell_angle_gamma   90.00000000
_symmetry_Int_Tables_number   1
_chemical_formula_structural   PrNbP3Ir4
_chemical_formula_sum   'Pr4 Nb4 P12 Ir16'
_cell_volume   569.96512524
_cell_formula_units_Z   4
loop_
 _symmetry_equiv_pos_site_id
 _symmetry_equiv_pos_as_xyz
  1  'x, y, z'
loop_
 _atom_site_type_symbol
 _atom_site_label
 _atom_site_symmetry_multiplicity
 _atom_site_fract_x
 _atom_site_fract_y
 _atom_site_fract_z
 _atom_site_occupancy
  Pr  Pr0  1  0.250000  0.581399  0.703812  1
  Pr  Pr1  1  0.250000  0.918601  0.203812  1
  Pr  Pr2  1  0.750000  0.418601  0.296188  1
  Pr  Pr3  1  0.750000  0.081399  0.796188  1
  Nb  Nb4  1  0.250000  0.709732  0.985257  1
  Nb  Nb5  1  0.250000  0.790268  0.485257  1
  Nb  Nb6  1  0.750000  0.290268  0.014743  1
  Nb  Nb7  1  0.750000  0.209732  0.514743  1
  P  P8  1  0.250000  0.421595  0.117696  1
  P  P9  1  0.250000  0.078405  0.617696  1
  P  P10  1  0.750000  0.578405  0.882304  1
  P  P11  1  0.750000  0.921595  0.382304  1
  P  P12  1  0.250000  0.260849  0.871301  1
  P  P13  1  0.250000  0.239151  0.371301  1
  P  P14  1  0.750000  0.739151  0.128699  1
  P  P15  1  0.750000  0.760849  0.628699  1
  P  P16  1  0.250000  0.596938  0.393167  1
  P  P17  1  0.250000  0.903062  0.893167  1
  P  P18  1  0.750000  0.403062  0.606833  1
  P  P19  1  0.750000  0.096938  0.106833  1
  Ir  Ir20  1  0.250000  0.406587  0.488388  1
  Ir  Ir21  1  0.250000  0.093413  0.988388  1
  Ir  Ir22  1  0.750000  0.593413  0.511612  1
  Ir  Ir23  1  0.750000  0.906587  0.011612  1
  Ir  Ir24  1  0.250000  0.232832  0.184221  1
  Ir  Ir25  1  0.250000  0.267168  0.684221  1
  Ir  Ir26  1  0.750000  0.767168  0.815779  1
  Ir  Ir27  1  0.750000  0.732832  0.315779  1
  Ir  Ir28  1  0.250000  0.892633  0.705163  1
  Ir  Ir29  1  0.250000  0.607367  0.205163  1
  Ir  Ir30  1  0.750000  0.107367  0.294837  1
  Ir  Ir31  1  0.750000  0.392633  0.794837  1
  Ir  Ir32  1  0.250000  0.455758  0.936646  1
  Ir  Ir33  1  0.250000  0.044242  0.436646  1
  Ir  Ir34  1  0.750000  0.544242  0.063354  1
  Ir  Ir35  1  0.750000  0.955758  0.563354  1
