# generated using pymatgen
data_Hf3Fe2Ni7P6
_symmetry_space_group_name_H-M   'P 1'
_cell_length_a   3.63957600
_cell_length_b   10.24938700
_cell_length_c   12.03623700
_cell_angle_alpha   90.00000000
_cell_angle_beta   90.00000000
_cell_angle_gamma   90.00000000
_symmetry_Int_Tables_number   1
_chemical_formula_structural   Hf3Fe2Ni7P6
_chemical_formula_sum   'Hf6 Fe4 Ni14 P12'
_cell_volume   448.99283942
_cell_formula_units_Z   2
loop_
 _symmetry_equiv_pos_site_id
 _symmetry_equiv_pos_as_xyz
  1  'x, y, z'
loop_
 _atom_site_type_symbol
 _atom_site_label
 _atom_site_symmetry_multiplicity
 _atom_site_fract_x
 _atom_site_fract_y
 _atom_site_fract_z
 _atom_site_occupancy
  Hf  Hf0  1  0.751944  0.000000  0.473321  1
  Hf  Hf1  1  0.251944  0.500000  0.526679  1
  Hf  Hf2  1  0.251860  0.677907  0.792608  1
  Hf  Hf3  1  0.251860  0.322093  0.792608  1
  Hf  Hf4  1  0.751860  0.822093  0.207392  1
  Hf  Hf5  1  0.751860  0.177907  0.207392  1
  Fe  Fe6  1  0.251989  0.200675  0.568533  1
  Fe  Fe7  1  0.251989  0.799325  0.568533  1
  Fe  Fe8  1  0.751989  0.299325  0.431467  1
  Fe  Fe9  1  0.751989  0.700675  0.431467  1
  Ni  Ni10  1  0.751911  0.000000  0.014608  1
  Ni  Ni11  1  0.251911  0.500000  0.985392  1
  Ni  Ni12  1  0.251792  0.625025  0.294423  1
  Ni  Ni13  1  0.251792  0.374975  0.294423  1
  Ni  Ni14  1  0.751792  0.874975  0.705577  1
  Ni  Ni15  1  0.751792  0.125025  0.705577  1
  Ni  Ni16  1  0.251712  0.168254  0.000924  1
  Ni  Ni17  1  0.251712  0.831746  0.000924  1
  Ni  Ni18  1  0.751712  0.331746  0.999076  1
  Ni  Ni19  1  0.751712  0.668254  0.999076  1
  Ni  Ni20  1  0.251489  0.000000  0.831836  1
  Ni  Ni21  1  0.751489  0.500000  0.168164  1
  Ni  Ni22  1  0.251600  0.000000  0.299889  1
  Ni  Ni23  1  0.751600  0.500000  0.700111  1
  P  P24  1  0.251930  0.184342  0.387148  1
  P  P25  1  0.251930  0.815658  0.387148  1
  P  P26  1  0.751930  0.315658  0.612852  1
  P  P27  1  0.751930  0.684342  0.612852  1
  P  P28  1  0.251860  0.000000  0.123404  1
  P  P29  1  0.751860  0.500000  0.876596  1
  P  P30  1  0.251760  0.656865  0.114193  1
  P  P31  1  0.251760  0.343135  0.114193  1
  P  P32  1  0.751760  0.843135  0.885807  1
  P  P33  1  0.751760  0.156865  0.885807  1
  P  P34  1  0.251912  0.000000  0.643170  1
  P  P35  1  0.751912  0.500000  0.356830  1
