# generated using pymatgen
data_Zr2Co12Si4P3
_symmetry_space_group_name_H-M   'P 1'
_cell_length_a   9.01038500
_cell_length_b   9.01038412
_cell_length_c   3.55272900
_cell_angle_alpha   90.00000000
_cell_angle_beta   90.00000000
_cell_angle_gamma   120.00000691
_symmetry_Int_Tables_number   1
_chemical_formula_structural   Zr2Co12Si4P3
_chemical_formula_sum   'Zr2 Co12 Si4 P3'
_cell_volume   249.79246641
_cell_formula_units_Z   1
loop_
 _symmetry_equiv_pos_site_id
 _symmetry_equiv_pos_as_xyz
  1  'x, y, z'
loop_
 _atom_site_type_symbol
 _atom_site_label
 _atom_site_symmetry_multiplicity
 _atom_site_fract_x
 _atom_site_fract_y
 _atom_site_fract_z
 _atom_site_occupancy
  Zr  Zr0  1  0.333333  0.666667  0.000000  1
  Zr  Zr1  1  0.666667  0.333333  0.500000  1
  Co  Co2  1  0.434051  0.055103  0.000000  1
  Co  Co3  1  0.944897  0.378948  0.000000  1
  Co  Co4  1  0.621052  0.565949  0.000000  1
  Co  Co5  1  0.382972  0.441868  0.500000  1
  Co  Co6  1  0.558132  0.941104  0.500000  1
  Co  Co7  1  0.058896  0.617028  0.500000  1
  Co  Co8  1  0.155853  0.282663  0.000000  1
  Co  Co9  1  0.717337  0.873190  0.000000  1
  Co  Co10  1  0.126810  0.844147  0.000000  1
  Co  Co11  1  0.227210  0.099353  0.500000  1
  Co  Co12  1  0.900647  0.127856  0.500000  1
  Co  Co13  1  0.872144  0.772790  0.500000  1
  Si  Si14  1  0.000000  0.000000  0.000000  1
  Si  Si15  1  0.406206  0.289136  0.000000  1
  Si  Si16  1  0.710864  0.117071  0.000000  1
  Si  Si17  1  0.882929  0.593794  0.000000  1
  P  P18  1  0.115009  0.405342  0.500000  1
  P  P19  1  0.594658  0.709666  0.500000  1
  P  P20  1  0.290334  0.884991  0.500000  1
