# generated using pymatgen
data_DyAlCu3Au
_symmetry_space_group_name_H-M   'P 1'
_cell_length_a   5.13012407
_cell_length_b   5.13012469
_cell_length_c   5.07730215
_cell_angle_alpha   59.65525894
_cell_angle_beta   59.65525003
_cell_angle_gamma   60.00001409
_symmetry_Int_Tables_number   1
_chemical_formula_structural   DyAlCu3Au
_chemical_formula_sum   'Dy1 Al1 Cu3 Au1'
_cell_volume   93.99203428
_cell_formula_units_Z   1
loop_
 _symmetry_equiv_pos_site_id
 _symmetry_equiv_pos_as_xyz
  1  'x, y, z'
loop_
 _atom_site_type_symbol
 _atom_site_label
 _atom_site_symmetry_multiplicity
 _atom_site_fract_x
 _atom_site_fract_y
 _atom_site_fract_z
 _atom_site_occupancy
  Dy  Dy0  1  0.003958  0.003958  0.988126  1
  Al  Al1  1  0.620132  0.620132  0.139606  1
  Cu  Cu2  1  0.624278  0.123666  0.627779  1
  Cu  Cu3  1  0.123666  0.624278  0.627779  1
  Cu  Cu4  1  0.624278  0.624278  0.627779  1
  Au  Au5  1  0.253691  0.253691  0.238929  1
