# generated using pymatgen
data_Tb3Y(HgO4)2
_symmetry_space_group_name_H-M   'P 1'
_cell_length_a   7.09809158
_cell_length_b   7.09809245
_cell_length_c   10.16749181
_cell_angle_alpha   58.94081084
_cell_angle_beta   58.94080507
_cell_angle_gamma   29.91880977
_symmetry_Int_Tables_number   1
_chemical_formula_structural   Tb3Y(HgO4)2
_chemical_formula_sum   'Tb3 Y1 Hg2 O8'
_cell_volume   216.02198406
_cell_formula_units_Z   1
loop_
 _symmetry_equiv_pos_site_id
 _symmetry_equiv_pos_as_xyz
  1  'x, y, z'
loop_
 _atom_site_type_symbol
 _atom_site_label
 _atom_site_symmetry_multiplicity
 _atom_site_fract_x
 _atom_site_fract_y
 _atom_site_fract_z
 _atom_site_occupancy
  Tb  Tb0  1  0.619361  0.619361  0.537986  1
  Tb  Tb1  1  0.159106  0.159106  0.200389  1
  Tb  Tb2  1  0.840894  0.840894  0.799406  1
  Y  Y3  1  0.380652  0.380652  0.462125  1
  Hg  Hg4  1  0.886458  0.886458  0.161417  1
  Hg  Hg5  1  0.113496  0.113496  0.838699  1
  O  O6  1  0.232261  0.232261  0.387930  1
  O  O7  1  0.796904  0.796904  0.054679  1
  O  O8  1  0.034857  0.034857  0.717877  1
  O  O9  1  0.582009  0.582009  0.347293  1
  O  O10  1  0.417977  0.417977  0.652471  1
  O  O11  1  0.964764  0.964764  0.282732  1
  O  O12  1  0.203050  0.203050  0.945282  1
  O  O13  1  0.768212  0.768212  0.611714  1
