# generated using pymatgen
data_Hf6Mn2Co15NiP12
_symmetry_space_group_name_H-M   'P 1'
_cell_length_a   3.59801300
_cell_length_b   10.26344600
_cell_length_c   11.90321100
_cell_angle_alpha   90.00000000
_cell_angle_beta   90.00000000
_cell_angle_gamma   90.00000000
_symmetry_Int_Tables_number   1
_chemical_formula_structural   Hf6Mn2Co15NiP12
_chemical_formula_sum   'Hf6 Mn2 Co15 Ni1 P12'
_cell_volume   439.56192023
_cell_formula_units_Z   1
loop_
 _symmetry_equiv_pos_site_id
 _symmetry_equiv_pos_as_xyz
  1  'x, y, z'
loop_
 _atom_site_type_symbol
 _atom_site_label
 _atom_site_symmetry_multiplicity
 _atom_site_fract_x
 _atom_site_fract_y
 _atom_site_fract_z
 _atom_site_occupancy
  Hf  Hf0  1  0.000000  0.500000  0.525874  1
  Hf  Hf1  1  0.500000  0.000000  0.472764  1
  Hf  Hf2  1  0.500000  0.822206  0.207121  1
  Hf  Hf3  1  0.500000  0.177794  0.207121  1
  Hf  Hf4  1  0.000000  0.679820  0.794290  1
  Hf  Hf5  1  0.000000  0.320180  0.794290  1
  Mn  Mn6  1  0.500000  0.500000  0.159031  1
  Mn  Mn7  1  0.000000  0.000000  0.838850  1
  Co  Co8  1  0.000000  0.000000  0.297747  1
  Co  Co9  1  0.000000  0.500000  0.987348  1
  Co  Co10  1  0.500000  0.000000  0.013246  1
  Co  Co11  1  0.500000  0.331577  0.992994  1
  Co  Co12  1  0.500000  0.668423  0.992994  1
  Co  Co13  1  0.000000  0.167266  0.006441  1
  Co  Co14  1  0.000000  0.832734  0.006441  1
  Co  Co15  1  0.500000  0.300085  0.433570  1
  Co  Co16  1  0.500000  0.699915  0.433570  1
  Co  Co17  1  0.000000  0.200146  0.566425  1
  Co  Co18  1  0.000000  0.799854  0.566425  1
  Co  Co19  1  0.500000  0.874427  0.706893  1
  Co  Co20  1  0.500000  0.125573  0.706893  1
  Co  Co21  1  0.000000  0.625226  0.293345  1
  Co  Co22  1  0.000000  0.374774  0.293345  1
  Ni  Ni23  1  0.500000  0.500000  0.702092  1
  P  P24  1  0.500000  0.500000  0.879832  1
  P  P25  1  0.000000  0.000000  0.121236  1
  P  P26  1  0.500000  0.500000  0.354634  1
  P  P27  1  0.000000  0.000000  0.647049  1
  P  P28  1  0.500000  0.315649  0.617174  1
  P  P29  1  0.500000  0.684351  0.617174  1
  P  P30  1  0.000000  0.182722  0.382247  1
  P  P31  1  0.000000  0.817278  0.382247  1
  P  P32  1  0.500000  0.844746  0.888311  1
  P  P33  1  0.500000  0.155254  0.888311  1
  P  P34  1  0.000000  0.657817  0.111341  1
  P  P35  1  0.000000  0.342183  0.111341  1
