# generated using pymatgen
data_Pr4HoGa2Sn
_symmetry_space_group_name_H-M   'P 1'
_cell_length_a   8.05422700
_cell_length_b   8.05422700
_cell_length_c   14.58075900
_cell_angle_alpha   90.00000000
_cell_angle_beta   90.00000000
_cell_angle_gamma   90.00000000
_symmetry_Int_Tables_number   1
_chemical_formula_structural   Pr4HoGa2Sn
_chemical_formula_sum   'Pr16 Ho4 Ga8 Sn4'
_cell_volume   945.86218480
_cell_formula_units_Z   4
loop_
 _symmetry_equiv_pos_site_id
 _symmetry_equiv_pos_as_xyz
  1  'x, y, z'
loop_
 _atom_site_type_symbol
 _atom_site_label
 _atom_site_symmetry_multiplicity
 _atom_site_fract_x
 _atom_site_fract_y
 _atom_site_fract_z
 _atom_site_occupancy
  Pr  Pr0  1  0.825806  0.839516  0.606598  1
  Pr  Pr1  1  0.174194  0.839516  0.106598  1
  Pr  Pr2  1  0.160484  0.825806  0.393402  1
  Pr  Pr3  1  0.839516  0.174194  0.393402  1
  Pr  Pr4  1  0.674194  0.660484  0.393402  1
  Pr  Pr5  1  0.660484  0.325806  0.606598  1
  Pr  Pr6  1  0.339516  0.674194  0.606598  1
  Pr  Pr7  1  0.660484  0.674194  0.106598  1
  Pr  Pr8  1  0.674194  0.339516  0.893402  1
  Pr  Pr9  1  0.839516  0.825806  0.893402  1
  Pr  Pr10  1  0.325806  0.339516  0.393402  1
  Pr  Pr11  1  0.174194  0.160484  0.606598  1
  Pr  Pr12  1  0.825806  0.160484  0.106598  1
  Pr  Pr13  1  0.325806  0.660484  0.893402  1
  Pr  Pr14  1  0.339516  0.325806  0.106598  1
  Pr  Pr15  1  0.160484  0.174194  0.893402  1
  Ho  Ho16  1  0.000000  0.500000  0.733046  1
  Ho  Ho17  1  0.000000  0.500000  0.233046  1
  Ho  Ho18  1  0.500000  0.000000  0.266954  1
  Ho  Ho19  1  0.500000  0.000000  0.766954  1
  Ga  Ga20  1  0.627255  0.372745  0.250000  1
  Ga  Ga21  1  0.127255  0.872745  0.750000  1
  Ga  Ga22  1  0.372745  0.372745  0.750000  1
  Ga  Ga23  1  0.372745  0.627255  0.250000  1
  Ga  Ga24  1  0.872745  0.872745  0.250000  1
  Ga  Ga25  1  0.627255  0.627255  0.750000  1
  Ga  Ga26  1  0.872745  0.127255  0.750000  1
  Ga  Ga27  1  0.127255  0.127255  0.250000  1
  Sn  Sn28  1  0.000000  0.500000  0.507541  1
  Sn  Sn29  1  0.500000  0.000000  0.492459  1
  Sn  Sn30  1  0.500000  0.000000  0.992459  1
  Sn  Sn31  1  0.000000  0.500000  0.007541  1
