# generated using pymatgen
data_DyY5(ErIn4)2
_symmetry_space_group_name_H-M   'P 1'
_cell_length_a   6.50689638
_cell_length_b   6.50689633
_cell_length_c   10.29263800
_cell_angle_alpha   90.00000000
_cell_angle_beta   90.00000000
_cell_angle_gamma   103.26821528
_symmetry_Int_Tables_number   1
_chemical_formula_structural   DyY5(ErIn4)2
_chemical_formula_sum   'Dy1 Y5 Er2 In8'
_cell_volume   424.15445276
_cell_formula_units_Z   1
loop_
 _symmetry_equiv_pos_site_id
 _symmetry_equiv_pos_as_xyz
  1  'x, y, z'
loop_
 _atom_site_type_symbol
 _atom_site_label
 _atom_site_symmetry_multiplicity
 _atom_site_fract_x
 _atom_site_fract_y
 _atom_site_fract_z
 _atom_site_occupancy
  Dy  Dy0  1  0.528367  0.528367  0.250000  1
  Y  Y1  1  0.471691  0.471691  0.750000  1
  Y  Y2  1  0.246870  0.753260  0.499853  1
  Y  Y3  1  0.246870  0.753260  0.000147  1
  Y  Y4  1  0.753260  0.246870  0.499853  1
  Y  Y5  1  0.753260  0.246870  0.000147  1
  Er  Er6  1  0.980683  0.980683  0.250000  1
  Er  Er7  1  0.019020  0.019020  0.750000  1
  In  In8  1  0.252898  0.252898  0.016440  1
  In  In9  1  0.747104  0.747104  0.983740  1
  In  In10  1  0.252898  0.252898  0.483560  1
  In  In11  1  0.747104  0.747104  0.516260  1
  In  In12  1  0.487929  0.018621  0.250000  1
  In  In13  1  0.981312  0.512113  0.750000  1
  In  In14  1  0.512113  0.981312  0.750000  1
  In  In15  1  0.018621  0.487929  0.250000  1
