# generated using pymatgen
data_Hf3Sc3Al8Si8Ir7
_symmetry_space_group_name_H-M   'P 1'
_cell_length_a   8.60766112
_cell_length_b   8.59801081
_cell_length_c   8.58618444
_cell_angle_alpha   60.11981734
_cell_angle_beta   60.00822141
_cell_angle_gamma   59.87194876
_symmetry_Int_Tables_number   1
_chemical_formula_structural   Hf3Sc3Al8Si8Ir7
_chemical_formula_sum   'Hf3 Sc3 Al8 Si8 Ir7'
_cell_volume   449.32878941
_cell_formula_units_Z   1
loop_
 _symmetry_equiv_pos_site_id
 _symmetry_equiv_pos_as_xyz
  1  'x, y, z'
loop_
 _atom_site_type_symbol
 _atom_site_label
 _atom_site_symmetry_multiplicity
 _atom_site_fract_x
 _atom_site_fract_y
 _atom_site_fract_z
 _atom_site_occupancy
  Hf  Hf0  1  0.690454  0.309546  0.690454  1
  Hf  Hf1  1  0.307561  0.308042  0.691958  1
  Hf  Hf2  1  0.691958  0.692439  0.307561  1
  Sc  Sc3  1  0.691761  0.308239  0.307282  1
  Sc  Sc4  1  0.307282  0.692718  0.691761  1
  Sc  Sc5  1  0.307160  0.692840  0.307160  1
  Al  Al6  1  0.120996  0.120182  0.120957  1
  Al  Al7  1  0.879276  0.878885  0.879370  1
  Al  Al8  1  0.121115  0.120724  0.637531  1
  Al  Al9  1  0.120957  0.637864  0.120996  1
  Al  Al10  1  0.879818  0.879004  0.362136  1
  Al  Al11  1  0.879370  0.362469  0.879276  1
  Al  Al12  1  0.637531  0.120630  0.121115  1
  Al  Al13  1  0.362136  0.879043  0.879818  1
  Si  Si14  1  0.346376  0.346581  0.346240  1
  Si  Si15  1  0.653844  0.654603  0.654382  1
  Si  Si16  1  0.345397  0.346156  0.962829  1
  Si  Si17  1  0.346240  0.960803  0.346376  1
  Si  Si18  1  0.653419  0.653624  0.039197  1
  Si  Si19  1  0.654382  0.037171  0.653844  1
  Si  Si20  1  0.962829  0.345618  0.345397  1
  Si  Si21  1  0.039197  0.653760  0.653419  1
  Ir  Ir22  1  0.501049  0.001386  0.998614  1
  Ir  Ir23  1  0.998614  0.498951  0.501049  1
  Ir  Ir24  1  0.000821  0.499179  0.000821  1
  Ir  Ir25  1  0.500821  0.999179  0.500821  1
  Ir  Ir26  1  0.998835  0.001165  0.501203  1
  Ir  Ir27  1  0.501203  0.498797  0.998835  1
  Ir  Ir28  1  0.999598  0.000402  0.999598  1
