# generated using pymatgen
data_K2CeTmB24
_symmetry_space_group_name_H-M   'P 1'
_cell_length_a   4.14866900
_cell_length_b   4.14866900
_cell_length_c   16.65110400
_cell_angle_alpha   90.00000000
_cell_angle_beta   90.00000000
_cell_angle_gamma   90.00000000
_symmetry_Int_Tables_number   1
_chemical_formula_structural   K2CeTmB24
_chemical_formula_sum   'K2 Ce1 Tm1 B24'
_cell_volume   286.58971840
_cell_formula_units_Z   1
loop_
 _symmetry_equiv_pos_site_id
 _symmetry_equiv_pos_as_xyz
  1  'x, y, z'
loop_
 _atom_site_type_symbol
 _atom_site_label
 _atom_site_symmetry_multiplicity
 _atom_site_fract_x
 _atom_site_fract_y
 _atom_site_fract_z
 _atom_site_occupancy
  K  K0  1  0.000000  0.000000  0.251133  1
  K  K1  1  0.000000  0.000000  0.748867  1
  Ce  Ce2  1  0.000000  0.000000  0.000000  1
  Tm  Tm3  1  0.000000  0.000000  0.500000  1
  B  B4  1  0.201582  0.500000  0.123437  1
  B  B5  1  0.201097  0.500000  0.378075  1
  B  B6  1  0.201097  0.500000  0.621925  1
  B  B7  1  0.201582  0.500000  0.876563  1
  B  B8  1  0.500000  0.500000  0.199237  1
  B  B9  1  0.500000  0.500000  0.451117  1
  B  B10  1  0.500000  0.500000  0.697573  1
  B  B11  1  0.500000  0.500000  0.950563  1
  B  B12  1  0.500000  0.201582  0.123437  1
  B  B13  1  0.500000  0.201097  0.378075  1
  B  B14  1  0.500000  0.201097  0.621925  1
  B  B15  1  0.500000  0.201582  0.876563  1
  B  B16  1  0.500000  0.500000  0.049437  1
  B  B17  1  0.500000  0.500000  0.302427  1
  B  B18  1  0.500000  0.500000  0.548883  1
  B  B19  1  0.500000  0.500000  0.800763  1
  B  B20  1  0.500000  0.798418  0.123437  1
  B  B21  1  0.500000  0.798903  0.378075  1
  B  B22  1  0.500000  0.798903  0.621925  1
  B  B23  1  0.500000  0.798418  0.876563  1
  B  B24  1  0.798418  0.500000  0.123437  1
  B  B25  1  0.798903  0.500000  0.378075  1
  B  B26  1  0.798903  0.500000  0.621925  1
  B  B27  1  0.798418  0.500000  0.876563  1
