# generated using pymatgen
data_YLu6Co6AgSn22
_symmetry_space_group_name_H-M   'P 1'
_cell_length_a   9.60896900
_cell_length_b   9.60896989
_cell_length_c   9.94847700
_cell_angle_alpha   90.00000000
_cell_angle_beta   90.00000000
_cell_angle_gamma   120.00000037
_symmetry_Int_Tables_number   1
_chemical_formula_structural   YLu6Co6AgSn22
_chemical_formula_sum   'Y1 Lu6 Co6 Ag1 Sn22'
_cell_volume   795.50122950
_cell_formula_units_Z   1
loop_
 _symmetry_equiv_pos_site_id
 _symmetry_equiv_pos_as_xyz
  1  'x, y, z'
loop_
 _atom_site_type_symbol
 _atom_site_label
 _atom_site_symmetry_multiplicity
 _atom_site_fract_x
 _atom_site_fract_y
 _atom_site_fract_z
 _atom_site_occupancy
  Y  Y0  1  0.000000  0.000000  0.000000  1
  Lu  Lu1  1  0.036130  0.518064  0.306102  1
  Lu  Lu2  1  0.481936  0.963870  0.306102  1
  Lu  Lu3  1  0.481936  0.518064  0.306102  1
  Lu  Lu4  1  0.963870  0.481936  0.693898  1
  Lu  Lu5  1  0.518064  0.036130  0.693898  1
  Lu  Lu6  1  0.518064  0.481936  0.693898  1
  Co  Co7  1  0.169369  0.830631  0.801770  1
  Co  Co8  1  0.661261  0.830631  0.801770  1
  Co  Co9  1  0.169369  0.338739  0.801770  1
  Co  Co10  1  0.830631  0.169369  0.198230  1
  Co  Co11  1  0.338739  0.169369  0.198230  1
  Co  Co12  1  0.830631  0.661261  0.198230  1
  Ag  Ag13  1  0.000000  0.000000  0.500000  1
  Sn  Sn14  1  0.114898  0.885102  0.275629  1
  Sn  Sn15  1  0.770204  0.885102  0.275629  1
  Sn  Sn16  1  0.114898  0.229796  0.275629  1
  Sn  Sn17  1  0.885102  0.114898  0.724371  1
  Sn  Sn18  1  0.229796  0.114898  0.724371  1
  Sn  Sn19  1  0.885102  0.770204  0.724371  1
  Sn  Sn20  1  0.346606  0.000000  0.000000  1
  Sn  Sn21  1  0.653394  0.653394  0.000000  1
  Sn  Sn22  1  0.000000  0.346606  0.000000  1
  Sn  Sn23  1  0.346606  0.346606  0.000000  1
  Sn  Sn24  1  0.000000  0.653394  0.000000  1
  Sn  Sn25  1  0.653394  0.000000  0.000000  1
  Sn  Sn26  1  0.782644  0.565287  0.455855  1
  Sn  Sn27  1  0.782644  0.217356  0.455855  1
  Sn  Sn28  1  0.434713  0.217356  0.455855  1
  Sn  Sn29  1  0.217356  0.434713  0.544145  1
  Sn  Sn30  1  0.217356  0.782644  0.544145  1
  Sn  Sn31  1  0.565287  0.782644  0.544145  1
  Sn  Sn32  1  0.666667  0.333333  0.179508  1
  Sn  Sn33  1  0.333333  0.666667  0.820492  1
  Sn  Sn34  1  0.666667  0.333333  0.872706  1
  Sn  Sn35  1  0.333333  0.666667  0.127294  1
