# generated using pymatgen
data_Er2Tm2As6Rh7
_symmetry_space_group_name_H-M   'P 1'
_cell_length_a   7.25341045
_cell_length_b   7.25624230
_cell_length_c   7.25624305
_cell_angle_alpha   109.48513150
_cell_angle_beta   109.47217355
_cell_angle_gamma   109.47217204
_symmetry_Int_Tables_number   1
_chemical_formula_structural   Er2Tm2As6Rh7
_chemical_formula_sum   'Er2 Tm2 As6 Rh7'
_cell_volume   293.94031812
_cell_formula_units_Z   1
loop_
 _symmetry_equiv_pos_site_id
 _symmetry_equiv_pos_as_xyz
  1  'x, y, z'
loop_
 _atom_site_type_symbol
 _atom_site_label
 _atom_site_symmetry_multiplicity
 _atom_site_fract_x
 _atom_site_fract_y
 _atom_site_fract_z
 _atom_site_occupancy
  Er  Er0  1  0.500000  0.500000  0.500000  1
  Er  Er1  1  0.500000  0.000000  0.000000  1
  Tm  Tm2  1  0.000000  0.500000  0.000000  1
  Tm  Tm3  1  0.000000  0.000000  0.500000  1
  As  As4  1  0.682933  0.000155  0.682777  1
  As  As5  1  0.682933  0.682777  0.000155  1
  As  As6  1  0.317067  0.317223  0.999845  1
  As  As7  1  0.000000  0.682775  0.682775  1
  As  As8  1  0.000000  0.317225  0.317225  1
  As  As9  1  0.317067  0.999845  0.317223  1
  Rh  Rh10  1  0.500000  0.750000  0.250000  1
  Rh  Rh11  1  0.750246  0.249992  0.500253  1
  Rh  Rh12  1  0.249754  0.750008  0.499747  1
  Rh  Rh13  1  0.249754  0.499747  0.750008  1
  Rh  Rh14  1  0.000000  0.000000  0.000000  1
  Rh  Rh15  1  0.500000  0.250000  0.750000  1
  Rh  Rh16  1  0.750246  0.500253  0.249992  1
