# generated using pymatgen
data_Ho3TmAgRh
_symmetry_space_group_name_H-M   'P 1'
_cell_length_a   9.47142610
_cell_length_b   9.47142788
_cell_length_c   9.43763810
_cell_angle_alpha   60.10448534
_cell_angle_beta   60.10448046
_cell_angle_gamma   60.27287338
_symmetry_Int_Tables_number   1
_chemical_formula_structural   Ho3TmAgRh
_chemical_formula_sum   'Ho12 Tm4 Ag4 Rh4'
_cell_volume   600.83285027
_cell_formula_units_Z   4
loop_
 _symmetry_equiv_pos_site_id
 _symmetry_equiv_pos_as_xyz
  1  'x, y, z'
loop_
 _atom_site_type_symbol
 _atom_site_label
 _atom_site_symmetry_multiplicity
 _atom_site_fract_x
 _atom_site_fract_y
 _atom_site_fract_z
 _atom_site_occupancy
  Ho  Ho0  1  0.064704  0.064704  0.435987  1
  Ho  Ho1  1  0.435209  0.064267  0.436096  1
  Ho  Ho2  1  0.065110  0.435832  0.063936  1
  Ho  Ho3  1  0.058733  0.647079  0.647492  1
  Ho  Ho4  1  0.436423  0.436423  0.062960  1
  Ho  Ho5  1  0.647079  0.058733  0.647492  1
  Ho  Ho6  1  0.188238  0.813032  0.186863  1
  Ho  Ho7  1  0.187462  0.187462  0.812113  1
  Ho  Ho8  1  0.812878  0.812878  0.186898  1
  Ho  Ho9  1  0.435832  0.065110  0.063936  1
  Ho  Ho10  1  0.813032  0.188238  0.186863  1
  Ho  Ho11  1  0.064267  0.435209  0.436096  1
  Tm  Tm12  1  0.813789  0.187523  0.811916  1
  Tm  Tm13  1  0.187523  0.813789  0.811916  1
  Tm  Tm14  1  0.647149  0.647149  0.058671  1
  Tm  Tm15  1  0.646474  0.646474  0.647161  1
  Ag  Ag16  1  0.417518  0.417518  0.417754  1
  Ag  Ag17  1  0.746432  0.417556  0.418158  1
  Ag  Ag18  1  0.417556  0.746432  0.418158  1
  Ag  Ag19  1  0.417639  0.417639  0.747103  1
  Rh  Rh20  1  0.855246  0.855246  0.431263  1
  Rh  Rh21  1  0.856154  0.856154  0.857859  1
  Rh  Rh22  1  0.432148  0.853405  0.856655  1
  Rh  Rh23  1  0.853405  0.432148  0.856655  1
