# generated using pymatgen
data_Dy2Co9P7Ru3
_symmetry_space_group_name_H-M   'P 1'
_cell_length_a   3.67902100
_cell_length_b   9.03245036
_cell_length_c   9.03245000
_cell_angle_alpha   119.99999965
_cell_angle_beta   90.00000000
_cell_angle_gamma   90.00000000
_symmetry_Int_Tables_number   1
_chemical_formula_structural   Dy2Co9P7Ru3
_chemical_formula_sum   'Dy2 Co9 P7 Ru3'
_cell_volume   259.94055975
_cell_formula_units_Z   1
loop_
 _symmetry_equiv_pos_site_id
 _symmetry_equiv_pos_as_xyz
  1  'x, y, z'
loop_
 _atom_site_type_symbol
 _atom_site_label
 _atom_site_symmetry_multiplicity
 _atom_site_fract_x
 _atom_site_fract_y
 _atom_site_fract_z
 _atom_site_occupancy
  Dy  Dy0  1  0.000000  0.666667  0.333333  1
  Dy  Dy1  1  0.500000  0.333333  0.666667  1
  Co  Co2  1  0.000000  0.564979  0.938700  1
  Co  Co3  1  0.000000  0.373721  0.435021  1
  Co  Co4  1  0.000000  0.061300  0.626279  1
  Co  Co5  1  0.000000  0.876805  0.158396  1
  Co  Co6  1  0.000000  0.281591  0.123195  1
  Co  Co7  1  0.000000  0.841604  0.718409  1
  Co  Co8  1  0.500000  0.944030  0.383581  1
  Co  Co9  1  0.500000  0.439550  0.055970  1
  Co  Co10  1  0.500000  0.616419  0.560450  1
  P  P11  1  0.000000  0.000000  0.000000  1
  P  P12  1  0.500000  0.708250  0.115374  1
  P  P13  1  0.500000  0.407124  0.291750  1
  P  P14  1  0.500000  0.884626  0.592876  1
  P  P15  1  0.000000  0.590149  0.701131  1
  P  P16  1  0.000000  0.110983  0.409851  1
  P  P17  1  0.000000  0.298869  0.889017  1
  Ru  Ru18  1  0.500000  0.772979  0.898290  1
  Ru  Ru19  1  0.500000  0.125311  0.227021  1
  Ru  Ru20  1  0.500000  0.101710  0.874689  1
