# generated using pymatgen
data_La8CoCu2Si12Pd
_symmetry_space_group_name_H-M   'P 1'
_cell_length_a   8.22216800
_cell_length_b   8.22216719
_cell_length_c   8.77915200
_cell_angle_alpha   90.00000000
_cell_angle_beta   90.00000000
_cell_angle_gamma   119.99999523
_symmetry_Int_Tables_number   1
_chemical_formula_structural   La8CoCu2Si12Pd
_chemical_formula_sum   'La8 Co1 Cu2 Si12 Pd1'
_cell_volume   513.99142131
_cell_formula_units_Z   1
loop_
 _symmetry_equiv_pos_site_id
 _symmetry_equiv_pos_as_xyz
  1  'x, y, z'
loop_
 _atom_site_type_symbol
 _atom_site_label
 _atom_site_symmetry_multiplicity
 _atom_site_fract_x
 _atom_site_fract_y
 _atom_site_fract_z
 _atom_site_occupancy
  La  La0  1  0.497120  0.994239  0.246631  1
  La  La1  1  0.497156  0.994311  0.753364  1
  La  La2  1  0.005761  0.502880  0.246631  1
  La  La3  1  0.005689  0.502844  0.753364  1
  La  La4  1  0.497120  0.502880  0.246631  1
  La  La5  1  0.497156  0.502844  0.753364  1
  La  La6  1  0.000000  0.000000  0.249779  1
  La  La7  1  0.000000  0.000000  0.750267  1
  Co  Co8  1  0.333333  0.666667  0.000114  1
  Cu  Cu9  1  0.666667  0.333333  0.999775  1
  Cu  Cu10  1  0.666667  0.333333  0.499584  1
  Si  Si11  1  0.172896  0.345792  0.000034  1
  Si  Si12  1  0.833221  0.666442  0.999997  1
  Si  Si13  1  0.654208  0.827104  0.000034  1
  Si  Si14  1  0.832066  0.664133  0.500030  1
  Si  Si15  1  0.333558  0.166779  0.999997  1
  Si  Si16  1  0.165118  0.330237  0.499973  1
  Si  Si17  1  0.172896  0.827104  0.000034  1
  Si  Si18  1  0.335867  0.167934  0.500030  1
  Si  Si19  1  0.833221  0.166779  0.999997  1
  Si  Si20  1  0.669763  0.834882  0.499973  1
  Si  Si21  1  0.832066  0.167934  0.500030  1
  Si  Si22  1  0.165118  0.834882  0.499973  1
  Pd  Pd23  1  0.333333  0.666667  0.500398  1
