# generated using pymatgen
data_Hf18CrRe6Si2Mo
_symmetry_space_group_name_H-M   'P 1'
_cell_length_a   8.58998200
_cell_length_b   8.58998059
_cell_length_c   8.57971000
_cell_angle_alpha   90.00000000
_cell_angle_beta   90.00000000
_cell_angle_gamma   120.00000544
_symmetry_Int_Tables_number   1
_chemical_formula_structural   Hf18CrRe6Si2Mo
_chemical_formula_sum   'Hf18 Cr1 Re6 Si2 Mo1'
_cell_volume   548.26137730
_cell_formula_units_Z   1
loop_
 _symmetry_equiv_pos_site_id
 _symmetry_equiv_pos_as_xyz
  1  'x, y, z'
loop_
 _atom_site_type_symbol
 _atom_site_label
 _atom_site_symmetry_multiplicity
 _atom_site_fract_x
 _atom_site_fract_y
 _atom_site_fract_z
 _atom_site_occupancy
  Hf  Hf0  1  0.193477  0.806523  0.452118  1
  Hf  Hf1  1  0.193477  0.386955  0.452118  1
  Hf  Hf2  1  0.613045  0.806523  0.452118  1
  Hf  Hf3  1  0.806523  0.193477  0.547882  1
  Hf  Hf4  1  0.806523  0.613045  0.547882  1
  Hf  Hf5  1  0.386955  0.193477  0.547882  1
  Hf  Hf6  1  0.804038  0.195962  0.952399  1
  Hf  Hf7  1  0.804038  0.608075  0.952399  1
  Hf  Hf8  1  0.391925  0.195962  0.952399  1
  Hf  Hf9  1  0.195962  0.804038  0.047601  1
  Hf  Hf10  1  0.195962  0.391925  0.047601  1
  Hf  Hf11  1  0.608075  0.804038  0.047601  1
  Hf  Hf12  1  0.539000  0.461000  0.250602  1
  Hf  Hf13  1  0.539000  0.078000  0.250602  1
  Hf  Hf14  1  0.922000  0.461000  0.250602  1
  Hf  Hf15  1  0.461000  0.539000  0.749398  1
  Hf  Hf16  1  0.461000  0.922000  0.749398  1
  Hf  Hf17  1  0.078000  0.539000  0.749398  1
  Cr  Cr18  1  0.000000  0.000000  0.500000  1
  Re  Re19  1  0.891252  0.108748  0.253586  1
  Re  Re20  1  0.891252  0.782503  0.253586  1
  Re  Re21  1  0.217497  0.108748  0.253586  1
  Re  Re22  1  0.108748  0.891252  0.746414  1
  Re  Re23  1  0.108748  0.217497  0.746414  1
  Re  Re24  1  0.782503  0.891252  0.746414  1
  Si  Si25  1  0.333333  0.666667  0.251970  1
  Si  Si26  1  0.666667  0.333333  0.748030  1
  Mo  Mo27  1  0.000000  0.000000  0.000000  1
