# generated using pymatgen
data_Pr6Er10MgHg3Ir4
_symmetry_space_group_name_H-M   'P 1'
_cell_length_a   9.69773177
_cell_length_b   9.70384561
_cell_length_c   9.70384600
_cell_angle_alpha   60.00000550
_cell_angle_beta   59.97914851
_cell_angle_gamma   59.97915518
_symmetry_Int_Tables_number   1
_chemical_formula_structural   Pr6Er10MgHg3Ir4
_chemical_formula_sum   'Pr6 Er10 Mg1 Hg3 Ir4'
_cell_volume   645.51454939
_cell_formula_units_Z   1
loop_
 _symmetry_equiv_pos_site_id
 _symmetry_equiv_pos_as_xyz
  1  'x, y, z'
loop_
 _atom_site_type_symbol
 _atom_site_label
 _atom_site_symmetry_multiplicity
 _atom_site_fract_x
 _atom_site_fract_y
 _atom_site_fract_z
 _atom_site_occupancy
  Pr  Pr0  1  0.940987  0.559802  0.559802  1
  Pr  Pr1  1  0.557265  0.941700  0.941700  1
  Pr  Pr2  1  0.557265  0.941700  0.559335  1
  Pr  Pr3  1  0.940987  0.559802  0.939409  1
  Pr  Pr4  1  0.557265  0.559335  0.941700  1
  Pr  Pr5  1  0.940987  0.939409  0.559802  1
  Er  Er6  1  0.346608  0.345921  0.345921  1
  Er  Er7  1  0.346608  0.345921  0.961552  1
  Er  Er8  1  0.346608  0.961552  0.345921  1
  Er  Er9  1  0.955071  0.348310  0.348310  1
  Er  Er10  1  0.811071  0.188287  0.188287  1
  Er  Er11  1  0.184402  0.814708  0.814708  1
  Er  Er12  1  0.184402  0.814708  0.186182  1
  Er  Er13  1  0.811071  0.188287  0.812356  1
  Er  Er14  1  0.184402  0.186182  0.814708  1
  Er  Er15  1  0.811071  0.812356  0.188287  1
  Mg  Mg16  1  0.286415  0.571195  0.571195  1
  Hg  Hg17  1  0.580158  0.583956  0.583956  1
  Hg  Hg18  1  0.580158  0.583956  0.251928  1
  Hg  Hg19  1  0.580158  0.251928  0.583956  1
  Ir  Ir20  1  0.140200  0.141733  0.141733  1
  Ir  Ir21  1  0.140200  0.141733  0.576335  1
  Ir  Ir22  1  0.140200  0.576335  0.141733  1
  Ir  Ir23  1  0.576439  0.141187  0.141187  1
