# generated using pymatgen
data_Hf12Al4MoRh7
_symmetry_space_group_name_H-M   'P 1'
_cell_length_a   8.51317674
_cell_length_b   8.51317679
_cell_length_c   8.51317710
_cell_angle_alpha   59.98875663
_cell_angle_beta   59.98875595
_cell_angle_gamma   59.98876018
_symmetry_Int_Tables_number   1
_chemical_formula_structural   Hf12Al4MoRh7
_chemical_formula_sum   'Hf12 Al4 Mo1 Rh7'
_cell_volume   436.16343220
_cell_formula_units_Z   1
loop_
 _symmetry_equiv_pos_site_id
 _symmetry_equiv_pos_as_xyz
  1  'x, y, z'
loop_
 _atom_site_type_symbol
 _atom_site_label
 _atom_site_symmetry_multiplicity
 _atom_site_fract_x
 _atom_site_fract_y
 _atom_site_fract_z
 _atom_site_occupancy
  Hf  Hf0  1  0.807403  0.807403  0.186960  1
  Hf  Hf1  1  0.192740  0.192740  0.806704  1
  Hf  Hf2  1  0.807403  0.186960  0.807403  1
  Hf  Hf3  1  0.192740  0.806704  0.192740  1
  Hf  Hf4  1  0.186960  0.807403  0.807403  1
  Hf  Hf5  1  0.806704  0.192740  0.192740  1
  Hf  Hf6  1  0.444374  0.444374  0.055139  1
  Hf  Hf7  1  0.056502  0.056502  0.445250  1
  Hf  Hf8  1  0.444374  0.055139  0.444374  1
  Hf  Hf9  1  0.056502  0.445250  0.056502  1
  Hf  Hf10  1  0.055139  0.444374  0.444374  1
  Hf  Hf11  1  0.445250  0.056502  0.056502  1
  Al  Al12  1  0.133412  0.621616  0.621616  1
  Al  Al13  1  0.621616  0.133412  0.621616  1
  Al  Al14  1  0.621616  0.621616  0.133412  1
  Al  Al15  1  0.625837  0.625837  0.625837  1
  Mo  Mo16  1  0.833469  0.833469  0.833469  1
  Rh  Rh17  1  0.768906  0.412048  0.412048  1
  Rh  Rh18  1  0.412048  0.768906  0.412048  1
  Rh  Rh19  1  0.412048  0.412048  0.768906  1
  Rh  Rh20  1  0.410317  0.410317  0.410317  1
  Rh  Rh21  1  0.482054  0.841295  0.841295  1
  Rh  Rh22  1  0.841295  0.482054  0.841295  1
  Rh  Rh23  1  0.841295  0.841295  0.482054  1
