# generated using pymatgen
data_TbTm4Lu5Pb6
_symmetry_space_group_name_H-M   'P 1'
_cell_length_a   8.94229608
_cell_length_b   8.92539425
_cell_length_c   6.51601000
_cell_angle_alpha   90.00000000
_cell_angle_beta   90.00000000
_cell_angle_gamma   119.94700421
_symmetry_Int_Tables_number   1
_chemical_formula_structural   TbTm4Lu5Pb6
_chemical_formula_sum   'Tb1 Tm4 Lu5 Pb6'
_cell_volume   450.63041642
_cell_formula_units_Z   1
loop_
 _symmetry_equiv_pos_site_id
 _symmetry_equiv_pos_as_xyz
  1  'x, y, z'
loop_
 _atom_site_type_symbol
 _atom_site_label
 _atom_site_symmetry_multiplicity
 _atom_site_fract_x
 _atom_site_fract_y
 _atom_site_fract_z
 _atom_site_occupancy
  Tb  Tb0  1  0.999509  0.764046  0.250000  1
  Tm  Tm1  1  0.763048  0.764242  0.750000  1
  Tm  Tm2  1  0.237139  0.001227  0.750000  1
  Tm  Tm3  1  0.000301  0.234702  0.750000  1
  Tm  Tm4  1  0.236184  0.235985  0.250000  1
  Lu  Lu5  1  0.667499  0.333581  0.999954  1
  Lu  Lu6  1  0.332605  0.666659  0.999939  1
  Lu  Lu7  1  0.332605  0.666659  0.500061  1
  Lu  Lu8  1  0.667499  0.333581  0.500046  1
  Lu  Lu9  1  0.763669  0.999248  0.250000  1
  Pb  Pb10  1  0.394965  0.395072  0.750000  1
  Pb  Pb11  1  0.604337  0.999842  0.750000  1
  Pb  Pb12  1  0.999856  0.605021  0.750000  1
  Pb  Pb13  1  0.602890  0.605034  0.250000  1
  Pb  Pb14  1  0.398166  0.001704  0.250000  1
  Pb  Pb15  1  0.999729  0.393399  0.250000  1
