# generated using pymatgen
data_Li3Bi4Pd9
_symmetry_space_group_name_H-M   'P 1'
_cell_length_a   4.88690865
_cell_length_b   6.14957600
_cell_length_c   9.44821828
_cell_angle_alpha   90.00000000
_cell_angle_beta   88.13430052
_cell_angle_gamma   90.00000000
_symmetry_Int_Tables_number   1
_chemical_formula_structural   Li3Bi4Pd9
_chemical_formula_sum   'Li3 Bi4 Pd9'
_cell_volume   283.79126586
_cell_formula_units_Z   1
loop_
 _symmetry_equiv_pos_site_id
 _symmetry_equiv_pos_as_xyz
  1  'x, y, z'
loop_
 _atom_site_type_symbol
 _atom_site_label
 _atom_site_symmetry_multiplicity
 _atom_site_fract_x
 _atom_site_fract_y
 _atom_site_fract_z
 _atom_site_occupancy
  Li  Li0  1  0.500000  0.500000  0.000000  1
  Li  Li1  1  0.916107  0.000000  0.245044  1
  Li  Li2  1  0.083893  0.000000  0.754956  1
  Bi  Bi3  1  0.109263  0.500000  0.744990  1
  Bi  Bi4  1  0.890737  0.500000  0.255010  1
  Bi  Bi5  1  0.500000  0.000000  0.500000  1
  Bi  Bi6  1  0.500000  0.000000  0.000000  1
  Pd  Pd7  1  0.617239  0.249992  0.754853  1
  Pd  Pd8  1  0.617239  0.750008  0.754853  1
  Pd  Pd9  1  0.382761  0.249992  0.245147  1
  Pd  Pd10  1  0.382761  0.750008  0.245147  1
  Pd  Pd11  1  0.500000  0.500000  0.500000  1
  Pd  Pd12  1  0.000000  0.745568  0.000000  1
  Pd  Pd13  1  0.000000  0.242992  0.500000  1
  Pd  Pd14  1  0.000000  0.254432  0.000000  1
  Pd  Pd15  1  0.000000  0.757008  0.500000  1
