# generated using pymatgen
data_DyCoMo(PRh)3
_symmetry_space_group_name_H-M   'P 1'
_cell_length_a   3.86487400
_cell_length_b   10.76331100
_cell_length_c   12.40511100
_cell_angle_alpha   90.00000000
_cell_angle_beta   90.00000000
_cell_angle_gamma   90.00000000
_symmetry_Int_Tables_number   1
_chemical_formula_structural   DyCoMo(PRh)3
_chemical_formula_sum   'Dy4 Co4 Mo4 P12 Rh12'
_cell_volume   516.03823806
_cell_formula_units_Z   4
loop_
 _symmetry_equiv_pos_site_id
 _symmetry_equiv_pos_as_xyz
  1  'x, y, z'
loop_
 _atom_site_type_symbol
 _atom_site_label
 _atom_site_symmetry_multiplicity
 _atom_site_fract_x
 _atom_site_fract_y
 _atom_site_fract_z
 _atom_site_occupancy
  Dy  Dy0  1  0.250000  0.583807  0.707355  1
  Dy  Dy1  1  0.250000  0.916193  0.207355  1
  Dy  Dy2  1  0.750000  0.416193  0.292645  1
  Dy  Dy3  1  0.750000  0.083807  0.792645  1
  Co  Co4  1  0.250000  0.464491  0.935629  1
  Co  Co5  1  0.250000  0.035509  0.435629  1
  Co  Co6  1  0.750000  0.535509  0.064371  1
  Co  Co7  1  0.750000  0.964491  0.564371  1
  Mo  Mo8  1  0.250000  0.706865  0.985471  1
  Mo  Mo9  1  0.250000  0.793135  0.485471  1
  Mo  Mo10  1  0.750000  0.293135  0.014529  1
  Mo  Mo11  1  0.750000  0.206865  0.514529  1
  P  P12  1  0.250000  0.422916  0.107985  1
  P  P13  1  0.250000  0.077084  0.607985  1
  P  P14  1  0.750000  0.577084  0.892015  1
  P  P15  1  0.750000  0.922916  0.392015  1
  P  P16  1  0.250000  0.270344  0.871996  1
  P  P17  1  0.250000  0.229656  0.371996  1
  P  P18  1  0.750000  0.729656  0.128004  1
  P  P19  1  0.750000  0.770344  0.628004  1
  P  P20  1  0.250000  0.599279  0.391125  1
  P  P21  1  0.250000  0.900721  0.891125  1
  P  P22  1  0.750000  0.400721  0.608875  1
  P  P23  1  0.750000  0.099279  0.108875  1
  Rh  Rh24  1  0.250000  0.405001  0.486165  1
  Rh  Rh25  1  0.250000  0.094999  0.986165  1
  Rh  Rh26  1  0.750000  0.594999  0.513835  1
  Rh  Rh27  1  0.750000  0.905001  0.013835  1
  Rh  Rh28  1  0.250000  0.228753  0.180564  1
  Rh  Rh29  1  0.250000  0.271247  0.680564  1
  Rh  Rh30  1  0.750000  0.771247  0.819436  1
  Rh  Rh31  1  0.750000  0.728753  0.319436  1
  Rh  Rh32  1  0.250000  0.890304  0.699592  1
  Rh  Rh33  1  0.250000  0.609696  0.199592  1
  Rh  Rh34  1  0.750000  0.109696  0.300408  1
  Rh  Rh35  1  0.750000  0.390304  0.800408  1
