# generated using pymatgen
data_Yb4As3Pd4
_symmetry_space_group_name_H-M   'P 1'
_cell_length_a   11.02111925
_cell_length_b   11.02112029
_cell_length_c   7.84543900
_cell_angle_alpha   72.05171129
_cell_angle_beta   72.05171501
_cell_angle_gamma   28.52931146
_symmetry_Int_Tables_number   1
_chemical_formula_structural   Yb4As3Pd4
_chemical_formula_sum   'Yb8 As6 Pd8'
_cell_volume   431.51539051
_cell_formula_units_Z   2
loop_
 _symmetry_equiv_pos_site_id
 _symmetry_equiv_pos_as_xyz
  1  'x, y, z'
loop_
 _atom_site_type_symbol
 _atom_site_label
 _atom_site_symmetry_multiplicity
 _atom_site_fract_x
 _atom_site_fract_y
 _atom_site_fract_z
 _atom_site_occupancy
  Yb  Yb0  1  0.924615  0.209827  0.331182  1
  Yb  Yb1  1  0.075385  0.790173  0.668818  1
  Yb  Yb2  1  0.790173  0.075385  0.168818  1
  Yb  Yb3  1  0.449447  0.206143  0.894232  1
  Yb  Yb4  1  0.793857  0.550553  0.605768  1
  Yb  Yb5  1  0.206143  0.449447  0.394232  1
  Yb  Yb6  1  0.209827  0.924615  0.831182  1
  Yb  Yb7  1  0.550553  0.793857  0.105768  1
  As  As8  1  0.279554  0.049578  0.454893  1
  As  As9  1  0.321021  0.678979  0.250000  1
  As  As10  1  0.049578  0.279554  0.954893  1
  As  As11  1  0.720446  0.950422  0.545107  1
  As  As12  1  0.950422  0.720446  0.045107  1
  As  As13  1  0.678979  0.321021  0.750000  1
  Pd  Pd14  1  0.557924  0.316564  0.510270  1
  Pd  Pd15  1  0.683436  0.442076  0.989730  1
  Pd  Pd16  1  0.316564  0.557924  0.010270  1
  Pd  Pd17  1  0.442076  0.683436  0.489730  1
  Pd  Pd18  1  0.623736  0.923539  0.307090  1
  Pd  Pd19  1  0.923539  0.623736  0.807090  1
  Pd  Pd20  1  0.376264  0.076461  0.692910  1
  Pd  Pd21  1  0.076461  0.376264  0.192910  1
