# generated using pymatgen
data_Hf6Ta4Al12Fe3Co4
_symmetry_space_group_name_H-M   'P 1'
_cell_length_a   8.58669893
_cell_length_b   8.57241049
_cell_length_c   8.56901837
_cell_angle_alpha   60.09890836
_cell_angle_beta   59.93260575
_cell_angle_gamma   59.94666732
_symmetry_Int_Tables_number   1
_chemical_formula_structural   Hf6Ta4Al12Fe3Co4
_chemical_formula_sum   'Hf6 Ta4 Al12 Fe3 Co4'
_cell_volume   445.93483135
_cell_formula_units_Z   1
loop_
 _symmetry_equiv_pos_site_id
 _symmetry_equiv_pos_as_xyz
  1  'x, y, z'
loop_
 _atom_site_type_symbol
 _atom_site_label
 _atom_site_symmetry_multiplicity
 _atom_site_fract_x
 _atom_site_fract_y
 _atom_site_fract_z
 _atom_site_occupancy
  Hf  Hf0  1  0.692116  0.693256  0.307945  1
  Hf  Hf1  1  0.306691  0.693253  0.307991  1
  Hf  Hf2  1  0.688087  0.310891  0.312973  1
  Hf  Hf3  1  0.308338  0.307402  0.691465  1
  Hf  Hf4  1  0.692786  0.307414  0.691427  1
  Hf  Hf5  1  0.311745  0.689634  0.686841  1
  Ta  Ta6  1  0.879581  0.883360  0.357502  1
  Ta  Ta7  1  0.881373  0.355664  0.881536  1
  Ta  Ta8  1  0.356644  0.882424  0.878403  1
  Ta  Ta9  1  0.882521  0.882455  0.878375  1
  Al  Al10  1  0.121371  0.119617  0.637661  1
  Al  Al11  1  0.120286  0.639059  0.120387  1
  Al  Al12  1  0.638461  0.119599  0.121921  1
  Al  Al13  1  0.120031  0.119592  0.121903  1
  Al  Al14  1  0.661875  0.663373  0.012845  1
  Al  Al15  1  0.662545  0.010469  0.664455  1
  Al  Al16  1  0.011709  0.661702  0.662665  1
  Al  Al17  1  0.663895  0.661686  0.662656  1
  Al  Al18  1  0.335876  0.335391  0.992863  1
  Al  Al19  1  0.334951  0.995793  0.334338  1
  Al  Al20  1  0.994162  0.335463  0.335501  1
  Al  Al21  1  0.334898  0.335473  0.335514  1
  Fe  Fe22  1  0.999971  0.001048  0.998960  1
  Fe  Fe23  1  0.995285  0.995224  0.505348  1
  Fe  Fe24  1  0.504155  0.995225  0.505400  1
  Co  Co25  1  0.996425  0.502504  0.504650  1
  Co  Co26  1  0.504327  0.503087  0.996177  1
  Co  Co27  1  0.996388  0.503101  0.996160  1
  Co  Co28  1  0.503509  0.996843  0.996139  1
