# generated using pymatgen
data_Er6Ti(Al3Pt8)2
_symmetry_space_group_name_H-M   'P 1'
_cell_length_a   8.96545543
_cell_length_b   8.96545498
_cell_length_c   8.96545400
_cell_angle_alpha   59.99999624
_cell_angle_beta   59.99999791
_cell_angle_gamma   59.99999694
_symmetry_Int_Tables_number   1
_chemical_formula_structural   Er6Ti(Al3Pt8)2
_chemical_formula_sum   'Er6 Ti1 Al6 Pt16'
_cell_volume   509.56776839
_cell_formula_units_Z   1
loop_
 _symmetry_equiv_pos_site_id
 _symmetry_equiv_pos_as_xyz
  1  'x, y, z'
loop_
 _atom_site_type_symbol
 _atom_site_label
 _atom_site_symmetry_multiplicity
 _atom_site_fract_x
 _atom_site_fract_y
 _atom_site_fract_z
 _atom_site_occupancy
  Er  Er0  1  0.714136  0.714136  0.285864  1
  Er  Er1  1  0.285864  0.714136  0.285864  1
  Er  Er2  1  0.714136  0.285864  0.285864  1
  Er  Er3  1  0.285864  0.285864  0.714136  1
  Er  Er4  1  0.714136  0.285864  0.714136  1
  Er  Er5  1  0.285864  0.714136  0.714136  1
  Ti  Ti6  1  0.000000  0.000000  0.000000  1
  Al  Al7  1  0.000000  0.000000  0.500000  1
  Al  Al8  1  0.500000  0.000000  0.500000  1
  Al  Al9  1  0.000000  0.500000  0.500000  1
  Al  Al10  1  0.500000  0.500000  0.000000  1
  Al  Al11  1  0.000000  0.500000  0.000000  1
  Al  Al12  1  0.500000  0.000000  0.000000  1
  Pt  Pt13  1  0.880358  0.880358  0.358926  1
  Pt  Pt14  1  0.880358  0.358926  0.880358  1
  Pt  Pt15  1  0.358926  0.880358  0.880358  1
  Pt  Pt16  1  0.880358  0.880358  0.880358  1
  Pt  Pt17  1  0.119642  0.119642  0.641074  1
  Pt  Pt18  1  0.119642  0.641074  0.119642  1
  Pt  Pt19  1  0.641074  0.119642  0.119642  1
  Pt  Pt20  1  0.119642  0.119642  0.119642  1
  Pt  Pt21  1  0.661346  0.661346  0.015961  1
  Pt  Pt22  1  0.661346  0.015961  0.661346  1
  Pt  Pt23  1  0.015961  0.661346  0.661346  1
  Pt  Pt24  1  0.661346  0.661346  0.661346  1
  Pt  Pt25  1  0.338654  0.338654  0.984039  1
  Pt  Pt26  1  0.338654  0.984039  0.338654  1
  Pt  Pt27  1  0.984039  0.338654  0.338654  1
  Pt  Pt28  1  0.338654  0.338654  0.338654  1
