# generated using pymatgen
data_Cs4UIrBr12
_symmetry_space_group_name_H-M   'P 1'
_cell_length_a   7.82890700
_cell_length_b   7.82890700
_cell_length_c   11.50384900
_cell_angle_alpha   90.00000000
_cell_angle_beta   90.00000000
_cell_angle_gamma   90.00000000
_symmetry_Int_Tables_number   1
_chemical_formula_structural   Cs4UIrBr12
_chemical_formula_sum   'Cs4 U1 Ir1 Br12'
_cell_volume   705.09143745
_cell_formula_units_Z   1
loop_
 _symmetry_equiv_pos_site_id
 _symmetry_equiv_pos_as_xyz
  1  'x, y, z'
loop_
 _atom_site_type_symbol
 _atom_site_label
 _atom_site_symmetry_multiplicity
 _atom_site_fract_x
 _atom_site_fract_y
 _atom_site_fract_z
 _atom_site_occupancy
  Cs  Cs0  1  0.500000  0.000000  0.786236  1
  Cs  Cs1  1  0.500000  0.000000  0.213764  1
  Cs  Cs2  1  0.000000  0.500000  0.213764  1
  Cs  Cs3  1  0.000000  0.500000  0.786236  1
  U  U4  1  0.500000  0.500000  0.500000  1
  Ir  Ir5  1  0.000000  0.000000  0.000000  1
  Br  Br6  1  0.773603  0.229319  0.000000  1
  Br  Br7  1  0.226397  0.770681  0.000000  1
  Br  Br8  1  0.500000  0.500000  0.262658  1
  Br  Br9  1  0.292935  0.223933  0.500000  1
  Br  Br10  1  0.229319  0.226397  0.000000  1
  Br  Br11  1  0.776067  0.292935  0.500000  1
  Br  Br12  1  0.000000  0.000000  0.219747  1
  Br  Br13  1  0.707065  0.776067  0.500000  1
  Br  Br14  1  0.223933  0.707065  0.500000  1
  Br  Br15  1  0.500000  0.500000  0.737342  1
  Br  Br16  1  0.770681  0.773603  0.000000  1
  Br  Br17  1  0.000000  0.000000  0.780253  1
