# generated using pymatgen
data_Si2Ni4BW6
_symmetry_space_group_name_H-M   'P 1'
_cell_length_a   7.76337254
_cell_length_b   7.76337241
_cell_length_c   7.76337300
_cell_angle_alpha   60.00000173
_cell_angle_beta   60.00000232
_cell_angle_gamma   59.99999850
_symmetry_Int_Tables_number   1
_chemical_formula_structural   Si2Ni4BW6
_chemical_formula_sum   'Si4 Ni8 B2 W12'
_cell_volume   330.85393962
_cell_formula_units_Z   2
loop_
 _symmetry_equiv_pos_site_id
 _symmetry_equiv_pos_as_xyz
  1  'x, y, z'
loop_
 _atom_site_type_symbol
 _atom_site_label
 _atom_site_symmetry_multiplicity
 _atom_site_fract_x
 _atom_site_fract_y
 _atom_site_fract_z
 _atom_site_occupancy
  Si  Si0  1  0.625000  0.625000  0.125000  1
  Si  Si1  1  0.625000  0.125000  0.625000  1
  Si  Si2  1  0.125000  0.625000  0.625000  1
  Si  Si3  1  0.625000  0.625000  0.625000  1
  Ni  Ni4  1  0.418076  0.418076  0.745771  1
  Ni  Ni5  1  0.418076  0.745771  0.418076  1
  Ni  Ni6  1  0.745771  0.418076  0.418076  1
  Ni  Ni7  1  0.418076  0.418076  0.418076  1
  Ni  Ni8  1  0.831924  0.831924  0.504229  1
  Ni  Ni9  1  0.831924  0.504229  0.831924  1
  Ni  Ni10  1  0.504229  0.831924  0.831924  1
  Ni  Ni11  1  0.831924  0.831924  0.831924  1
  B  B12  1  0.250000  0.250000  0.250000  1
  B  B13  1  0.000000  0.000000  0.000000  1
  W  W14  1  0.051703  0.051703  0.448297  1
  W  W15  1  0.448297  0.051703  0.448297  1
  W  W16  1  0.051703  0.448297  0.448297  1
  W  W17  1  0.448297  0.448297  0.051703  1
  W  W18  1  0.051703  0.448297  0.051703  1
  W  W19  1  0.448297  0.051703  0.051703  1
  W  W20  1  0.198297  0.198297  0.801703  1
  W  W21  1  0.801703  0.198297  0.801703  1
  W  W22  1  0.198297  0.801703  0.801703  1
  W  W23  1  0.801703  0.801703  0.198297  1
  W  W24  1  0.198297  0.801703  0.198297  1
  W  W25  1  0.801703  0.198297  0.198297  1
