# generated using pymatgen
data_Er2Tm3SiBi2
_symmetry_space_group_name_H-M   'P 1'
_cell_length_a   11.89440500
_cell_length_b   9.09830300
_cell_length_c   7.97597600
_cell_angle_alpha   90.00000000
_cell_angle_beta   90.00000000
_cell_angle_gamma   90.00000000
_symmetry_Int_Tables_number   1
_chemical_formula_structural   Er2Tm3SiBi2
_chemical_formula_sum   'Er8 Tm12 Si4 Bi8'
_cell_volume   863.15135469
_cell_formula_units_Z   4
loop_
 _symmetry_equiv_pos_site_id
 _symmetry_equiv_pos_as_xyz
  1  'x, y, z'
loop_
 _atom_site_type_symbol
 _atom_site_label
 _atom_site_symmetry_multiplicity
 _atom_site_fract_x
 _atom_site_fract_y
 _atom_site_fract_z
 _atom_site_occupancy
  Er  Er0  1  0.210881  0.750000  0.166236  1
  Er  Er1  1  0.710881  0.750000  0.333764  1
  Er  Er2  1  0.789119  0.250000  0.833764  1
  Er  Er3  1  0.289119  0.250000  0.666236  1
  Er  Er4  1  0.294181  0.750000  0.639257  1
  Er  Er5  1  0.794181  0.750000  0.860743  1
  Er  Er6  1  0.705819  0.250000  0.360743  1
  Er  Er7  1  0.205819  0.250000  0.139257  1
  Tm  Tm8  1  0.061274  0.555206  0.821102  1
  Tm  Tm9  1  0.561274  0.944794  0.678898  1
  Tm  Tm10  1  0.938726  0.055206  0.178898  1
  Tm  Tm11  1  0.438726  0.444794  0.321102  1
  Tm  Tm12  1  0.938726  0.444794  0.178898  1
  Tm  Tm13  1  0.438726  0.055206  0.321102  1
  Tm  Tm14  1  0.061274  0.944794  0.821102  1
  Tm  Tm15  1  0.561274  0.555206  0.678898  1
  Tm  Tm16  1  0.001066  0.750000  0.460771  1
  Tm  Tm17  1  0.501066  0.750000  0.039229  1
  Tm  Tm18  1  0.998934  0.250000  0.539229  1
  Tm  Tm19  1  0.498934  0.250000  0.960771  1
  Si  Si20  1  0.476431  0.750000  0.409669  1
  Si  Si21  1  0.976431  0.750000  0.090331  1
  Si  Si22  1  0.523569  0.250000  0.590331  1
  Si  Si23  1  0.023569  0.250000  0.909669  1
  Bi  Bi24  1  0.325044  0.510655  0.933920  1
  Bi  Bi25  1  0.825044  0.989345  0.566080  1
  Bi  Bi26  1  0.674956  0.010655  0.066080  1
  Bi  Bi27  1  0.174956  0.489345  0.433920  1
  Bi  Bi28  1  0.674956  0.489345  0.066080  1
  Bi  Bi29  1  0.174956  0.010655  0.433920  1
  Bi  Bi30  1  0.325044  0.989345  0.933920  1
  Bi  Bi31  1  0.825044  0.510655  0.566080  1
