# generated using pymatgen
data_Li2Co9P7W3
_symmetry_space_group_name_H-M   'P 1'
_cell_length_a   8.98877700
_cell_length_b   8.98877842
_cell_length_c   3.64931200
_cell_angle_alpha   90.00000000
_cell_angle_beta   90.00000000
_cell_angle_gamma   120.00001220
_symmetry_Int_Tables_number   1
_chemical_formula_structural   Li2Co9P7W3
_chemical_formula_sum   'Li2 Co9 P7 W3'
_cell_volume   255.35411124
_cell_formula_units_Z   1
loop_
 _symmetry_equiv_pos_site_id
 _symmetry_equiv_pos_as_xyz
  1  'x, y, z'
loop_
 _atom_site_type_symbol
 _atom_site_label
 _atom_site_symmetry_multiplicity
 _atom_site_fract_x
 _atom_site_fract_y
 _atom_site_fract_z
 _atom_site_occupancy
  Li  Li0  1  0.333333  0.666667  0.000000  1
  Li  Li1  1  0.666667  0.333333  0.500000  1
  Co  Co2  1  0.718995  0.883390  0.000000  1
  Co  Co3  1  0.164394  0.281005  0.000000  1
  Co  Co4  1  0.116610  0.835606  0.000000  1
  Co  Co5  1  0.626504  0.568138  0.000000  1
  Co  Co6  1  0.941635  0.373496  0.000000  1
  Co  Co7  1  0.431862  0.058365  0.000000  1
  Co  Co8  1  0.562577  0.953424  0.500000  1
  Co  Co9  1  0.390847  0.437423  0.500000  1
  Co  Co10  1  0.046576  0.609153  0.500000  1
  P  P11  1  0.578928  0.711540  0.500000  1
  P  P12  1  0.132611  0.421072  0.500000  1
  P  P13  1  0.288460  0.867389  0.500000  1
  P  P14  1  0.000000  0.000000  0.000000  1
  P  P15  1  0.876959  0.576422  0.000000  1
  P  P16  1  0.699464  0.123041  0.000000  1
  P  P17  1  0.423578  0.300536  0.000000  1
  W  W18  1  0.872650  0.777534  0.500000  1
  W  W19  1  0.904884  0.127350  0.500000  1
  W  W20  1  0.222466  0.095116  0.500000  1
