# generated using pymatgen
data_Lu12AlCo4Ru
_symmetry_space_group_name_H-M   'P 1'
_cell_length_a   8.07478368
_cell_length_b   8.07478392
_cell_length_c   8.07478387
_cell_angle_alpha   111.31468037
_cell_angle_beta   111.06462692
_cell_angle_gamma   106.08657224
_symmetry_Int_Tables_number   1
_chemical_formula_structural   Lu12AlCo4Ru
_chemical_formula_sum   'Lu12 Al1 Co4 Ru1'
_cell_volume   404.23978260
_cell_formula_units_Z   1
loop_
 _symmetry_equiv_pos_site_id
 _symmetry_equiv_pos_as_xyz
  1  'x, y, z'
loop_
 _atom_site_type_symbol
 _atom_site_label
 _atom_site_symmetry_multiplicity
 _atom_site_fract_x
 _atom_site_fract_y
 _atom_site_fract_z
 _atom_site_occupancy
  Lu  Lu0  1  0.417728  0.224492  0.193236  1
  Lu  Lu1  1  0.582272  0.775508  0.806764  1
  Lu  Lu2  1  0.031255  0.224492  0.806764  1
  Lu  Lu3  1  0.968745  0.775508  0.193236  1
  Lu  Lu4  1  0.184534  0.280803  0.465337  1
  Lu  Lu5  1  0.815466  0.719197  0.534663  1
  Lu  Lu6  1  0.184534  0.719197  0.903733  1
  Lu  Lu7  1  0.815466  0.280803  0.096267  1
  Lu  Lu8  1  0.315457  0.619421  0.303963  1
  Lu  Lu9  1  0.684543  0.380579  0.696037  1
  Lu  Lu10  1  0.315457  0.011493  0.696037  1
  Lu  Lu11  1  0.684543  0.988507  0.303963  1
  Al  Al12  1  0.500000  0.500000  0.000000  1
  Co  Co13  1  0.372530  0.000000  0.372530  1
  Co  Co14  1  0.627470  0.000000  0.627470  1
  Co  Co15  1  0.113350  0.613350  0.500000  1
  Co  Co16  1  0.886650  0.386650  0.500000  1
  Ru  Ru17  1  0.000000  0.000000  0.000000  1
