# generated using pymatgen
data_Ac8Zn3Si12Ir
_symmetry_space_group_name_H-M   'P 1'
_cell_length_a   11.84758452
_cell_length_b   10.20946211
_cell_length_c   8.47554300
_cell_angle_alpha   78.09434964
_cell_angle_beta   57.53025092
_cell_angle_gamma   44.42641923
_symmetry_Int_Tables_number   1
_chemical_formula_structural   Ac8Zn3Si12Ir
_chemical_formula_sum   'Ac8 Zn3 Si12 Ir1'
_cell_volume   577.57456950
_cell_formula_units_Z   1
loop_
 _symmetry_equiv_pos_site_id
 _symmetry_equiv_pos_as_xyz
  1  'x, y, z'
loop_
 _atom_site_type_symbol
 _atom_site_label
 _atom_site_symmetry_multiplicity
 _atom_site_fract_x
 _atom_site_fract_y
 _atom_site_fract_z
 _atom_site_occupancy
  Ac  Ac0  1  0.373835  0.377744  0.627678  1
  Ac  Ac1  1  0.627678  0.620742  0.373835  1
  Ac  Ac2  1  0.873089  0.871306  0.627149  1
  Ac  Ac3  1  0.627149  0.628456  0.873089  1
  Ac  Ac4  1  0.877866  0.870142  0.124056  1
  Ac  Ac5  1  0.124056  0.127936  0.877866  1
  Ac  Ac6  1  0.370250  0.376059  0.125369  1
  Ac  Ac7  1  0.125369  0.128322  0.370250  1
  Zn  Zn8  1  0.832678  0.167322  0.832678  1
  Zn  Zn9  1  0.166816  0.833184  0.166816  1
  Zn  Zn10  1  0.417059  0.082941  0.417059  1
  Si  Si11  1  0.665675  0.334325  0.665675  1
  Si  Si12  1  0.334582  0.665418  0.334582  1
  Si  Si13  1  0.587018  0.912982  0.587018  1
  Si  Si14  1  0.920048  0.579952  0.920048  1
  Si  Si15  1  0.333239  0.666316  0.832676  1
  Si  Si16  1  0.169445  0.832446  0.665511  1
  Si  Si17  1  0.832676  0.167767  0.333239  1
  Si  Si18  1  0.665511  0.332597  0.169445  1
  Si  Si19  1  0.920417  0.582453  0.409313  1
  Si  Si20  1  0.074151  0.423267  0.588360  1
  Si  Si21  1  0.409313  0.087817  0.920417  1
  Si  Si22  1  0.588360  0.914223  0.074151  1
  Ir  Ir23  1  0.083719  0.416281  0.083719  1
