# generated using pymatgen
data_SmTh3(AuBr6)4
_symmetry_space_group_name_H-M   'P 1'
_cell_length_a   8.73309140
_cell_length_b   10.69568679
_cell_length_c   14.87787349
_cell_angle_alpha   102.40834351
_cell_angle_beta   97.11179907
_cell_angle_gamma   113.23663842
_symmetry_Int_Tables_number   1
_chemical_formula_structural   SmTh3(AuBr6)4
_chemical_formula_sum   'Sm1 Th3 Au4 Br24'
_cell_volume   1212.97998342
_cell_formula_units_Z   1
loop_
 _symmetry_equiv_pos_site_id
 _symmetry_equiv_pos_as_xyz
  1  'x, y, z'
loop_
 _atom_site_type_symbol
 _atom_site_label
 _atom_site_symmetry_multiplicity
 _atom_site_fract_x
 _atom_site_fract_y
 _atom_site_fract_z
 _atom_site_occupancy
  Sm  Sm0  1  0.022881  0.689845  0.129491  1
  Th  Th1  1  0.568008  0.901190  0.622605  1
  Th  Th2  1  0.427908  0.093859  0.377084  1
  Th  Th3  1  0.980915  0.315440  0.872318  1
  Au  Au4  1  0.294059  0.627233  0.764556  1
  Au  Au5  1  0.707245  0.375343  0.235842  1
  Au  Au6  1  0.500597  0.500496  0.500405  1
  Au  Au7  1  0.997291  0.996835  0.999913  1
  Br  Br8  1  0.611730  0.733531  0.753095  1
  Br  Br9  1  0.397120  0.272696  0.247895  1
  Br  Br10  1  0.288379  0.851503  0.731072  1
  Br  Br11  1  0.711830  0.152161  0.268202  1
  Br  Br12  1  0.974845  0.525021  0.771641  1
  Br  Br13  1  0.017898  0.476438  0.230014  1
  Br  Br14  1  0.300140  0.401503  0.796647  1
  Br  Br15  1  0.696622  0.591307  0.195947  1
  Br  Br16  1  0.698351  0.371665  0.502276  1
  Br  Br17  1  0.300381  0.627513  0.497028  1
  Br  Br18  1  0.755660  0.743486  0.529748  1
  Br  Br19  1  0.245201  0.257648  0.470091  1
  Br  Br20  1  0.790755  0.106964  0.973302  1
  Br  Br21  1  0.203110  0.888312  0.023974  1
  Br  Br22  1  0.779769  0.794466  0.045502  1
  Br  Br23  1  0.219519  0.205271  0.959607  1
  Br  Br24  1  0.628183  0.184241  0.742570  1
  Br  Br25  1  0.375441  0.816741  0.257745  1
  Br  Br26  1  0.936304  0.055491  0.723883  1
  Br  Br27  1  0.067553  0.948608  0.277589  1
  Br  Br28  1  0.707682  0.040224  0.480836  1
  Br  Br29  1  0.292365  0.960226  0.520911  1
  Br  Br30  1  0.775823  0.435527  0.970210  1
  Br  Br31  1  0.226435  0.559214  0.028002  1
