# generated using pymatgen
data_RbAg3(NO3)8
_symmetry_space_group_name_H-M   'P 1'
_cell_length_a   8.04030564
_cell_length_b   8.04030604
_cell_length_c   8.04030600
_cell_angle_alpha   89.82469129
_cell_angle_beta   89.82469128
_cell_angle_gamma   89.82469017
_symmetry_Int_Tables_number   1
_chemical_formula_structural   RbAg3(NO3)8
_chemical_formula_sum   'Rb1 Ag3 N8 O24'
_cell_volume   519.77050221
_cell_formula_units_Z   1
loop_
 _symmetry_equiv_pos_site_id
 _symmetry_equiv_pos_as_xyz
  1  'x, y, z'
loop_
 _atom_site_type_symbol
 _atom_site_label
 _atom_site_symmetry_multiplicity
 _atom_site_fract_x
 _atom_site_fract_y
 _atom_site_fract_z
 _atom_site_occupancy
  Rb  Rb0  1  0.000000  0.000000  0.000000  1
  Ag  Ag1  1  0.000000  0.500000  0.500000  1
  Ag  Ag2  1  0.500000  0.500000  0.000000  1
  Ag  Ag3  1  0.500000  0.000000  0.500000  1
  N  N4  1  0.334920  0.334920  0.334920  1
  N  N5  1  0.354113  0.200399  0.852591  1
  N  N6  1  0.200399  0.852591  0.354113  1
  N  N7  1  0.852591  0.354113  0.200399  1
  N  N8  1  0.665080  0.665080  0.665080  1
  N  N9  1  0.147409  0.645887  0.799601  1
  N  N10  1  0.799601  0.147409  0.645887  1
  N  N11  1  0.645887  0.799601  0.147409  1
  O  O12  1  0.760042  0.335692  0.076708  1
  O  O13  1  0.238138  0.963543  0.253503  1
  O  O14  1  0.291921  0.829853  0.484874  1
  O  O15  1  0.253503  0.238138  0.963543  1
  O  O16  1  0.236438  0.312663  0.455484  1
  O  O17  1  0.455484  0.236438  0.312663  1
  O  O18  1  0.312663  0.455484  0.236438  1
  O  O19  1  0.170147  0.515126  0.708079  1
  O  O20  1  0.923292  0.239958  0.664308  1
  O  O21  1  0.664308  0.923292  0.239958  1
  O  O22  1  0.036457  0.746497  0.761862  1
  O  O23  1  0.515126  0.708079  0.170147  1
  O  O24  1  0.761862  0.036457  0.746497  1
  O  O25  1  0.708079  0.170147  0.515126  1
  O  O26  1  0.746497  0.761862  0.036457  1
  O  O27  1  0.239958  0.664308  0.923292  1
  O  O28  1  0.763562  0.687337  0.544516  1
  O  O29  1  0.544516  0.763562  0.687337  1
  O  O30  1  0.687337  0.544516  0.763562  1
  O  O31  1  0.829853  0.484874  0.291921  1
  O  O32  1  0.076708  0.760042  0.335692  1
  O  O33  1  0.335692  0.076708  0.760042  1
  O  O34  1  0.963543  0.253503  0.238138  1
  O  O35  1  0.484874  0.291921  0.829853  1
