# generated using pymatgen
data_Ho10Si3Pb3O2
_symmetry_space_group_name_H-M   'P 1'
_cell_length_a   8.85337657
_cell_length_b   8.85337705
_cell_length_c   8.81063535
_cell_angle_alpha   126.35962121
_cell_angle_beta   126.35961497
_cell_angle_gamma   79.63148212
_symmetry_Int_Tables_number   1
_chemical_formula_structural   Ho10Si3Pb3O2
_chemical_formula_sum   'Ho10 Si3 Pb3 O2'
_cell_volume   431.92854294
_cell_formula_units_Z   1
loop_
 _symmetry_equiv_pos_site_id
 _symmetry_equiv_pos_as_xyz
  1  'x, y, z'
loop_
 _atom_site_type_symbol
 _atom_site_label
 _atom_site_symmetry_multiplicity
 _atom_site_fract_x
 _atom_site_fract_y
 _atom_site_fract_z
 _atom_site_occupancy
  Ho  Ho0  1  0.008054  0.210238  0.500000  1
  Ho  Ho1  1  0.792630  0.302334  0.806048  1
  Ho  Ho2  1  0.503714  0.013418  0.806048  1
  Ho  Ho3  1  0.486582  0.996286  0.193952  1
  Ho  Ho4  1  0.001441  0.786010  0.500000  1
  Ho  Ho5  1  0.495208  0.491330  0.986538  1
  Ho  Ho6  1  0.197666  0.707370  0.193952  1
  Ho  Ho7  1  0.713990  0.498559  0.500000  1
  Ho  Ho8  1  0.289762  0.491946  0.500000  1
  Ho  Ho9  1  0.008670  0.004792  0.013462  1
  Si  Si10  1  0.853801  0.353966  0.207767  1
  Si  Si11  1  0.146034  0.646199  0.792233  1
  Si  Si12  1  0.353963  0.146037  0.500000  1
  Pb  Pb13  1  0.749386  0.750614  0.000000  1
  Pb  Pb14  1  0.645853  0.854147  0.500000  1
  Pb  Pb15  1  0.249386  0.250614  0.000000  1
  O  O16  1  0.750973  0.247112  0.500000  1
  O  O17  1  0.252888  0.749027  0.500000  1
