# generated using pymatgen
data_Ce2MnAl20IrRu2
_symmetry_space_group_name_H-M   'P 1'
_cell_length_a   6.85415897
_cell_length_b   6.84091554
_cell_length_c   9.12288789
_cell_angle_alpha   90.11860015
_cell_angle_beta   90.21398191
_cell_angle_gamma   97.23357417
_symmetry_Int_Tables_number   1
_chemical_formula_structural   Ce2MnAl20IrRu2
_chemical_formula_sum   'Ce2 Mn1 Al20 Ir1 Ru2'
_cell_volume   424.35170070
_cell_formula_units_Z   1
loop_
 _symmetry_equiv_pos_site_id
 _symmetry_equiv_pos_as_xyz
  1  'x, y, z'
loop_
 _atom_site_type_symbol
 _atom_site_label
 _atom_site_symmetry_multiplicity
 _atom_site_fract_x
 _atom_site_fract_y
 _atom_site_fract_z
 _atom_site_occupancy
  Ce  Ce0  1  0.880017  0.127947  0.753284  1
  Ce  Ce1  1  0.119983  0.872053  0.246716  1
  Mn  Mn2  1  0.000000  0.500000  0.000000  1
  Al  Al3  1  0.590400  0.859611  0.250908  1
  Al  Al4  1  0.778887  0.518675  0.246389  1
  Al  Al5  1  0.155567  0.836381  0.898777  1
  Al  Al6  1  0.409600  0.140389  0.749092  1
  Al  Al7  1  0.628069  0.380848  0.949573  1
  Al  Al8  1  0.841584  0.157807  0.399087  1
  Al  Al9  1  0.778516  0.770245  0.002443  1
  Al  Al10  1  0.862665  0.587721  0.752846  1
  Al  Al11  1  0.844433  0.163619  0.101223  1
  Al  Al12  1  0.221113  0.481325  0.753611  1
  Al  Al13  1  0.158416  0.842193  0.600913  1
  Al  Al14  1  0.775351  0.774312  0.501157  1
  Al  Al15  1  0.479433  0.223033  0.251966  1
  Al  Al16  1  0.623754  0.377227  0.551574  1
  Al  Al17  1  0.224649  0.225688  0.498843  1
  Al  Al18  1  0.376246  0.622773  0.448426  1
  Al  Al19  1  0.137335  0.412279  0.247154  1
  Al  Al20  1  0.520567  0.776967  0.748034  1
  Al  Al21  1  0.371931  0.619152  0.050427  1
  Al  Al22  1  0.221484  0.229755  0.997557  1
  Ir  Ir23  1  0.500000  0.000000  0.000000  1
  Ru  Ru24  1  0.500000  0.000000  0.500000  1
  Ru  Ru25  1  0.000000  0.500000  0.500000  1
