# generated using pymatgen
data_YTa4Nb5N12
_symmetry_space_group_name_H-M   'P 1'
_cell_length_a   5.30716916
_cell_length_b   5.29368388
_cell_length_c   10.53282197
_cell_angle_alpha   90.02691797
_cell_angle_beta   89.95092264
_cell_angle_gamma   120.02658161
_symmetry_Int_Tables_number   1
_chemical_formula_structural   YTa4Nb5N12
_chemical_formula_sum   'Y1 Ta4 Nb5 N12'
_cell_volume   256.20037388
_cell_formula_units_Z   1
loop_
 _symmetry_equiv_pos_site_id
 _symmetry_equiv_pos_as_xyz
  1  'x, y, z'
loop_
 _atom_site_type_symbol
 _atom_site_label
 _atom_site_symmetry_multiplicity
 _atom_site_fract_x
 _atom_site_fract_y
 _atom_site_fract_z
 _atom_site_occupancy
  Y  Y0  1  0.331207  0.665006  0.500239  1
  Ta  Ta1  1  0.667115  0.335046  0.999621  1
  Ta  Ta2  1  0.666614  0.334451  0.499419  1
  Ta  Ta3  1  0.332063  0.665142  0.999730  1
  Ta  Ta4  1  0.675913  0.997938  0.754259  1
  Nb  Nb5  1  0.675211  0.677074  0.245059  1
  Nb  Nb6  1  0.001931  0.324599  0.244955  1
  Nb  Nb7  1  0.001730  0.676841  0.755461  1
  Nb  Nb8  1  0.323267  0.325032  0.755448  1
  Nb  Nb9  1  0.323310  0.997889  0.245149  1
  N  N10  1  0.352316  0.332310  0.370354  1
  N  N11  1  0.666464  0.019859  0.370244  1
  N  N12  1  0.980355  0.647893  0.370252  1
  N  N13  1  0.996052  0.337502  0.883198  1
  N  N14  1  0.656156  0.999880  0.116511  1
  N  N15  1  0.658530  0.662283  0.883448  1
  N  N16  1  0.347184  0.999885  0.882397  1
  N  N17  1  0.667543  0.652484  0.630371  1
  N  N18  1  0.976548  0.329061  0.630202  1
  N  N19  1  0.000117  0.657658  0.116301  1
  N  N20  1  0.358164  0.019996  0.631019  1
  N  N21  1  0.342211  0.342170  0.116362  1
