# generated using pymatgen
data_Zr2ScAl3Zn2Pd
_symmetry_space_group_name_H-M   'P 1'
_cell_length_a   6.67958511
_cell_length_b   6.69148863
_cell_length_c   4.13973000
_cell_angle_alpha   90.00000000
_cell_angle_beta   90.00000000
_cell_angle_gamma   120.05895558
_symmetry_Int_Tables_number   1
_chemical_formula_structural   Zr2ScAl3Zn2Pd
_chemical_formula_sum   'Zr2 Sc1 Al3 Zn2 Pd1'
_cell_volume   160.14617497
_cell_formula_units_Z   1
loop_
 _symmetry_equiv_pos_site_id
 _symmetry_equiv_pos_as_xyz
  1  'x, y, z'
loop_
 _atom_site_type_symbol
 _atom_site_label
 _atom_site_symmetry_multiplicity
 _atom_site_fract_x
 _atom_site_fract_y
 _atom_site_fract_z
 _atom_site_occupancy
  Zr  Zr0  1  0.578645  0.579017  0.500000  1
  Zr  Zr1  1  0.421355  0.000371  0.500000  1
  Sc  Sc2  1  0.000000  0.421554  0.500000  1
  Al  Al3  1  0.000000  0.758504  0.000000  1
  Al  Al4  1  0.248239  0.241942  0.000000  1
  Al  Al5  1  0.751761  0.993703  0.000000  1
  Zn  Zn6  1  0.331093  0.664876  0.000000  1
  Zn  Zn7  1  0.668907  0.333782  0.000000  1
  Pd  Pd8  1  0.000000  0.006251  0.500000  1
