# generated using pymatgen
data_Dy4Co18Si7P5Os2
_symmetry_space_group_name_H-M   'P 1'
_cell_length_a   3.70526300
_cell_length_b   10.40563675
_cell_length_c   11.86267287
_cell_angle_alpha   89.95633348
_cell_angle_beta   90.00000000
_cell_angle_gamma   90.00000000
_symmetry_Int_Tables_number   1
_chemical_formula_structural   Dy4Co18Si7P5Os2
_chemical_formula_sum   'Dy4 Co18 Si7 P5 Os2'
_cell_volume   457.37258442
_cell_formula_units_Z   1
loop_
 _symmetry_equiv_pos_site_id
 _symmetry_equiv_pos_as_xyz
  1  'x, y, z'
loop_
 _atom_site_type_symbol
 _atom_site_label
 _atom_site_symmetry_multiplicity
 _atom_site_fract_x
 _atom_site_fract_y
 _atom_site_fract_z
 _atom_site_occupancy
  Dy  Dy0  1  0.250000  0.582307  0.701879  1
  Dy  Dy1  1  0.250000  0.916506  0.203115  1
  Dy  Dy2  1  0.750000  0.416407  0.297441  1
  Dy  Dy3  1  0.750000  0.084869  0.796828  1
  Co  Co4  1  0.750000  0.292132  0.011585  1
  Co  Co5  1  0.750000  0.209454  0.509482  1
  Co  Co6  1  0.250000  0.403789  0.485968  1
  Co  Co7  1  0.250000  0.097029  0.986311  1
  Co  Co8  1  0.750000  0.591683  0.508237  1
  Co  Co9  1  0.750000  0.908645  0.007924  1
  Co  Co10  1  0.250000  0.214532  0.177539  1
  Co  Co11  1  0.250000  0.277951  0.675486  1
  Co  Co12  1  0.750000  0.786857  0.824815  1
  Co  Co13  1  0.750000  0.714414  0.325688  1
  Co  Co14  1  0.250000  0.889187  0.701820  1
  Co  Co15  1  0.250000  0.612541  0.202289  1
  Co  Co16  1  0.750000  0.120726  0.304867  1
  Co  Co17  1  0.750000  0.377780  0.803520  1
  Co  Co18  1  0.250000  0.463677  0.929083  1
  Co  Co19  1  0.250000  0.039019  0.434915  1
  Co  Co20  1  0.750000  0.528982  0.067217  1
  Co  Co21  1  0.750000  0.974008  0.570151  1
  Si  Si22  1  0.250000  0.413393  0.110468  1
  Si  Si23  1  0.750000  0.582593  0.886492  1
  Si  Si24  1  0.750000  0.918165  0.388366  1
  Si  Si25  1  0.750000  0.727199  0.132525  1
  Si  Si26  1  0.750000  0.772389  0.632050  1
  Si  Si27  1  0.750000  0.396870  0.608283  1
  Si  Si28  1  0.750000  0.102462  0.108252  1
  P  P29  1  0.250000  0.082397  0.613778  1
  P  P30  1  0.250000  0.270998  0.866951  1
  P  P31  1  0.250000  0.229874  0.367034  1
  P  P32  1  0.250000  0.596913  0.390976  1
  P  P33  1  0.250000  0.903672  0.891261  1
  Os  Os34  1  0.250000  0.708993  0.988656  1
  Os  Os35  1  0.250000  0.791586  0.488749  1
