# generated using pymatgen
data_PrNd3(TmPb)6
_symmetry_space_group_name_H-M   'P 1'
_cell_length_a   9.10828504
_cell_length_b   9.10398227
_cell_length_c   6.67360900
_cell_angle_alpha   90.00000000
_cell_angle_beta   90.00000000
_cell_angle_gamma   119.40380521
_symmetry_Int_Tables_number   1
_chemical_formula_structural   PrNd3(TmPb)6
_chemical_formula_sum   'Pr1 Nd3 Tm6 Pb6'
_cell_volume   482.10015694
_cell_formula_units_Z   1
loop_
 _symmetry_equiv_pos_site_id
 _symmetry_equiv_pos_as_xyz
  1  'x, y, z'
loop_
 _atom_site_type_symbol
 _atom_site_label
 _atom_site_symmetry_multiplicity
 _atom_site_fract_x
 _atom_site_fract_y
 _atom_site_fract_z
 _atom_site_occupancy
  Pr  Pr0  1  0.998760  0.762529  0.250000  1
  Nd  Nd1  1  0.238320  0.001377  0.750000  1
  Nd  Nd2  1  0.001091  0.237566  0.750000  1
  Nd  Nd3  1  0.762067  0.998746  0.250000  1
  Tm  Tm4  1  0.666787  0.333251  0.999915  1
  Tm  Tm5  1  0.333236  0.666735  0.999904  1
  Tm  Tm6  1  0.333236  0.666735  0.500096  1
  Tm  Tm7  1  0.666787  0.333251  0.500085  1
  Tm  Tm8  1  0.756486  0.756734  0.750000  1
  Tm  Tm9  1  0.243329  0.243304  0.250000  1
  Pb  Pb10  1  0.402186  0.402299  0.750000  1
  Pb  Pb11  1  0.603485  0.997238  0.750000  1
  Pb  Pb12  1  0.997146  0.603500  0.750000  1
  Pb  Pb13  1  0.596530  0.597217  0.250000  1
  Pb  Pb14  1  0.397708  0.003566  0.250000  1
  Pb  Pb15  1  0.002845  0.395956  0.250000  1
