# generated using pymatgen
data_Ba6NdY(Tc2O9)2
_symmetry_space_group_name_H-M   'P 1'
_cell_length_a   6.01760200
_cell_length_b   6.01760096
_cell_length_c   14.77295700
_cell_angle_alpha   90.00000000
_cell_angle_beta   90.00000000
_cell_angle_gamma   120.00000572
_symmetry_Int_Tables_number   1
_chemical_formula_structural   Ba6NdY(Tc2O9)2
_chemical_formula_sum   'Ba6 Nd1 Y1 Tc4 O18'
_cell_volume   463.28142322
_cell_formula_units_Z   1
loop_
 _symmetry_equiv_pos_site_id
 _symmetry_equiv_pos_as_xyz
  1  'x, y, z'
loop_
 _atom_site_type_symbol
 _atom_site_label
 _atom_site_symmetry_multiplicity
 _atom_site_fract_x
 _atom_site_fract_y
 _atom_site_fract_z
 _atom_site_occupancy
  Ba  Ba0  1  0.333333  0.666667  0.596533  1
  Ba  Ba1  1  0.666667  0.333333  0.108207  1
  Ba  Ba2  1  0.666667  0.333333  0.403467  1
  Ba  Ba3  1  0.333333  0.666667  0.891793  1
  Ba  Ba4  1  0.000000  0.000000  0.746635  1
  Ba  Ba5  1  0.000000  0.000000  0.253365  1
  Nd  Nd6  1  0.000000  0.000000  0.000000  1
  Y  Y7  1  0.000000  0.000000  0.500000  1
  Tc  Tc8  1  0.666667  0.333333  0.661681  1
  Tc  Tc9  1  0.333333  0.666667  0.168720  1
  Tc  Tc10  1  0.666667  0.333333  0.831280  1
  Tc  Tc11  1  0.333333  0.666667  0.338319  1
  O  O12  1  0.177130  0.822870  0.095479  1
  O  O13  1  0.177130  0.354262  0.095479  1
  O  O14  1  0.645738  0.822870  0.095479  1
  O  O15  1  0.351454  0.175727  0.588141  1
  O  O16  1  0.822870  0.645738  0.904521  1
  O  O17  1  0.824273  0.175727  0.588141  1
  O  O18  1  0.824273  0.648546  0.588141  1
  O  O19  1  0.175727  0.824273  0.411859  1
  O  O20  1  0.648546  0.824273  0.411859  1
  O  O21  1  0.354262  0.177130  0.904521  1
  O  O22  1  0.822870  0.177130  0.904521  1
  O  O23  1  0.175727  0.351454  0.411859  1
  O  O24  1  0.491847  0.983695  0.253679  1
  O  O25  1  0.508153  0.491847  0.746321  1
  O  O26  1  0.983695  0.491847  0.746321  1
  O  O27  1  0.016305  0.508153  0.253679  1
  O  O28  1  0.491847  0.508153  0.253679  1
  O  O29  1  0.508153  0.016305  0.746321  1
