# generated using pymatgen
data_Ce2Y6BePd24
_symmetry_space_group_name_H-M   'P 1'
_cell_length_a   8.32819955
_cell_length_b   8.32819954
_cell_length_c   8.32820051
_cell_angle_alpha   89.85116029
_cell_angle_beta   90.14883965
_cell_angle_gamma   90.14883306
_symmetry_Int_Tables_number   1
_chemical_formula_structural   Ce2Y6BePd24
_chemical_formula_sum   'Ce2 Y6 Be1 Pd24'
_cell_volume   577.62905359
_cell_formula_units_Z   1
loop_
 _symmetry_equiv_pos_site_id
 _symmetry_equiv_pos_as_xyz
  1  'x, y, z'
loop_
 _atom_site_type_symbol
 _atom_site_label
 _atom_site_symmetry_multiplicity
 _atom_site_fract_x
 _atom_site_fract_y
 _atom_site_fract_z
 _atom_site_occupancy
  Ce  Ce0  1  0.253781  0.746219  0.746219  1
  Ce  Ce1  1  0.746219  0.253781  0.253781  1
  Y  Y2  1  0.250235  0.251043  0.251043  1
  Y  Y3  1  0.749765  0.748957  0.748957  1
  Y  Y4  1  0.748957  0.749765  0.251043  1
  Y  Y5  1  0.748957  0.251043  0.749765  1
  Y  Y6  1  0.251043  0.250235  0.748957  1
  Y  Y7  1  0.251043  0.748957  0.250235  1
  Be  Be8  1  0.000000  0.000000  0.000000  1
  Pd  Pd9  1  0.254192  0.500654  0.997972  1
  Pd  Pd10  1  0.745808  0.499346  0.002028  1
  Pd  Pd11  1  0.997972  0.254192  0.499346  1
  Pd  Pd12  1  0.500654  0.254192  0.002028  1
  Pd  Pd13  1  0.002028  0.745808  0.500654  1
  Pd  Pd14  1  0.499346  0.745808  0.997972  1
  Pd  Pd15  1  0.500654  0.002028  0.254192  1
  Pd  Pd16  1  0.254192  0.997972  0.500654  1
  Pd  Pd17  1  0.499346  0.997972  0.745808  1
  Pd  Pd18  1  0.745808  0.002028  0.499346  1
  Pd  Pd19  1  0.997972  0.499346  0.254192  1
  Pd  Pd20  1  0.002028  0.500654  0.745808  1
  Pd  Pd21  1  0.251424  0.500654  0.500654  1
  Pd  Pd22  1  0.748576  0.499346  0.499346  1
  Pd  Pd23  1  0.500654  0.251424  0.499346  1
  Pd  Pd24  1  0.499346  0.748576  0.500654  1
  Pd  Pd25  1  0.500654  0.499346  0.251424  1
  Pd  Pd26  1  0.499346  0.500654  0.748576  1
  Pd  Pd27  1  0.268327  0.998568  0.998568  1
  Pd  Pd28  1  0.731673  0.001432  0.001432  1
  Pd  Pd29  1  0.998568  0.268327  0.001432  1
  Pd  Pd30  1  0.001432  0.731673  0.998568  1
  Pd  Pd31  1  0.998568  0.001432  0.268327  1
  Pd  Pd32  1  0.001432  0.998568  0.731673  1
