# generated using pymatgen
data_SmGdEr6(WO6)4
_symmetry_space_group_name_H-M   'P 1'
_cell_length_a   5.39710500
_cell_length_b   7.70547426
_cell_length_c   11.46548517
_cell_angle_alpha   75.35614872
_cell_angle_beta   90.00000000
_cell_angle_gamma   90.00000000
_symmetry_Int_Tables_number   1
_chemical_formula_structural   SmGdEr6(WO6)4
_chemical_formula_sum   'Sm1 Gd1 Er6 W4 O24'
_cell_volume   461.32906652
_cell_formula_units_Z   1
loop_
 _symmetry_equiv_pos_site_id
 _symmetry_equiv_pos_as_xyz
  1  'x, y, z'
loop_
 _atom_site_type_symbol
 _atom_site_label
 _atom_site_symmetry_multiplicity
 _atom_site_fract_x
 _atom_site_fract_y
 _atom_site_fract_z
 _atom_site_occupancy
  Sm  Sm0  1  0.684980  0.500000  0.250000  1
  Gd  Gd1  1  0.315183  0.500000  0.750000  1
  Er  Er2  1  0.184375  0.204029  0.422574  1
  Er  Er3  1  0.184375  0.795971  0.077426  1
  Er  Er4  1  0.815840  0.795460  0.577756  1
  Er  Er5  1  0.815840  0.204540  0.922244  1
  Er  Er6  1  0.741698  0.000000  0.250000  1
  Er  Er7  1  0.258514  0.000000  0.750000  1
  W  W8  1  0.255202  0.273761  0.115139  1
  W  W9  1  0.255202  0.726239  0.384861  1
  W  W10  1  0.744738  0.725986  0.884427  1
  W  W11  1  0.744738  0.274014  0.615573  1
  O  O12  1  0.457105  0.205217  0.273867  1
  O  O13  1  0.457105  0.794783  0.226133  1
  O  O14  1  0.542706  0.794401  0.726057  1
  O  O15  1  0.542706  0.205599  0.773943  1
  O  O16  1  0.042912  0.058710  0.104004  1
  O  O17  1  0.042912  0.941290  0.395996  1
  O  O18  1  0.956868  0.941453  0.895493  1
  O  O19  1  0.956868  0.058547  0.604507  1
  O  O20  1  0.983639  0.283087  0.230315  1
  O  O21  1  0.983639  0.716913  0.269685  1
  O  O22  1  0.017581  0.715400  0.769960  1
  O  O23  1  0.017581  0.284600  0.730040  1
  O  O24  1  0.852595  0.362225  0.452997  1
  O  O25  1  0.852595  0.637775  0.047003  1
  O  O26  1  0.147934  0.637822  0.547678  1
  O  O27  1  0.147934  0.362178  0.952322  1
  O  O28  1  0.644977  0.509293  0.613862  1
  O  O29  1  0.644977  0.490707  0.886138  1
  O  O30  1  0.352785  0.490592  0.386803  1
  O  O31  1  0.352785  0.509408  0.113197  1
  O  O32  1  0.463412  0.153912  0.569590  1
  O  O33  1  0.463412  0.846088  0.930410  1
  O  O34  1  0.537144  0.845961  0.430454  1
  O  O35  1  0.537144  0.154039  0.069546  1
