# generated using pymatgen
data_YbTh3(Al8Pt3)3
_symmetry_space_group_name_H-M   'P 1'
_cell_length_a   7.59750208
_cell_length_b   7.59988656
_cell_length_c   13.25032853
_cell_angle_alpha   84.56226121
_cell_angle_beta   100.97338084
_cell_angle_gamma   119.87273759
_symmetry_Int_Tables_number   1
_chemical_formula_structural   YbTh3(Al8Pt3)3
_chemical_formula_sum   'Yb1 Th3 Al24 Pt9'
_cell_volume   651.29308355
_cell_formula_units_Z   1
loop_
 _symmetry_equiv_pos_site_id
 _symmetry_equiv_pos_as_xyz
  1  'x, y, z'
loop_
 _atom_site_type_symbol
 _atom_site_label
 _atom_site_symmetry_multiplicity
 _atom_site_fract_x
 _atom_site_fract_y
 _atom_site_fract_z
 _atom_site_occupancy
  Yb  Yb0  1  0.233447  0.498705  0.194128  1
  Th  Th1  1  0.436690  0.831337  0.806876  1
  Th  Th2  1  0.563633  0.167914  0.193946  1
  Th  Th3  1  0.767768  0.502060  0.806982  1
  Al  Al4  1  0.478050  0.166037  0.946607  1
  Al  Al5  1  0.518227  0.829840  0.056798  1
  Al  Al6  1  0.021408  0.167299  0.559398  1
  Al  Al7  1  0.979254  0.833480  0.438753  1
  Al  Al8  1  0.351779  0.832174  0.556843  1
  Al  Al9  1  0.647678  0.166569  0.442373  1
  Al  Al10  1  0.616729  0.830192  0.332493  1
  Al  Al11  1  0.377106  0.165441  0.664386  1
  Al  Al12  1  0.054354  0.489517  0.664458  1
  Al  Al13  1  0.949469  0.510060  0.332527  1
  Al  Al14  1  0.732641  0.844189  0.663215  1
  Al  Al15  1  0.266649  0.161355  0.333417  1
  Al  Al16  1  0.149389  0.496256  0.950152  1
  Al  Al17  1  0.856465  0.502939  0.056617  1
  Al  Al18  1  0.821278  0.835742  0.957644  1
  Al  Al19  1  0.180939  0.167134  0.047865  1
  Al  Al20  1  0.313044  0.499768  0.440203  1
  Al  Al21  1  0.685451  0.500677  0.556864  1
  Al  Al22  1  0.100590  0.836744  0.183385  1
  Al  Al23  1  0.902059  0.164454  0.816793  1
  Al  Al24  1  0.302048  0.364493  0.815315  1
  Al  Al25  1  0.695250  0.633103  0.184498  1
  Al  Al26  1  0.101771  0.963897  0.816239  1
  Al  Al27  1  0.897951  0.039207  0.183463  1
  Pt  Pt28  1  0.388392  0.508446  0.638929  1
  Pt  Pt29  1  0.614159  0.492381  0.361796  1
  Pt  Pt30  1  0.171863  0.828516  0.998251  1
  Pt  Pt31  1  0.825332  0.170318  0.998948  1
  Pt  Pt32  1  0.295115  0.835183  0.362005  1
  Pt  Pt33  1  0.704333  0.166519  0.638718  1
  Pt  Pt34  1  0.046522  0.824527  0.638336  1
  Pt  Pt35  1  0.952303  0.173498  0.362290  1
  Pt  Pt36  1  0.500862  0.500029  0.998489  1
