# generated using pymatgen
data_Fe3NiSb4(WO6)4
_symmetry_space_group_name_H-M   'P 1'
_cell_length_a   4.71625701
_cell_length_b   10.66108380
_cell_length_c   9.43290402
_cell_angle_alpha   63.74919209
_cell_angle_beta   89.99367073
_cell_angle_gamma   89.99735629
_symmetry_Int_Tables_number   1
_chemical_formula_structural   Fe3NiSb4(WO6)4
_chemical_formula_sum   'Fe3 Ni1 Sb4 W4 O24'
_cell_volume   425.37507471
_cell_formula_units_Z   1
loop_
 _symmetry_equiv_pos_site_id
 _symmetry_equiv_pos_as_xyz
  1  'x, y, z'
loop_
 _atom_site_type_symbol
 _atom_site_label
 _atom_site_symmetry_multiplicity
 _atom_site_fract_x
 _atom_site_fract_y
 _atom_site_fract_z
 _atom_site_occupancy
  Fe  Fe0  1  0.499902  0.498519  0.000748  1
  Fe  Fe1  1  0.999978  0.998422  0.500797  1
  Fe  Fe2  1  0.500068  0.498584  0.500723  1
  Ni  Ni3  1  0.000000  0.998907  0.000567  1
  Sb  Sb4  1  0.499496  0.833461  0.834396  1
  Sb  Sb5  1  0.500430  0.833456  0.332192  1
  Sb  Sb6  1  0.000028  0.332738  0.333642  1
  Sb  Sb7  1  0.000038  0.331464  0.834287  1
  W  W8  1  0.501108  0.164758  0.166778  1
  W  W9  1  0.498919  0.164778  0.668425  1
  W  W10  1  0.000006  0.666427  0.166768  1
  W  W11  1  0.999983  0.665382  0.667309  1
  O  O12  1  0.188652  0.499613  0.844478  1
  O  O13  1  0.188448  0.500791  0.343929  1
  O  O14  1  0.811581  0.500747  0.155292  1
  O  O15  1  0.811397  0.499563  0.655936  1
  O  O16  1  0.312155  0.000143  0.343945  1
  O  O17  1  0.308939  0.000449  0.845270  1
  O  O18  1  0.691033  0.000396  0.154315  1
  O  O19  1  0.687810  0.000100  0.655931  1
  O  O20  1  0.202885  0.172282  0.015231  1
  O  O21  1  0.205101  0.175504  0.514782  1
  O  O22  1  0.794976  0.175505  0.309675  1
  O  O23  1  0.797151  0.172287  0.812467  1
  O  O24  1  0.296441  0.675511  0.014994  1
  O  O25  1  0.294731  0.676017  0.513581  1
  O  O26  1  0.705212  0.676017  0.810384  1
  O  O27  1  0.703491  0.675513  0.309470  1
  O  O28  1  0.801559  0.829078  0.986235  1
  O  O29  1  0.798173  0.825810  0.486224  1
  O  O30  1  0.201801  0.825817  0.687959  1
  O  O31  1  0.198419  0.829074  0.184705  1
  O  O32  1  0.700806  0.325847  0.985934  1
  O  O33  1  0.701798  0.325595  0.487113  1
  O  O34  1  0.298259  0.325591  0.187299  1
  O  O35  1  0.299227  0.325855  0.688218  1
