# generated using pymatgen
data_Zr10BeSn2Sb5
_symmetry_space_group_name_H-M   'P 1'
_cell_length_a   8.70477990
_cell_length_b   8.71457471
_cell_length_c   5.90895017
_cell_angle_alpha   90.02765797
_cell_angle_beta   89.98615461
_cell_angle_gamma   120.03723394
_symmetry_Int_Tables_number   1
_chemical_formula_structural   Zr10BeSn2Sb5
_chemical_formula_sum   'Zr10 Be1 Sn2 Sb5'
_cell_volume   388.04476975
_cell_formula_units_Z   1
loop_
 _symmetry_equiv_pos_site_id
 _symmetry_equiv_pos_as_xyz
  1  'x, y, z'
loop_
 _atom_site_type_symbol
 _atom_site_label
 _atom_site_symmetry_multiplicity
 _atom_site_fract_x
 _atom_site_fract_y
 _atom_site_fract_z
 _atom_site_occupancy
  Zr  Zr0  1  0.333626  0.666814  0.000000  1
  Zr  Zr1  1  0.667708  0.333854  0.500000  1
  Zr  Zr2  1  0.668045  0.334022  0.000000  1
  Zr  Zr3  1  0.332498  0.666250  0.500000  1
  Zr  Zr4  1  0.266764  0.999462  0.227624  1
  Zr  Zr5  1  0.266764  0.267302  0.772376  1
  Zr  Zr6  1  0.999503  0.732262  0.772165  1
  Zr  Zr7  1  0.999503  0.267240  0.227835  1
  Zr  Zr8  1  0.733719  0.733786  0.227617  1
  Zr  Zr9  1  0.733719  0.999933  0.772383  1
  Be  Be10  1  0.000820  0.000410  0.000000  1
  Sn  Sn11  1  0.389772  0.389334  0.256088  1
  Sn  Sn12  1  0.389772  0.000438  0.743912  1
  Sb  Sb13  1  0.001319  0.000659  0.500000  1
  Sb  Sb14  1  0.607598  0.000041  0.254756  1
  Sb  Sb15  1  0.607598  0.607558  0.745244  1
  Sb  Sb16  1  0.000635  0.390881  0.745925  1
  Sb  Sb17  1  0.000635  0.609754  0.254075  1
