# generated using pymatgen
data_Y11ErTe6
_symmetry_space_group_name_H-M   'P 1'
_cell_length_a   4.08574000
_cell_length_b   11.54696738
_cell_length_c   22.23185300
_cell_angle_alpha   89.98527782
_cell_angle_beta   90.00000000
_cell_angle_gamma   90.00000000
_symmetry_Int_Tables_number   1
_chemical_formula_structural   Y11ErTe6
_chemical_formula_sum   'Y22 Er2 Te12'
_cell_volume   1048.85224771
_cell_formula_units_Z   2
loop_
 _symmetry_equiv_pos_site_id
 _symmetry_equiv_pos_as_xyz
  1  'x, y, z'
loop_
 _atom_site_type_symbol
 _atom_site_label
 _atom_site_symmetry_multiplicity
 _atom_site_fract_x
 _atom_site_fract_y
 _atom_site_fract_z
 _atom_site_occupancy
  Y  Y0  1  0.250000  0.151344  0.391705  1
  Y  Y1  1  0.750000  0.848656  0.608295  1
  Y  Y2  1  0.750000  0.651869  0.109004  1
  Y  Y3  1  0.250000  0.348131  0.890996  1
  Y  Y4  1  0.250000  0.456612  0.340124  1
  Y  Y5  1  0.750000  0.543388  0.659876  1
  Y  Y6  1  0.750000  0.956395  0.160260  1
  Y  Y7  1  0.250000  0.043605  0.839740  1
  Y  Y8  1  0.250000  0.734400  0.233595  1
  Y  Y9  1  0.750000  0.265600  0.766405  1
  Y  Y10  1  0.750000  0.234325  0.266630  1
  Y  Y11  1  0.250000  0.765675  0.733370  1
  Y  Y12  1  0.250000  0.115486  0.034612  1
  Y  Y13  1  0.750000  0.884514  0.965388  1
  Y  Y14  1  0.750000  0.615786  0.465530  1
  Y  Y15  1  0.250000  0.384214  0.534470  1
  Y  Y16  1  0.250000  0.414485  0.147124  1
  Y  Y17  1  0.750000  0.585515  0.852876  1
  Y  Y18  1  0.750000  0.914639  0.353438  1
  Y  Y19  1  0.250000  0.085361  0.646562  1
  Y  Y20  1  0.250000  0.613453  0.982818  1
  Y  Y21  1  0.750000  0.386547  0.017182  1
  Er  Er22  1  0.750000  0.112570  0.517067  1
  Er  Er23  1  0.250000  0.887430  0.482933  1
  Te  Te24  1  0.250000  0.850265  0.069078  1
  Te  Te25  1  0.750000  0.149735  0.930922  1
  Te  Te26  1  0.750000  0.350160  0.430940  1
  Te  Te27  1  0.250000  0.649840  0.569060  1
  Te  Te28  1  0.250000  0.712214  0.373061  1
  Te  Te29  1  0.750000  0.287786  0.626939  1
  Te  Te30  1  0.750000  0.212106  0.127115  1
  Te  Te31  1  0.250000  0.787894  0.872885  1
  Te  Te32  1  0.250000  0.020659  0.261120  1
  Te  Te33  1  0.750000  0.979341  0.738880  1
  Te  Te34  1  0.750000  0.520647  0.238930  1
  Te  Te35  1  0.250000  0.479353  0.761070  1
