# generated using pymatgen
data_Tb5Tm11(In3Co)2
_symmetry_space_group_name_H-M   'P 1'
_cell_length_a   10.28541829
_cell_length_b   10.28538409
_cell_length_c   6.98995800
_cell_angle_alpha   90.00125858
_cell_angle_beta   89.99843725
_cell_angle_gamma   119.97296216
_symmetry_Int_Tables_number   1
_chemical_formula_structural   Tb5Tm11(In3Co)2
_chemical_formula_sum   'Tb5 Tm11 In6 Co2'
_cell_volume   640.56901869
_cell_formula_units_Z   1
loop_
 _symmetry_equiv_pos_site_id
 _symmetry_equiv_pos_as_xyz
  1  'x, y, z'
loop_
 _atom_site_type_symbol
 _atom_site_label
 _atom_site_symmetry_multiplicity
 _atom_site_fract_x
 _atom_site_fract_y
 _atom_site_fract_z
 _atom_site_occupancy
  Tb  Tb0  1  0.534693  0.069513  0.511659  1
  Tb  Tb1  1  0.930487  0.465306  0.511658  1
  Tb  Tb2  1  0.534366  0.465633  0.512576  1
  Tb  Tb3  1  0.465024  0.930019  0.012265  1
  Tb  Tb4  1  0.069982  0.534977  0.012265  1
  Tm  Tm5  1  0.464586  0.535414  0.013465  1
  Tm  Tm6  1  0.179003  0.356716  0.720101  1
  Tm  Tm7  1  0.643283  0.820997  0.720101  1
  Tm  Tm8  1  0.178339  0.821662  0.719127  1
  Tm  Tm9  1  0.820707  0.642922  0.218432  1
  Tm  Tm10  1  0.357078  0.179293  0.218431  1
  Tm  Tm11  1  0.821966  0.178033  0.218941  1
  Tm  Tm12  1  0.666212  0.333786  0.906529  1
  Tm  Tm13  1  0.333755  0.666246  0.406164  1
  Tm  Tm14  1  0.000026  0.999975  0.501498  1
  Tm  Tm15  1  0.999942  0.000058  0.001567  1
  In  In16  1  0.837638  0.675089  0.763841  1
  In  In17  1  0.324911  0.162361  0.763839  1
  In  In18  1  0.837550  0.162450  0.762922  1
  In  In19  1  0.163156  0.326026  0.262604  1
  In  In20  1  0.673974  0.836843  0.262607  1
  In  In21  1  0.162347  0.837654  0.263816  1
  Co  Co22  1  0.666650  0.333351  0.286394  1
  Co  Co23  1  0.334326  0.665675  0.787201  1
