# generated using pymatgen
data_Tm13Th3(NiAg)4
_symmetry_space_group_name_H-M   'P 1'
_cell_length_a   9.39430464
_cell_length_b   9.39656044
_cell_length_c   9.39656000
_cell_angle_alpha   60.00000155
_cell_angle_beta   59.99205797
_cell_angle_gamma   59.99206857
_symmetry_Int_Tables_number   1
_chemical_formula_structural   Tm13Th3(NiAg)4
_chemical_formula_sum   'Tm13 Th3 Ni4 Ag4'
_cell_volume   586.45587219
_cell_formula_units_Z   1
loop_
 _symmetry_equiv_pos_site_id
 _symmetry_equiv_pos_as_xyz
  1  'x, y, z'
loop_
 _atom_site_type_symbol
 _atom_site_label
 _atom_site_symmetry_multiplicity
 _atom_site_fract_x
 _atom_site_fract_y
 _atom_site_fract_z
 _atom_site_occupancy
  Tm  Tm0  1  0.940972  0.353010  0.353010  1
  Tm  Tm1  1  0.811861  0.188313  0.188313  1
  Tm  Tm2  1  0.188173  0.813454  0.813454  1
  Tm  Tm3  1  0.188173  0.813454  0.184918  1
  Tm  Tm4  1  0.811861  0.188313  0.811513  1
  Tm  Tm5  1  0.188173  0.184918  0.813454  1
  Tm  Tm6  1  0.811861  0.811513  0.188313  1
  Tm  Tm7  1  0.933949  0.565446  0.565446  1
  Tm  Tm8  1  0.566087  0.934125  0.934125  1
  Tm  Tm9  1  0.566087  0.934125  0.565662  1
  Tm  Tm10  1  0.933949  0.565446  0.935159  1
  Tm  Tm11  1  0.566087  0.565662  0.934125  1
  Tm  Tm12  1  0.933949  0.935159  0.565446  1
  Th  Th13  1  0.348337  0.353293  0.353293  1
  Th  Th14  1  0.348337  0.353293  0.945076  1
  Th  Th15  1  0.348337  0.945076  0.353293  1
  Ni  Ni16  1  0.144916  0.142419  0.142419  1
  Ni  Ni17  1  0.144916  0.142419  0.570247  1
  Ni  Ni18  1  0.144916  0.570247  0.142419  1
  Ni  Ni19  1  0.567762  0.144080  0.144080  1
  Ag  Ag20  1  0.589278  0.582342  0.582342  1
  Ag  Ag21  1  0.589278  0.582342  0.246038  1
  Ag  Ag22  1  0.589278  0.246038  0.582342  1
  Ag  Ag23  1  0.243459  0.585514  0.585514  1
