# generated using pymatgen
data_YbSm(LuS2)2
_symmetry_space_group_name_H-M   'P 1'
_cell_length_a   13.13107231
_cell_length_b   13.13107196
_cell_length_c   13.13107300
_cell_angle_alpha   16.89235868
_cell_angle_beta   16.89236379
_cell_angle_gamma   16.89235813
_symmetry_Int_Tables_number   1
_chemical_formula_structural   YbSm(LuS2)2
_chemical_formula_sum   'Yb1 Sm1 Lu2 S4'
_cell_volume   166.75567648
_cell_formula_units_Z   1
loop_
 _symmetry_equiv_pos_site_id
 _symmetry_equiv_pos_as_xyz
  1  'x, y, z'
loop_
 _atom_site_type_symbol
 _atom_site_label
 _atom_site_symmetry_multiplicity
 _atom_site_fract_x
 _atom_site_fract_y
 _atom_site_fract_z
 _atom_site_occupancy
  Yb  Yb0  1  0.000000  0.000000  0.000000  1
  Sm  Sm1  1  0.500000  0.500000  0.500000  1
  Lu  Lu2  1  0.250400  0.250400  0.250400  1
  Lu  Lu3  1  0.749600  0.749600  0.749600  1
  S  S4  1  0.375998  0.375998  0.375998  1
  S  S5  1  0.120764  0.120764  0.120764  1
  S  S6  1  0.624002  0.624002  0.624002  1
  S  S7  1  0.879236  0.879236  0.879236  1
