# generated using pymatgen
data_HoCu2Bi2(SeO2)2
_symmetry_space_group_name_H-M   'P 1'
_cell_length_a   12.73164095
_cell_length_b   3.88653790
_cell_length_c   3.88653700
_cell_angle_alpha   90.00000000
_cell_angle_beta   98.77954121
_cell_angle_gamma   98.77954692
_symmetry_Int_Tables_number   1
_chemical_formula_structural   HoCu2Bi2(SeO2)2
_chemical_formula_sum   'Ho1 Cu2 Bi2 Se2 O4'
_cell_volume   187.77990374
_cell_formula_units_Z   1
loop_
 _symmetry_equiv_pos_site_id
 _symmetry_equiv_pos_as_xyz
  1  'x, y, z'
loop_
 _atom_site_type_symbol
 _atom_site_label
 _atom_site_symmetry_multiplicity
 _atom_site_fract_x
 _atom_site_fract_y
 _atom_site_fract_z
 _atom_site_occupancy
  Ho  Ho0  1  0.000000  0.000000  0.000000  1
  Cu  Cu1  1  0.500000  0.750000  0.250000  1
  Cu  Cu2  1  0.500000  0.250000  0.750000  1
  Bi  Bi3  1  0.798425  0.399212  0.399212  1
  Bi  Bi4  1  0.201576  0.600787  0.600787  1
  Se  Se5  1  0.377850  0.188924  0.188924  1
  Se  Se6  1  0.622150  0.811075  0.811075  1
  O  O7  1  0.110162  0.555080  0.055081  1
  O  O8  1  0.889838  0.944919  0.444919  1
  O  O9  1  0.110162  0.055081  0.555080  1
  O  O10  1  0.889838  0.444919  0.944919  1
