# generated using pymatgen
data_Ce3Th(WN3)4
_symmetry_space_group_name_H-M   'P 1'
_cell_length_a   5.56632028
_cell_length_b   5.64832328
_cell_length_c   7.94366700
_cell_angle_alpha   90.00000000
_cell_angle_beta   90.00000000
_cell_angle_gamma   89.96372600
_symmetry_Int_Tables_number   1
_chemical_formula_structural   Ce3Th(WN3)4
_chemical_formula_sum   'Ce3 Th1 W4 N12'
_cell_volume   249.75183068
_cell_formula_units_Z   1
loop_
 _symmetry_equiv_pos_site_id
 _symmetry_equiv_pos_as_xyz
  1  'x, y, z'
loop_
 _atom_site_type_symbol
 _atom_site_label
 _atom_site_symmetry_multiplicity
 _atom_site_fract_x
 _atom_site_fract_y
 _atom_site_fract_z
 _atom_site_occupancy
  Ce  Ce0  1  0.503372  0.548140  0.250000  1
  Ce  Ce1  1  0.997076  0.047288  0.250000  1
  Ce  Ce2  1  0.498308  0.453766  0.750000  1
  Th  Th3  1  0.003770  0.954916  0.750000  1
  W  W4  1  0.000157  0.498480  0.001734  1
  W  W5  1  0.500375  0.000406  0.498274  1
  W  W6  1  0.000157  0.498480  0.498266  1
  W  W7  1  0.500375  0.000406  0.001726  1
  N  N8  1  0.424838  0.982831  0.250000  1
  N  N9  1  0.075745  0.483368  0.250000  1
  N  N10  1  0.573372  0.017899  0.750000  1
  N  N11  1  0.922952  0.515482  0.750000  1
  N  N12  1  0.799466  0.798144  0.038281  1
  N  N13  1  0.701726  0.296782  0.460600  1
  N  N14  1  0.200598  0.201719  0.537584  1
  N  N15  1  0.297961  0.702625  0.959771  1
  N  N16  1  0.200598  0.201719  0.962416  1
  N  N17  1  0.297961  0.702625  0.540229  1
  N  N18  1  0.799466  0.798144  0.461719  1
  N  N19  1  0.701726  0.296782  0.039400  1
