# generated using pymatgen
data_Cs12Ca4FeCo3(P2O7)8
_symmetry_space_group_name_H-M   'P 1'
_cell_length_a   9.45464700
_cell_length_b   11.42138700
_cell_length_c   15.32278500
_cell_angle_alpha   90.00000000
_cell_angle_beta   90.00000000
_cell_angle_gamma   90.00000000
_symmetry_Int_Tables_number   1
_chemical_formula_structural   Cs12Ca4FeCo3(P2O7)8
_chemical_formula_sum   'Cs12 Ca4 Fe1 Co3 P16 O56'
_cell_volume   1654.63373211
_cell_formula_units_Z   1
loop_
 _symmetry_equiv_pos_site_id
 _symmetry_equiv_pos_as_xyz
  1  'x, y, z'
loop_
 _atom_site_type_symbol
 _atom_site_label
 _atom_site_symmetry_multiplicity
 _atom_site_fract_x
 _atom_site_fract_y
 _atom_site_fract_z
 _atom_site_occupancy
  Cs  Cs0  1  0.372107  0.369209  0.370684  1
  Cs  Cs1  1  0.128736  0.630976  0.871029  1
  Cs  Cs2  1  0.871703  0.131181  0.628773  1
  Cs  Cs3  1  0.628275  0.868280  0.129414  1
  Cs  Cs4  1  0.283422  0.715296  0.306224  1
  Cs  Cs5  1  0.216551  0.284227  0.806087  1
  Cs  Cs6  1  0.783439  0.784138  0.692961  1
  Cs  Cs7  1  0.720327  0.214469  0.194482  1
  Cs  Cs8  1  0.820414  0.495122  0.411360  1
  Cs  Cs9  1  0.680795  0.508448  0.912210  1
  Cs  Cs10  1  0.320006  0.004915  0.586922  1
  Cs  Cs11  1  0.179643  0.989518  0.087810  1
  Ca  Ca12  1  0.544226  0.365791  0.617022  1
  Ca  Ca13  1  0.955940  0.634379  0.117389  1
  Ca  Ca14  1  0.044047  0.134555  0.382853  1
  Ca  Ca15  1  0.456145  0.864839  0.882642  1
  Fe  Fe16  1  0.348639  0.376152  0.072288  1
  Co  Co17  1  0.652661  0.879205  0.428197  1
  Co  Co18  1  0.848294  0.120617  0.928061  1
  Co  Co19  1  0.152804  0.620858  0.571545  1
  P  P20  1  0.480506  0.646858  0.520545  1
  P  P21  1  0.018600  0.353173  0.021274  1
  P  P22  1  0.980599  0.853253  0.479346  1
  P  P23  1  0.521137  0.145124  0.978502  1
  P  P24  1  0.414327  0.630762  0.705751  1
  P  P25  1  0.083311  0.370169  0.207221  1
  P  P26  1  0.914482  0.869068  0.294152  1
  P  P27  1  0.586300  0.130343  0.793503  1
  P  P28  1  0.419506  0.037279  0.329912  1
  P  P29  1  0.080835  0.962813  0.829745  1
  P  P30  1  0.919571  0.462974  0.669859  1
  P  P31  1  0.580014  0.538176  0.170293  1
  P  P32  1  0.651512  0.149111  0.437603  1
  P  P33  1  0.848579  0.850587  0.937094  1
  P  P34  1  0.151968  0.350784  0.562591  1
  P  P35  1  0.347782  0.650399  0.062092  1
  O  O36  1  0.573768  0.730478  0.468227  1
  O  O37  1  0.926983  0.269071  0.968345  1
  O  O38  1  0.073758  0.769810  0.531907  1
  O  O39  1  0.427713  0.229190  0.030830  1
  O  O40  1  0.468259  0.506812  0.719014  1
  O  O41  1  0.027267  0.493474  0.220132  1
  O  O42  1  0.968377  0.993050  0.280836  1
  O  O43  1  0.532415  0.006453  0.780097  1
  O  O44  1  0.419652  0.026930  0.231562  1
  O  O45  1  0.080636  0.973891  0.731468  1
  O  O46  1  0.919912  0.473705  0.768202  1
  O  O47  1  0.580929  0.528740  0.268658  1
  O  O48  1  0.287623  0.088737  0.372171  1
  O  O49  1  0.212715  0.911396  0.871903  1
  O  O50  1  0.787564  0.411469  0.627823  1
  O  O51  1  0.711747  0.587650  0.126713  1
  O  O52  1  0.499115  0.690025  0.622617  1
  O  O53  1  0.000162  0.310368  0.123136  1
  O  O54  1  0.999377  0.809935  0.377330  1
  O  O55  1  0.501452  0.189047  0.877020  1
  O  O56  1  0.440962  0.712994  0.781410  1
  O  O57  1  0.055136  0.287325  0.282316  1
  O  O58  1  0.940847  0.786792  0.218528  1
  O  O59  1  0.559443  0.213263  0.718359  1
  O  O60  1  0.549897  0.132819  0.352073  1
  O  O61  1  0.950524  0.867269  0.851727  1
  O  O62  1  0.049800  0.367272  0.647849  1
  O  O63  1  0.450111  0.633221  0.147873  1
  O  O64  1  0.528210  0.520361  0.514023  1
  O  O65  1  0.970691  0.479553  0.014145  1
  O  O66  1  0.028372  0.979740  0.485827  1
  O  O67  1  0.472550  0.019150  0.985444  1
  O  O68  1  0.466595  0.921714  0.376060  1
  O  O69  1  0.033869  0.078281  0.876171  1
  O  O70  1  0.966667  0.578348  0.623466  1
  O  O71  1  0.531427  0.421114  0.126135  1
  O  O72  1  0.754252  0.868484  0.321368  1
  O  O73  1  0.746445  0.131154  0.821068  1
  O  O74  1  0.254064  0.631469  0.678606  1
  O  O75  1  0.243066  0.369932  0.180611  1
  O  O76  1  0.322980  0.665920  0.499306  1
  O  O77  1  0.176705  0.335238  0.000356  1
  O  O78  1  0.823045  0.834285  0.500487  1
  O  O79  1  0.677873  0.165191  0.000544  1
  O  O80  1  0.796177  0.180158  0.401588  1
  O  O81  1  0.704182  0.819364  0.900786  1
  O  O82  1  0.296347  0.319614  0.599020  1
  O  O83  1  0.203760  0.682330  0.099244  1
  O  O84  1  0.586208  0.240989  0.496745  1
  O  O85  1  0.913778  0.758736  0.996296  1
  O  O86  1  0.086930  0.258810  0.503403  1
  O  O87  1  0.413371  0.743991  0.004355  1
  O  O88  1  0.649652  0.027185  0.485639  1
  O  O89  1  0.850217  0.972438  0.985217  1
  O  O90  1  0.150540  0.472634  0.514457  1
  O  O91  1  0.348680  0.529579  0.014070  1
