# generated using pymatgen
data_Ca8NdLu(Sn3H)2
_symmetry_space_group_name_H-M   'P 1'
_cell_length_a   9.46276853
_cell_length_b   9.45729830
_cell_length_c   9.46355458
_cell_angle_alpha   129.34804096
_cell_angle_beta   129.27661287
_cell_angle_gamma   74.44045323
_symmetry_Int_Tables_number   1
_chemical_formula_structural   Ca8NdLu(Sn3H)2
_chemical_formula_sum   'Ca8 Nd1 Lu1 Sn6 H2'
_cell_volume   494.27890307
_cell_formula_units_Z   1
loop_
 _symmetry_equiv_pos_site_id
 _symmetry_equiv_pos_as_xyz
  1  'x, y, z'
loop_
 _atom_site_type_symbol
 _atom_site_label
 _atom_site_symmetry_multiplicity
 _atom_site_fract_x
 _atom_site_fract_y
 _atom_site_fract_z
 _atom_site_occupancy
  Ca  Ca0  1  0.001594  0.999197  0.999984  1
  Ca  Ca1  1  0.185034  0.684906  0.173155  1
  Ca  Ca2  1  0.009565  0.187309  0.500915  1
  Ca  Ca3  1  0.687232  0.509465  0.500521  1
  Ca  Ca4  1  0.490637  0.989965  0.178873  1
  Ca  Ca5  1  0.812728  0.313280  0.822777  1
  Ca  Ca6  1  0.988234  0.812036  0.498190  1
  Ca  Ca7  1  0.313037  0.488890  0.499736  1
  Nd  Nd8  1  0.514758  0.016570  0.830113  1
  Lu  Lu9  1  0.498850  0.501921  0.999697  1
  Sn  Sn10  1  0.255051  0.250245  0.996588  1
  Sn  Sn11  1  0.744389  0.748061  0.997019  1
  Sn  Sn12  1  0.864155  0.375252  0.239968  1
  Sn  Sn13  1  0.135288  0.623535  0.759142  1
  Sn  Sn14  1  0.374728  0.135144  0.511667  1
  Sn  Sn15  1  0.623884  0.863735  0.490304  1
  H  H16  1  0.250807  0.750549  0.500636  1
  H  H17  1  0.750028  0.249941  0.500714  1
