# generated using pymatgen
data_Tm4Al18(IrPt)3
_symmetry_space_group_name_H-M   'P 1'
_cell_length_a   7.57641507
_cell_length_b   7.57641262
_cell_length_c   9.38757642
_cell_angle_alpha   89.98284762
_cell_angle_beta   89.98286069
_cell_angle_gamma   119.62729577
_symmetry_Int_Tables_number   1
_chemical_formula_structural   Tm4Al18(IrPt)3
_chemical_formula_sum   'Tm4 Al18 Ir3 Pt3'
_cell_volume   468.41440281
_cell_formula_units_Z   1
loop_
 _symmetry_equiv_pos_site_id
 _symmetry_equiv_pos_as_xyz
  1  'x, y, z'
loop_
 _atom_site_type_symbol
 _atom_site_label
 _atom_site_symmetry_multiplicity
 _atom_site_fract_x
 _atom_site_fract_y
 _atom_site_fract_z
 _atom_site_occupancy
  Tm  Tm0  1  0.995616  0.671060  0.250663  1
  Tm  Tm1  1  0.004616  0.329177  0.749409  1
  Tm  Tm2  1  0.670822  0.995384  0.250591  1
  Tm  Tm3  1  0.328940  0.004383  0.749337  1
  Al  Al4  1  0.126256  0.126895  0.250481  1
  Al  Al5  1  0.873105  0.873744  0.749519  1
  Al  Al6  1  0.999632  0.331829  0.076949  1
  Al  Al7  1  0.000083  0.668614  0.922511  1
  Al  Al8  1  0.997417  0.664793  0.575772  1
  Al  Al9  1  0.335207  0.002583  0.424228  1
  Al  Al10  1  0.996455  0.331496  0.424235  1
  Al  Al11  1  0.668504  0.003546  0.575765  1
  Al  Al12  1  0.668171  0.000368  0.923051  1
  Al  Al13  1  0.331386  0.999917  0.077489  1
  Al  Al14  1  0.332459  0.329239  0.555033  1
  Al  Al15  1  0.670761  0.667542  0.444967  1
  Al  Al16  1  0.669922  0.669995  0.057788  1
  Al  Al17  1  0.330005  0.330078  0.942211  1
  Al  Al18  1  0.339802  0.546226  0.250509  1
  Al  Al19  1  0.659720  0.451856  0.747601  1
  Al  Al20  1  0.548144  0.340280  0.252399  1
  Al  Al21  1  0.453774  0.660198  0.749491  1
  Ir  Ir22  1  0.672247  0.327753  0.500000  1
  Ir  Ir23  1  0.999807  0.000194  0.000000  1
  Ir  Ir24  1  0.000330  0.999670  0.500000  1
  Pt  Pt25  1  0.672342  0.327658  0.000000  1
  Pt  Pt26  1  0.327212  0.672788  0.000000  1
  Pt  Pt27  1  0.327266  0.672734  0.500000  1
