# generated using pymatgen
data_Y2Ga9CuRu2
_symmetry_space_group_name_H-M   'P 1'
_cell_length_a   7.56542282
_cell_length_b   7.56542294
_cell_length_c   9.57468200
_cell_angle_alpha   90.00000000
_cell_angle_beta   90.00000000
_cell_angle_gamma   119.89710230
_symmetry_Int_Tables_number   1
_chemical_formula_structural   Y2Ga9CuRu2
_chemical_formula_sum   'Y4 Ga18 Cu2 Ru4'
_cell_volume   475.08441036
_cell_formula_units_Z   2
loop_
 _symmetry_equiv_pos_site_id
 _symmetry_equiv_pos_as_xyz
  1  'x, y, z'
loop_
 _atom_site_type_symbol
 _atom_site_label
 _atom_site_symmetry_multiplicity
 _atom_site_fract_x
 _atom_site_fract_y
 _atom_site_fract_z
 _atom_site_occupancy
  Y  Y0  1  0.996613  0.669427  0.250000  1
  Y  Y1  1  0.003387  0.330573  0.750000  1
  Y  Y2  1  0.669427  0.996613  0.250000  1
  Y  Y3  1  0.330573  0.003387  0.750000  1
  Ga  Ga4  1  0.125850  0.125850  0.250000  1
  Ga  Ga5  1  0.874150  0.874150  0.750000  1
  Ga  Ga6  1  0.002435  0.337129  0.077055  1
  Ga  Ga7  1  0.997565  0.662871  0.922945  1
  Ga  Ga8  1  0.997565  0.662871  0.577055  1
  Ga  Ga9  1  0.337129  0.002435  0.422945  1
  Ga  Ga10  1  0.002435  0.337129  0.422945  1
  Ga  Ga11  1  0.662871  0.997565  0.577055  1
  Ga  Ga12  1  0.662871  0.997565  0.922945  1
  Ga  Ga13  1  0.337129  0.002435  0.077055  1
  Ga  Ga14  1  0.339174  0.339174  0.562781  1
  Ga  Ga15  1  0.660826  0.660826  0.437219  1
  Ga  Ga16  1  0.660826  0.660826  0.062781  1
  Ga  Ga17  1  0.339174  0.339174  0.937219  1
  Ga  Ga18  1  0.335253  0.549706  0.250000  1
  Ga  Ga19  1  0.664747  0.450294  0.750000  1
  Ga  Ga20  1  0.549706  0.335253  0.250000  1
  Ga  Ga21  1  0.450294  0.664747  0.750000  1
  Cu  Cu22  1  0.000000  0.000000  0.000000  1
  Cu  Cu23  1  0.000000  0.000000  0.500000  1
  Ru  Ru24  1  0.673189  0.326811  0.000000  1
  Ru  Ru25  1  0.326811  0.673189  0.000000  1
  Ru  Ru26  1  0.326811  0.673189  0.500000  1
  Ru  Ru27  1  0.673189  0.326811  0.500000  1
