# generated using pymatgen
data_Be8Co3Cu4Ru
_symmetry_space_group_name_H-M   'P 1'
_cell_length_a   5.24267401
_cell_length_b   5.24075300
_cell_length_c   5.48040301
_cell_angle_alpha   90.00000000
_cell_angle_beta   89.99348755
_cell_angle_gamma   89.99995628
_symmetry_Int_Tables_number   1
_chemical_formula_structural   Be8Co3Cu4Ru
_chemical_formula_sum   'Be8 Co3 Cu4 Ru1'
_cell_volume   150.57713819
_cell_formula_units_Z   1
loop_
 _symmetry_equiv_pos_site_id
 _symmetry_equiv_pos_as_xyz
  1  'x, y, z'
loop_
 _atom_site_type_symbol
 _atom_site_label
 _atom_site_symmetry_multiplicity
 _atom_site_fract_x
 _atom_site_fract_y
 _atom_site_fract_z
 _atom_site_occupancy
  Be  Be0  1  0.495674  0.495696  0.255074  1
  Be  Be1  1  0.495671  0.004294  0.255073  1
  Be  Be2  1  0.004219  0.495767  0.255786  1
  Be  Be3  1  0.004214  0.004246  0.255788  1
  Be  Be4  1  0.004319  0.495690  0.744248  1
  Be  Be5  1  0.004322  0.004300  0.744242  1
  Be  Be6  1  0.495719  0.495699  0.744858  1
  Be  Be7  1  0.495723  0.004313  0.744865  1
  Co  Co8  1  0.249675  0.250000  0.000005  1
  Co  Co9  1  0.749768  0.750000  0.500006  1
  Co  Co10  1  0.250224  0.250000  0.500003  1
  Cu  Cu11  1  0.250058  0.750000  0.000079  1
  Cu  Cu12  1  0.749814  0.250000  0.499952  1
  Cu  Cu13  1  0.250186  0.749999  0.500054  1
  Cu  Cu14  1  0.750146  0.250000  0.999941  1
  Ru  Ru15  1  0.750262  0.749999  0.000026  1
