# generated using pymatgen
data_SrSm2(TiIr2)3
_symmetry_space_group_name_H-M   'P 1'
_cell_length_a   5.68206400
_cell_length_b   5.68206470
_cell_length_c   15.88300700
_cell_angle_alpha   90.00000000
_cell_angle_beta   90.00000000
_cell_angle_gamma   120.00000757
_symmetry_Int_Tables_number   1
_chemical_formula_structural   SrSm2(TiIr2)3
_chemical_formula_sum   'Sr2 Sm4 Ti6 Ir12'
_cell_volume   444.09473204
_cell_formula_units_Z   2
loop_
 _symmetry_equiv_pos_site_id
 _symmetry_equiv_pos_as_xyz
  1  'x, y, z'
loop_
 _atom_site_type_symbol
 _atom_site_label
 _atom_site_symmetry_multiplicity
 _atom_site_fract_x
 _atom_site_fract_y
 _atom_site_fract_z
 _atom_site_occupancy
  Sr  Sr0  1  0.333333  0.666667  0.750000  1
  Sr  Sr1  1  0.666667  0.333333  0.250000  1
  Sm  Sm2  1  0.333333  0.666667  0.542935  1
  Sm  Sm3  1  0.666667  0.333333  0.457065  1
  Sm  Sm4  1  0.666667  0.333333  0.042935  1
  Sm  Sm5  1  0.333333  0.666667  0.957065  1
  Ti  Ti6  1  0.000000  0.000000  0.250000  1
  Ti  Ti7  1  0.000000  0.000000  0.750000  1
  Ti  Ti8  1  0.333333  0.666667  0.250000  1
  Ti  Ti9  1  0.666667  0.333333  0.750000  1
  Ti  Ti10  1  0.000000  0.000000  0.000000  1
  Ti  Ti11  1  0.000000  0.000000  0.500000  1
  Ir  Ir12  1  0.168210  0.336418  0.125006  1
  Ir  Ir13  1  0.831790  0.663582  0.874994  1
  Ir  Ir14  1  0.663582  0.831790  0.125006  1
  Ir  Ir15  1  0.831790  0.663582  0.625006  1
  Ir  Ir16  1  0.336418  0.168210  0.874994  1
  Ir  Ir17  1  0.168210  0.336418  0.374994  1
  Ir  Ir18  1  0.168210  0.831790  0.125006  1
  Ir  Ir19  1  0.336418  0.168210  0.625006  1
  Ir  Ir20  1  0.831790  0.168210  0.874994  1
  Ir  Ir21  1  0.663582  0.831790  0.374994  1
  Ir  Ir22  1  0.831790  0.168210  0.625006  1
  Ir  Ir23  1  0.168210  0.831790  0.374994  1
