# generated using pymatgen
data_HoTm9Sn8
_symmetry_space_group_name_H-M   'P 1'
_cell_length_a   7.95678796
_cell_length_b   8.07537200
_cell_length_c   15.27865858
_cell_angle_alpha   90.00000000
_cell_angle_beta   89.70150032
_cell_angle_gamma   90.00000000
_symmetry_Int_Tables_number   1
_chemical_formula_structural   HoTm9Sn8
_chemical_formula_sum   'Ho2 Tm18 Sn16'
_cell_volume   981.70195204
_cell_formula_units_Z   2
loop_
 _symmetry_equiv_pos_site_id
 _symmetry_equiv_pos_as_xyz
  1  'x, y, z'
loop_
 _atom_site_type_symbol
 _atom_site_label
 _atom_site_symmetry_multiplicity
 _atom_site_fract_x
 _atom_site_fract_y
 _atom_site_fract_z
 _atom_site_occupancy
  Ho  Ho0  1  0.981333  0.820810  0.596407  1
  Ho  Ho1  1  0.518667  0.320810  0.403593  1
  Tm  Tm2  1  0.020701  0.179170  0.403200  1
  Tm  Tm3  1  0.368946  0.837635  0.122103  1
  Tm  Tm4  1  0.133340  0.337853  0.623478  1
  Tm  Tm5  1  0.477516  0.678506  0.903565  1
  Tm  Tm6  1  0.869450  0.662069  0.122251  1
  Tm  Tm7  1  0.131054  0.337635  0.877897  1
  Tm  Tm8  1  0.198567  0.503939  0.249337  1
  Tm  Tm9  1  0.698292  0.996394  0.249170  1
  Tm  Tm10  1  0.479299  0.679170  0.596800  1
  Tm  Tm11  1  0.301433  0.003939  0.750663  1
  Tm  Tm12  1  0.634215  0.162011  0.623484  1
  Tm  Tm13  1  0.801708  0.496394  0.750830  1
  Tm  Tm14  1  0.865785  0.662011  0.376516  1
  Tm  Tm15  1  0.022484  0.178506  0.096435  1
  Tm  Tm16  1  0.976606  0.821004  0.902493  1
  Tm  Tm17  1  0.630550  0.162069  0.877749  1
  Tm  Tm18  1  0.523394  0.321004  0.097507  1
  Tm  Tm19  1  0.366660  0.837853  0.376522  1
  Sn  Sn20  1  0.794192  0.462338  0.541732  1
  Sn  Sn21  1  0.705808  0.962338  0.458268  1
  Sn  Sn22  1  0.667148  0.850089  0.750342  1
  Sn  Sn23  1  0.203966  0.540169  0.459218  1
  Sn  Sn24  1  0.290806  0.036122  0.958556  1
  Sn  Sn25  1  0.832852  0.350089  0.249658  1
  Sn  Sn26  1  0.791237  0.462729  0.958904  1
  Sn  Sn27  1  0.564453  0.619814  0.249315  1
  Sn  Sn28  1  0.209194  0.536122  0.041444  1
  Sn  Sn29  1  0.435946  0.380232  0.750576  1
  Sn  Sn30  1  0.169736  0.649116  0.750844  1
  Sn  Sn31  1  0.935547  0.119814  0.750685  1
  Sn  Sn32  1  0.296034  0.040169  0.540782  1
  Sn  Sn33  1  0.708763  0.962729  0.041096  1
  Sn  Sn34  1  0.330264  0.149116  0.249156  1
  Sn  Sn35  1  0.064054  0.880232  0.249424  1
