# generated using pymatgen
data_Th4Ta3NbN8
_symmetry_space_group_name_H-M   'P 1'
_cell_length_a   3.41106900
_cell_length_b   5.88789743
_cell_length_c   11.10841192
_cell_angle_alpha   89.88393683
_cell_angle_beta   90.00000000
_cell_angle_gamma   90.00000000
_symmetry_Int_Tables_number   1
_chemical_formula_structural   Th4Ta3NbN8
_chemical_formula_sum   'Th4 Ta3 Nb1 N8'
_cell_volume   223.10115850
_cell_formula_units_Z   1
loop_
 _symmetry_equiv_pos_site_id
 _symmetry_equiv_pos_as_xyz
  1  'x, y, z'
loop_
 _atom_site_type_symbol
 _atom_site_label
 _atom_site_symmetry_multiplicity
 _atom_site_fract_x
 _atom_site_fract_y
 _atom_site_fract_z
 _atom_site_occupancy
  Th  Th0  1  0.250000  0.578346  0.857816  1
  Th  Th1  1  0.750000  0.421257  0.142880  1
  Th  Th2  1  0.750000  0.923629  0.357679  1
  Th  Th3  1  0.250000  0.078530  0.642941  1
  Ta  Ta4  1  0.250000  0.925675  0.096046  1
  Ta  Ta5  1  0.750000  0.073656  0.903275  1
  Ta  Ta6  1  0.750000  0.570969  0.595881  1
  Nb  Nb7  1  0.250000  0.428841  0.404626  1
  N  N8  1  0.250000  0.665371  0.246295  1
  N  N9  1  0.750000  0.337566  0.751798  1
  N  N10  1  0.750000  0.836308  0.748905  1
  N  N11  1  0.250000  0.158961  0.248335  1
  N  N12  1  0.250000  0.753421  0.509990  1
  N  N13  1  0.750000  0.248043  0.494296  1
  N  N14  1  0.750000  0.750532  0.008431  1
  N  N15  1  0.250000  0.248894  0.990806  1
