# generated using pymatgen
data_Nb12Co5Ni3(OsN)4
_symmetry_space_group_name_H-M   'P 1'
_cell_length_a   8.10559576
_cell_length_b   8.10559530
_cell_length_c   8.10559594
_cell_angle_alpha   60.16057467
_cell_angle_beta   60.16057475
_cell_angle_gamma   60.16056996
_symmetry_Int_Tables_number   1
_chemical_formula_structural   Nb12Co5Ni3(OsN)4
_chemical_formula_sum   'Nb12 Co5 Ni3 Os4 N4'
_cell_volume   377.93440294
_cell_formula_units_Z   1
loop_
 _symmetry_equiv_pos_site_id
 _symmetry_equiv_pos_as_xyz
  1  'x, y, z'
loop_
 _atom_site_type_symbol
 _atom_site_label
 _atom_site_symmetry_multiplicity
 _atom_site_fract_x
 _atom_site_fract_y
 _atom_site_fract_z
 _atom_site_occupancy
  Nb  Nb0  1  0.806516  0.806516  0.194336  1
  Nb  Nb1  1  0.192034  0.192034  0.808313  1
  Nb  Nb2  1  0.806516  0.194336  0.806516  1
  Nb  Nb3  1  0.192034  0.808313  0.192034  1
  Nb  Nb4  1  0.194336  0.806516  0.806516  1
  Nb  Nb5  1  0.808313  0.192034  0.192034  1
  Nb  Nb6  1  0.441948  0.441948  0.060242  1
  Nb  Nb7  1  0.055684  0.055684  0.444189  1
  Nb  Nb8  1  0.441948  0.060242  0.441948  1
  Nb  Nb9  1  0.055684  0.444189  0.055684  1
  Nb  Nb10  1  0.060242  0.441948  0.441948  1
  Nb  Nb11  1  0.444189  0.055684  0.055684  1
  Co  Co12  1  0.420466  0.420466  0.420466  1
  Co  Co13  1  0.517486  0.827354  0.827354  1
  Co  Co14  1  0.827354  0.517486  0.827354  1
  Co  Co15  1  0.827354  0.827354  0.517486  1
  Co  Co16  1  0.828565  0.828565  0.828565  1
  Ni  Ni17  1  0.746829  0.418154  0.418154  1
  Ni  Ni18  1  0.418154  0.746829  0.418154  1
  Ni  Ni19  1  0.418154  0.418154  0.746829  1
  Os  Os20  1  0.123696  0.623920  0.623920  1
  Os  Os21  1  0.623920  0.123696  0.623920  1
  Os  Os22  1  0.623920  0.623920  0.123696  1
  Os  Os23  1  0.625575  0.625575  0.625575  1
  N  N24  1  0.624156  0.124719  0.124719  1
  N  N25  1  0.124719  0.624156  0.124719  1
  N  N26  1  0.124719  0.124719  0.624156  1
  N  N27  1  0.125488  0.125488  0.125488  1
