# generated using pymatgen
data_Y4Er4Mn(B8Ru)3
_symmetry_space_group_name_H-M   'P 1'
_cell_length_a   3.63164300
_cell_length_b   9.11655622
_cell_length_c   11.50845700
_cell_angle_alpha   89.98735056
_cell_angle_beta   90.00000000
_cell_angle_gamma   90.00000000
_symmetry_Int_Tables_number   1
_chemical_formula_structural   Y4Er4Mn(B8Ru)3
_chemical_formula_sum   'Y4 Er4 Mn1 B24 Ru3'
_cell_volume   381.02287809
_cell_formula_units_Z   1
loop_
 _symmetry_equiv_pos_site_id
 _symmetry_equiv_pos_as_xyz
  1  'x, y, z'
loop_
 _atom_site_type_symbol
 _atom_site_label
 _atom_site_symmetry_multiplicity
 _atom_site_fract_x
 _atom_site_fract_y
 _atom_site_fract_z
 _atom_site_occupancy
  Y  Y0  1  0.000000  0.325475  0.412779  1
  Y  Y1  1  0.000000  0.676652  0.581911  1
  Y  Y2  1  0.000000  0.820106  0.088528  1
  Y  Y3  1  0.000000  0.177602  0.915106  1
  Er  Er4  1  0.000000  0.940251  0.371344  1
  Er  Er5  1  0.000000  0.056873  0.627645  1
  Er  Er6  1  0.000000  0.445873  0.130586  1
  Er  Er7  1  0.000000  0.556800  0.871702  1
  Mn  Mn8  1  0.000000  0.638222  0.320504  1
  B  B9  1  0.500000  0.554574  0.431200  1
  B  B10  1  0.500000  0.446298  0.566935  1
  B  B11  1  0.500000  0.054020  0.067796  1
  B  B12  1  0.500000  0.946012  0.932874  1
  B  B13  1  0.500000  0.746719  0.417257  1
  B  B14  1  0.500000  0.251464  0.580465  1
  B  B15  1  0.500000  0.249362  0.081378  1
  B  B16  1  0.500000  0.751310  0.919405  1
  B  B17  1  0.500000  0.789498  0.266762  1
  B  B18  1  0.500000  0.208873  0.733735  1
  B  B19  1  0.500000  0.291648  0.233985  1
  B  B20  1  0.500000  0.708935  0.765989  1
  B  B21  1  0.500000  0.631435  0.186986  1
  B  B22  1  0.500000  0.368753  0.814913  1
  B  B23  1  0.500000  0.130966  0.314708  1
  B  B24  1  0.500000  0.868616  0.684856  1
  B  B25  1  0.500000  0.982930  0.213178  1
  B  B26  1  0.500000  0.016648  0.787209  1
  B  B27  1  0.500000  0.485720  0.287973  1
  B  B28  1  0.500000  0.516737  0.712647  1
  B  B29  1  0.500000  0.605837  0.029431  1
  B  B30  1  0.500000  0.394511  0.971241  1
  B  B31  1  0.500000  0.105787  0.470474  1
  B  B32  1  0.500000  0.893920  0.528892  1
  Ru  Ru33  1  0.000000  0.361383  0.679815  1
  Ru  Ru34  1  0.000000  0.138384  0.179185  1
  Ru  Ru35  1  0.000000  0.861805  0.820609  1
