# generated using pymatgen
data_Dy7Y3(TlBi2)2
_symmetry_space_group_name_H-M   'P 1'
_cell_length_a   9.02394100
_cell_length_b   9.02394041
_cell_length_c   6.49423800
_cell_angle_alpha   90.00002540
_cell_angle_beta   90.00001905
_cell_angle_gamma   119.90482194
_symmetry_Int_Tables_number   1
_chemical_formula_structural   Dy7Y3(TlBi2)2
_chemical_formula_sum   'Dy7 Y3 Tl2 Bi4'
_cell_volume   458.42365717
_cell_formula_units_Z   1
loop_
 _symmetry_equiv_pos_site_id
 _symmetry_equiv_pos_as_xyz
  1  'x, y, z'
loop_
 _atom_site_type_symbol
 _atom_site_label
 _atom_site_symmetry_multiplicity
 _atom_site_fract_x
 _atom_site_fract_y
 _atom_site_fract_z
 _atom_site_occupancy
  Dy  Dy0  1  0.668460  0.329214  0.503497  1
  Dy  Dy1  1  0.329214  0.668460  0.503497  1
  Dy  Dy2  1  0.329210  0.668457  0.996505  1
  Dy  Dy3  1  0.668457  0.329210  0.996505  1
  Dy  Dy4  1  0.235292  0.235292  0.750001  1
  Dy  Dy5  1  0.764598  0.008116  0.750000  1
  Dy  Dy6  1  0.008116  0.764598  0.750000  1
  Y  Y7  1  0.760650  0.760650  0.250000  1
  Y  Y8  1  0.236372  0.998253  0.249998  1
  Y  Y9  1  0.998253  0.236372  0.249998  1
  Tl  Tl10  1  0.395816  0.001793  0.749999  1
  Tl  Tl11  1  0.001793  0.395816  0.749999  1
  Bi  Bi12  1  0.393885  0.393885  0.250000  1
  Bi  Bi13  1  0.603967  0.996858  0.249997  1
  Bi  Bi14  1  0.996858  0.603967  0.249997  1
  Bi  Bi15  1  0.609055  0.609055  0.750003  1
