# generated using pymatgen
data_Sm3Mg2InSn2Pd
_symmetry_space_group_name_H-M   'P 1'
_cell_length_a   7.52616300
_cell_length_b   7.52318921
_cell_length_c   4.60185300
_cell_angle_alpha   90.00000000
_cell_angle_beta   90.00000000
_cell_angle_gamma   120.01308112
_symmetry_Int_Tables_number   1
_chemical_formula_structural   Sm3Mg2InSn2Pd
_chemical_formula_sum   'Sm3 Mg2 In1 Sn2 Pd1'
_cell_volume   225.62214131
_cell_formula_units_Z   1
loop_
 _symmetry_equiv_pos_site_id
 _symmetry_equiv_pos_as_xyz
  1  'x, y, z'
loop_
 _atom_site_type_symbol
 _atom_site_label
 _atom_site_symmetry_multiplicity
 _atom_site_fract_x
 _atom_site_fract_y
 _atom_site_fract_z
 _atom_site_occupancy
  Sm  Sm0  1  0.404407  0.000000  0.500000  1
  Sm  Sm1  1  0.999326  0.402096  0.500000  1
  Sm  Sm2  1  0.597230  0.597904  0.500000  1
  Mg  Mg3  1  0.001082  0.770028  0.000000  1
  Mg  Mg4  1  0.231054  0.229972  0.000000  1
  In  In5  1  0.768590  0.000000  0.000000  1
  Sn  Sn6  1  0.329537  0.663909  0.000000  1
  Sn  Sn7  1  0.665629  0.336091  0.000000  1
  Pd  Pd8  1  0.003145  0.000000  0.500000  1
