# generated using pymatgen
data_Th8CdSe17
_symmetry_space_group_name_H-M   'P 1'
_cell_length_a   8.54811043
_cell_length_b   8.54811017
_cell_length_c   11.39338314
_cell_angle_alpha   79.81659563
_cell_angle_beta   79.81659607
_cell_angle_gamma   64.21239765
_symmetry_Int_Tables_number   1
_chemical_formula_structural   Th8CdSe17
_chemical_formula_sum   'Th8 Cd1 Se17'
_cell_volume   733.09889477
_cell_formula_units_Z   1
loop_
 _symmetry_equiv_pos_site_id
 _symmetry_equiv_pos_as_xyz
  1  'x, y, z'
loop_
 _atom_site_type_symbol
 _atom_site_label
 _atom_site_symmetry_multiplicity
 _atom_site_fract_x
 _atom_site_fract_y
 _atom_site_fract_z
 _atom_site_occupancy
  Th  Th0  1  0.185480  0.695736  0.702103  1
  Th  Th1  1  0.695736  0.185480  0.702103  1
  Th  Th2  1  0.814520  0.304264  0.297897  1
  Th  Th3  1  0.304264  0.814520  0.297897  1
  Th  Th4  1  0.795559  0.795559  0.458127  1
  Th  Th5  1  0.204441  0.204441  0.541873  1
  Th  Th6  1  0.316989  0.316989  0.020447  1
  Th  Th7  1  0.683011  0.683011  0.979553  1
  Cd  Cd8  1  0.000000  0.000000  0.000000  1
  Se  Se9  1  0.177585  0.568774  0.469355  1
  Se  Se10  1  0.568774  0.177585  0.469355  1
  Se  Se11  1  0.822415  0.431226  0.530645  1
  Se  Se12  1  0.431226  0.822415  0.530645  1
  Se  Se13  1  0.054825  0.666820  0.961237  1
  Se  Se14  1  0.666820  0.054825  0.961237  1
  Se  Se15  1  0.945175  0.333180  0.038763  1
  Se  Se16  1  0.333180  0.945175  0.038763  1
  Se  Se17  1  0.790466  0.790466  0.719999  1
  Se  Se18  1  0.209534  0.209534  0.280001  1
  Se  Se19  1  0.941063  0.941063  0.237407  1
  Se  Se20  1  0.058937  0.058937  0.762593  1
  Se  Se21  1  0.697381  0.697381  0.246807  1
  Se  Se22  1  0.302619  0.302619  0.753193  1
  Se  Se23  1  0.480848  0.480848  0.168664  1
  Se  Se24  1  0.519152  0.519152  0.831336  1
  Se  Se25  1  0.000000  0.000000  0.500000  1
