# generated using pymatgen
data_Ca2SmHo(NiB4)4
_symmetry_space_group_name_H-M   'P 1'
_cell_length_a   6.86285692
_cell_length_b   6.86285780
_cell_length_c   6.86285779
_cell_angle_alpha   112.87692577
_cell_angle_beta   112.87693771
_cell_angle_gamma   102.85556396
_symmetry_Int_Tables_number   1
_chemical_formula_structural   Ca2SmHo(NiB4)4
_chemical_formula_sum   'Ca2 Sm1 Ho1 Ni4 B16'
_cell_volume   246.37606511
_cell_formula_units_Z   1
loop_
 _symmetry_equiv_pos_site_id
 _symmetry_equiv_pos_as_xyz
  1  'x, y, z'
loop_
 _atom_site_type_symbol
 _atom_site_label
 _atom_site_symmetry_multiplicity
 _atom_site_fract_x
 _atom_site_fract_y
 _atom_site_fract_z
 _atom_site_occupancy
  Ca  Ca0  1  0.797028  0.797028  0.000000  1
  Ca  Ca1  1  0.202972  0.202972  0.000000  1
  Sm  Sm2  1  0.750000  0.250000  0.500000  1
  Ho  Ho3  1  0.250000  0.750000  0.500000  1
  Ni  Ni4  1  0.273557  0.501108  0.772449  1
  Ni  Ni5  1  0.728659  0.501108  0.227551  1
  Ni  Ni6  1  0.498892  0.726443  0.227551  1
  Ni  Ni7  1  0.498892  0.271341  0.772449  1
  B  B8  1  0.276886  0.112668  0.389073  1
  B  B9  1  0.723596  0.887813  0.610927  1
  B  B10  1  0.276886  0.887813  0.164218  1
  B  B11  1  0.723596  0.112668  0.835782  1
  B  B12  1  0.112187  0.723114  0.835782  1
  B  B13  1  0.887332  0.276404  0.164218  1
  B  B14  1  0.112187  0.276404  0.389073  1
  B  B15  1  0.887332  0.723114  0.610927  1
  B  B16  1  0.113936  0.111801  0.529245  1
  B  B17  1  0.582557  0.584691  0.470755  1
  B  B18  1  0.113936  0.584691  0.002134  1
  B  B19  1  0.582557  0.111801  0.997866  1
  B  B20  1  0.888199  0.886064  0.470755  1
  B  B21  1  0.415309  0.417443  0.529245  1
  B  B22  1  0.888199  0.417443  0.002134  1
  B  B23  1  0.415309  0.886064  0.997866  1
