# generated using pymatgen
data_Sr12In5Ga3Pt8
_symmetry_space_group_name_H-M   'P 1'
_cell_length_a   6.18233587
_cell_length_b   8.49296328
_cell_length_c   14.72363700
_cell_angle_alpha   90.00000000
_cell_angle_beta   90.00000000
_cell_angle_gamma   89.93818895
_symmetry_Int_Tables_number   1
_chemical_formula_structural   Sr12In5Ga3Pt8
_chemical_formula_sum   'Sr12 In5 Ga3 Pt8'
_cell_volume   773.08400992
_cell_formula_units_Z   1
loop_
 _symmetry_equiv_pos_site_id
 _symmetry_equiv_pos_as_xyz
  1  'x, y, z'
loop_
 _atom_site_type_symbol
 _atom_site_label
 _atom_site_symmetry_multiplicity
 _atom_site_fract_x
 _atom_site_fract_y
 _atom_site_fract_z
 _atom_site_occupancy
  Sr  Sr0  1  0.149880  0.602334  0.098002  1
  Sr  Sr1  1  0.150831  0.901673  0.905238  1
  Sr  Sr2  1  0.849088  0.102028  0.401612  1
  Sr  Sr3  1  0.846817  0.394103  0.594617  1
  Sr  Sr4  1  0.846817  0.394103  0.905383  1
  Sr  Sr5  1  0.849088  0.102028  0.098388  1
  Sr  Sr6  1  0.150831  0.901673  0.594762  1
  Sr  Sr7  1  0.149880  0.602334  0.401998  1
  Sr  Sr8  1  0.365727  0.251120  0.250000  1
  Sr  Sr9  1  0.367605  0.247414  0.750000  1
  Sr  Sr10  1  0.634691  0.750876  0.250000  1
  Sr  Sr11  1  0.627422  0.752989  0.750000  1
  In  In12  1  0.370727  0.247241  0.001161  1
  In  In13  1  0.630195  0.752133  0.498870  1
  In  In14  1  0.630195  0.752133  0.001130  1
  In  In15  1  0.370727  0.247241  0.498839  1
  In  In16  1  0.134576  0.600634  0.750000  1
  Ga  Ga17  1  0.848717  0.403924  0.250000  1
  Ga  Ga18  1  0.851542  0.095996  0.750000  1
  Ga  Ga19  1  0.151428  0.903708  0.250000  1
  Pt  Pt20  1  0.646089  0.460883  0.102811  1
  Pt  Pt21  1  0.647923  0.039416  0.897184  1
  Pt  Pt22  1  0.353171  0.961043  0.396597  1
  Pt  Pt23  1  0.364425  0.535815  0.594123  1
  Pt  Pt24  1  0.364425  0.535815  0.905877  1
  Pt  Pt25  1  0.353171  0.961043  0.103403  1
  Pt  Pt26  1  0.647923  0.039416  0.602816  1
  Pt  Pt27  1  0.646089  0.460883  0.397189  1
