# generated using pymatgen
data_La15PrCd4CoPt3
_symmetry_space_group_name_H-M   'P 1'
_cell_length_a   10.14372571
_cell_length_b   10.14372612
_cell_length_c   10.14872506
_cell_angle_alpha   60.04887466
_cell_angle_beta   60.04887220
_cell_angle_gamma   60.03889728
_symmetry_Int_Tables_number   1
_chemical_formula_structural   La15PrCd4CoPt3
_chemical_formula_sum   'La15 Pr1 Cd4 Co1 Pt3'
_cell_volume   739.16198455
_cell_formula_units_Z   1
loop_
 _symmetry_equiv_pos_site_id
 _symmetry_equiv_pos_as_xyz
  1  'x, y, z'
loop_
 _atom_site_type_symbol
 _atom_site_label
 _atom_site_symmetry_multiplicity
 _atom_site_fract_x
 _atom_site_fract_y
 _atom_site_fract_z
 _atom_site_occupancy
  La  La0  1  0.349789  0.349789  0.350280  1
  La  La1  1  0.343860  0.343860  0.955757  1
  La  La2  1  0.343459  0.955534  0.344209  1
  La  La3  1  0.955534  0.343459  0.344209  1
  La  La4  1  0.821518  0.189075  0.189897  1
  La  La5  1  0.192298  0.807556  0.806983  1
  La  La6  1  0.189075  0.821518  0.189897  1
  La  La7  1  0.807556  0.192298  0.806983  1
  La  La8  1  0.189397  0.189397  0.821436  1
  La  La9  1  0.807448  0.807448  0.192975  1
  La  La10  1  0.939213  0.562555  0.561601  1
  La  La11  1  0.562417  0.935737  0.935579  1
  La  La12  1  0.562555  0.939213  0.561601  1
  La  La13  1  0.935737  0.562417  0.935579  1
  La  La14  1  0.561543  0.561543  0.939368  1
  Pr  Pr15  1  0.936270  0.936270  0.561597  1
  Cd  Cd16  1  0.579436  0.579436  0.579343  1
  Cd  Cd17  1  0.580381  0.580381  0.260340  1
  Cd  Cd18  1  0.580933  0.259807  0.580361  1
  Cd  Cd19  1  0.259807  0.580933  0.580361  1
  Co  Co20  1  0.141977  0.141977  0.141855  1
  Pt  Pt21  1  0.143465  0.143465  0.572755  1
  Pt  Pt22  1  0.143341  0.572989  0.143516  1
  Pt  Pt23  1  0.572989  0.143341  0.143516  1
