# generated using pymatgen
data_Er6ReTcB14
_symmetry_space_group_name_H-M   'P 1'
_cell_length_a   8.02037461
_cell_length_b   8.02037520
_cell_length_c   9.29512900
_cell_angle_alpha   90.00000000
_cell_angle_beta   90.00000000
_cell_angle_gamma   154.69423529
_symmetry_Int_Tables_number   1
_chemical_formula_structural   Er6ReTcB14
_chemical_formula_sum   'Er6 Re1 Tc1 B14'
_cell_volume   255.58118953
_cell_formula_units_Z   1
loop_
 _symmetry_equiv_pos_site_id
 _symmetry_equiv_pos_as_xyz
  1  'x, y, z'
loop_
 _atom_site_type_symbol
 _atom_site_label
 _atom_site_symmetry_multiplicity
 _atom_site_fract_x
 _atom_site_fract_y
 _atom_site_fract_z
 _atom_site_occupancy
  Er  Er0  1  0.894811  0.105189  0.439602  1
  Er  Er1  1  0.105397  0.894603  0.559554  1
  Er  Er2  1  0.894811  0.105189  0.060398  1
  Er  Er3  1  0.105397  0.894603  0.940446  1
  Er  Er4  1  0.242180  0.757820  0.250000  1
  Er  Er5  1  0.757523  0.242477  0.750000  1
  Re  Re6  1  0.947637  0.052363  0.750000  1
  Tc  Tc7  1  0.052571  0.947429  0.250000  1
  B  B8  1  0.727317  0.272683  0.466528  1
  B  B9  1  0.272616  0.727384  0.533592  1
  B  B10  1  0.727317  0.272683  0.033472  1
  B  B11  1  0.272616  0.727384  0.966408  1
  B  B12  1  0.631974  0.368026  0.150619  1
  B  B13  1  0.367808  0.632192  0.849516  1
  B  B14  1  0.631974  0.368026  0.349381  1
  B  B15  1  0.367808  0.632192  0.650484  1
  B  B16  1  0.520424  0.479576  0.095075  1
  B  B17  1  0.479620  0.520380  0.905281  1
  B  B18  1  0.520424  0.479576  0.404925  1
  B  B19  1  0.479620  0.520380  0.594719  1
  B  B20  1  0.456008  0.543992  0.250000  1
  B  B21  1  0.544145  0.455855  0.750000  1
