# generated using pymatgen
data_PrP12IrRu3
_symmetry_space_group_name_H-M   'P 1'
_cell_length_a   7.03292533
_cell_length_b   7.03292609
_cell_length_c   7.04714300
_cell_angle_alpha   109.51217803
_cell_angle_beta   109.51218021
_cell_angle_gamma   109.43023599
_symmetry_Int_Tables_number   1
_chemical_formula_structural   PrP12IrRu3
_chemical_formula_sum   'Pr1 P12 Ir1 Ru3'
_cell_volume   268.19053660
_cell_formula_units_Z   1
loop_
 _symmetry_equiv_pos_site_id
 _symmetry_equiv_pos_as_xyz
  1  'x, y, z'
loop_
 _atom_site_type_symbol
 _atom_site_label
 _atom_site_symmetry_multiplicity
 _atom_site_fract_x
 _atom_site_fract_y
 _atom_site_fract_z
 _atom_site_occupancy
  Pr  Pr0  1  0.000000  0.000000  0.000000  1
  P  P1  1  0.786047  0.145091  0.645795  1
  P  P2  1  0.213953  0.854909  0.354205  1
  P  P3  1  0.500531  0.856468  0.644409  1
  P  P4  1  0.856468  0.355937  0.212060  1
  P  P5  1  0.644063  0.500531  0.856122  1
  P  P6  1  0.359044  0.213953  0.859748  1
  P  P7  1  0.143532  0.644063  0.787940  1
  P  P8  1  0.640956  0.786047  0.140252  1
  P  P9  1  0.854909  0.640956  0.500704  1
  P  P10  1  0.145091  0.359044  0.499296  1
  P  P11  1  0.499469  0.143532  0.355591  1
  P  P12  1  0.355937  0.499469  0.143878  1
  Ir  Ir13  1  0.000000  0.000000  0.500000  1
  Ru  Ru14  1  0.000000  0.500000  0.000000  1
  Ru  Ru15  1  0.500000  0.000000  0.000000  1
  Ru  Ru16  1  0.500000  0.500000  0.500000  1
