# generated using pymatgen
data_Ho3Zr2Pb3Cl
_symmetry_space_group_name_H-M   'P 1'
_cell_length_a   9.03996400
_cell_length_b   9.03996359
_cell_length_c   6.23530000
_cell_angle_alpha   90.00000000
_cell_angle_beta   90.00000000
_cell_angle_gamma   120.00000150
_symmetry_Int_Tables_number   1
_chemical_formula_structural   Ho3Zr2Pb3Cl
_chemical_formula_sum   'Ho6 Zr4 Pb6 Cl2'
_cell_volume   441.28723103
_cell_formula_units_Z   2
loop_
 _symmetry_equiv_pos_site_id
 _symmetry_equiv_pos_as_xyz
  1  'x, y, z'
loop_
 _atom_site_type_symbol
 _atom_site_label
 _atom_site_symmetry_multiplicity
 _atom_site_fract_x
 _atom_site_fract_y
 _atom_site_fract_z
 _atom_site_occupancy
  Ho  Ho0  1  0.262534  0.000000  0.750000  1
  Ho  Ho1  1  0.737466  0.000000  0.250000  1
  Ho  Ho2  1  0.000000  0.262534  0.750000  1
  Ho  Ho3  1  0.000000  0.737466  0.250000  1
  Ho  Ho4  1  0.737466  0.737466  0.750000  1
  Ho  Ho5  1  0.262534  0.262534  0.250000  1
  Zr  Zr6  1  0.333333  0.666667  0.500000  1
  Zr  Zr7  1  0.666667  0.333333  0.500000  1
  Zr  Zr8  1  0.666667  0.333333  0.000000  1
  Zr  Zr9  1  0.333333  0.666667  0.000000  1
  Pb  Pb10  1  0.606687  0.000000  0.750000  1
  Pb  Pb11  1  0.393313  0.000000  0.250000  1
  Pb  Pb12  1  0.000000  0.606687  0.750000  1
  Pb  Pb13  1  0.000000  0.393313  0.250000  1
  Pb  Pb14  1  0.393313  0.393313  0.750000  1
  Pb  Pb15  1  0.606687  0.606687  0.250000  1
  Cl  Cl16  1  0.000000  0.000000  0.500000  1
  Cl  Cl17  1  0.000000  0.000000  0.000000  1
