# generated using pymatgen
data_Li3Tb2Gd(WO6)2
_symmetry_space_group_name_H-M   'P 1'
_cell_length_a   10.74639596
_cell_length_b   10.73795829
_cell_length_c   10.74227257
_cell_angle_alpha   109.44284689
_cell_angle_beta   109.47465514
_cell_angle_gamma   109.49579886
_symmetry_Int_Tables_number   1
_chemical_formula_structural   Li3Tb2Gd(WO6)2
_chemical_formula_sum   'Li12 Tb8 Gd4 W8 O48'
_cell_volume   954.24675702
_cell_formula_units_Z   4
loop_
 _symmetry_equiv_pos_site_id
 _symmetry_equiv_pos_as_xyz
  1  'x, y, z'
loop_
 _atom_site_type_symbol
 _atom_site_label
 _atom_site_symmetry_multiplicity
 _atom_site_fract_x
 _atom_site_fract_y
 _atom_site_fract_z
 _atom_site_occupancy
  Li  Li0  1  0.875293  0.750462  0.124953  1
  Li  Li1  1  0.249660  0.874492  0.124954  1
  Li  Li2  1  0.874931  0.124531  0.249947  1
  Li  Li3  1  0.375014  0.625416  0.249948  1
  Li  Li4  1  0.625419  0.250429  0.375731  1
  Li  Li5  1  0.750312  0.625304  0.375732  1
  Li  Li6  1  0.249925  0.374991  0.625393  1
  Li  Li7  1  0.375469  0.750402  0.625395  1
  Li  Li8  1  0.124526  0.874584  0.749591  1
  Li  Li9  1  0.625066  0.375007  0.749592  1
  Li  Li10  1  0.124731  0.250063  0.874363  1
  Li  Li11  1  0.749631  0.124301  0.874363  1
  Tb  Tb12  1  0.125330  0.750644  0.375386  1
  Tb  Tb13  1  0.250057  0.124742  0.375387  1
  Tb  Tb14  1  0.750246  0.875066  0.625501  1
  Tb  Tb15  1  0.875257  0.250437  0.625503  1
  Tb  Tb16  1  0.374733  0.124733  0.749467  1
  Tb  Tb17  1  0.875041  0.625042  0.750084  1
  Tb  Tb18  1  0.249712  0.624863  0.874536  1
  Tb  Tb19  1  0.624824  0.749672  0.874536  1
  Gd  Gd20  1  0.749918  0.375196  0.124647  1
  Gd  Gd21  1  0.374730  0.249452  0.124648  1
  Gd  Gd22  1  0.624945  0.874945  0.249890  1
  Gd  Gd23  1  0.125253  0.375253  0.250506  1
  W  W24  1  0.999228  0.998869  0.999564  1
  W  W25  1  0.499412  0.998877  0.998624  1
  W  W26  1  0.499211  0.499747  0.998624  1
  W  W27  1  0.000337  0.500696  0.999564  1
  W  W28  1  0.000578  0.000398  0.500661  1
  W  W29  1  0.000348  0.500780  0.501160  1
  W  W30  1  0.500084  0.000264  0.500662  1
  W  W31  1  0.500813  0.500381  0.501161  1
  O  O32  1  0.116795  0.198492  0.025109  1
  O  O33  1  0.908314  0.326616  0.025109  1
  O  O34  1  0.407110  0.880907  0.080111  1
  O  O35  1  0.673002  0.699204  0.080112  1
  O  O36  1  0.673428  0.973010  0.090120  1
  O  O37  1  0.416691  0.617109  0.090120  1
  O  O38  1  0.198922  0.025611  0.118571  1
  O  O39  1  0.919651  0.592962  0.118572  1
  O  O40  1  0.581596  0.198284  0.173120  1
  O  O41  1  0.591525  0.474838  0.173121  1
  O  O42  1  0.026239  0.116788  0.199905  1
  O  O43  1  0.173664  0.583118  0.199906  1
  O  O44  1  0.918381  0.326745  0.301629  1
  O  O45  1  0.383248  0.474886  0.301629  1
  O  O46  1  0.300149  0.918786  0.327150  1
  O  O47  1  0.027001  0.908364  0.327150  1
  O  O48  1  0.473737  0.300004  0.383198  1
  O  O49  1  0.909462  0.583195  0.383199  1
  O  O50  1  0.526476  0.826545  0.409540  1
  O  O51  1  0.883065  0.082997  0.409542  1
  O  O52  1  0.618691  0.092733  0.419733  1
  O  O53  1  0.801044  0.827001  0.419735  1
  O  O54  1  0.301046  0.381403  0.474420  1
  O  O55  1  0.173375  0.593016  0.474420  1
  O  O56  1  0.700738  0.618926  0.527691  1
  O  O57  1  0.826953  0.408766  0.527691  1
  O  O58  1  0.200642  0.173253  0.581674  1
  O  O59  1  0.381034  0.908421  0.581675  1
  O  O60  1  0.119128  0.918833  0.591977  1
  O  O61  1  0.472849  0.173143  0.591978  1
  O  O62  1  0.527386  0.700399  0.619254  1
  O  O63  1  0.091870  0.418857  0.619256  1
  O  O64  1  0.700377  0.081568  0.673350  1
  O  O65  1  0.972973  0.091782  0.673351  1
  O  O66  1  0.081704  0.673436  0.701145  1
  O  O67  1  0.619444  0.527711  0.701146  1
  O  O68  1  0.972705  0.880849  0.799614  1
  O  O69  1  0.826909  0.418767  0.799616  1
  O  O70  1  0.408205  0.527700  0.826311  1
  O  O71  1  0.418106  0.798611  0.826312  1
  O  O72  1  0.081596  0.408602  0.880951  1
  O  O73  1  0.799356  0.972351  0.880951  1
  O  O74  1  0.580210  0.381007  0.906802  1
  O  O75  1  0.326593  0.025796  0.906802  1
  O  O76  1  0.326069  0.299389  0.916429  1
  O  O77  1  0.590360  0.117039  0.916429  1
  O  O78  1  0.091580  0.673401  0.972150  1
  O  O79  1  0.880570  0.798749  0.972151  1
