# generated using pymatgen
data_PaAlF7
_symmetry_space_group_name_H-M   'P 1'
_cell_length_a   5.58424700
_cell_length_b   8.93704655
_cell_length_c   11.66582976
_cell_angle_alpha   61.32107491
_cell_angle_beta   90.00000000
_cell_angle_gamma   90.00000000
_symmetry_Int_Tables_number   1
_chemical_formula_structural   PaAlF7
_chemical_formula_sum   'Pa4 Al4 F28'
_cell_volume   510.77973934
_cell_formula_units_Z   4
loop_
 _symmetry_equiv_pos_site_id
 _symmetry_equiv_pos_as_xyz
  1  'x, y, z'
loop_
 _atom_site_type_symbol
 _atom_site_label
 _atom_site_symmetry_multiplicity
 _atom_site_fract_x
 _atom_site_fract_y
 _atom_site_fract_z
 _atom_site_occupancy
  Pa  Pa0  1  0.256341  0.799595  0.263237  1
  Pa  Pa1  1  0.743659  0.200405  0.736763  1
  Pa  Pa2  1  0.756341  0.200405  0.236763  1
  Pa  Pa3  1  0.243659  0.799595  0.763237  1
  Al  Al4  1  0.754115  0.727455  0.039411  1
  Al  Al5  1  0.245885  0.272545  0.960589  1
  Al  Al6  1  0.254115  0.272545  0.460589  1
  Al  Al7  1  0.745885  0.727455  0.539411  1
  F  F8  1  0.950049  0.710514  0.424579  1
  F  F9  1  0.049951  0.289486  0.575421  1
  F  F10  1  0.450049  0.289486  0.075421  1
  F  F11  1  0.549951  0.710514  0.924579  1
  F  F12  1  0.502756  0.729730  0.140135  1
  F  F13  1  0.497244  0.270270  0.859865  1
  F  F14  1  0.002756  0.270270  0.359865  1
  F  F15  1  0.997244  0.729730  0.640135  1
  F  F16  1  0.956849  0.742761  0.159411  1
  F  F17  1  0.043151  0.257239  0.840589  1
  F  F18  1  0.456849  0.257239  0.340589  1
  F  F19  1  0.543151  0.742761  0.659411  1
  F  F20  1  0.764110  0.495563  0.135870  1
  F  F21  1  0.235890  0.504437  0.864130  1
  F  F22  1  0.264110  0.504437  0.364130  1
  F  F23  1  0.735890  0.495563  0.635870  1
  F  F24  1  0.979964  0.281163  0.050357  1
  F  F25  1  0.020036  0.718837  0.949643  1
  F  F26  1  0.479964  0.718837  0.449643  1
  F  F27  1  0.520036  0.281163  0.550357  1
  F  F28  1  0.742788  0.959427  0.447284  1
  F  F29  1  0.257212  0.040573  0.552716  1
  F  F30  1  0.242788  0.040573  0.052716  1
  F  F31  1  0.757212  0.959427  0.947284  1
  F  F32  1  0.597415  0.975445  0.223532  1
  F  F33  1  0.402585  0.024555  0.776468  1
  F  F34  1  0.097415  0.024555  0.276468  1
  F  F35  1  0.902585  0.975445  0.723532  1
