# generated using pymatgen
data_Lu2UFe2Si7
_symmetry_space_group_name_H-M   'P 1'
_cell_length_a   12.19146444
_cell_length_b   12.19146570
_cell_length_c   4.01894200
_cell_angle_alpha   90.00000000
_cell_angle_beta   90.00000000
_cell_angle_gamma   161.05356702
_symmetry_Int_Tables_number   1
_chemical_formula_structural   Lu2UFe2Si7
_chemical_formula_sum   'Lu2 U1 Fe2 Si7'
_cell_volume   193.94762244
_cell_formula_units_Z   1
loop_
 _symmetry_equiv_pos_site_id
 _symmetry_equiv_pos_as_xyz
  1  'x, y, z'
loop_
 _atom_site_type_symbol
 _atom_site_label
 _atom_site_symmetry_multiplicity
 _atom_site_fract_x
 _atom_site_fract_y
 _atom_site_fract_z
 _atom_site_occupancy
  Lu  Lu0  1  0.315847  0.684153  0.000000  1
  Lu  Lu1  1  0.684153  0.315847  0.000000  1
  U  U2  1  0.000000  0.000000  0.500000  1
  Fe  Fe3  1  0.126207  0.873793  0.500000  1
  Fe  Fe4  1  0.873793  0.126207  0.500000  1
  Si  Si5  1  0.220680  0.779320  0.500000  1
  Si  Si6  1  0.779320  0.220680  0.500000  1
  Si  Si7  1  0.086380  0.913620  0.000000  1
  Si  Si8  1  0.913620  0.086380  0.000000  1
  Si  Si9  1  0.413300  0.586700  0.500000  1
  Si  Si10  1  0.500000  0.500000  0.000000  1
  Si  Si11  1  0.586700  0.413300  0.500000  1
