# generated using pymatgen
data_Ba4YPb3
_symmetry_space_group_name_H-M   'P 1'
_cell_length_a   10.24538176
_cell_length_b   10.24538212
_cell_length_c   10.24538300
_cell_angle_alpha   96.77586818
_cell_angle_beta   96.77623448
_cell_angle_gamma   139.82006878
_symmetry_Int_Tables_number   1
_chemical_formula_structural   Ba4YPb3
_chemical_formula_sum   'Ba8 Y2 Pb6'
_cell_volume   651.64226524
_cell_formula_units_Z   2
loop_
 _symmetry_equiv_pos_site_id
 _symmetry_equiv_pos_as_xyz
  1  'x, y, z'
loop_
 _atom_site_type_symbol
 _atom_site_label
 _atom_site_symmetry_multiplicity
 _atom_site_fract_x
 _atom_site_fract_y
 _atom_site_fract_z
 _atom_site_occupancy
  Ba  Ba0  1  0.087790  0.214967  0.302761  1
  Ba  Ba1  1  0.912210  0.785033  0.697239  1
  Ba  Ba2  1  0.785024  0.087810  0.872837  1
  Ba  Ba3  1  0.412206  0.714967  0.127176  1
  Ba  Ba4  1  0.214976  0.912190  0.127163  1
  Ba  Ba5  1  0.587794  0.285033  0.872824  1
  Ba  Ba6  1  0.714973  0.587810  0.302787  1
  Ba  Ba7  1  0.285027  0.412190  0.697213  1
  Y  Y8  1  0.250000  0.750000  0.500000  1
  Y  Y9  1  0.750000  0.250000  0.500000  1
  Pb  Pb10  1  0.140592  0.640576  0.781166  1
  Pb  Pb11  1  0.859408  0.359424  0.218834  1
  Pb  Pb12  1  0.359408  0.140576  0.499984  1
  Pb  Pb13  1  0.640592  0.859424  0.500016  1
  Pb  Pb14  1  0.250000  0.250000  0.000000  1
  Pb  Pb15  1  0.750000  0.750000  0.000000  1
