# generated using pymatgen
data_Dy5Ho2Lu(P3Ir4)4
_symmetry_space_group_name_H-M   'P 1'
_cell_length_a   12.96695000
_cell_length_b   12.96886647
_cell_length_c   4.00304100
_cell_angle_alpha   90.00000000
_cell_angle_beta   90.00000000
_cell_angle_gamma   119.99511178
_symmetry_Int_Tables_number   1
_chemical_formula_structural   Dy5Ho2Lu(P3Ir4)4
_chemical_formula_sum   'Dy5 Ho2 Lu1 P12 Ir16'
_cell_volume   583.01793471
_cell_formula_units_Z   1
loop_
 _symmetry_equiv_pos_site_id
 _symmetry_equiv_pos_as_xyz
  1  'x, y, z'
loop_
 _atom_site_type_symbol
 _atom_site_label
 _atom_site_symmetry_multiplicity
 _atom_site_fract_x
 _atom_site_fract_y
 _atom_site_fract_z
 _atom_site_occupancy
  Dy  Dy0  1  0.333381  0.666768  0.500000  1
  Dy  Dy1  1  0.666614  0.333232  0.500000  1
  Dy  Dy2  1  0.000028  0.814423  0.000000  1
  Dy  Dy3  1  0.185605  0.185577  0.000000  1
  Dy  Dy4  1  0.814265  0.000000  0.000000  1
  Ho  Ho5  1  0.999985  0.446188  0.500000  1
  Ho  Ho6  1  0.553796  0.553812  0.500000  1
  Lu  Lu7  1  0.446335  0.000000  0.500000  1
  P  P8  1  0.000420  0.653009  0.500000  1
  P  P9  1  0.347411  0.346991  0.500000  1
  P  P10  1  0.651464  0.000000  0.500000  1
  P  P11  1  0.516580  0.688682  0.000000  1
  P  P12  1  0.312303  0.829179  0.000000  1
  P  P13  1  0.171838  0.483518  0.000000  1
  P  P14  1  0.483125  0.170821  0.000000  1
  P  P15  1  0.688320  0.516482  0.000000  1
  P  P16  1  0.827899  0.311318  0.000000  1
  P  P17  1  0.999918  0.176590  0.500000  1
  P  P18  1  0.823328  0.823410  0.500000  1
  P  P19  1  0.176720  0.000000  0.500000  1
  Ir  Ir20  1  0.509232  0.866501  0.000000  1
  Ir  Ir21  1  0.134564  0.644470  0.000000  1
  Ir  Ir22  1  0.356088  0.490498  0.000000  1
  Ir  Ir23  1  0.490094  0.355530  0.000000  1
  Ir  Ir24  1  0.865591  0.509502  0.000000  1
  Ir  Ir25  1  0.642732  0.133499  0.000000  1
  Ir  Ir26  1  0.999922  0.274562  0.000000  1
  Ir  Ir27  1  0.725360  0.725438  0.000000  1
  Ir  Ir28  1  0.276042  0.000000  0.000000  1
  Ir  Ir29  1  0.630050  0.809508  0.500000  1
  Ir  Ir30  1  0.191932  0.821879  0.500000  1
  Ir  Ir31  1  0.179009  0.369648  0.500000  1
  Ir  Ir32  1  0.370053  0.178121  0.500000  1
  Ir  Ir33  1  0.809361  0.630352  0.500000  1
  Ir  Ir34  1  0.820542  0.190492  0.500000  1
  Ir  Ir35  1  0.000096  0.000000  0.500000  1
