# generated using pymatgen
data_Er3Tm5Os3WC8
_symmetry_space_group_name_H-M   'P 1'
_cell_length_a   5.04631500
_cell_length_b   6.48645156
_cell_length_c   9.71986470
_cell_angle_alpha   89.59935664
_cell_angle_beta   90.00000000
_cell_angle_gamma   90.00000000
_symmetry_Int_Tables_number   1
_chemical_formula_structural   Er3Tm5Os3WC8
_chemical_formula_sum   'Er3 Tm5 Os3 W1 C8'
_cell_volume   318.14942123
_cell_formula_units_Z   1
loop_
 _symmetry_equiv_pos_site_id
 _symmetry_equiv_pos_as_xyz
  1  'x, y, z'
loop_
 _atom_site_type_symbol
 _atom_site_label
 _atom_site_symmetry_multiplicity
 _atom_site_fract_x
 _atom_site_fract_y
 _atom_site_fract_z
 _atom_site_occupancy
  Er  Er0  1  0.750000  0.466084  0.780563  1
  Er  Er1  1  0.750000  0.969089  0.715746  1
  Er  Er2  1  0.250000  0.031169  0.284773  1
  Tm  Tm3  1  0.250000  0.677022  0.555446  1
  Tm  Tm4  1  0.750000  0.324117  0.443890  1
  Tm  Tm5  1  0.750000  0.824439  0.056403  1
  Tm  Tm6  1  0.250000  0.178627  0.942217  1
  Tm  Tm7  1  0.250000  0.532889  0.214899  1
  Os  Os8  1  0.750000  0.281871  0.133233  1
  Os  Os9  1  0.750000  0.780016  0.365699  1
  Os  Os10  1  0.250000  0.220662  0.630108  1
  W  W11  1  0.250000  0.717613  0.870082  1
  C  C12  1  0.250000  0.449779  0.759658  1
  C  C13  1  0.750000  0.545840  0.242172  1
  C  C14  1  0.750000  0.047123  0.259149  1
  C  C15  1  0.250000  0.954412  0.740114  1
  C  C16  1  0.250000  0.827086  0.059904  1
  C  C17  1  0.750000  0.172949  0.948633  1
  C  C18  1  0.750000  0.671780  0.552698  1
  C  C19  1  0.250000  0.327433  0.444611  1
