# generated using pymatgen
data_Rb2Li2SnS4
_symmetry_space_group_name_H-M   'P 1'
_cell_length_a   9.52293874
_cell_length_b   9.52293891
_cell_length_c   9.52293948
_cell_angle_alpha   144.32954867
_cell_angle_beta   105.24867072
_cell_angle_gamma   85.67618477
_symmetry_Int_Tables_number   1
_chemical_formula_structural   Rb2Li2SnS4
_chemical_formula_sum   'Rb4 Li4 Sn2 S8'
_cell_volume   470.95272296
_cell_formula_units_Z   2
loop_
 _symmetry_equiv_pos_site_id
 _symmetry_equiv_pos_as_xyz
  1  'x, y, z'
loop_
 _atom_site_type_symbol
 _atom_site_label
 _atom_site_symmetry_multiplicity
 _atom_site_fract_x
 _atom_site_fract_y
 _atom_site_fract_z
 _atom_site_occupancy
  Rb  Rb0  1  0.621758  0.770763  0.392520  1
  Rb  Rb1  1  0.878242  0.270763  0.149005  1
  Rb  Rb2  1  0.121758  0.729237  0.850995  1
  Rb  Rb3  1  0.378242  0.229237  0.607480  1
  Li  Li4  1  0.023133  0.750000  0.273133  1
  Li  Li5  1  0.476867  0.750000  0.726867  1
  Li  Li6  1  0.976867  0.250000  0.726867  1
  Li  Li7  1  0.523133  0.250000  0.273133  1
  Sn  Sn8  1  0.750000  0.750000  0.000000  1
  Sn  Sn9  1  0.250000  0.250000  0.000000  1
  S  S10  1  0.722794  0.634402  0.653261  1
  S  S11  1  0.777206  0.430467  0.911608  1
  S  S12  1  0.518859  0.865598  0.088392  1
  S  S13  1  0.981141  0.069533  0.346739  1
  S  S14  1  0.277206  0.365598  0.346739  1
  S  S15  1  0.222794  0.569533  0.088392  1
  S  S16  1  0.018859  0.930467  0.653261  1
  S  S17  1  0.481141  0.134402  0.911608  1
