# generated using pymatgen
data_Dy7Sn23Ru5Rh
_symmetry_space_group_name_H-M   'P 1'
_cell_length_a   9.86541538
_cell_length_b   9.90583325
_cell_length_c   10.06197203
_cell_angle_alpha   90.00000096
_cell_angle_beta   89.92620939
_cell_angle_gamma   120.13562228
_symmetry_Int_Tables_number   1
_chemical_formula_structural   Dy7Sn23Ru5Rh
_chemical_formula_sum   'Dy7 Sn23 Ru5 Rh1'
_cell_volume   850.40245538
_cell_formula_units_Z   1
loop_
 _symmetry_equiv_pos_site_id
 _symmetry_equiv_pos_as_xyz
  1  'x, y, z'
loop_
 _atom_site_type_symbol
 _atom_site_label
 _atom_site_symmetry_multiplicity
 _atom_site_fract_x
 _atom_site_fract_y
 _atom_site_fract_z
 _atom_site_occupancy
  Dy  Dy0  1  0.007822  0.003912  0.003701  1
  Dy  Dy1  1  0.484125  0.515839  0.304162  1
  Dy  Dy2  1  0.515057  0.482354  0.694853  1
  Dy  Dy3  1  0.484125  0.968286  0.304162  1
  Dy  Dy4  1  0.515057  0.032703  0.694853  1
  Dy  Dy5  1  0.031541  0.515771  0.303928  1
  Dy  Dy6  1  0.965856  0.482928  0.695368  1
  Sn  Sn7  1  0.349909  0.999498  0.000235  1
  Sn  Sn8  1  0.651443  0.001068  0.999625  1
  Sn  Sn9  1  0.000200  0.348472  0.000200  1
  Sn  Sn10  1  0.000200  0.651728  0.000200  1
  Sn  Sn11  1  0.651443  0.650376  0.999625  1
  Sn  Sn12  1  0.349909  0.350411  0.000235  1
  Sn  Sn13  1  0.329964  0.664983  0.820379  1
  Sn  Sn14  1  0.666399  0.333198  0.178775  1
  Sn  Sn15  1  0.999475  0.999738  0.500985  1
  Sn  Sn16  1  0.779823  0.220779  0.462505  1
  Sn  Sn17  1  0.219868  0.778181  0.537290  1
  Sn  Sn18  1  0.779823  0.559044  0.462505  1
  Sn  Sn19  1  0.219868  0.441688  0.537290  1
  Sn  Sn20  1  0.441899  0.220950  0.461842  1
  Sn  Sn21  1  0.559842  0.779922  0.536756  1
  Sn  Sn22  1  0.333269  0.666636  0.126119  1
  Sn  Sn23  1  0.666094  0.333047  0.873445  1
  Sn  Sn24  1  0.116502  0.883149  0.277369  1
  Sn  Sn25  1  0.883320  0.116818  0.723645  1
  Sn  Sn26  1  0.116502  0.233353  0.277369  1
  Sn  Sn27  1  0.883320  0.766502  0.723645  1
  Sn  Sn28  1  0.764451  0.882226  0.272252  1
  Sn  Sn29  1  0.235905  0.117952  0.727183  1
  Ru  Ru30  1  0.829783  0.169155  0.201962  1
  Ru  Ru31  1  0.170359  0.830787  0.798093  1
  Ru  Ru32  1  0.829783  0.660627  0.201962  1
  Ru  Ru33  1  0.170359  0.339574  0.798093  1
  Ru  Ru34  1  0.338445  0.169222  0.200770  1
  Rh  Rh35  1  0.658255  0.829128  0.798614  1
