# generated using pymatgen
data_K4HfSnI12
_symmetry_space_group_name_H-M   'P 1'
_cell_length_a   8.41868066
_cell_length_b   8.11934687
_cell_length_c   14.05554174
_cell_angle_alpha   54.95028405
_cell_angle_beta   89.90450238
_cell_angle_gamma   89.71680182
_symmetry_Int_Tables_number   1
_chemical_formula_structural   K4HfSnI12
_chemical_formula_sum   'K4 Hf1 Sn1 I12'
_cell_volume   786.51567069
_cell_formula_units_Z   1
loop_
 _symmetry_equiv_pos_site_id
 _symmetry_equiv_pos_as_xyz
  1  'x, y, z'
loop_
 _atom_site_type_symbol
 _atom_site_label
 _atom_site_symmetry_multiplicity
 _atom_site_fract_x
 _atom_site_fract_y
 _atom_site_fract_z
 _atom_site_occupancy
  K  K0  1  0.578352  0.725147  0.251881  1
  K  K1  1  0.077501  0.273492  0.247774  1
  K  K2  1  0.421648  0.274853  0.748119  1
  K  K3  1  0.922499  0.726508  0.752226  1
  Hf  Hf4  1  0.000000  0.000000  0.000000  1
  Sn  Sn5  1  0.500000  0.000000  0.500000  1
  I  I6  1  0.993708  0.838696  0.241536  1
  I  I7  1  0.493265  0.161255  0.254319  1
  I  I8  1  0.006292  0.161304  0.758464  1
  I  I9  1  0.506735  0.838745  0.745681  1
  I  I10  1  0.694103  0.661143  0.546732  1
  I  I11  1  0.187913  0.331222  0.956299  1
  I  I12  1  0.305897  0.338857  0.453268  1
  I  I13  1  0.812087  0.668778  0.043701  1
  I  I14  1  0.714015  0.221990  0.964256  1
  I  I15  1  0.210530  0.772016  0.537187  1
  I  I16  1  0.285985  0.778010  0.035744  1
  I  I17  1  0.789470  0.227984  0.462813  1
