# generated using pymatgen
data_Sc6Zn15Au8S
_symmetry_space_group_name_H-M   'P 1'
_cell_length_a   8.94218889
_cell_length_b   8.94218825
_cell_length_c   8.94218800
_cell_angle_alpha   60.00000094
_cell_angle_beta   60.00000329
_cell_angle_gamma   59.99999771
_symmetry_Int_Tables_number   1
_chemical_formula_structural   Sc6Zn15Au8S
_chemical_formula_sum   'Sc6 Zn15 Au8 S1'
_cell_volume   505.61092877
_cell_formula_units_Z   1
loop_
 _symmetry_equiv_pos_site_id
 _symmetry_equiv_pos_as_xyz
  1  'x, y, z'
loop_
 _atom_site_type_symbol
 _atom_site_label
 _atom_site_symmetry_multiplicity
 _atom_site_fract_x
 _atom_site_fract_y
 _atom_site_fract_z
 _atom_site_occupancy
  Sc  Sc0  1  0.707377  0.292623  0.292623  1
  Sc  Sc1  1  0.292623  0.707377  0.707377  1
  Sc  Sc2  1  0.292649  0.707350  0.292650  1
  Sc  Sc3  1  0.707350  0.292650  0.707350  1
  Sc  Sc4  1  0.292620  0.292620  0.707380  1
  Sc  Sc5  1  0.707380  0.707380  0.292620  1
  Zn  Zn6  1  0.500000  0.999999  0.000000  1
  Zn  Zn7  1  0.000000  0.500001  0.499999  1
  Zn  Zn8  1  0.000000  0.500000  0.000000  1
  Zn  Zn9  1  0.500000  0.000000  0.500000  1
  Zn  Zn10  1  0.000001  0.999999  0.500000  1
  Zn  Zn11  1  0.500000  0.500001  0.000000  1
  Zn  Zn12  1  0.335834  0.335845  0.335768  1
  Zn  Zn13  1  0.664165  0.664156  0.664232  1
  Zn  Zn14  1  0.335842  0.335834  0.992554  1
  Zn  Zn15  1  0.335768  0.992554  0.335833  1
  Zn  Zn16  1  0.664156  0.664166  0.007447  1
  Zn  Zn17  1  0.664232  0.007445  0.664167  1
  Zn  Zn18  1  0.992555  0.335768  0.335842  1
  Zn  Zn19  1  0.007445  0.664233  0.664157  1
  Zn  Zn20  1  0.000000  0.000000  0.000000  1
  Au  Au21  1  0.122509  0.122396  0.122458  1
  Au  Au22  1  0.877492  0.877603  0.877542  1
  Au  Au23  1  0.122396  0.122508  0.632637  1
  Au  Au24  1  0.122459  0.632638  0.122508  1
  Au  Au25  1  0.877604  0.877491  0.367363  1
  Au  Au26  1  0.877542  0.367363  0.877492  1
  Au  Au27  1  0.632637  0.122457  0.122397  1
  Au  Au28  1  0.367362  0.877542  0.877604  1
  S  S29  1  0.500000  0.500000  0.500000  1
