# generated using pymatgen
data_Y9Mg(AlTe)4
_symmetry_space_group_name_H-M   'P 1'
_cell_length_a   8.81654930
_cell_length_b   8.81655091
_cell_length_c   7.87246200
_cell_angle_alpha   89.98507907
_cell_angle_beta   89.98507257
_cell_angle_gamma   127.00250166
_symmetry_Int_Tables_number   1
_chemical_formula_structural   Y9Mg(AlTe)4
_chemical_formula_sum   'Y9 Mg1 Al4 Te4'
_cell_volume   488.69982767
_cell_formula_units_Z   1
loop_
 _symmetry_equiv_pos_site_id
 _symmetry_equiv_pos_as_xyz
  1  'x, y, z'
loop_
 _atom_site_type_symbol
 _atom_site_label
 _atom_site_symmetry_multiplicity
 _atom_site_fract_x
 _atom_site_fract_y
 _atom_site_fract_z
 _atom_site_occupancy
  Y  Y0  1  0.500000  0.500000  0.500000  1
  Y  Y1  1  0.799345  0.542786  0.165437  1
  Y  Y2  1  0.457214  0.200655  0.834563  1
  Y  Y3  1  0.962470  0.707289  0.671529  1
  Y  Y4  1  0.292711  0.037530  0.328471  1
  Y  Y5  1  0.200655  0.457214  0.834563  1
  Y  Y6  1  0.542786  0.799345  0.165437  1
  Y  Y7  1  0.037530  0.292711  0.328471  1
  Y  Y8  1  0.707289  0.962470  0.671529  1
  Mg  Mg9  1  0.000000  0.000000  0.000000  1
  Al  Al10  1  0.872232  0.872232  0.379667  1
  Al  Al11  1  0.127768  0.127768  0.620333  1
  Al  Al12  1  0.620679  0.620679  0.874249  1
  Al  Al13  1  0.379321  0.379321  0.125751  1
  Te  Te14  1  0.207687  0.792313  0.000000  1
  Te  Te15  1  0.704939  0.295061  0.500000  1
  Te  Te16  1  0.792313  0.207687  0.000000  1
  Te  Te17  1  0.295061  0.704939  0.500000  1
