# generated using pymatgen
data_SrTmTh2(Ga3Ir)6
_symmetry_space_group_name_H-M   'P 1'
_cell_length_a   7.65692541
_cell_length_b   7.67680291
_cell_length_c   9.55496900
_cell_angle_alpha   90.00000000
_cell_angle_beta   90.00000000
_cell_angle_gamma   119.64213115
_symmetry_Int_Tables_number   1
_chemical_formula_structural   SrTmTh2(Ga3Ir)6
_chemical_formula_sum   'Sr1 Tm1 Th2 Ga18 Ir6'
_cell_volume   488.14581769
_cell_formula_units_Z   1
loop_
 _symmetry_equiv_pos_site_id
 _symmetry_equiv_pos_as_xyz
  1  'x, y, z'
loop_
 _atom_site_type_symbol
 _atom_site_label
 _atom_site_symmetry_multiplicity
 _atom_site_fract_x
 _atom_site_fract_y
 _atom_site_fract_z
 _atom_site_occupancy
  Sr  Sr0  1  0.997025  0.670199  0.750000  1
  Tm  Tm1  1  0.328674  0.002209  0.250000  1
  Th  Th2  1  0.001592  0.330328  0.250000  1
  Th  Th3  1  0.669762  0.996969  0.750000  1
  Ga  Ga4  1  0.132510  0.130319  0.750000  1
  Ga  Ga5  1  0.871367  0.869377  0.250000  1
  Ga  Ga6  1  0.006065  0.338947  0.579349  1
  Ga  Ga7  1  0.002046  0.671669  0.419197  1
  Ga  Ga8  1  0.002046  0.671669  0.080803  1
  Ga  Ga9  1  0.331581  0.001147  0.926763  1
  Ga  Ga10  1  0.006065  0.338947  0.920651  1
  Ga  Ga11  1  0.658035  0.995946  0.083619  1
  Ga  Ga12  1  0.658035  0.995946  0.416381  1
  Ga  Ga13  1  0.331581  0.001147  0.573237  1
  Ga  Ga14  1  0.335935  0.330491  0.065728  1
  Ga  Ga15  1  0.666335  0.662698  0.942357  1
  Ga  Ga16  1  0.666335  0.662698  0.557643  1
  Ga  Ga17  1  0.335935  0.330491  0.434272  1
  Ga  Ga18  1  0.341043  0.543687  0.750000  1
  Ga  Ga19  1  0.658210  0.452791  0.250000  1
  Ga  Ga20  1  0.542682  0.336452  0.750000  1
  Ga  Ga21  1  0.456879  0.662720  0.250000  1
  Ir  Ir22  1  0.671753  0.326122  0.497397  1
  Ir  Ir23  1  0.330691  0.671046  0.497245  1
  Ir  Ir24  1  0.330691  0.671046  0.002755  1
  Ir  Ir25  1  0.671753  0.326122  0.002603  1
  Ir  Ir26  1  0.997686  0.004407  0.497389  1
  Ir  Ir27  1  0.997686  0.004407  0.002611  1
