# generated using pymatgen
data_LiMn4InPd10
_symmetry_space_group_name_H-M   'P 1'
_cell_length_a   4.08057900
_cell_length_b   5.50252889
_cell_length_c   10.90186435
_cell_angle_alpha   89.37185040
_cell_angle_beta   90.00000000
_cell_angle_gamma   90.00000000
_symmetry_Int_Tables_number   1
_chemical_formula_structural   LiMn4InPd10
_chemical_formula_sum   'Li1 Mn4 In1 Pd10'
_cell_volume   244.77034253
_cell_formula_units_Z   1
loop_
 _symmetry_equiv_pos_site_id
 _symmetry_equiv_pos_as_xyz
  1  'x, y, z'
loop_
 _atom_site_type_symbol
 _atom_site_label
 _atom_site_symmetry_multiplicity
 _atom_site_fract_x
 _atom_site_fract_y
 _atom_site_fract_z
 _atom_site_occupancy
  Li  Li0  1  0.000000  0.500000  0.500000  1
  Mn  Mn1  1  0.500000  0.301553  0.858178  1
  Mn  Mn2  1  0.500000  0.800850  0.630025  1
  Mn  Mn3  1  0.500000  0.698447  0.141822  1
  Mn  Mn4  1  0.500000  0.199150  0.369975  1
  In  In5  1  0.000000  0.000000  0.000000  1
  Pd  Pd6  1  0.500000  0.699636  0.389143  1
  Pd  Pd7  1  0.500000  0.300364  0.610857  1
  Pd  Pd8  1  0.000000  0.055938  0.748847  1
  Pd  Pd9  1  0.500000  0.785628  0.878175  1
  Pd  Pd10  1  0.000000  0.445980  0.259344  1
  Pd  Pd11  1  0.000000  0.944062  0.251153  1
  Pd  Pd12  1  0.000000  0.554020  0.740656  1
  Pd  Pd13  1  0.000000  0.500000  0.000000  1
  Pd  Pd14  1  0.000000  0.000000  0.500000  1
  Pd  Pd15  1  0.500000  0.214372  0.121825  1
