# generated using pymatgen
data_Gd3Ho(RhO3)4
_symmetry_space_group_name_H-M   'P 1'
_cell_length_a   5.30950600
_cell_length_b   5.83464983
_cell_length_c   7.70616500
_cell_angle_alpha   90.00000000
_cell_angle_beta   90.00000000
_cell_angle_gamma   90.06562652
_symmetry_Int_Tables_number   1
_chemical_formula_structural   Gd3Ho(RhO3)4
_chemical_formula_sum   'Gd3 Ho1 Rh4 O12'
_cell_volume   238.72996325
_cell_formula_units_Z   1
loop_
 _symmetry_equiv_pos_site_id
 _symmetry_equiv_pos_as_xyz
  1  'x, y, z'
loop_
 _atom_site_type_symbol
 _atom_site_label
 _atom_site_symmetry_multiplicity
 _atom_site_fract_x
 _atom_site_fract_y
 _atom_site_fract_z
 _atom_site_occupancy
  Gd  Gd0  1  0.029624  0.415553  0.250000  1
  Gd  Gd1  1  0.968432  0.584173  0.750000  1
  Gd  Gd2  1  0.530931  0.083906  0.750000  1
  Ho  Ho3  1  0.468875  0.916042  0.250000  1
  Rh  Rh4  1  0.999615  0.999355  0.000398  1
  Rh  Rh5  1  0.500034  0.499461  0.000272  1
  Rh  Rh6  1  0.999615  0.999355  0.499602  1
  Rh  Rh7  1  0.500034  0.499461  0.499728  1
  O  O8  1  0.323589  0.188052  0.062701  1
  O  O9  1  0.676556  0.808590  0.939972  1
  O  O10  1  0.823083  0.308524  0.939821  1
  O  O11  1  0.676556  0.808590  0.560028  1
  O  O12  1  0.182355  0.694606  0.063961  1
  O  O13  1  0.323589  0.188052  0.437299  1
  O  O14  1  0.182355  0.694606  0.436039  1
  O  O15  1  0.823083  0.308524  0.560179  1
  O  O16  1  0.628679  0.554607  0.250000  1
  O  O17  1  0.368495  0.451078  0.750000  1
  O  O18  1  0.130920  0.951317  0.750000  1
  O  O19  1  0.863581  0.046147  0.250000  1
