# generated using pymatgen
data_Dy2Tm2B3C4
_symmetry_space_group_name_H-M   'P 1'
_cell_length_a   3.48651224
_cell_length_b   3.59272210
_cell_length_c   11.80143770
_cell_angle_alpha   92.89109068
_cell_angle_beta   96.28114925
_cell_angle_gamma   90.19359899
_symmetry_Int_Tables_number   1
_chemical_formula_structural   Dy2Tm2B3C4
_chemical_formula_sum   'Dy2 Tm2 B3 C4'
_cell_volume   146.74531822
_cell_formula_units_Z   1
loop_
 _symmetry_equiv_pos_site_id
 _symmetry_equiv_pos_as_xyz
  1  'x, y, z'
loop_
 _atom_site_type_symbol
 _atom_site_label
 _atom_site_symmetry_multiplicity
 _atom_site_fract_x
 _atom_site_fract_y
 _atom_site_fract_z
 _atom_site_occupancy
  Dy  Dy0  1  0.806575  0.024278  0.650768  1
  Dy  Dy1  1  0.193425  0.975722  0.349232  1
  Tm  Tm2  1  0.387682  0.554558  0.860755  1
  Tm  Tm3  1  0.612318  0.445442  0.139245  1
  B  B4  1  0.000000  0.000000  0.000000  1
  B  B5  1  0.266192  0.506353  0.540960  1
  B  B6  1  0.733808  0.493647  0.459040  1
  C  C7  1  0.889583  0.063737  0.878741  1
  C  C8  1  0.110417  0.936263  0.121259  1
  C  C9  1  0.313648  0.527953  0.669031  1
  C  C10  1  0.686352  0.472047  0.330969  1
