# generated using pymatgen
data_EuHoFe2(P3Rh4)2
_symmetry_space_group_name_H-M   'P 1'
_cell_length_a   3.85422500
_cell_length_b   10.77349700
_cell_length_c   12.48398200
_cell_angle_alpha   90.00000000
_cell_angle_beta   90.00000000
_cell_angle_gamma   90.00000000
_symmetry_Int_Tables_number   1
_chemical_formula_structural   EuHoFe2(P3Rh4)2
_chemical_formula_sum   'Eu2 Ho2 Fe4 P12 Rh16'
_cell_volume   518.37839531
_cell_formula_units_Z   2
loop_
 _symmetry_equiv_pos_site_id
 _symmetry_equiv_pos_as_xyz
  1  'x, y, z'
loop_
 _atom_site_type_symbol
 _atom_site_label
 _atom_site_symmetry_multiplicity
 _atom_site_fract_x
 _atom_site_fract_y
 _atom_site_fract_z
 _atom_site_occupancy
  Eu  Eu0  1  0.250000  0.582784  0.708690  1
  Eu  Eu1  1  0.250000  0.917216  0.208690  1
  Ho  Ho2  1  0.750000  0.417268  0.290871  1
  Ho  Ho3  1  0.750000  0.082732  0.790871  1
  Fe  Fe4  1  0.250000  0.460370  0.935617  1
  Fe  Fe5  1  0.250000  0.039630  0.435617  1
  Fe  Fe6  1  0.750000  0.537761  0.066614  1
  Fe  Fe7  1  0.750000  0.962239  0.566614  1
  P  P8  1  0.250000  0.429459  0.106725  1
  P  P9  1  0.250000  0.070541  0.606725  1
  P  P10  1  0.750000  0.568816  0.894743  1
  P  P11  1  0.750000  0.931184  0.394743  1
  P  P12  1  0.250000  0.271087  0.868715  1
  P  P13  1  0.250000  0.228913  0.368715  1
  P  P14  1  0.750000  0.728425  0.129395  1
  P  P15  1  0.750000  0.771575  0.629395  1
  P  P16  1  0.250000  0.601156  0.389406  1
  P  P17  1  0.250000  0.898844  0.889406  1
  P  P18  1  0.750000  0.397973  0.610829  1
  P  P19  1  0.750000  0.102027  0.110829  1
  Rh  Rh20  1  0.250000  0.715340  0.990855  1
  Rh  Rh21  1  0.250000  0.784660  0.490855  1
  Rh  Rh22  1  0.750000  0.284796  0.011358  1
  Rh  Rh23  1  0.750000  0.215204  0.511358  1
  Rh  Rh24  1  0.250000  0.406581  0.478214  1
  Rh  Rh25  1  0.250000  0.093419  0.978214  1
  Rh  Rh26  1  0.750000  0.590017  0.514662  1
  Rh  Rh27  1  0.750000  0.909983  0.014662  1
  Rh  Rh28  1  0.250000  0.231123  0.174650  1
  Rh  Rh29  1  0.250000  0.268877  0.674650  1
  Rh  Rh30  1  0.750000  0.771496  0.825858  1
  Rh  Rh31  1  0.750000  0.728504  0.325858  1
  Rh  Rh32  1  0.250000  0.884779  0.701545  1
  Rh  Rh33  1  0.250000  0.615221  0.201545  1
  Rh  Rh34  1  0.750000  0.122230  0.301253  1
  Rh  Rh35  1  0.750000  0.377770  0.801253  1
