# generated using pymatgen
data_Y2CoP4Ir5
_symmetry_space_group_name_H-M   'P 1'
_cell_length_a   11.06871084
_cell_length_b   3.91118800
_cell_length_c   12.75060031
_cell_angle_alpha   90.00000000
_cell_angle_beta   89.80034791
_cell_angle_gamma   90.00000000
_symmetry_Int_Tables_number   1
_chemical_formula_structural   Y2CoP4Ir5
_chemical_formula_sum   'Y6 Co3 P12 Ir15'
_cell_volume   551.99320202
_cell_formula_units_Z   3
loop_
 _symmetry_equiv_pos_site_id
 _symmetry_equiv_pos_as_xyz
  1  'x, y, z'
loop_
 _atom_site_type_symbol
 _atom_site_label
 _atom_site_symmetry_multiplicity
 _atom_site_fract_x
 _atom_site_fract_y
 _atom_site_fract_z
 _atom_site_occupancy
  Y  Y0  1  0.063524  0.750001  0.199122  1
  Y  Y1  1  0.432156  0.750001  0.200318  1
  Y  Y2  1  0.250302  0.750001  0.477796  1
  Y  Y3  1  0.750025  0.250000  0.522240  1
  Y  Y4  1  0.568672  0.250000  0.800002  1
  Y  Y5  1  0.932084  0.250000  0.800155  1
  Co  Co6  1  0.246388  0.750001  0.017742  1
  Co  Co7  1  0.753236  0.250000  0.980897  1
  Co  Co8  1  0.910945  0.750001  0.994819  1
  P  P9  1  0.599841  0.250000  0.102938  1
  P  P10  1  0.897071  0.250000  0.100173  1
  P  P11  1  0.247310  0.250000  0.117959  1
  P  P12  1  0.750051  0.750001  0.355229  1
  P  P13  1  0.066388  0.250000  0.380813  1
  P  P14  1  0.434971  0.250000  0.379981  1
  P  P15  1  0.566370  0.750001  0.619815  1
  P  P16  1  0.934367  0.750001  0.619969  1
  P  P17  1  0.249564  0.250000  0.644294  1
  P  P18  1  0.757754  0.750001  0.884532  1
  P  P19  1  0.091276  0.750001  0.898821  1
  P  P20  1  0.398759  0.750001  0.896346  1
  Ir  Ir21  1  0.081765  0.250000  0.004213  1
  Ir  Ir22  1  0.410581  0.250000  0.003091  1
  Ir  Ir23  1  0.761124  0.750001  0.172925  1
  Ir  Ir24  1  0.624112  0.250000  0.283091  1
  Ir  Ir25  1  0.881572  0.250000  0.286064  1
  Ir  Ir26  1  0.250335  0.250000  0.296388  1
  Ir  Ir27  1  0.544091  0.750001  0.428634  1
  Ir  Ir28  1  0.955699  0.750001  0.430125  1
  Ir  Ir29  1  0.044056  0.250000  0.571183  1
  Ir  Ir30  1  0.456567  0.250000  0.570672  1
  Ir  Ir31  1  0.750146  0.750001  0.704376  1
  Ir  Ir32  1  0.120010  0.750001  0.716476  1
  Ir  Ir33  1  0.378779  0.750001  0.715047  1
  Ir  Ir34  1  0.249184  0.250000  0.825569  1
  Ir  Ir35  1  0.590926  0.750001  0.998183  1
