# generated using pymatgen
data_Sc2BIrPt5
_symmetry_space_group_name_H-M   'P 1'
_cell_length_a   5.80436565
_cell_length_b   5.79833518
_cell_length_c   5.79833514
_cell_angle_alpha   60.06880889
_cell_angle_beta   59.96559294
_cell_angle_gamma   59.96559017
_symmetry_Int_Tables_number   1
_chemical_formula_structural   Sc2BIrPt5
_chemical_formula_sum   'Sc2 B1 Ir1 Pt5'
_cell_volume   137.98930554
_cell_formula_units_Z   1
loop_
 _symmetry_equiv_pos_site_id
 _symmetry_equiv_pos_as_xyz
  1  'x, y, z'
loop_
 _atom_site_type_symbol
 _atom_site_label
 _atom_site_symmetry_multiplicity
 _atom_site_fract_x
 _atom_site_fract_y
 _atom_site_fract_z
 _atom_site_occupancy
  Sc  Sc0  1  0.249438  0.250562  0.250562  1
  Sc  Sc1  1  0.749438  0.750562  0.750562  1
  B  B2  1  0.003878  0.996122  0.996122  1
  Ir  Ir3  1  0.255942  0.744058  0.744058  1
  Pt  Pt4  1  0.744080  0.255921  0.255921  1
  Pt  Pt5  1  0.257184  0.742817  0.258571  1
  Pt  Pt6  1  0.741428  0.742815  0.258572  1
  Pt  Pt7  1  0.257184  0.258571  0.742817  1
  Pt  Pt8  1  0.741428  0.258572  0.742815  1
