# generated using pymatgen
data_Os(RhSe6)2
_symmetry_space_group_name_H-M   'P 1'
_cell_length_a   7.48690585
_cell_length_b   7.00994968
_cell_length_c   7.76391435
_cell_angle_alpha   104.93328292
_cell_angle_beta   95.08542386
_cell_angle_gamma   90.10661930
_symmetry_Int_Tables_number   1
_chemical_formula_structural   Os(RhSe6)2
_chemical_formula_sum   'Os1 Rh2 Se12'
_cell_volume   392.03149203
_cell_formula_units_Z   1
loop_
 _symmetry_equiv_pos_site_id
 _symmetry_equiv_pos_as_xyz
  1  'x, y, z'
loop_
 _atom_site_type_symbol
 _atom_site_label
 _atom_site_symmetry_multiplicity
 _atom_site_fract_x
 _atom_site_fract_y
 _atom_site_fract_z
 _atom_site_occupancy
  Os  Os0  1  0.000000  0.000000  0.000000  1
  Rh  Rh1  1  0.028122  0.589798  0.303071  1
  Rh  Rh2  1  0.971879  0.410202  0.696929  1
  Se  Se3  1  0.261308  0.527754  0.098332  1
  Se  Se4  1  0.826180  0.294830  0.137222  1
  Se  Se5  1  0.824876  0.787811  0.144474  1
  Se  Se6  1  0.236022  0.076403  0.252541  1
  Se  Se7  1  0.202939  0.394792  0.479985  1
  Se  Se8  1  0.236938  0.867687  0.457314  1
  Se  Se9  1  0.763063  0.132313  0.542687  1
  Se  Se10  1  0.797061  0.605207  0.520015  1
  Se  Se11  1  0.763978  0.923597  0.747460  1
  Se  Se12  1  0.175124  0.212189  0.855526  1
  Se  Se13  1  0.173819  0.705170  0.862778  1
  Se  Se14  1  0.738692  0.472246  0.901669  1
