# generated using pymatgen
data_Hf2AlRe2W
_symmetry_space_group_name_H-M   'P 1'
_cell_length_a   5.28231257
_cell_length_b   5.29294490
_cell_length_c   8.65270500
_cell_angle_alpha   90.00000000
_cell_angle_beta   90.00000000
_cell_angle_gamma   120.06659329
_symmetry_Int_Tables_number   1
_chemical_formula_structural   Hf2AlRe2W
_chemical_formula_sum   'Hf4 Al2 Re4 W2'
_cell_volume   209.36890337
_cell_formula_units_Z   2
loop_
 _symmetry_equiv_pos_site_id
 _symmetry_equiv_pos_as_xyz
  1  'x, y, z'
loop_
 _atom_site_type_symbol
 _atom_site_label
 _atom_site_symmetry_multiplicity
 _atom_site_fract_x
 _atom_site_fract_y
 _atom_site_fract_z
 _atom_site_occupancy
  Hf  Hf0  1  0.333625  0.667702  0.434664  1
  Hf  Hf1  1  0.666375  0.334076  0.934664  1
  Hf  Hf2  1  0.666375  0.334076  0.565336  1
  Hf  Hf3  1  0.333625  0.667702  0.065336  1
  Al  Al4  1  0.000000  0.997512  0.000000  1
  Al  Al5  1  0.000000  0.997512  0.500000  1
  Re  Re6  1  0.339603  0.169508  0.250000  1
  Re  Re7  1  0.660397  0.829907  0.750000  1
  Re  Re8  1  0.829757  0.659726  0.250000  1
  Re  Re9  1  0.170243  0.829971  0.750000  1
  W  W10  1  0.170973  0.341643  0.750000  1
  W  W11  1  0.829027  0.170667  0.250000  1
