# generated using pymatgen
data_PrTi2(GaPd)2
_symmetry_space_group_name_H-M   'P 1'
_cell_length_a   5.61476914
_cell_length_b   5.61476830
_cell_length_c   5.61477078
_cell_angle_alpha   100.76703570
_cell_angle_beta   102.57602595
_cell_angle_gamma   126.54464133
_symmetry_Int_Tables_number   1
_chemical_formula_structural   PrTi2(GaPd)2
_chemical_formula_sum   'Pr1 Ti2 Ga2 Pd2'
_cell_volume   126.98979285
_cell_formula_units_Z   1
loop_
 _symmetry_equiv_pos_site_id
 _symmetry_equiv_pos_as_xyz
  1  'x, y, z'
loop_
 _atom_site_type_symbol
 _atom_site_label
 _atom_site_symmetry_multiplicity
 _atom_site_fract_x
 _atom_site_fract_y
 _atom_site_fract_z
 _atom_site_occupancy
  Pr  Pr0  1  0.001320  0.000000  0.001320  1
  Ti  Ti1  1  0.248980  0.749864  0.499117  1
  Ti  Ti2  1  0.749253  0.250136  0.499117  1
  Ga  Ga3  1  0.306936  0.300471  0.607404  1
  Ga  Ga4  1  0.306936  0.699529  0.006465  1
  Pd  Pd5  1  0.693289  0.299573  0.992861  1
  Pd  Pd6  1  0.693289  0.700427  0.393717  1
