# generated using pymatgen
data_Pa5Tc9(P6Ir5)2
_symmetry_space_group_name_H-M   'P 1'
_cell_length_a   12.70756100
_cell_length_b   12.70756069
_cell_length_c   3.98778100
_cell_angle_alpha   90.00000000
_cell_angle_beta   90.00000000
_cell_angle_gamma   120.00000341
_symmetry_Int_Tables_number   1
_chemical_formula_structural   Pa5Tc9(P6Ir5)2
_chemical_formula_sum   'Pa5 Tc9 P12 Ir10'
_cell_volume   557.68159553
_cell_formula_units_Z   1
loop_
 _symmetry_equiv_pos_site_id
 _symmetry_equiv_pos_as_xyz
  1  'x, y, z'
loop_
 _atom_site_type_symbol
 _atom_site_label
 _atom_site_symmetry_multiplicity
 _atom_site_fract_x
 _atom_site_fract_y
 _atom_site_fract_z
 _atom_site_occupancy
  Pa  Pa0  1  0.666667  0.333333  0.000000  1
  Pa  Pa1  1  0.333333  0.666667  0.000000  1
  Pa  Pa2  1  0.809350  0.809350  0.500000  1
  Pa  Pa3  1  0.190650  0.000000  0.500000  1
  Pa  Pa4  1  0.000000  0.190650  0.500000  1
  Tc  Tc5  1  0.806257  0.183162  0.000000  1
  Tc  Tc6  1  0.816838  0.623094  0.000000  1
  Tc  Tc7  1  0.376906  0.193743  0.000000  1
  Tc  Tc8  1  0.183162  0.806257  0.000000  1
  Tc  Tc9  1  0.623094  0.816838  0.000000  1
  Tc  Tc10  1  0.193743  0.376906  0.000000  1
  Tc  Tc11  1  0.448976  0.448976  0.000000  1
  Tc  Tc12  1  0.551024  0.000000  0.000000  1
  Tc  Tc13  1  0.000000  0.551024  0.000000  1
  P  P14  1  0.694621  0.171151  0.500000  1
  P  P15  1  0.828849  0.523470  0.500000  1
  P  P16  1  0.476530  0.305379  0.500000  1
  P  P17  1  0.171151  0.694621  0.500000  1
  P  P18  1  0.523470  0.828849  0.500000  1
  P  P19  1  0.305379  0.476530  0.500000  1
  P  P20  1  0.632490  0.632490  0.000000  1
  P  P21  1  0.367510  0.000000  0.000000  1
  P  P22  1  0.000000  0.367510  0.000000  1
  P  P23  1  0.181736  0.181736  0.000000  1
  P  P24  1  0.818264  0.000000  0.000000  1
  P  P25  1  0.000000  0.818264  0.000000  1
  Ir  Ir26  1  0.282320  0.282320  0.500000  1
  Ir  Ir27  1  0.717680  0.000000  0.500000  1
  Ir  Ir28  1  0.000000  0.717680  0.500000  1
  Ir  Ir29  1  0.869437  0.367055  0.500000  1
  Ir  Ir30  1  0.632945  0.502383  0.500000  1
  Ir  Ir31  1  0.497617  0.130563  0.500000  1
  Ir  Ir32  1  0.367055  0.869437  0.500000  1
  Ir  Ir33  1  0.502383  0.632945  0.500000  1
  Ir  Ir34  1  0.130563  0.497617  0.500000  1
  Ir  Ir35  1  0.000000  0.000000  0.000000  1
