# generated using pymatgen
data_SmHo15(CdRh)4
_symmetry_space_group_name_H-M   'P 1'
_cell_length_a   9.60153732
_cell_length_b   9.60153706
_cell_length_c   9.61299800
_cell_angle_alpha   59.96050630
_cell_angle_beta   59.96050718
_cell_angle_gamma   59.85954340
_symmetry_Int_Tables_number   1
_chemical_formula_structural   SmHo15(CdRh)4
_chemical_formula_sum   'Sm1 Ho15 Cd4 Rh4'
_cell_volume   625.60946335
_cell_formula_units_Z   1
loop_
 _symmetry_equiv_pos_site_id
 _symmetry_equiv_pos_as_xyz
  1  'x, y, z'
loop_
 _atom_site_type_symbol
 _atom_site_label
 _atom_site_symmetry_multiplicity
 _atom_site_fract_x
 _atom_site_fract_y
 _atom_site_fract_z
 _atom_site_occupancy
  Sm  Sm0  1  0.935192  0.935192  0.564808  1
  Ho  Ho1  1  0.563612  0.563612  0.936388  1
  Ho  Ho2  1  0.688853  0.688853  0.311147  1
  Ho  Ho3  1  0.149979  0.548788  0.150616  1
  Ho  Ho4  1  0.688904  0.312787  0.688196  1
  Ho  Ho5  1  0.150947  0.150947  0.151417  1
  Ho  Ho6  1  0.548788  0.149979  0.150616  1
  Ho  Ho7  1  0.688904  0.312787  0.310113  1
  Ho  Ho8  1  0.150947  0.150947  0.546689  1
  Ho  Ho9  1  0.312787  0.688904  0.310113  1
  Ho  Ho10  1  0.312787  0.688904  0.688196  1
  Ho  Ho11  1  0.936414  0.561556  0.564380  1
  Ho  Ho12  1  0.936414  0.561556  0.937649  1
  Ho  Ho13  1  0.561556  0.936414  0.564380  1
  Ho  Ho14  1  0.561556  0.936414  0.937649  1
  Ho  Ho15  1  0.311143  0.311143  0.688857  1
  Cd  Cd16  1  0.919265  0.919265  0.242080  1
  Cd  Cd17  1  0.243468  0.919067  0.918733  1
  Cd  Cd18  1  0.919265  0.919265  0.919389  1
  Cd  Cd19  1  0.919067  0.243468  0.918733  1
  Rh  Rh20  1  0.357029  0.357029  0.927841  1
  Rh  Rh21  1  0.358397  0.927698  0.356952  1
  Rh  Rh22  1  0.927698  0.358397  0.356952  1
  Rh  Rh23  1  0.357029  0.357029  0.358101  1
