# generated using pymatgen
data_TlCo2Ag2Bi(IrO7)2
_symmetry_space_group_name_H-M   'P 1'
_cell_length_a   7.11663956
_cell_length_b   7.01367183
_cell_length_c   7.11664000
_cell_angle_alpha   60.47748286
_cell_angle_beta   61.70991972
_cell_angle_gamma   60.47747916
_symmetry_Int_Tables_number   1
_chemical_formula_structural   TlCo2Ag2Bi(IrO7)2
_chemical_formula_sum   'Tl1 Co2 Ag2 Bi1 Ir2 O14'
_cell_volume   256.12924682
_cell_formula_units_Z   1
loop_
 _symmetry_equiv_pos_site_id
 _symmetry_equiv_pos_as_xyz
  1  'x, y, z'
loop_
 _atom_site_type_symbol
 _atom_site_label
 _atom_site_symmetry_multiplicity
 _atom_site_fract_x
 _atom_site_fract_y
 _atom_site_fract_z
 _atom_site_occupancy
  Tl  Tl0  1  0.625000  0.125000  0.125000  1
  Co  Co1  1  0.625000  0.125000  0.625000  1
  Co  Co2  1  0.625000  0.625000  0.625000  1
  Ag  Ag3  1  0.125000  0.625000  0.125000  1
  Ag  Ag4  1  0.125000  0.125000  0.125000  1
  Bi  Bi5  1  0.125000  0.125000  0.625000  1
  Ir  Ir6  1  0.125000  0.625000  0.625000  1
  Ir  Ir7  1  0.625000  0.625000  0.125000  1
  O  O8  1  0.693526  0.702186  0.306796  1
  O  O9  1  0.303662  0.295168  0.693742  1
  O  O10  1  0.705461  0.297336  0.699867  1
  O  O11  1  0.303984  0.695711  0.304594  1
  O  O12  1  0.303662  0.707427  0.693742  1
  O  O13  1  0.693526  0.297491  0.306796  1
  O  O14  1  0.556474  0.547814  0.943204  1
  O  O15  1  0.946338  0.954832  0.556258  1
  O  O16  1  0.544539  0.952664  0.550133  1
  O  O17  1  0.946016  0.554289  0.945406  1
  O  O18  1  0.946338  0.542573  0.556258  1
  O  O19  1  0.556474  0.952509  0.943204  1
  O  O20  1  0.237013  0.260369  0.242250  1
  O  O21  1  0.012987  0.989631  0.007750  1
