# generated using pymatgen
data_Yb5Si2Pb
_symmetry_space_group_name_H-M   'P 1'
_cell_length_a   7.74305760
_cell_length_b   7.74305817
_cell_length_c   9.34257040
_cell_angle_alpha   114.48132213
_cell_angle_beta   114.48132713
_cell_angle_gamma   90.00000114
_symmetry_Int_Tables_number   1
_chemical_formula_structural   Yb5Si2Pb
_chemical_formula_sum   'Yb10 Si4 Pb2'
_cell_volume   453.86383868
_cell_formula_units_Z   2
loop_
 _symmetry_equiv_pos_site_id
 _symmetry_equiv_pos_as_xyz
  1  'x, y, z'
loop_
 _atom_site_type_symbol
 _atom_site_label
 _atom_site_symmetry_multiplicity
 _atom_site_fract_x
 _atom_site_fract_y
 _atom_site_fract_z
 _atom_site_occupancy
  Yb  Yb0  1  0.500000  0.500000  0.000000  1
  Yb  Yb1  1  0.000000  0.000000  0.000000  1
  Yb  Yb2  1  0.957758  0.812312  0.270071  1
  Yb  Yb3  1  0.312312  0.457758  0.270071  1
  Yb  Yb4  1  0.812312  0.312312  0.270071  1
  Yb  Yb5  1  0.457758  0.957758  0.270071  1
  Yb  Yb6  1  0.042242  0.187688  0.729929  1
  Yb  Yb7  1  0.687688  0.542242  0.729929  1
  Yb  Yb8  1  0.187688  0.687688  0.729929  1
  Yb  Yb9  1  0.542242  0.042242  0.729929  1
  Si  Si10  1  0.613151  0.886849  0.000000  1
  Si  Si11  1  0.386849  0.113151  0.000000  1
  Si  Si12  1  0.886849  0.386849  0.000000  1
  Si  Si13  1  0.113151  0.613151  0.000000  1
  Pb  Pb14  1  0.750000  0.750000  0.500000  1
  Pb  Pb15  1  0.250000  0.250000  0.500000  1
