# generated using pymatgen
data_Hf2Zr2Co3Si4Ru
_symmetry_space_group_name_H-M   'P 1'
_cell_length_a   3.89999700
_cell_length_b   6.45782702
_cell_length_c   7.16078373
_cell_angle_alpha   89.77878090
_cell_angle_beta   90.00000000
_cell_angle_gamma   90.00000000
_symmetry_Int_Tables_number   1
_chemical_formula_structural   Hf2Zr2Co3Si4Ru
_chemical_formula_sum   'Hf2 Zr2 Co3 Si4 Ru1'
_cell_volume   180.34661748
_cell_formula_units_Z   1
loop_
 _symmetry_equiv_pos_site_id
 _symmetry_equiv_pos_as_xyz
  1  'x, y, z'
loop_
 _atom_site_type_symbol
 _atom_site_label
 _atom_site_symmetry_multiplicity
 _atom_site_fract_x
 _atom_site_fract_y
 _atom_site_fract_z
 _atom_site_occupancy
  Hf  Hf0  1  0.250000  0.508045  0.199616  1
  Hf  Hf1  1  0.750000  0.492340  0.801180  1
  Zr  Zr2  1  0.250000  0.005557  0.314426  1
  Zr  Zr3  1  0.750000  0.992178  0.684589  1
  Co  Co4  1  0.250000  0.644118  0.567731  1
  Co  Co5  1  0.750000  0.845222  0.064648  1
  Co  Co6  1  0.750000  0.357416  0.429166  1
  Si  Si7  1  0.250000  0.287442  0.602641  1
  Si  Si8  1  0.250000  0.779040  0.892801  1
  Si  Si9  1  0.750000  0.717742  0.391534  1
  Si  Si10  1  0.750000  0.216329  0.117415  1
  Ru  Ru11  1  0.250000  0.154573  0.934253  1
