# generated using pymatgen
data_TbPr12NdPt6
_symmetry_space_group_name_H-M   'P 1'
_cell_length_a   6.51095200
_cell_length_b   10.26235996
_cell_length_c   10.26239304
_cell_angle_alpha   119.99936228
_cell_angle_beta   89.99888727
_cell_angle_gamma   90.00110425
_symmetry_Int_Tables_number   1
_chemical_formula_structural   TbPr12NdPt6
_chemical_formula_sum   'Tb1 Pr12 Nd1 Pt6'
_cell_volume   593.84595634
_cell_formula_units_Z   1
loop_
 _symmetry_equiv_pos_site_id
 _symmetry_equiv_pos_as_xyz
  1  'x, y, z'
loop_
 _atom_site_type_symbol
 _atom_site_label
 _atom_site_symmetry_multiplicity
 _atom_site_fract_x
 _atom_site_fract_y
 _atom_site_fract_z
 _atom_site_occupancy
  Tb  Tb0  1  0.465889  0.333366  0.666632  1
  Pr  Pr1  1  0.245606  0.128496  0.871500  1
  Pr  Pr2  1  0.245622  0.743144  0.871586  1
  Pr  Pr3  1  0.245622  0.128415  0.256857  1
  Pr  Pr4  1  0.744118  0.872236  0.127764  1
  Pr  Pr5  1  0.744117  0.255371  0.127669  1
  Pr  Pr6  1  0.744118  0.872331  0.744628  1
  Pr  Pr7  1  0.442812  0.537364  0.462636  1
  Pr  Pr8  1  0.442778  0.925298  0.462680  1
  Pr  Pr9  1  0.442776  0.537321  0.074703  1
  Pr  Pr10  1  0.943855  0.461765  0.538234  1
  Pr  Pr11  1  0.943771  0.076491  0.538213  1
  Pr  Pr12  1  0.943771  0.461787  0.923509  1
  Nd  Nd13  1  0.958168  0.666625  0.333375  1
  Pt  Pt14  1  0.190549  0.811195  0.188806  1
  Pt  Pt15  1  0.190499  0.377530  0.188794  1
  Pt  Pt16  1  0.190501  0.811205  0.622470  1
  Pt  Pt17  1  0.687159  0.190659  0.809342  1
  Pt  Pt18  1  0.687133  0.618757  0.809357  1
  Pt  Pt19  1  0.687133  0.190644  0.381244  1
