# generated using pymatgen
data_CrRu2Cl13
_symmetry_space_group_name_H-M   'P 1'
_cell_length_a   11.51699600
_cell_length_b   9.79683517
_cell_length_c   10.33930805
_cell_angle_alpha   81.83456116
_cell_angle_beta   90.00000000
_cell_angle_gamma   90.00000000
_symmetry_Int_Tables_number   1
_chemical_formula_structural   CrRu2Cl13
_chemical_formula_sum   'Cr2 Ru4 Cl26'
_cell_volume   1154.75853773
_cell_formula_units_Z   2
loop_
 _symmetry_equiv_pos_site_id
 _symmetry_equiv_pos_as_xyz
  1  'x, y, z'
loop_
 _atom_site_type_symbol
 _atom_site_label
 _atom_site_symmetry_multiplicity
 _atom_site_fract_x
 _atom_site_fract_y
 _atom_site_fract_z
 _atom_site_occupancy
  Cr  Cr0  1  0.250000  0.260240  0.506314  1
  Cr  Cr1  1  0.750000  0.739760  0.493686  1
  Ru  Ru2  1  0.250000  0.834343  0.097825  1
  Ru  Ru3  1  0.750000  0.165657  0.902175  1
  Ru  Ru4  1  0.250000  0.677864  0.861272  1
  Ru  Ru5  1  0.750000  0.322136  0.138728  1
  Cl  Cl6  1  0.600315  0.814275  0.578669  1
  Cl  Cl7  1  0.100315  0.185725  0.421331  1
  Cl  Cl8  1  0.750000  0.413359  0.907377  1
  Cl  Cl9  1  0.250000  0.586641  0.092623  1
  Cl  Cl10  1  0.892333  0.159216  0.076890  1
  Cl  Cl11  1  0.392333  0.840784  0.923110  1
  Cl  Cl12  1  0.107667  0.840784  0.923110  1
  Cl  Cl13  1  0.607667  0.159216  0.076890  1
  Cl  Cl14  1  0.750000  0.213151  0.346627  1
  Cl  Cl15  1  0.250000  0.786849  0.653373  1
  Cl  Cl16  1  0.893425  0.468799  0.175052  1
  Cl  Cl17  1  0.393425  0.531201  0.824948  1
  Cl  Cl18  1  0.106575  0.531201  0.824948  1
  Cl  Cl19  1  0.606575  0.468799  0.175052  1
  Cl  Cl20  1  0.750000  0.932943  0.922574  1
  Cl  Cl21  1  0.250000  0.067057  0.077426  1
  Cl  Cl22  1  0.892961  0.188894  0.751271  1
  Cl  Cl23  1  0.392961  0.811106  0.248729  1
  Cl  Cl24  1  0.107039  0.811106  0.248729  1
  Cl  Cl25  1  0.607039  0.188894  0.751271  1
  Cl  Cl26  1  0.750000  0.808753  0.290653  1
  Cl  Cl27  1  0.250000  0.191247  0.709347  1
  Cl  Cl28  1  0.750000  0.522093  0.527499  1
  Cl  Cl29  1  0.250000  0.477907  0.472501  1
  Cl  Cl30  1  0.899685  0.814275  0.578669  1
  Cl  Cl31  1  0.399685  0.185725  0.421331  1
