# generated using pymatgen
data_Cs6ErUBr12
_symmetry_space_group_name_H-M   'P 1'
_cell_length_a   10.05156465
_cell_length_b   10.07417553
_cell_length_c   8.38532500
_cell_angle_alpha   90.00000000
_cell_angle_beta   90.00000000
_cell_angle_gamma   89.85927174
_symmetry_Int_Tables_number   1
_chemical_formula_structural   Cs6ErUBr12
_chemical_formula_sum   'Cs6 Er1 U1 Br12'
_cell_volume   849.10573374
_cell_formula_units_Z   1
loop_
 _symmetry_equiv_pos_site_id
 _symmetry_equiv_pos_as_xyz
  1  'x, y, z'
loop_
 _atom_site_type_symbol
 _atom_site_label
 _atom_site_symmetry_multiplicity
 _atom_site_fract_x
 _atom_site_fract_y
 _atom_site_fract_z
 _atom_site_occupancy
  Cs  Cs0  1  0.000000  0.000000  0.500000  1
  Cs  Cs1  1  0.000000  0.000000  0.000000  1
  Cs  Cs2  1  0.233025  0.582627  0.500000  1
  Cs  Cs3  1  0.766975  0.417373  0.500000  1
  Cs  Cs4  1  0.415900  0.237909  0.000000  1
  Cs  Cs5  1  0.584100  0.762091  0.000000  1
  Er  Er6  1  0.000000  0.500000  0.000000  1
  U  U7  1  0.500000  0.000000  0.500000  1
  Br  Br8  1  0.697478  0.058647  0.746292  1
  Br  Br9  1  0.302522  0.941353  0.746292  1
  Br  Br10  1  0.943687  0.689154  0.236723  1
  Br  Br11  1  0.056313  0.310846  0.236723  1
  Br  Br12  1  0.302522  0.941353  0.253708  1
  Br  Br13  1  0.697478  0.058647  0.253708  1
  Br  Br14  1  0.056313  0.310846  0.763277  1
  Br  Br15  1  0.943687  0.689154  0.763277  1
  Br  Br16  1  0.571396  0.720817  0.500000  1
  Br  Br17  1  0.428604  0.279183  0.500000  1
  Br  Br18  1  0.268143  0.569171  0.000000  1
  Br  Br19  1  0.731857  0.430829  0.000000  1
