# generated using pymatgen
data_La6Nd14Si15P
_symmetry_space_group_name_H-M   'P 1'
_cell_length_a   7.90339971
_cell_length_b   7.91316288
_cell_length_c   15.28438798
_cell_angle_alpha   90.04656524
_cell_angle_beta   89.89264611
_cell_angle_gamma   90.20400672
_symmetry_Int_Tables_number   1
_chemical_formula_structural   La6Nd14Si15P
_chemical_formula_sum   'La6 Nd14 Si15 P1'
_cell_volume   955.89116788
_cell_formula_units_Z   1
loop_
 _symmetry_equiv_pos_site_id
 _symmetry_equiv_pos_as_xyz
  1  'x, y, z'
loop_
 _atom_site_type_symbol
 _atom_site_label
 _atom_site_symmetry_multiplicity
 _atom_site_fract_x
 _atom_site_fract_y
 _atom_site_fract_z
 _atom_site_occupancy
  La  La0  1  0.623864  0.986356  0.948023  1
  La  La1  1  0.122789  0.514188  0.801614  1
  La  La2  1  0.877376  0.488133  0.303369  1
  La  La3  1  0.513026  0.122480  0.197913  1
  La  La4  1  0.486011  0.877257  0.697298  1
  La  La5  1  0.375247  0.012860  0.448345  1
  Nd  Nd6  1  0.369631  0.481477  0.375384  1
  Nd  Nd7  1  0.876389  0.013612  0.378371  1
  Nd  Nd8  1  0.981754  0.126402  0.123433  1
  Nd  Nd9  1  0.020163  0.872774  0.621561  1
  Nd  Nd10  1  0.627807  0.519799  0.873417  1
  Nd  Nd11  1  0.479795  0.371696  0.624874  1
  Nd  Nd12  1  0.518337  0.628402  0.126374  1
  Nd  Nd13  1  0.126502  0.981531  0.876092  1
  Nd  Nd14  1  0.989463  0.619710  0.053493  1
  Nd  Nd15  1  0.011753  0.382476  0.553125  1
  Nd  Nd16  1  0.689692  0.692252  0.500195  1
  Nd  Nd17  1  0.809237  0.192367  0.749801  1
  Nd  Nd18  1  0.190723  0.808297  0.251403  1
  Nd  Nd19  1  0.310305  0.308592  0.000058  1
  Si  Si20  1  0.921417  0.288824  0.939560  1
  Si  Si21  1  0.717198  0.081008  0.560104  1
  Si  Si22  1  0.213184  0.422368  0.189534  1
  Si  Si23  1  0.787459  0.577237  0.688479  1
  Si  Si24  1  0.420145  0.213995  0.809916  1
  Si  Si25  1  0.578379  0.785758  0.310847  1
  Si  Si26  1  0.284199  0.919635  0.060975  1
  Si  Si27  1  0.831131  0.806012  0.794652  1
  Si  Si28  1  0.168192  0.193983  0.296547  1
  Si  Si29  1  0.806253  0.830545  0.202379  1
  Si  Si30  1  0.307122  0.667558  0.547619  1
  Si  Si31  1  0.696887  0.333989  0.047573  1
  Si  Si32  1  0.671896  0.305983  0.452646  1
  Si  Si33  1  0.328569  0.693594  0.953912  1
  Si  Si34  1  0.192803  0.169427  0.701725  1
  P  P35  1  0.075301  0.709421  0.439394  1
