# generated using pymatgen
data_HoGaCo2NiB
_symmetry_space_group_name_H-M   'P 1'
_cell_length_a   5.12583176
_cell_length_b   5.12583136
_cell_length_c   6.66867500
_cell_angle_alpha   90.00000000
_cell_angle_beta   90.00000000
_cell_angle_gamma   119.27795190
_symmetry_Int_Tables_number   1
_chemical_formula_structural   HoGaCo2NiB
_chemical_formula_sum   'Ho2 Ga2 Co4 Ni2 B2'
_cell_volume   152.83152262
_cell_formula_units_Z   2
loop_
 _symmetry_equiv_pos_site_id
 _symmetry_equiv_pos_as_xyz
  1  'x, y, z'
loop_
 _atom_site_type_symbol
 _atom_site_label
 _atom_site_symmetry_multiplicity
 _atom_site_fract_x
 _atom_site_fract_y
 _atom_site_fract_z
 _atom_site_occupancy
  Ho  Ho0  1  0.000000  0.000000  0.500000  1
  Ho  Ho1  1  0.000000  0.000000  0.000000  1
  Ga  Ga2  1  0.669234  0.330766  0.500000  1
  Ga  Ga3  1  0.330766  0.669234  0.500000  1
  Co  Co4  1  0.500000  0.000000  0.795523  1
  Co  Co5  1  0.000000  0.500000  0.795523  1
  Co  Co6  1  0.500000  0.000000  0.204477  1
  Co  Co7  1  0.000000  0.500000  0.204477  1
  Ni  Ni8  1  0.500000  0.500000  0.794790  1
  Ni  Ni9  1  0.500000  0.500000  0.205210  1
  B  B10  1  0.673085  0.326915  0.000000  1
  B  B11  1  0.326915  0.673085  0.000000  1
