# generated using pymatgen
data_NdSmGa(SiRh2)3
_symmetry_space_group_name_H-M   'P 1'
_cell_length_a   6.70538776
_cell_length_b   6.71139029
_cell_length_c   6.70538696
_cell_angle_alpha   130.22954142
_cell_angle_beta   114.27716773
_cell_angle_gamma   86.70199676
_symmetry_Int_Tables_number   1
_chemical_formula_structural   NdSmGa(SiRh2)3
_chemical_formula_sum   'Nd1 Sm1 Ga1 Si3 Rh6'
_cell_volume   200.40842240
_cell_formula_units_Z   1
loop_
 _symmetry_equiv_pos_site_id
 _symmetry_equiv_pos_as_xyz
  1  'x, y, z'
loop_
 _atom_site_type_symbol
 _atom_site_label
 _atom_site_symmetry_multiplicity
 _atom_site_fract_x
 _atom_site_fract_y
 _atom_site_fract_z
 _atom_site_occupancy
  Nd  Nd0  1  0.251352  0.971278  0.719925  1
  Sm  Sm1  1  0.750096  0.045177  0.295081  1
  Ga  Ga2  1  0.591604  0.388412  0.796808  1
  Si  Si3  1  0.434127  0.635028  0.200900  1
  Si  Si4  1  0.070506  0.271700  0.201195  1
  Si  Si5  1  0.904780  0.697033  0.792252  1
  Rh  Rh6  1  0.213004  0.504006  0.717075  1
  Rh  Rh7  1  0.726183  0.995604  0.727702  1
  Rh  Rh8  1  0.786930  0.504006  0.291003  1
  Rh  Rh9  1  0.267903  0.995604  0.269421  1
  Rh  Rh10  1  0.475413  0.496076  0.467976  1
  Rh  Rh11  1  0.028100  0.496076  0.020663  1
