# generated using pymatgen
data_U2Co12SiP6
_symmetry_space_group_name_H-M   'P 1'
_cell_length_a   9.03521100
_cell_length_b   9.03521066
_cell_length_c   3.59003800
_cell_angle_alpha   90.00000000
_cell_angle_beta   90.00000000
_cell_angle_gamma   120.00000587
_symmetry_Int_Tables_number   1
_chemical_formula_structural   U2Co12SiP6
_chemical_formula_sum   'U2 Co12 Si1 P6'
_cell_volume   253.80854159
_cell_formula_units_Z   1
loop_
 _symmetry_equiv_pos_site_id
 _symmetry_equiv_pos_as_xyz
  1  'x, y, z'
loop_
 _atom_site_type_symbol
 _atom_site_label
 _atom_site_symmetry_multiplicity
 _atom_site_fract_x
 _atom_site_fract_y
 _atom_site_fract_z
 _atom_site_occupancy
  U  U0  1  0.000000  0.000000  0.000000  1
  U  U1  1  0.333333  0.666667  0.500000  1
  Co  Co2  1  0.107226  0.397707  0.000000  1
  Co  Co3  1  0.602293  0.709519  0.000000  1
  Co  Co4  1  0.290481  0.892774  0.000000  1
  Co  Co5  1  0.050045  0.770355  0.500000  1
  Co  Co6  1  0.229645  0.279690  0.500000  1
  Co  Co7  1  0.720310  0.949955  0.500000  1
  Co  Co8  1  0.823350  0.615682  0.000000  1
  Co  Co9  1  0.384318  0.207668  0.000000  1
  Co  Co10  1  0.792332  0.176650  0.000000  1
  Co  Co11  1  0.899189  0.437068  0.500000  1
  Co  Co12  1  0.562932  0.462121  0.500000  1
  Co  Co13  1  0.537879  0.100811  0.500000  1
  Si  Si14  1  0.666667  0.333333  0.000000  1
  P  P15  1  0.775179  0.733342  0.500000  1
  P  P16  1  0.266658  0.041836  0.500000  1
  P  P17  1  0.958164  0.224821  0.500000  1
  P  P18  1  0.067004  0.622618  0.000000  1
  P  P19  1  0.377382  0.444384  0.000000  1
  P  P20  1  0.555616  0.932996  0.000000  1
