# generated using pymatgen
data_Tb6Tl7Hg
_symmetry_space_group_name_H-M   'P 1'
_cell_length_a   8.50337311
_cell_length_b   8.50337180
_cell_length_c   8.50337300
_cell_angle_alpha   113.85169498
_cell_angle_beta   113.85169845
_cell_angle_gamma   113.85170736
_symmetry_Int_Tables_number   1
_chemical_formula_structural   Tb6Tl7Hg
_chemical_formula_sum   'Tb6 Tl7 Hg1'
_cell_volume   377.62940831
_cell_formula_units_Z   1
loop_
 _symmetry_equiv_pos_site_id
 _symmetry_equiv_pos_as_xyz
  1  'x, y, z'
loop_
 _atom_site_type_symbol
 _atom_site_label
 _atom_site_symmetry_multiplicity
 _atom_site_fract_x
 _atom_site_fract_y
 _atom_site_fract_z
 _atom_site_occupancy
  Tb  Tb0  1  0.005797  0.268812  0.392791  1
  Tb  Tb1  1  0.268812  0.392791  0.005797  1
  Tb  Tb2  1  0.392791  0.005797  0.268812  1
  Tb  Tb3  1  0.994203  0.731188  0.607209  1
  Tb  Tb4  1  0.731188  0.607209  0.994203  1
  Tb  Tb5  1  0.607209  0.994203  0.731188  1
  Tl  Tl6  1  0.000000  0.000000  0.000000  1
  Tl  Tl7  1  0.092639  0.560524  0.247627  1
  Tl  Tl8  1  0.560524  0.247627  0.092639  1
  Tl  Tl9  1  0.247627  0.092639  0.560524  1
  Tl  Tl10  1  0.907361  0.439476  0.752373  1
  Tl  Tl11  1  0.439476  0.752373  0.907361  1
  Tl  Tl12  1  0.752373  0.907361  0.439476  1
  Hg  Hg13  1  0.500000  0.500000  0.500000  1
