# generated using pymatgen
data_Li4La3SmRh4
_symmetry_space_group_name_H-M   'P 1'
_cell_length_a   4.02418000
_cell_length_b   7.14497361
_cell_length_c   8.70225191
_cell_angle_alpha   90.24506480
_cell_angle_beta   90.00000000
_cell_angle_gamma   90.00000000
_symmetry_Int_Tables_number   1
_chemical_formula_structural   Li4La3SmRh4
_chemical_formula_sum   'Li4 La3 Sm1 Rh4'
_cell_volume   250.21060090
_cell_formula_units_Z   1
loop_
 _symmetry_equiv_pos_site_id
 _symmetry_equiv_pos_as_xyz
  1  'x, y, z'
loop_
 _atom_site_type_symbol
 _atom_site_label
 _atom_site_symmetry_multiplicity
 _atom_site_fract_x
 _atom_site_fract_y
 _atom_site_fract_z
 _atom_site_occupancy
  Li  Li0  1  0.750000  0.375064  0.048124  1
  Li  Li1  1  0.250000  0.621107  0.945979  1
  Li  Li2  1  0.750000  0.874203  0.449739  1
  Li  Li3  1  0.250000  0.132202  0.551504  1
  La  La4  1  0.250000  0.041492  0.180370  1
  La  La5  1  0.750000  0.955983  0.816089  1
  La  La6  1  0.250000  0.542604  0.322476  1
  Sm  Sm7  1  0.750000  0.454691  0.680517  1
  Rh  Rh8  1  0.250000  0.740175  0.635164  1
  Rh  Rh9  1  0.750000  0.262837  0.369907  1
  Rh  Rh10  1  0.250000  0.238340  0.866133  1
  Rh  Rh11  1  0.750000  0.761303  0.133997  1
