# generated using pymatgen
data_TbPr3(InRh)4
_symmetry_space_group_name_H-M   'P 1'
_cell_length_a   4.41741400
_cell_length_b   7.24106065
_cell_length_c   8.53897119
_cell_angle_alpha   89.47158013
_cell_angle_beta   90.00000000
_cell_angle_gamma   90.00000000
_symmetry_Int_Tables_number   1
_chemical_formula_structural   TbPr3(InRh)4
_chemical_formula_sum   'Tb1 Pr3 In4 Rh4'
_cell_volume   273.12242910
_cell_formula_units_Z   1
loop_
 _symmetry_equiv_pos_site_id
 _symmetry_equiv_pos_as_xyz
  1  'x, y, z'
loop_
 _atom_site_type_symbol
 _atom_site_label
 _atom_site_symmetry_multiplicity
 _atom_site_fract_x
 _atom_site_fract_y
 _atom_site_fract_z
 _atom_site_occupancy
  Tb  Tb0  1  0.750000  0.461400  0.678988  1
  Pr  Pr1  1  0.250000  0.037025  0.178737  1
  Pr  Pr2  1  0.750000  0.963155  0.820235  1
  Pr  Pr3  1  0.250000  0.536082  0.322563  1
  In  In4  1  0.750000  0.358879  0.060139  1
  In  In5  1  0.250000  0.639687  0.936029  1
  In  In6  1  0.750000  0.856741  0.439752  1
  In  In7  1  0.250000  0.144308  0.563800  1
  Rh  Rh8  1  0.250000  0.746096  0.622652  1
  Rh  Rh9  1  0.750000  0.249608  0.381370  1
  Rh  Rh10  1  0.250000  0.259520  0.872045  1
  Rh  Rh11  1  0.750000  0.747497  0.123690  1
