# generated using pymatgen
data_Pr4Al15(SiIr2)3
_symmetry_space_group_name_H-M   'P 1'
_cell_length_a   7.60896071
_cell_length_b   7.58860910
_cell_length_c   9.53791282
_cell_angle_alpha   89.94950379
_cell_angle_beta   89.90557278
_cell_angle_gamma   119.76897757
_symmetry_Int_Tables_number   1
_chemical_formula_structural   Pr4Al15(SiIr2)3
_chemical_formula_sum   'Pr4 Al15 Si3 Ir6'
_cell_volume   478.05337849
_cell_formula_units_Z   1
loop_
 _symmetry_equiv_pos_site_id
 _symmetry_equiv_pos_as_xyz
  1  'x, y, z'
loop_
 _atom_site_type_symbol
 _atom_site_label
 _atom_site_symmetry_multiplicity
 _atom_site_fract_x
 _atom_site_fract_y
 _atom_site_fract_z
 _atom_site_occupancy
  Pr  Pr0  1  0.993631  0.669365  0.245567  1
  Pr  Pr1  1  0.004451  0.334159  0.754123  1
  Pr  Pr2  1  0.677080  0.998059  0.248129  1
  Pr  Pr3  1  0.327042  0.000225  0.751947  1
  Al  Al4  1  0.870244  0.871234  0.749620  1
  Al  Al5  1  0.997113  0.665910  0.566584  1
  Al  Al6  1  0.336818  0.001551  0.427602  1
  Al  Al7  1  0.002584  0.335942  0.431389  1
  Al  Al8  1  0.665501  0.998223  0.571576  1
  Al  Al9  1  0.661613  0.993643  0.925101  1
  Al  Al10  1  0.340348  0.006547  0.075622  1
  Al  Al11  1  0.334503  0.333759  0.552835  1
  Al  Al12  1  0.663201  0.664061  0.450209  1
  Al  Al13  1  0.659942  0.663354  0.051293  1
  Al  Al14  1  0.337421  0.334716  0.945186  1
  Al  Al15  1  0.334990  0.545211  0.250150  1
  Al  Al16  1  0.660531  0.453677  0.749797  1
  Al  Al17  1  0.545665  0.337801  0.250987  1
  Al  Al18  1  0.454592  0.659574  0.749392  1
  Si  Si19  1  0.135494  0.130524  0.251320  1
  Si  Si20  1  0.003666  0.332178  0.073522  1
  Si  Si21  1  0.995476  0.670670  0.927467  1
  Ir  Ir22  1  0.685437  0.336631  0.001544  1
  Ir  Ir23  1  0.311827  0.661360  0.999602  1
  Ir  Ir24  1  0.327455  0.668853  0.499504  1
  Ir  Ir25  1  0.670562  0.329079  0.499532  1
  Ir  Ir26  1  0.001551  0.002646  0.006768  1
  Ir  Ir27  1  0.001262  0.001048  0.493631  1
