# generated using pymatgen
data_Dy4HgRh
_symmetry_space_group_name_H-M   'P 1'
_cell_length_a   9.60400275
_cell_length_b   9.60400361
_cell_length_c   9.60400300
_cell_angle_alpha   59.99999865
_cell_angle_beta   59.99999570
_cell_angle_gamma   59.99999809
_symmetry_Int_Tables_number   1
_chemical_formula_structural   Dy4HgRh
_chemical_formula_sum   'Dy16 Hg4 Rh4'
_cell_volume   626.38572912
_cell_formula_units_Z   4
loop_
 _symmetry_equiv_pos_site_id
 _symmetry_equiv_pos_as_xyz
  1  'x, y, z'
loop_
 _atom_site_type_symbol
 _atom_site_label
 _atom_site_symmetry_multiplicity
 _atom_site_fract_x
 _atom_site_fract_y
 _atom_site_fract_z
 _atom_site_occupancy
  Dy  Dy0  1  0.689844  0.310156  0.310156  1
  Dy  Dy1  1  0.689844  0.689844  0.310156  1
  Dy  Dy2  1  0.310156  0.689844  0.310156  1
  Dy  Dy3  1  0.936820  0.936820  0.563180  1
  Dy  Dy4  1  0.148919  0.148919  0.553243  1
  Dy  Dy5  1  0.563180  0.936820  0.563180  1
  Dy  Dy6  1  0.148919  0.148919  0.148919  1
  Dy  Dy7  1  0.310156  0.310156  0.689844  1
  Dy  Dy8  1  0.936820  0.563180  0.563180  1
  Dy  Dy9  1  0.563180  0.563180  0.936820  1
  Dy  Dy10  1  0.563180  0.936820  0.936820  1
  Dy  Dy11  1  0.936820  0.563180  0.936820  1
  Dy  Dy12  1  0.148919  0.553243  0.148919  1
  Dy  Dy13  1  0.310156  0.689844  0.689844  1
  Dy  Dy14  1  0.689844  0.310156  0.689844  1
  Dy  Dy15  1  0.553243  0.148919  0.148919  1
  Hg  Hg16  1  0.914776  0.914776  0.255671  1
  Hg  Hg17  1  0.255671  0.914776  0.914776  1
  Hg  Hg18  1  0.914776  0.255671  0.914776  1
  Hg  Hg19  1  0.914776  0.914776  0.914776  1
  Rh  Rh20  1  0.357555  0.357555  0.357555  1
  Rh  Rh21  1  0.927337  0.357555  0.357555  1
  Rh  Rh22  1  0.357555  0.357555  0.927337  1
  Rh  Rh23  1  0.357555  0.927337  0.357555  1
