# generated using pymatgen
data_Er8CrRe3C8
_symmetry_space_group_name_H-M   'P 1'
_cell_length_a   5.04627600
_cell_length_b   6.51182961
_cell_length_c   9.74303497
_cell_angle_alpha   89.86332325
_cell_angle_beta   90.00000000
_cell_angle_gamma   90.00000000
_symmetry_Int_Tables_number   1
_chemical_formula_structural   Er8CrRe3C8
_chemical_formula_sum   'Er8 Cr1 Re3 C8'
_cell_volume   320.15998695
_cell_formula_units_Z   1
loop_
 _symmetry_equiv_pos_site_id
 _symmetry_equiv_pos_as_xyz
  1  'x, y, z'
loop_
 _atom_site_type_symbol
 _atom_site_label
 _atom_site_symmetry_multiplicity
 _atom_site_fract_x
 _atom_site_fract_y
 _atom_site_fract_z
 _atom_site_occupancy
  Er  Er0  1  0.750000  0.533230  0.782055  1
  Er  Er1  1  0.250000  0.964985  0.283423  1
  Er  Er2  1  0.750000  0.679030  0.444368  1
  Er  Er3  1  0.250000  0.825166  0.943519  1
  Er  Er4  1  0.750000  0.181253  0.054488  1
  Er  Er5  1  0.250000  0.318183  0.559367  1
  Er  Er6  1  0.250000  0.464998  0.215957  1
  Er  Er7  1  0.750000  0.032742  0.717539  1
  Cr  Cr8  1  0.250000  0.278345  0.865277  1
  Re  Re9  1  0.250000  0.779514  0.634921  1
  Re  Re10  1  0.750000  0.217818  0.368507  1
  Re  Re11  1  0.750000  0.718805  0.132171  1
  C  C12  1  0.250000  0.675955  0.449120  1
  C  C13  1  0.250000  0.543032  0.762894  1
  C  C14  1  0.750000  0.450541  0.240862  1
  C  C15  1  0.750000  0.824552  0.947202  1
  C  C16  1  0.250000  0.052515  0.743606  1
  C  C17  1  0.250000  0.182942  0.042028  1
  C  C18  1  0.750000  0.324509  0.553851  1
  C  C19  1  0.750000  0.951884  0.258844  1
