# generated using pymatgen
data_Ca3DyRu3RhO14
_symmetry_space_group_name_H-M   'P 1'
_cell_length_a   7.23472957
_cell_length_b   7.26606224
_cell_length_c   7.23473012
_cell_angle_alpha   60.49496820
_cell_angle_beta   60.45365990
_cell_angle_gamma   60.49496260
_symmetry_Int_Tables_number   1
_chemical_formula_structural   Ca3DyRu3RhO14
_chemical_formula_sum   'Ca3 Dy1 Ru3 Rh1 O14'
_cell_volume   271.84830725
_cell_formula_units_Z   1
loop_
 _symmetry_equiv_pos_site_id
 _symmetry_equiv_pos_as_xyz
  1  'x, y, z'
loop_
 _atom_site_type_symbol
 _atom_site_label
 _atom_site_symmetry_multiplicity
 _atom_site_fract_x
 _atom_site_fract_y
 _atom_site_fract_z
 _atom_site_occupancy
  Ca  Ca0  1  0.625000  0.625000  0.125000  1
  Ca  Ca1  1  0.125000  0.625000  0.625000  1
  Ca  Ca2  1  0.625000  0.625000  0.625000  1
  Dy  Dy3  1  0.625000  0.125000  0.625000  1
  Ru  Ru4  1  0.625000  0.125000  0.125000  1
  Ru  Ru5  1  0.125000  0.625000  0.125000  1
  Ru  Ru6  1  0.125000  0.125000  0.625000  1
  Rh  Rh7  1  0.125000  0.125000  0.125000  1
  O  O8  1  0.208783  0.197911  0.793748  1
  O  O9  1  0.199115  0.798290  0.199115  1
  O  O10  1  0.456252  0.052089  0.041217  1
  O  O11  1  0.195898  0.808617  0.806816  1
  O  O12  1  0.054102  0.441383  0.443184  1
  O  O13  1  0.806816  0.808617  0.195898  1
  O  O14  1  0.443184  0.441383  0.054102  1
  O  O15  1  0.503771  0.489872  0.503771  1
  O  O16  1  0.041217  0.052089  0.456252  1
  O  O17  1  0.445925  0.053144  0.445925  1
  O  O18  1  0.050885  0.451710  0.050885  1
  O  O19  1  0.746229  0.760128  0.746229  1
  O  O20  1  0.804075  0.196856  0.804075  1
  O  O21  1  0.793748  0.197911  0.208783  1
