# generated using pymatgen
data_ThSb12OsRu3
_symmetry_space_group_name_H-M   'P 1'
_cell_length_a   8.12364077
_cell_length_b   8.12364138
_cell_length_c   8.12364104
_cell_angle_alpha   109.49702704
_cell_angle_beta   109.49703370
_cell_angle_gamma   109.49702076
_symmetry_Int_Tables_number   1
_chemical_formula_structural   ThSb12OsRu3
_chemical_formula_sum   'Th1 Sb12 Os1 Ru3'
_cell_volume   412.30124012
_cell_formula_units_Z   1
loop_
 _symmetry_equiv_pos_site_id
 _symmetry_equiv_pos_as_xyz
  1  'x, y, z'
loop_
 _atom_site_type_symbol
 _atom_site_label
 _atom_site_symmetry_multiplicity
 _atom_site_fract_x
 _atom_site_fract_y
 _atom_site_fract_z
 _atom_site_occupancy
  Th  Th0  1  0.000000  0.000000  0.000000  1
  Sb  Sb1  1  0.337932  0.180204  0.842466  1
  Sb  Sb2  1  0.662068  0.819796  0.157534  1
  Sb  Sb3  1  0.662575  0.504433  0.843464  1
  Sb  Sb4  1  0.337425  0.495567  0.156536  1
  Sb  Sb5  1  0.180204  0.842466  0.337932  1
  Sb  Sb6  1  0.819796  0.157534  0.662068  1
  Sb  Sb7  1  0.504433  0.843464  0.662575  1
  Sb  Sb8  1  0.495567  0.156536  0.337425  1
  Sb  Sb9  1  0.842466  0.337932  0.180204  1
  Sb  Sb10  1  0.157534  0.662068  0.819796  1
  Sb  Sb11  1  0.843464  0.662575  0.504433  1
  Sb  Sb12  1  0.156536  0.337425  0.495567  1
  Os  Os13  1  0.500000  0.500000  0.500000  1
  Ru  Ru14  1  0.000000  0.000000  0.500000  1
  Ru  Ru15  1  0.500000  0.000000  0.000000  1
  Ru  Ru16  1  0.000000  0.500000  0.000000  1
