# generated using pymatgen
data_Pr9Dy(Ir2Ru)2
_symmetry_space_group_name_H-M   'P 1'
_cell_length_a   11.25354500
_cell_length_b   11.25354500
_cell_length_c   6.64624200
_cell_angle_alpha   90.00000000
_cell_angle_beta   90.00000000
_cell_angle_gamma   90.00000000
_symmetry_Int_Tables_number   1
_chemical_formula_structural   Pr9Dy(Ir2Ru)2
_chemical_formula_sum   'Pr18 Dy2 Ir8 Ru4'
_cell_volume   841.69520753
_cell_formula_units_Z   2
loop_
 _symmetry_equiv_pos_site_id
 _symmetry_equiv_pos_as_xyz
  1  'x, y, z'
loop_
 _atom_site_type_symbol
 _atom_site_label
 _atom_site_symmetry_multiplicity
 _atom_site_fract_x
 _atom_site_fract_y
 _atom_site_fract_z
 _atom_site_occupancy
  Pr  Pr0  1  0.289812  0.087434  0.381863  1
  Pr  Pr1  1  0.289812  0.912566  0.881863  1
  Pr  Pr2  1  0.710188  0.087434  0.881863  1
  Pr  Pr3  1  0.710188  0.912566  0.381863  1
  Pr  Pr4  1  0.587608  0.794422  0.882804  1
  Pr  Pr5  1  0.587608  0.205578  0.382804  1
  Pr  Pr6  1  0.412392  0.794422  0.382804  1
  Pr  Pr7  1  0.412392  0.205578  0.882804  1
  Pr  Pr8  1  0.205578  0.412392  0.617196  1
  Pr  Pr9  1  0.205578  0.587608  0.117196  1
  Pr  Pr10  1  0.794422  0.412392  0.117196  1
  Pr  Pr11  1  0.794422  0.587608  0.617196  1
  Pr  Pr12  1  0.912566  0.710188  0.118137  1
  Pr  Pr13  1  0.912566  0.289812  0.618137  1
  Pr  Pr14  1  0.087434  0.710188  0.618137  1
  Pr  Pr15  1  0.087434  0.289812  0.118137  1
  Pr  Pr16  1  0.500000  0.500000  0.000000  1
  Pr  Pr17  1  0.500000  0.500000  0.500000  1
  Dy  Dy18  1  0.000000  0.000000  0.500000  1
  Dy  Dy19  1  0.000000  0.000000  0.000000  1
  Ir  Ir20  1  0.853837  0.146163  0.250000  1
  Ir  Ir21  1  0.853837  0.853837  0.750000  1
  Ir  Ir22  1  0.146163  0.146163  0.750000  1
  Ir  Ir23  1  0.146163  0.853837  0.250000  1
  Ir  Ir24  1  0.652892  0.347108  0.750000  1
  Ir  Ir25  1  0.652892  0.652892  0.250000  1
  Ir  Ir26  1  0.347108  0.347108  0.250000  1
  Ir  Ir27  1  0.347108  0.652892  0.750000  1
  Ru  Ru28  1  0.500000  0.000000  0.117670  1
  Ru  Ru29  1  0.500000  0.000000  0.617670  1
  Ru  Ru30  1  0.000000  0.500000  0.882330  1
  Ru  Ru31  1  0.000000  0.500000  0.382330  1
