# generated using pymatgen
data_Ba2LiPbI
_symmetry_space_group_name_H-M   'P 1'
_cell_length_a   4.88592000
_cell_length_b   4.88592150
_cell_length_c   18.96192200
_cell_angle_alpha   90.00000000
_cell_angle_beta   90.00000000
_cell_angle_gamma   120.00000336
_symmetry_Int_Tables_number   1
_chemical_formula_structural   Ba2LiPbI
_chemical_formula_sum   'Ba4 Li2 Pb2 I2'
_cell_volume   392.01782061
_cell_formula_units_Z   2
loop_
 _symmetry_equiv_pos_site_id
 _symmetry_equiv_pos_as_xyz
  1  'x, y, z'
loop_
 _atom_site_type_symbol
 _atom_site_label
 _atom_site_symmetry_multiplicity
 _atom_site_fract_x
 _atom_site_fract_y
 _atom_site_fract_z
 _atom_site_occupancy
  Ba  Ba0  1  0.000000  0.000000  0.383666  1
  Ba  Ba1  1  0.000000  0.000000  0.883666  1
  Ba  Ba2  1  0.000000  0.000000  0.615564  1
  Ba  Ba3  1  0.000000  0.000000  0.115564  1
  Li  Li4  1  0.333333  0.666667  0.500052  1
  Li  Li5  1  0.666667  0.333333  0.000052  1
  Pb  Pb6  1  0.666667  0.333333  0.499498  1
  Pb  Pb7  1  0.333333  0.666667  0.999498  1
  I  I8  1  0.333333  0.666667  0.251221  1
  I  I9  1  0.666667  0.333333  0.751221  1
