# generated using pymatgen
data_EuNi(P4Os)3
_symmetry_space_group_name_H-M   'P 1'
_cell_length_a   7.01961632
_cell_length_b   7.01961646
_cell_length_c   7.01961708
_cell_angle_alpha   109.38681126
_cell_angle_beta   109.38679917
_cell_angle_gamma   109.38680860
_symmetry_Int_Tables_number   1
_chemical_formula_structural   EuNi(P4Os)3
_chemical_formula_sum   'Eu1 Ni1 P12 Os3'
_cell_volume   267.09651894
_cell_formula_units_Z   1
loop_
 _symmetry_equiv_pos_site_id
 _symmetry_equiv_pos_as_xyz
  1  'x, y, z'
loop_
 _atom_site_type_symbol
 _atom_site_label
 _atom_site_symmetry_multiplicity
 _atom_site_fract_x
 _atom_site_fract_y
 _atom_site_fract_z
 _atom_site_occupancy
  Eu  Eu0  1  0.000000  0.000000  0.000000  1
  Ni  Ni1  1  0.500000  0.500000  0.500000  1
  P  P2  1  0.355543  0.213173  0.856486  1
  P  P3  1  0.644457  0.786827  0.143514  1
  P  P4  1  0.643738  0.501355  0.855068  1
  P  P5  1  0.356262  0.498645  0.144932  1
  P  P6  1  0.213173  0.856486  0.355543  1
  P  P7  1  0.786827  0.143514  0.644457  1
  P  P8  1  0.501355  0.855068  0.643738  1
  P  P9  1  0.498645  0.144932  0.356262  1
  P  P10  1  0.856486  0.355543  0.213173  1
  P  P11  1  0.143514  0.644457  0.786827  1
  P  P12  1  0.855068  0.643738  0.501355  1
  P  P13  1  0.144932  0.356262  0.498645  1
  Os  Os14  1  0.000000  0.000000  0.500000  1
  Os  Os15  1  0.500000  0.000000  0.000000  1
  Os  Os16  1  0.000000  0.500000  0.000000  1
