# generated using pymatgen
data_Tb16MgIn3(RuRh)2
_symmetry_space_group_name_H-M   'P 1'
_cell_length_a   9.71047554
_cell_length_b   9.73305639
_cell_length_c   9.71047453
_cell_angle_alpha   59.76177173
_cell_angle_beta   59.60789218
_cell_angle_gamma   59.76176896
_symmetry_Int_Tables_number   1
_chemical_formula_structural   Tb16MgIn3(RuRh)2
_chemical_formula_sum   'Tb16 Mg1 In3 Ru2 Rh2'
_cell_volume   644.68522516
_cell_formula_units_Z   1
loop_
 _symmetry_equiv_pos_site_id
 _symmetry_equiv_pos_as_xyz
  1  'x, y, z'
loop_
 _atom_site_type_symbol
 _atom_site_label
 _atom_site_symmetry_multiplicity
 _atom_site_fract_x
 _atom_site_fract_y
 _atom_site_fract_z
 _atom_site_occupancy
  Tb  Tb0  1  0.808860  0.807784  0.190227  1
  Tb  Tb1  1  0.808615  0.191855  0.808615  1
  Tb  Tb2  1  0.187512  0.191238  0.812519  1
  Tb  Tb3  1  0.651712  0.044544  0.651712  1
  Tb  Tb4  1  0.060418  0.059856  0.441772  1
  Tb  Tb5  1  0.440810  0.435886  0.062162  1
  Tb  Tb6  1  0.651171  0.649790  0.651171  1
  Tb  Tb7  1  0.812519  0.191238  0.187512  1
  Tb  Tb8  1  0.190227  0.807784  0.808860  1
  Tb  Tb9  1  0.041945  0.652096  0.653547  1
  Tb  Tb10  1  0.441772  0.059856  0.060418  1
  Tb  Tb11  1  0.436900  0.062548  0.436900  1
  Tb  Tb12  1  0.059184  0.440389  0.059184  1
  Tb  Tb13  1  0.653547  0.652096  0.041945  1
  Tb  Tb14  1  0.189956  0.811093  0.189956  1
  Tb  Tb15  1  0.062162  0.435886  0.440810  1
  Mg  Mg16  1  0.423920  0.423449  0.423920  1
  In  In17  1  0.418096  0.417933  0.747568  1
  In  In18  1  0.418778  0.746460  0.418778  1
  In  In19  1  0.747568  0.417933  0.418096  1
  Ru  Ru20  1  0.856842  0.421898  0.856842  1
  Ru  Ru21  1  0.858000  0.861388  0.858000  1
  Rh  Rh22  1  0.857201  0.858501  0.422283  1
  Rh  Rh23  1  0.422283  0.858501  0.857201  1
