# generated using pymatgen
data_Th2B6(Ir2Rh)3
_symmetry_space_group_name_H-M   'P 1'
_cell_length_a   5.65535359
_cell_length_b   5.66741162
_cell_length_c   8.72264000
_cell_angle_alpha   90.00000000
_cell_angle_beta   90.00000000
_cell_angle_gamma   120.17340425
_symmetry_Int_Tables_number   1
_chemical_formula_structural   Th2B6(Ir2Rh)3
_chemical_formula_sum   'Th2 B6 Ir6 Rh3'
_cell_volume   241.69161684
_cell_formula_units_Z   1
loop_
 _symmetry_equiv_pos_site_id
 _symmetry_equiv_pos_as_xyz
  1  'x, y, z'
loop_
 _atom_site_type_symbol
 _atom_site_label
 _atom_site_symmetry_multiplicity
 _atom_site_fract_x
 _atom_site_fract_y
 _atom_site_fract_z
 _atom_site_occupancy
  Th  Th0  1  0.000000  0.000000  0.704375  1
  Th  Th1  1  0.000000  0.000000  0.295296  1
  B  B2  1  0.665377  0.333092  0.000270  1
  B  B3  1  0.334623  0.666908  0.000270  1
  B  B4  1  0.664855  0.333485  0.668538  1
  B  B5  1  0.335145  0.666515  0.668538  1
  B  B6  1  0.334446  0.666125  0.331095  1
  B  B7  1  0.665554  0.333875  0.331095  1
  Ir  Ir8  1  0.500000  0.000000  0.838385  1
  Ir  Ir9  1  0.000000  0.500000  0.838780  1
  Ir  Ir10  1  0.000000  0.500000  0.162346  1
  Ir  Ir11  1  0.500000  0.500000  0.499183  1
  Ir  Ir12  1  0.500000  0.000000  0.498869  1
  Ir  Ir13  1  0.000000  0.500000  0.499664  1
  Rh  Rh14  1  0.500000  0.500000  0.839876  1
  Rh  Rh15  1  0.500000  0.500000  0.162136  1
  Rh  Rh16  1  0.500000  0.000000  0.161286  1
