# generated using pymatgen
data_LiDyHo(Co3P2)3
_symmetry_space_group_name_H-M   'P 1'
_cell_length_a   3.66931500
_cell_length_b   10.24860000
_cell_length_c   11.82227500
_cell_angle_alpha   90.00000000
_cell_angle_beta   90.00000000
_cell_angle_gamma   90.00000000
_symmetry_Int_Tables_number   1
_chemical_formula_structural   LiDyHo(Co3P2)3
_chemical_formula_sum   'Li2 Dy2 Ho2 Co18 P12'
_cell_volume   444.58069115
_cell_formula_units_Z   2
loop_
 _symmetry_equiv_pos_site_id
 _symmetry_equiv_pos_as_xyz
  1  'x, y, z'
loop_
 _atom_site_type_symbol
 _atom_site_label
 _atom_site_symmetry_multiplicity
 _atom_site_fract_x
 _atom_site_fract_y
 _atom_site_fract_z
 _atom_site_occupancy
  Li  Li0  1  0.250000  0.702544  0.990706  1
  Li  Li1  1  0.250000  0.797456  0.490706  1
  Dy  Dy2  1  0.750000  0.419908  0.297768  1
  Dy  Dy3  1  0.750000  0.080092  0.797768  1
  Ho  Ho4  1  0.250000  0.579587  0.702008  1
  Ho  Ho5  1  0.250000  0.920413  0.202008  1
  Co  Co6  1  0.750000  0.288592  0.008743  1
  Co  Co7  1  0.750000  0.211408  0.508743  1
  Co  Co8  1  0.250000  0.404173  0.487255  1
  Co  Co9  1  0.250000  0.095827  0.987255  1
  Co  Co10  1  0.750000  0.590994  0.514766  1
  Co  Co11  1  0.750000  0.909006  0.014766  1
  Co  Co12  1  0.250000  0.224024  0.174893  1
  Co  Co13  1  0.250000  0.275976  0.674893  1
  Co  Co14  1  0.750000  0.780184  0.826166  1
  Co  Co15  1  0.750000  0.719816  0.326166  1
  Co  Co16  1  0.250000  0.880817  0.698681  1
  Co  Co17  1  0.250000  0.619183  0.198681  1
  Co  Co18  1  0.750000  0.120511  0.299532  1
  Co  Co19  1  0.750000  0.379489  0.799532  1
  Co  Co20  1  0.250000  0.464000  0.931420  1
  Co  Co21  1  0.250000  0.036000  0.431420  1
  Co  Co22  1  0.750000  0.533085  0.066321  1
  Co  Co23  1  0.750000  0.966915  0.566321  1
  P  P24  1  0.250000  0.422207  0.111841  1
  P  P25  1  0.250000  0.077793  0.611841  1
  P  P26  1  0.750000  0.577223  0.883979  1
  P  P27  1  0.750000  0.922777  0.383979  1
  P  P28  1  0.250000  0.268341  0.867027  1
  P  P29  1  0.250000  0.231659  0.367027  1
  P  P30  1  0.750000  0.729817  0.138104  1
  P  P31  1  0.750000  0.770183  0.638104  1
  P  P32  1  0.250000  0.601358  0.393314  1
  P  P33  1  0.250000  0.898642  0.893314  1
  P  P34  1  0.750000  0.395889  0.607475  1
  P  P35  1  0.750000  0.104111  0.107475  1
