# generated using pymatgen
data_Sc6TiAl12Mo3Os7
_symmetry_space_group_name_H-M   'P 1'
_cell_length_a   8.80568228
_cell_length_b   8.80568288
_cell_length_c   8.80568340
_cell_angle_alpha   59.95213958
_cell_angle_beta   59.95213720
_cell_angle_gamma   59.95213584
_symmetry_Int_Tables_number   1
_chemical_formula_structural   Sc6TiAl12Mo3Os7
_chemical_formula_sum   'Sc6 Ti1 Al12 Mo3 Os7'
_cell_volume   482.28354444
_cell_formula_units_Z   1
loop_
 _symmetry_equiv_pos_site_id
 _symmetry_equiv_pos_as_xyz
  1  'x, y, z'
loop_
 _atom_site_type_symbol
 _atom_site_label
 _atom_site_symmetry_multiplicity
 _atom_site_fract_x
 _atom_site_fract_y
 _atom_site_fract_z
 _atom_site_occupancy
  Sc  Sc0  1  0.708803  0.708803  0.289191  1
  Sc  Sc1  1  0.290489  0.709089  0.290489  1
  Sc  Sc2  1  0.709089  0.290489  0.290489  1
  Sc  Sc3  1  0.290489  0.290489  0.709089  1
  Sc  Sc4  1  0.708803  0.289191  0.708803  1
  Sc  Sc5  1  0.289191  0.708803  0.708803  1
  Ti  Ti6  1  0.880374  0.880374  0.880374  1
  Al  Al7  1  0.119540  0.119540  0.637973  1
  Al  Al8  1  0.119540  0.637973  0.119540  1
  Al  Al9  1  0.637973  0.119540  0.119540  1
  Al  Al10  1  0.121718  0.121718  0.121718  1
  Al  Al11  1  0.663350  0.663350  0.013089  1
  Al  Al12  1  0.663350  0.013089  0.663350  1
  Al  Al13  1  0.013089  0.663350  0.663350  1
  Al  Al14  1  0.659338  0.659338  0.659338  1
  Al  Al15  1  0.335546  0.335546  0.995431  1
  Al  Al16  1  0.335546  0.995431  0.335546  1
  Al  Al17  1  0.995431  0.335546  0.335546  1
  Al  Al18  1  0.335347  0.335347  0.335347  1
  Mo  Mo19  1  0.878261  0.878261  0.362717  1
  Mo  Mo20  1  0.878261  0.362717  0.878261  1
  Mo  Mo21  1  0.362717  0.878261  0.878261  1
  Os  Os22  1  0.002944  0.002944  0.002944  1
  Os  Os23  1  0.998179  0.998179  0.500068  1
  Os  Os24  1  0.503426  0.997532  0.503426  1
  Os  Os25  1  0.997532  0.503426  0.503426  1
  Os  Os26  1  0.503426  0.503426  0.997532  1
  Os  Os27  1  0.998179  0.500068  0.998179  1
  Os  Os28  1  0.500068  0.998179  0.998179  1
