# generated using pymatgen
data_CaLuAg2(NO3)8
_symmetry_space_group_name_H-M   'P 1'
_cell_length_a   8.19987849
_cell_length_b   8.00397605
_cell_length_c   7.83710898
_cell_angle_alpha   90.50958827
_cell_angle_beta   88.71824698
_cell_angle_gamma   90.02359702
_symmetry_Int_Tables_number   1
_chemical_formula_structural   CaLuAg2(NO3)8
_chemical_formula_sum   'Ca1 Lu1 Ag2 N8 O24'
_cell_volume   514.21319325
_cell_formula_units_Z   1
loop_
 _symmetry_equiv_pos_site_id
 _symmetry_equiv_pos_as_xyz
  1  'x, y, z'
loop_
 _atom_site_type_symbol
 _atom_site_label
 _atom_site_symmetry_multiplicity
 _atom_site_fract_x
 _atom_site_fract_y
 _atom_site_fract_z
 _atom_site_occupancy
  Ca  Ca0  1  0.000000  0.000000  0.000000  1
  Lu  Lu1  1  0.000000  0.500000  0.500000  1
  Ag  Ag2  1  0.500000  0.500000  0.000000  1
  Ag  Ag3  1  0.500000  0.000000  0.500000  1
  N  N4  1  0.324552  0.345463  0.328011  1
  N  N5  1  0.337802  0.166094  0.831612  1
  N  N6  1  0.162007  0.819943  0.339016  1
  N  N7  1  0.848428  0.325916  0.179295  1
  N  N8  1  0.675448  0.654537  0.671989  1
  N  N9  1  0.151572  0.674084  0.820705  1
  N  N10  1  0.837993  0.180057  0.660984  1
  N  N11  1  0.662198  0.833906  0.168388  1
  O  O12  1  0.755411  0.300739  0.058654  1
  O  O13  1  0.175364  0.941506  0.239805  1
  O  O14  1  0.259159  0.794930  0.456474  1
  O  O15  1  0.233102  0.183119  0.950987  1
  O  O16  1  0.218292  0.330907  0.450385  1
  O  O17  1  0.442025  0.247487  0.315458  1
  O  O18  1  0.304528  0.462192  0.222346  1
  O  O19  1  0.170249  0.546148  0.722185  1
  O  O20  1  0.957804  0.283708  0.681555  1
  O  O21  1  0.677906  0.954915  0.274023  1
  O  O22  1  0.035002  0.773754  0.790751  1
  O  O23  1  0.543784  0.734908  0.184821  1
  O  O24  1  0.824636  0.058494  0.760195  1
  O  O25  1  0.740841  0.205070  0.543526  1
  O  O26  1  0.766898  0.816881  0.049013  1
  O  O27  1  0.244589  0.699261  0.941346  1
  O  O28  1  0.781708  0.669093  0.549615  1
  O  O29  1  0.557975  0.752513  0.684542  1
  O  O30  1  0.695472  0.537808  0.777654  1
  O  O31  1  0.829751  0.453852  0.277815  1
  O  O32  1  0.042196  0.716292  0.318445  1
  O  O33  1  0.322094  0.045085  0.725977  1
  O  O34  1  0.964998  0.226246  0.209249  1
  O  O35  1  0.456216  0.265092  0.815179  1
