# generated using pymatgen
data_Ta16VGa3Te16
_symmetry_space_group_name_H-M   'P 1'
_cell_length_a   4.86966400
_cell_length_b   11.05402322
_cell_length_c   19.24193337
_cell_angle_alpha   89.97679292
_cell_angle_beta   90.00000000
_cell_angle_gamma   90.00000000
_symmetry_Int_Tables_number   1
_chemical_formula_structural   Ta16VGa3Te16
_chemical_formula_sum   'Ta16 V1 Ga3 Te16'
_cell_volume   1035.78123799
_cell_formula_units_Z   1
loop_
 _symmetry_equiv_pos_site_id
 _symmetry_equiv_pos_as_xyz
  1  'x, y, z'
loop_
 _atom_site_type_symbol
 _atom_site_label
 _atom_site_symmetry_multiplicity
 _atom_site_fract_x
 _atom_site_fract_y
 _atom_site_fract_z
 _atom_site_occupancy
  Ta  Ta0  1  0.500051  0.564503  0.381554  1
  Ta  Ta1  1  0.500051  0.435497  0.618446  1
  Ta  Ta2  1  0.500439  0.064237  0.117922  1
  Ta  Ta3  1  0.500439  0.935763  0.882078  1
  Ta  Ta4  1  0.500025  0.706583  0.536794  1
  Ta  Ta5  1  0.500025  0.293417  0.463206  1
  Ta  Ta6  1  0.500603  0.205639  0.963310  1
  Ta  Ta7  1  0.500603  0.794361  0.036690  1
  Ta  Ta8  1  0.999964  0.691575  0.442116  1
  Ta  Ta9  1  0.999964  0.308425  0.557884  1
  Ta  Ta10  1  0.999072  0.190735  0.057578  1
  Ta  Ta11  1  0.999072  0.809265  0.942422  1
  Ta  Ta12  1  0.999966  0.400007  0.390106  1
  Ta  Ta13  1  0.999966  0.599993  0.609894  1
  Ta  Ta14  1  0.999904  0.900182  0.109374  1
  Ta  Ta15  1  0.999904  0.099818  0.890626  1
  V  V16  1  0.249819  0.000000  0.000000  1
  Ga  Ga17  1  0.249987  0.500000  0.500000  1
  Ga  Ga18  1  0.750031  0.000000  0.000000  1
  Ga  Ga19  1  0.750017  0.500000  0.500000  1
  Te  Te20  1  0.999853  0.845465  0.561824  1
  Te  Te21  1  0.999853  0.154535  0.438176  1
  Te  Te22  1  0.001661  0.345792  0.937955  1
  Te  Te23  1  0.001661  0.654208  0.062045  1
  Te  Te24  1  0.499708  0.332301  0.316238  1
  Te  Te25  1  0.499708  0.667699  0.683762  1
  Te  Te26  1  0.498702  0.831980  0.183882  1
  Te  Te27  1  0.498702  0.168020  0.816118  1
  Te  Te28  1  0.500116  0.821005  0.403250  1
  Te  Te29  1  0.500116  0.178995  0.596750  1
  Te  Te30  1  0.497487  0.321415  0.096657  1
  Te  Te31  1  0.497487  0.678585  0.903343  1
  Te  Te32  1  0.000287  0.607769  0.301478  1
  Te  Te33  1  0.000287  0.392231  0.698522  1
  Te  Te34  1  0.002240  0.107559  0.198617  1
  Te  Te35  1  0.002240  0.892441  0.801383  1
