# generated using pymatgen
data_TaTc3B3W2
_symmetry_space_group_name_H-M   'P 1'
_cell_length_a   3.11906600
_cell_length_b   8.98257400
_cell_length_c   15.62740000
_cell_angle_alpha   90.00000000
_cell_angle_beta   90.00000000
_cell_angle_gamma   90.00000000
_symmetry_Int_Tables_number   1
_chemical_formula_structural   TaTc3B3W2
_chemical_formula_sum   'Ta4 Tc12 B12 W8'
_cell_volume   437.83663444
_cell_formula_units_Z   4
loop_
 _symmetry_equiv_pos_site_id
 _symmetry_equiv_pos_as_xyz
  1  'x, y, z'
loop_
 _atom_site_type_symbol
 _atom_site_label
 _atom_site_symmetry_multiplicity
 _atom_site_fract_x
 _atom_site_fract_y
 _atom_site_fract_z
 _atom_site_occupancy
  Ta  Ta0  1  0.000000  0.681648  0.204076  1
  Ta  Ta1  1  0.000000  0.318352  0.795924  1
  Ta  Ta2  1  0.000000  0.181648  0.295924  1
  Ta  Ta3  1  0.000000  0.818352  0.704076  1
  Tc  Tc4  1  0.500000  0.714629  0.357867  1
  Tc  Tc5  1  0.500000  0.285371  0.642133  1
  Tc  Tc6  1  0.500000  0.214629  0.142133  1
  Tc  Tc7  1  0.500000  0.785371  0.857867  1
  Tc  Tc8  1  0.500000  0.514890  0.091580  1
  Tc  Tc9  1  0.500000  0.485110  0.908420  1
  Tc  Tc10  1  0.500000  0.014890  0.408420  1
  Tc  Tc11  1  0.500000  0.985110  0.591580  1
  Tc  Tc12  1  0.500000  0.566816  0.731290  1
  Tc  Tc13  1  0.500000  0.433184  0.268710  1
  Tc  Tc14  1  0.500000  0.066816  0.768710  1
  Tc  Tc15  1  0.500000  0.933184  0.231290  1
  B  B16  1  0.500000  0.606841  0.495598  1
  B  B17  1  0.500000  0.393159  0.504402  1
  B  B18  1  0.500000  0.106841  0.004402  1
  B  B19  1  0.500000  0.893159  0.995598  1
  B  B20  1  0.000000  0.609915  0.832246  1
  B  B21  1  0.000000  0.390085  0.167754  1
  B  B22  1  0.000000  0.109915  0.667754  1
  B  B23  1  0.000000  0.890085  0.332246  1
  B  B24  1  0.500000  0.717554  0.600104  1
  B  B25  1  0.500000  0.282446  0.399896  1
  B  B26  1  0.500000  0.217554  0.899896  1
  B  B27  1  0.500000  0.782446  0.100104  1
  W  W28  1  0.000000  0.797073  0.495579  1
  W  W29  1  0.000000  0.202927  0.504421  1
  W  W30  1  0.000000  0.297073  0.004421  1
  W  W31  1  0.000000  0.702927  0.995579  1
  W  W32  1  0.000000  0.518193  0.591929  1
  W  W33  1  0.000000  0.481807  0.408071  1
  W  W34  1  0.000000  0.018193  0.908071  1
  W  W35  1  0.000000  0.981807  0.091929  1
