# generated using pymatgen
data_Ho4Tm6Sn5Bi
_symmetry_space_group_name_H-M   'P 1'
_cell_length_a   6.45601300
_cell_length_b   8.90090461
_cell_length_c   8.92574675
_cell_angle_alpha   119.90797213
_cell_angle_beta   90.00025829
_cell_angle_gamma   89.99946195
_symmetry_Int_Tables_number   1
_chemical_formula_structural   Ho4Tm6Sn5Bi
_chemical_formula_sum   'Ho4 Tm6 Sn5 Bi1'
_cell_volume   444.60641472
_cell_formula_units_Z   1
loop_
 _symmetry_equiv_pos_site_id
 _symmetry_equiv_pos_as_xyz
  1  'x, y, z'
loop_
 _atom_site_type_symbol
 _atom_site_label
 _atom_site_symmetry_multiplicity
 _atom_site_fract_x
 _atom_site_fract_y
 _atom_site_fract_z
 _atom_site_occupancy
  Ho  Ho0  1  0.750009  0.234370  0.000000  1
  Ho  Ho1  1  0.749994  0.762793  0.757118  1
  Ho  Ho2  1  0.749994  0.005674  0.242882  1
  Ho  Ho3  1  0.249991  0.762958  0.000000  1
  Tm  Tm4  1  0.498076  0.329950  0.662535  1
  Tm  Tm5  1  0.498076  0.667415  0.337465  1
  Tm  Tm6  1  0.001926  0.667420  0.337467  1
  Tm  Tm7  1  0.001926  0.329953  0.662533  1
  Tm  Tm8  1  0.249997  0.239034  0.239150  1
  Tm  Tm9  1  0.249997  0.999884  0.760850  1
  Sn  Sn10  1  0.750002  0.395949  0.395357  1
  Sn  Sn11  1  0.750002  0.000592  0.604643  1
  Sn  Sn12  1  0.249998  0.394029  0.000000  1
  Sn  Sn13  1  0.250004  0.605259  0.606046  1
  Sn  Sn14  1  0.250004  0.999214  0.393954  1
  Bi  Bi15  1  0.750002  0.605506  0.000000  1
