# generated using pymatgen
data_Nd5Mn2P12Ir17
_symmetry_space_group_name_H-M   'P 1'
_cell_length_a   12.72581300
_cell_length_b   12.81210164
_cell_length_c   4.01204200
_cell_angle_alpha   90.00000000
_cell_angle_beta   90.00000000
_cell_angle_gamma   119.77746177
_symmetry_Int_Tables_number   1
_chemical_formula_structural   Nd5Mn2P12Ir17
_chemical_formula_sum   'Nd5 Mn2 P12 Ir17'
_cell_volume   567.76881396
_cell_formula_units_Z   1
loop_
 _symmetry_equiv_pos_site_id
 _symmetry_equiv_pos_as_xyz
  1  'x, y, z'
loop_
 _atom_site_type_symbol
 _atom_site_label
 _atom_site_symmetry_multiplicity
 _atom_site_fract_x
 _atom_site_fract_y
 _atom_site_fract_z
 _atom_site_occupancy
  Nd  Nd0  1  0.332187  0.663920  0.500000  1
  Nd  Nd1  1  0.668266  0.336080  0.500000  1
  Nd  Nd2  1  0.000800  0.809893  0.000000  1
  Nd  Nd3  1  0.190906  0.190107  0.000000  1
  Nd  Nd4  1  0.813070  0.000000  0.000000  1
  Mn  Mn5  1  0.997947  0.455048  0.500000  1
  Mn  Mn6  1  0.542898  0.544952  0.500000  1
  P  P7  1  0.998788  0.630761  0.500000  1
  P  P8  1  0.368027  0.369239  0.500000  1
  P  P9  1  0.640565  0.000000  0.500000  1
  P  P10  1  0.516927  0.684809  0.000000  1
  P  P11  1  0.307841  0.824111  0.000000  1
  P  P12  1  0.165577  0.479827  0.000000  1
  P  P13  1  0.483730  0.175889  0.000000  1
  P  P14  1  0.685749  0.520173  0.000000  1
  P  P15  1  0.832118  0.315191  0.000000  1
  P  P16  1  0.000076  0.179331  0.500000  1
  P  P17  1  0.820745  0.820669  0.500000  1
  P  P18  1  0.181316  0.000000  0.500000  1
  Ir  Ir19  1  0.507214  0.868749  0.000000  1
  Ir  Ir20  1  0.126771  0.637133  0.000000  1
  Ir  Ir21  1  0.359030  0.490878  0.000000  1
  Ir  Ir22  1  0.489640  0.362867  0.000000  1
  Ir  Ir23  1  0.868154  0.509122  0.000000  1
  Ir  Ir24  1  0.638465  0.131251  0.000000  1
  Ir  Ir25  1  0.461182  0.000000  0.500000  1
  Ir  Ir26  1  0.997929  0.283327  0.000000  1
  Ir  Ir27  1  0.714602  0.716673  0.000000  1
  Ir  Ir28  1  0.289956  0.000000  0.000000  1
  Ir  Ir29  1  0.620165  0.802046  0.500000  1
  Ir  Ir30  1  0.202589  0.822628  0.500000  1
  Ir  Ir31  1  0.176744  0.376230  0.500000  1
  Ir  Ir32  1  0.379961  0.177372  0.500000  1
  Ir  Ir33  1  0.800514  0.623770  0.500000  1
  Ir  Ir34  1  0.818118  0.197954  0.500000  1
  Ir  Ir35  1  0.001430  0.000000  0.500000  1
