# generated using pymatgen
data_Nd3VFeCo7P6
_symmetry_space_group_name_H-M   'P 1'
_cell_length_a   3.76320700
_cell_length_b   10.71814900
_cell_length_c   12.36737900
_cell_angle_alpha   90.00000000
_cell_angle_beta   90.00000000
_cell_angle_gamma   90.00000000
_symmetry_Int_Tables_number   1
_chemical_formula_structural   Nd3VFeCo7P6
_chemical_formula_sum   'Nd6 V2 Fe2 Co14 P12'
_cell_volume   498.83345004
_cell_formula_units_Z   2
loop_
 _symmetry_equiv_pos_site_id
 _symmetry_equiv_pos_as_xyz
  1  'x, y, z'
loop_
 _atom_site_type_symbol
 _atom_site_label
 _atom_site_symmetry_multiplicity
 _atom_site_fract_x
 _atom_site_fract_y
 _atom_site_fract_z
 _atom_site_occupancy
  Nd  Nd0  1  0.000000  0.500000  0.522214  1
  Nd  Nd1  1  0.500000  0.000000  0.477786  1
  Nd  Nd2  1  0.500000  0.820023  0.204060  1
  Nd  Nd3  1  0.500000  0.179977  0.204060  1
  Nd  Nd4  1  0.000000  0.679977  0.795940  1
  Nd  Nd5  1  0.000000  0.320023  0.795940  1
  V  V6  1  0.500000  0.500000  0.149736  1
  V  V7  1  0.000000  0.000000  0.850264  1
  Fe  Fe8  1  0.000000  0.500000  0.989354  1
  Fe  Fe9  1  0.500000  0.000000  0.010646  1
  Co  Co10  1  0.500000  0.500000  0.701434  1
  Co  Co11  1  0.000000  0.000000  0.298566  1
  Co  Co12  1  0.500000  0.331555  0.995157  1
  Co  Co13  1  0.500000  0.668445  0.995157  1
  Co  Co14  1  0.000000  0.168445  0.004843  1
  Co  Co15  1  0.000000  0.831555  0.004843  1
  Co  Co16  1  0.500000  0.295807  0.430698  1
  Co  Co17  1  0.500000  0.704193  0.430698  1
  Co  Co18  1  0.000000  0.204193  0.569302  1
  Co  Co19  1  0.000000  0.795807  0.569302  1
  Co  Co20  1  0.500000  0.880777  0.708978  1
  Co  Co21  1  0.500000  0.119223  0.708978  1
  Co  Co22  1  0.000000  0.619223  0.291022  1
  Co  Co23  1  0.000000  0.380777  0.291022  1
  P  P24  1  0.500000  0.500000  0.888596  1
  P  P25  1  0.000000  0.000000  0.111404  1
  P  P26  1  0.500000  0.500000  0.340975  1
  P  P27  1  0.000000  0.000000  0.659025  1
  P  P28  1  0.500000  0.305999  0.614577  1
  P  P29  1  0.500000  0.694001  0.614577  1
  P  P30  1  0.000000  0.194001  0.385423  1
  P  P31  1  0.000000  0.805999  0.385423  1
  P  P32  1  0.500000  0.847447  0.895558  1
  P  P33  1  0.500000  0.152553  0.895558  1
  P  P34  1  0.000000  0.652553  0.104442  1
  P  P35  1  0.000000  0.347447  0.104442  1
