# generated using pymatgen
data_Er2SiB2Ru5
_symmetry_space_group_name_H-M   'P 1'
_cell_length_a   9.48679200
_cell_length_b   9.48679200
_cell_length_c   3.06434200
_cell_angle_alpha   90.00000000
_cell_angle_beta   90.00000000
_cell_angle_gamma   90.00000000
_symmetry_Int_Tables_number   1
_chemical_formula_structural   Er2SiB2Ru5
_chemical_formula_sum   'Er4 Si2 B4 Ru10'
_cell_volume   275.78839732
_cell_formula_units_Z   2
loop_
 _symmetry_equiv_pos_site_id
 _symmetry_equiv_pos_as_xyz
  1  'x, y, z'
loop_
 _atom_site_type_symbol
 _atom_site_label
 _atom_site_symmetry_multiplicity
 _atom_site_fract_x
 _atom_site_fract_y
 _atom_site_fract_z
 _atom_site_occupancy
  Er  Er0  1  0.175138  0.675138  0.000000  1
  Er  Er1  1  0.675138  0.824862  0.000000  1
  Er  Er2  1  0.324862  0.175138  0.000000  1
  Er  Er3  1  0.824862  0.324862  0.000000  1
  Si  Si4  1  0.000000  0.000000  0.000000  1
  Si  Si5  1  0.500000  0.500000  0.000000  1
  B  B6  1  0.376843  0.876843  0.000000  1
  B  B7  1  0.876843  0.623157  0.000000  1
  B  B8  1  0.123157  0.376843  0.000000  1
  B  B9  1  0.623157  0.123157  0.000000  1
  Ru  Ru10  1  0.000000  0.500000  0.500000  1
  Ru  Ru11  1  0.500000  0.000000  0.500000  1
  Ru  Ru12  1  0.289107  0.431947  0.500000  1
  Ru  Ru13  1  0.710894  0.568053  0.500000  1
  Ru  Ru14  1  0.568053  0.289107  0.500000  1
  Ru  Ru15  1  0.431947  0.710894  0.500000  1
  Ru  Ru16  1  0.931947  0.789106  0.500000  1
  Ru  Ru17  1  0.789106  0.068053  0.500000  1
  Ru  Ru18  1  0.210893  0.931947  0.500000  1
  Ru  Ru19  1  0.068053  0.210893  0.500000  1
