# generated using pymatgen
data_Tm2Lu6In3Ru
_symmetry_space_group_name_H-M   'P 1'
_cell_length_a   10.21040906
_cell_length_b   10.20994005
_cell_length_c   6.95109023
_cell_angle_alpha   90.02210966
_cell_angle_beta   89.99473161
_cell_angle_gamma   120.00225440
_symmetry_Int_Tables_number   1
_chemical_formula_structural   Tm2Lu6In3Ru
_chemical_formula_sum   'Tm4 Lu12 In6 Ru2'
_cell_volume   627.53794262
_cell_formula_units_Z   2
loop_
 _symmetry_equiv_pos_site_id
 _symmetry_equiv_pos_as_xyz
  1  'x, y, z'
loop_
 _atom_site_type_symbol
 _atom_site_label
 _atom_site_symmetry_multiplicity
 _atom_site_fract_x
 _atom_site_fract_y
 _atom_site_fract_z
 _atom_site_occupancy
  Tm  Tm0  1  0.533355  0.066720  0.524099  1
  Tm  Tm1  1  0.933539  0.466742  0.524319  1
  Tm  Tm2  1  0.533199  0.466672  0.524404  1
  Tm  Tm3  1  0.466509  0.933170  0.024747  1
  Lu  Lu4  1  0.067665  0.533832  0.025033  1
  Lu  Lu5  1  0.466230  0.533903  0.025072  1
  Lu  Lu6  1  0.178053  0.355894  0.727505  1
  Lu  Lu7  1  0.644346  0.822059  0.726988  1
  Lu  Lu8  1  0.177463  0.821890  0.727080  1
  Lu  Lu9  1  0.822138  0.644217  0.225232  1
  Lu  Lu10  1  0.355171  0.177871  0.225579  1
  Lu  Lu11  1  0.822634  0.177912  0.225359  1
  Lu  Lu12  1  0.666847  0.333668  0.905358  1
  Lu  Lu13  1  0.333247  0.666386  0.406112  1
  Lu  Lu14  1  0.000090  0.000142  0.507860  1
  Lu  Lu15  1  0.999968  0.999897  0.007960  1
  In  In16  1  0.837371  0.675038  0.770184  1
  In  In17  1  0.324928  0.162345  0.770610  1
  In  In18  1  0.837623  0.162582  0.770267  1
  In  In19  1  0.162877  0.325803  0.270446  1
  In  In20  1  0.674717  0.837051  0.271053  1
  In  In21  1  0.162391  0.836892  0.271261  1
  Ru  Ru22  1  0.666514  0.333065  0.298677  1
  Ru  Ru23  1  0.333128  0.666252  0.800478  1
