# generated using pymatgen
data_TbDy3Mo2(SeO4)6
_symmetry_space_group_name_H-M   'P 1'
_cell_length_a   6.60208135
_cell_length_b   7.16638339
_cell_length_c   10.89434115
_cell_angle_alpha   84.90881133
_cell_angle_beta   73.27849957
_cell_angle_gamma   86.53434418
_symmetry_Int_Tables_number   1
_chemical_formula_structural   TbDy3Mo2(SeO4)6
_chemical_formula_sum   'Tb1 Dy3 Mo2 Se6 O24'
_cell_volume   491.37159813
_cell_formula_units_Z   1
loop_
 _symmetry_equiv_pos_site_id
 _symmetry_equiv_pos_as_xyz
  1  'x, y, z'
loop_
 _atom_site_type_symbol
 _atom_site_label
 _atom_site_symmetry_multiplicity
 _atom_site_fract_x
 _atom_site_fract_y
 _atom_site_fract_z
 _atom_site_occupancy
  Tb  Tb0  1  0.732527  0.638546  0.508858  1
  Dy  Dy1  1  0.267367  0.361412  0.491251  1
  Dy  Dy2  1  0.204610  0.181925  0.168421  1
  Dy  Dy3  1  0.795294  0.818149  0.831774  1
  Mo  Mo4  1  0.722364  0.893191  0.205767  1
  Mo  Mo5  1  0.277643  0.107031  0.793957  1
  Se  Se6  1  0.202754  0.659707  0.215817  1
  Se  Se7  1  0.798061  0.340140  0.783919  1
  Se  Se8  1  0.657322  0.363695  0.142543  1
  Se  Se9  1  0.342114  0.636416  0.858001  1
  Se  Se10  1  0.789133  0.140248  0.493371  1
  Se  Se11  1  0.210613  0.859960  0.506539  1
  O  O12  1  0.693468  0.672171  0.298218  1
  O  O13  1  0.306309  0.327663  0.700927  1
  O  O14  1  0.718451  0.960515  0.416521  1
  O  O15  1  0.281741  0.040166  0.582924  1
  O  O16  1  0.450974  0.974453  0.232752  1
  O  O17  1  0.549009  0.025652  0.767179  1
  O  O18  1  0.824413  0.171598  0.178639  1
  O  O19  1  0.175709  0.828586  0.821293  1
  O  O20  1  0.784174  0.833094  0.044323  1
  O  O21  1  0.215954  0.167140  0.955421  1
  O  O22  1  0.059050  0.873304  0.194627  1
  O  O23  1  0.940969  0.126486  0.805612  1
  O  O24  1  0.099676  0.497191  0.148554  1
  O  O25  1  0.900384  0.502773  0.851451  1
  O  O26  1  0.083448  0.601268  0.382427  1
  O  O27  1  0.919006  0.397752  0.617342  1
  O  O28  1  0.549063  0.272570  0.038085  1
  O  O29  1  0.450632  0.727570  0.962306  1
  O  O30  1  0.424580  0.346774  0.270788  1
  O  O31  1  0.574958  0.653057  0.729968  1
  O  O32  1  0.042722  0.191516  0.392264  1
  O  O33  1  0.957449  0.809276  0.608152  1
  O  O34  1  0.640025  0.338043  0.460220  1
  O  O35  1  0.358036  0.660964  0.539788  1
