# generated using pymatgen
data_YbPr8YIr6
_symmetry_space_group_name_H-M   'P 1'
_cell_length_a   6.54539500
_cell_length_b   11.29806800
_cell_length_c   11.29806800
_cell_angle_alpha   90.00000000
_cell_angle_beta   90.00000000
_cell_angle_gamma   90.00000000
_symmetry_Int_Tables_number   1
_chemical_formula_structural   YbPr8YIr6
_chemical_formula_sum   'Yb2 Pr16 Y2 Ir12'
_cell_volume   835.49571909
_cell_formula_units_Z   2
loop_
 _symmetry_equiv_pos_site_id
 _symmetry_equiv_pos_as_xyz
  1  'x, y, z'
loop_
 _atom_site_type_symbol
 _atom_site_label
 _atom_site_symmetry_multiplicity
 _atom_site_fract_x
 _atom_site_fract_y
 _atom_site_fract_z
 _atom_site_occupancy
  Yb  Yb0  1  0.000000  0.250000  0.750000  1
  Yb  Yb1  1  0.500000  0.250000  0.750000  1
  Pr  Pr2  1  0.385037  0.838816  0.539085  1
  Pr  Pr3  1  0.885037  0.661184  0.539085  1
  Pr  Pr4  1  0.885037  0.838816  0.960915  1
  Pr  Pr5  1  0.385037  0.661184  0.960915  1
  Pr  Pr6  1  0.886020  0.537883  0.837570  1
  Pr  Pr7  1  0.386020  0.962117  0.837570  1
  Pr  Pr8  1  0.386020  0.537883  0.662430  1
  Pr  Pr9  1  0.886020  0.962117  0.662430  1
  Pr  Pr10  1  0.613980  0.162430  0.462118  1
  Pr  Pr11  1  0.113980  0.337570  0.462118  1
  Pr  Pr12  1  0.113980  0.162430  0.037883  1
  Pr  Pr13  1  0.613980  0.337570  0.037883  1
  Pr  Pr14  1  0.114963  0.460916  0.161184  1
  Pr  Pr15  1  0.614963  0.039085  0.161184  1
  Pr  Pr16  1  0.614963  0.460916  0.338816  1
  Pr  Pr17  1  0.114963  0.039085  0.338816  1
  Y  Y18  1  0.500000  0.750000  0.250000  1
  Y  Y19  1  0.000000  0.750000  0.250000  1
  Ir  Ir20  1  0.250000  0.899020  0.100980  1
  Ir  Ir21  1  0.750000  0.600980  0.100980  1
  Ir  Ir22  1  0.750000  0.899020  0.399020  1
  Ir  Ir23  1  0.250000  0.600980  0.399020  1
  Ir  Ir24  1  0.750000  0.094982  0.905018  1
  Ir  Ir25  1  0.250000  0.405018  0.905018  1
  Ir  Ir26  1  0.250000  0.094982  0.594982  1
  Ir  Ir27  1  0.750000  0.405018  0.594982  1
  Ir  Ir28  1  0.121256  0.750000  0.750000  1
  Ir  Ir29  1  0.621256  0.750000  0.750000  1
  Ir  Ir30  1  0.878744  0.250000  0.250000  1
  Ir  Ir31  1  0.378744  0.250000  0.250000  1
