# generated using pymatgen
data_Lu2Sc2Si4OsRh3
_symmetry_space_group_name_H-M   'P 1'
_cell_length_a   4.17085800
_cell_length_b   6.68666918
_cell_length_c   7.25473294
_cell_angle_alpha   89.24157471
_cell_angle_beta   90.00000000
_cell_angle_gamma   90.00000000
_symmetry_Int_Tables_number   1
_chemical_formula_structural   Lu2Sc2Si4OsRh3
_chemical_formula_sum   'Lu2 Sc2 Si4 Os1 Rh3'
_cell_volume   202.31059239
_cell_formula_units_Z   1
loop_
 _symmetry_equiv_pos_site_id
 _symmetry_equiv_pos_as_xyz
  1  'x, y, z'
loop_
 _atom_site_type_symbol
 _atom_site_label
 _atom_site_symmetry_multiplicity
 _atom_site_fract_x
 _atom_site_fract_y
 _atom_site_fract_z
 _atom_site_occupancy
  Lu  Lu0  1  0.250000  0.503569  0.691249  1
  Lu  Lu1  1  0.750000  0.501149  0.309514  1
  Sc  Sc2  1  0.250000  0.001728  0.811950  1
  Sc  Sc3  1  0.750000  0.996747  0.187293  1
  Si  Si4  1  0.250000  0.285281  0.108861  1
  Si  Si5  1  0.750000  0.715377  0.886632  1
  Si  Si6  1  0.250000  0.797052  0.391821  1
  Si  Si7  1  0.750000  0.201075  0.612375  1
  Os  Os8  1  0.750000  0.843518  0.564139  1
  Rh  Rh9  1  0.250000  0.156266  0.435060  1
  Rh  Rh10  1  0.750000  0.340791  0.935186  1
  Rh  Rh11  1  0.250000  0.657449  0.065921  1
