# generated using pymatgen
data_ZrPa3(SnRh5)2
_symmetry_space_group_name_H-M   'P 1'
_cell_length_a   5.82481698
_cell_length_b   5.82481747
_cell_length_c   8.36676310
_cell_angle_alpha   89.98811501
_cell_angle_beta   89.98811683
_cell_angle_gamma   97.91453172
_symmetry_Int_Tables_number   1
_chemical_formula_structural   ZrPa3(SnRh5)2
_chemical_formula_sum   'Zr1 Pa3 Sn2 Rh10'
_cell_volume   281.16767256
_cell_formula_units_Z   1
loop_
 _symmetry_equiv_pos_site_id
 _symmetry_equiv_pos_as_xyz
  1  'x, y, z'
loop_
 _atom_site_type_symbol
 _atom_site_label
 _atom_site_symmetry_multiplicity
 _atom_site_fract_x
 _atom_site_fract_y
 _atom_site_fract_z
 _atom_site_occupancy
  Zr  Zr0  1  0.785148  0.214852  0.000000  1
  Pa  Pa1  1  0.788249  0.211751  0.500000  1
  Pa  Pa2  1  0.209396  0.790604  0.000000  1
  Pa  Pa3  1  0.214537  0.785463  0.500000  1
  Sn  Sn4  1  0.506078  0.497111  0.754707  1
  Sn  Sn5  1  0.502889  0.493922  0.245293  1
  Rh  Rh6  1  0.726815  0.731415  0.000844  1
  Rh  Rh7  1  0.727078  0.726885  0.499217  1
  Rh  Rh8  1  0.268585  0.273185  0.999156  1
  Rh  Rh9  1  0.273115  0.272922  0.500783  1
  Rh  Rh10  1  0.499428  0.000363  0.748425  1
  Rh  Rh11  1  0.499314  0.999264  0.251525  1
  Rh  Rh12  1  0.999783  0.000787  0.249037  1
  Rh  Rh13  1  0.999213  0.000217  0.750963  1
  Rh  Rh14  1  0.000736  0.500686  0.748475  1
  Rh  Rh15  1  0.999637  0.500572  0.251575  1
