# generated using pymatgen
data_Ac3Pd2Au
_symmetry_space_group_name_H-M   'P 1'
_cell_length_a   4.79821200
_cell_length_b   6.21855471
_cell_length_c   11.93117427
_cell_angle_alpha   82.64515333
_cell_angle_beta   90.00000000
_cell_angle_gamma   90.00000000
_symmetry_Int_Tables_number   1
_chemical_formula_structural   Ac3Pd2Au
_chemical_formula_sum   'Ac6 Pd4 Au2'
_cell_volume   353.07265188
_cell_formula_units_Z   2
loop_
 _symmetry_equiv_pos_site_id
 _symmetry_equiv_pos_as_xyz
  1  'x, y, z'
loop_
 _atom_site_type_symbol
 _atom_site_label
 _atom_site_symmetry_multiplicity
 _atom_site_fract_x
 _atom_site_fract_y
 _atom_site_fract_z
 _atom_site_occupancy
  Ac  Ac0  1  0.250000  0.408274  0.793137  1
  Ac  Ac1  1  0.750000  0.591726  0.206863  1
  Ac  Ac2  1  0.250000  0.119068  0.120077  1
  Ac  Ac3  1  0.750000  0.880932  0.879923  1
  Ac  Ac4  1  0.250000  0.249513  0.451560  1
  Ac  Ac5  1  0.750000  0.750487  0.548440  1
  Pd  Pd6  1  0.250000  0.641303  0.029690  1
  Pd  Pd7  1  0.750000  0.358697  0.970310  1
  Pd  Pd8  1  0.250000  0.918931  0.694040  1
  Pd  Pd9  1  0.750000  0.081069  0.305960  1
  Au  Au10  1  0.250000  0.770747  0.360915  1
  Au  Au11  1  0.750000  0.229253  0.639085  1
