# generated using pymatgen
data_Tb4B16Pt3Rh
_symmetry_space_group_name_H-M   'P 1'
_cell_length_a   7.04638327
_cell_length_b   7.04638391
_cell_length_c   7.04638312
_cell_angle_alpha   104.89240263
_cell_angle_beta   111.86290375
_cell_angle_gamma   111.75313318
_symmetry_Int_Tables_number   1
_chemical_formula_structural   Tb4B16Pt3Rh
_chemical_formula_sum   'Tb4 B16 Pt3 Rh1'
_cell_volume   268.04849011
_cell_formula_units_Z   1
loop_
 _symmetry_equiv_pos_site_id
 _symmetry_equiv_pos_as_xyz
  1  'x, y, z'
loop_
 _atom_site_type_symbol
 _atom_site_label
 _atom_site_symmetry_multiplicity
 _atom_site_fract_x
 _atom_site_fract_y
 _atom_site_fract_z
 _atom_site_occupancy
  Tb  Tb0  1  0.002878  0.208256  0.211135  1
  Tb  Tb1  1  0.496222  0.747068  0.243289  1
  Tb  Tb2  1  0.496222  0.252932  0.749154  1
  Tb  Tb3  1  0.002878  0.791744  0.794623  1
  B  B4  1  0.843162  0.736554  0.106608  1
  B  B5  1  0.370054  0.263446  0.106610  1
  B  B6  1  0.001148  0.588548  0.106414  1
  B  B7  1  0.517867  0.105268  0.106416  1
  B  B8  1  0.156545  0.893694  0.262853  1
  B  B9  1  0.369160  0.106308  0.262853  1
  B  B10  1  0.001148  0.894732  0.412598  1
  B  B11  1  0.517867  0.411452  0.412600  1
  B  B12  1  0.002827  0.109103  0.588164  1
  B  B13  1  0.479061  0.585338  0.588165  1
  B  B14  1  0.844291  0.107042  0.737250  1
  B  B15  1  0.630209  0.892958  0.737251  1
  B  B16  1  0.479061  0.890895  0.893722  1
  B  B17  1  0.002827  0.414661  0.893722  1
  B  B18  1  0.158171  0.265861  0.892312  1
  B  B19  1  0.626452  0.734142  0.892312  1
  Pt  Pt20  1  0.759400  0.500002  0.259400  1
  Pt  Pt21  1  0.243081  0.741876  0.501206  1
  Pt  Pt22  1  0.759333  0.258128  0.501206  1
  Rh  Rh23  1  0.240144  0.500001  0.740143  1
