# generated using pymatgen
data_Tb12InCo4Pt
_symmetry_space_group_name_H-M   'P 1'
_cell_length_a   8.38290149
_cell_length_b   8.38290156
_cell_length_c   8.38290168
_cell_angle_alpha   111.18606412
_cell_angle_beta   110.25794671
_cell_angle_gamma   106.99900262
_symmetry_Int_Tables_number   1
_chemical_formula_structural   Tb12InCo4Pt
_chemical_formula_sum   'Tb12 In1 Co4 Pt1'
_cell_volume   452.82229216
_cell_formula_units_Z   1
loop_
 _symmetry_equiv_pos_site_id
 _symmetry_equiv_pos_as_xyz
  1  'x, y, z'
loop_
 _atom_site_type_symbol
 _atom_site_label
 _atom_site_symmetry_multiplicity
 _atom_site_fract_x
 _atom_site_fract_y
 _atom_site_fract_z
 _atom_site_occupancy
  Tb  Tb0  1  0.813726  0.705250  0.518976  1
  Tb  Tb1  1  0.186274  0.294750  0.481024  1
  Tb  Tb2  1  0.186274  0.705250  0.891527  1
  Tb  Tb3  1  0.813726  0.294750  0.108473  1
  Tb  Tb4  1  0.684496  0.378720  0.694222  1
  Tb  Tb5  1  0.315504  0.621280  0.305778  1
  Tb  Tb6  1  0.684496  0.990274  0.305778  1
  Tb  Tb7  1  0.315504  0.009726  0.694222  1
  Tb  Tb8  1  0.590942  0.788177  0.802765  1
  Tb  Tb9  1  0.409058  0.211823  0.197235  1
  Tb  Tb10  1  0.985412  0.788177  0.197235  1
  Tb  Tb11  1  0.014588  0.211823  0.802765  1
  In  In12  1  0.500000  0.500000  0.000000  1
  Co  Co13  1  0.619829  0.000000  0.619829  1
  Co  Co14  1  0.380171  0.000000  0.380171  1
  Co  Co15  1  0.111560  0.611560  0.500000  1
  Co  Co16  1  0.888440  0.388440  0.500000  1
  Pt  Pt17  1  0.000000  0.000000  0.000000  1
