# generated using pymatgen
data_Nd8Zn8Ir3PtRh4
_symmetry_space_group_name_H-M   'P 1'
_cell_length_a   4.03119600
_cell_length_b   7.36885645
_cell_length_c   16.67956291
_cell_angle_alpha   90.08285927
_cell_angle_beta   90.00000000
_cell_angle_gamma   90.00000000
_symmetry_Int_Tables_number   1
_chemical_formula_structural   Nd8Zn8Ir3PtRh4
_chemical_formula_sum   'Nd8 Zn8 Ir3 Pt1 Rh4'
_cell_volume   495.47097952
_cell_formula_units_Z   1
loop_
 _symmetry_equiv_pos_site_id
 _symmetry_equiv_pos_as_xyz
  1  'x, y, z'
loop_
 _atom_site_type_symbol
 _atom_site_label
 _atom_site_symmetry_multiplicity
 _atom_site_fract_x
 _atom_site_fract_y
 _atom_site_fract_z
 _atom_site_occupancy
  Nd  Nd0  1  0.250000  0.167676  0.939478  1
  Nd  Nd1  1  0.250000  0.667601  0.556961  1
  Nd  Nd2  1  0.750000  0.331974  0.438123  1
  Nd  Nd3  1  0.750000  0.952439  0.283872  1
  Nd  Nd4  1  0.750000  0.831416  0.061225  1
  Nd  Nd5  1  0.750000  0.451385  0.216692  1
  Nd  Nd6  1  0.250000  0.055404  0.716813  1
  Nd  Nd7  1  0.250000  0.544095  0.786464  1
  Zn  Zn8  1  0.750000  0.002130  0.558977  1
  Zn  Zn9  1  0.250000  0.622086  0.349374  1
  Zn  Zn10  1  0.750000  0.371853  0.651244  1
  Zn  Zn11  1  0.250000  0.498451  0.060267  1
  Zn  Zn12  1  0.750000  0.500890  0.940019  1
  Zn  Zn13  1  0.250000  0.999423  0.439510  1
  Zn  Zn14  1  0.250000  0.125152  0.151262  1
  Zn  Zn15  1  0.750000  0.877997  0.849977  1
  Ir  Ir16  1  0.750000  0.755042  0.434791  1
  Ir  Ir17  1  0.250000  0.244968  0.312740  1
  Ir  Ir18  1  0.750000  0.254528  0.813940  1
  Pt  Pt19  1  0.750000  0.754575  0.687088  1
  Rh  Rh20  1  0.250000  0.243521  0.565675  1
  Rh  Rh21  1  0.250000  0.746556  0.185376  1
  Rh  Rh22  1  0.750000  0.256045  0.065244  1
  Rh  Rh23  1  0.250000  0.744793  0.934887  1
