# generated using pymatgen
data_TlCoBr18
_symmetry_space_group_name_H-M   'P 1'
_cell_length_a   9.24932899
_cell_length_b   9.24932620
_cell_length_c   9.24932687
_cell_angle_alpha   93.74249465
_cell_angle_beta   93.74249956
_cell_angle_gamma   93.74249132
_symmetry_Int_Tables_number   1
_chemical_formula_structural   TlCoBr18
_chemical_formula_sum   'Tl1 Co1 Br18'
_cell_volume   785.98585079
_cell_formula_units_Z   1
loop_
 _symmetry_equiv_pos_site_id
 _symmetry_equiv_pos_as_xyz
  1  'x, y, z'
loop_
 _atom_site_type_symbol
 _atom_site_label
 _atom_site_symmetry_multiplicity
 _atom_site_fract_x
 _atom_site_fract_y
 _atom_site_fract_z
 _atom_site_occupancy
  Tl  Tl0  1  0.500000  0.500000  0.500000  1
  Co  Co1  1  0.000000  0.000000  0.000000  1
  Br  Br2  1  0.262221  0.008529  0.022482  1
  Br  Br3  1  0.022482  0.262221  0.008529  1
  Br  Br4  1  0.008529  0.022482  0.262221  1
  Br  Br5  1  0.737779  0.991471  0.977518  1
  Br  Br6  1  0.977518  0.737779  0.991471  1
  Br  Br7  1  0.991471  0.977518  0.737779  1
  Br  Br8  1  0.641050  0.217526  0.102989  1
  Br  Br9  1  0.102989  0.641050  0.217526  1
  Br  Br10  1  0.217526  0.102989  0.641050  1
  Br  Br11  1  0.358950  0.782474  0.897011  1
  Br  Br12  1  0.897011  0.358950  0.782474  1
  Br  Br13  1  0.782474  0.897011  0.358950  1
  Br  Br14  1  0.451982  0.198512  0.533582  1
  Br  Br15  1  0.533582  0.451982  0.198512  1
  Br  Br16  1  0.198512  0.533582  0.451982  1
  Br  Br17  1  0.548018  0.801488  0.466418  1
  Br  Br18  1  0.466418  0.548018  0.801488  1
  Br  Br19  1  0.801488  0.466418  0.548018  1
