# generated using pymatgen
data_U2Tc6Ni6P7
_symmetry_space_group_name_H-M   'P 1'
_cell_length_a   9.38426600
_cell_length_b   9.38426577
_cell_length_c   3.72122000
_cell_angle_alpha   90.00000000
_cell_angle_beta   90.00000000
_cell_angle_gamma   120.00000672
_symmetry_Int_Tables_number   1
_chemical_formula_structural   U2Tc6Ni6P7
_chemical_formula_sum   'U2 Tc6 Ni6 P7'
_cell_volume   283.80272228
_cell_formula_units_Z   1
loop_
 _symmetry_equiv_pos_site_id
 _symmetry_equiv_pos_as_xyz
  1  'x, y, z'
loop_
 _atom_site_type_symbol
 _atom_site_label
 _atom_site_symmetry_multiplicity
 _atom_site_fract_x
 _atom_site_fract_y
 _atom_site_fract_z
 _atom_site_occupancy
  U  U0  1  0.000000  0.000000  0.000000  1
  U  U1  1  0.333333  0.666667  0.500000  1
  Tc  Tc2  1  0.055574  0.770379  0.500000  1
  Tc  Tc3  1  0.714805  0.944426  0.500000  1
  Tc  Tc4  1  0.229621  0.285195  0.500000  1
  Tc  Tc5  1  0.876534  0.422804  0.500000  1
  Tc  Tc6  1  0.546269  0.123466  0.500000  1
  Tc  Tc7  1  0.577196  0.453731  0.500000  1
  Ni  Ni8  1  0.090450  0.388875  0.000000  1
  Ni  Ni9  1  0.298425  0.909550  0.000000  1
  Ni  Ni10  1  0.611125  0.701575  0.000000  1
  Ni  Ni11  1  0.828749  0.608644  0.000000  1
  Ni  Ni12  1  0.779894  0.171251  0.000000  1
  Ni  Ni13  1  0.391356  0.220106  0.000000  1
  P  P14  1  0.080918  0.624439  0.000000  1
  P  P15  1  0.543521  0.919082  0.000000  1
  P  P16  1  0.375561  0.456479  0.000000  1
  P  P17  1  0.781956  0.733754  0.500000  1
  P  P18  1  0.951799  0.218044  0.500000  1
  P  P19  1  0.266246  0.048201  0.500000  1
  P  P20  1  0.666667  0.333333  0.000000  1
