# generated using pymatgen
data_Lu3ZrSc2NbSb2
_symmetry_space_group_name_H-M   'P 1'
_cell_length_a   7.79936300
_cell_length_b   7.83575362
_cell_length_c   4.24524700
_cell_angle_alpha   90.00000000
_cell_angle_beta   90.00000000
_cell_angle_gamma   119.84649464
_symmetry_Int_Tables_number   1
_chemical_formula_structural   Lu3ZrSc2NbSb2
_chemical_formula_sum   'Lu3 Zr1 Sc2 Nb1 Sb2'
_cell_volume   225.03144112
_cell_formula_units_Z   1
loop_
 _symmetry_equiv_pos_site_id
 _symmetry_equiv_pos_as_xyz
  1  'x, y, z'
loop_
 _atom_site_type_symbol
 _atom_site_label
 _atom_site_symmetry_multiplicity
 _atom_site_fract_x
 _atom_site_fract_y
 _atom_site_fract_z
 _atom_site_occupancy
  Lu  Lu0  1  0.597613  0.000000  0.000000  1
  Lu  Lu1  1  0.000941  0.601030  0.000000  1
  Lu  Lu2  1  0.399912  0.398970  0.000000  1
  Zr  Zr3  1  0.235075  0.000000  0.500000  1
  Sc  Sc4  1  0.000406  0.238113  0.500000  1
  Sc  Sc5  1  0.762294  0.761887  0.500000  1
  Nb  Nb6  1  0.003641  0.000000  0.000000  1
  Sb  Sb7  1  0.332596  0.665075  0.500000  1
  Sb  Sb8  1  0.667523  0.334925  0.500000  1
