# generated using pymatgen
data_Ho13Th3(MgIr)4
_symmetry_space_group_name_H-M   'P 1'
_cell_length_a   9.74891620
_cell_length_b   9.75034042
_cell_length_c   9.75034100
_cell_angle_alpha   60.00000143
_cell_angle_beta   59.99516868
_cell_angle_gamma   59.99516955
_symmetry_Int_Tables_number   1
_chemical_formula_structural   Ho13Th3(MgIr)4
_chemical_formula_sum   'Ho13 Th3 Mg4 Ir4'
_cell_volume   655.31364641
_cell_formula_units_Z   1
loop_
 _symmetry_equiv_pos_site_id
 _symmetry_equiv_pos_as_xyz
  1  'x, y, z'
loop_
 _atom_site_type_symbol
 _atom_site_label
 _atom_site_symmetry_multiplicity
 _atom_site_fract_x
 _atom_site_fract_y
 _atom_site_fract_z
 _atom_site_occupancy
  Ho  Ho0  1  0.203258  0.598915  0.598915  1
  Ho  Ho1  1  0.062777  0.438133  0.438133  1
  Ho  Ho2  1  0.437093  0.063246  0.063246  1
  Ho  Ho3  1  0.437093  0.063246  0.436415  1
  Ho  Ho4  1  0.062777  0.438133  0.060957  1
  Ho  Ho5  1  0.437093  0.436415  0.063246  1
  Ho  Ho6  1  0.062777  0.060957  0.438133  1
  Ho  Ho7  1  0.185715  0.814198  0.814198  1
  Ho  Ho8  1  0.815500  0.184463  0.184463  1
  Ho  Ho9  1  0.815500  0.184463  0.815574  1
  Ho  Ho10  1  0.185715  0.814198  0.185891  1
  Ho  Ho11  1  0.815500  0.815574  0.184463  1
  Ho  Ho12  1  0.185715  0.185891  0.814198  1
  Th  Th13  1  0.596669  0.598747  0.598747  1
  Th  Th14  1  0.596669  0.598747  0.205838  1
  Th  Th15  1  0.596669  0.205838  0.598747  1
  Mg  Mg16  1  0.832185  0.830304  0.830304  1
  Mg  Mg17  1  0.832185  0.830304  0.507205  1
  Mg  Mg18  1  0.832185  0.507205  0.830304  1
  Mg  Mg19  1  0.505052  0.831649  0.831649  1
  Ir  Ir20  1  0.393287  0.391932  0.391932  1
  Ir  Ir21  1  0.393287  0.391932  0.822850  1
  Ir  Ir22  1  0.393287  0.822850  0.391932  1
  Ir  Ir23  1  0.822018  0.392661  0.392661  1
