# generated using pymatgen
data_Er8Ga12Ag3Pt
_symmetry_space_group_name_H-M   'P 1'
_cell_length_a   7.06372900
_cell_length_b   8.91359550
_cell_length_c   8.91359600
_cell_angle_alpha   120.00000185
_cell_angle_beta   90.00000000
_cell_angle_gamma   90.00000000
_symmetry_Int_Tables_number   1
_chemical_formula_structural   Er8Ga12Ag3Pt
_chemical_formula_sum   'Er8 Ga12 Ag3 Pt1'
_cell_volume   486.03833110
_cell_formula_units_Z   1
loop_
 _symmetry_equiv_pos_site_id
 _symmetry_equiv_pos_as_xyz
  1  'x, y, z'
loop_
 _atom_site_type_symbol
 _atom_site_label
 _atom_site_symmetry_multiplicity
 _atom_site_fract_x
 _atom_site_fract_y
 _atom_site_fract_z
 _atom_site_occupancy
  Er  Er0  1  0.746564  0.000000  0.000000  1
  Er  Er1  1  0.252176  0.000000  0.000000  1
  Er  Er2  1  0.747219  0.489962  0.510038  1
  Er  Er3  1  0.253419  0.518411  0.481589  1
  Er  Er4  1  0.747219  0.020074  0.510038  1
  Er  Er5  1  0.253419  0.963179  0.481589  1
  Er  Er6  1  0.747219  0.489962  0.979926  1
  Er  Er7  1  0.253419  0.518411  0.036821  1
  Ga  Ga8  1  0.967033  0.836535  0.163465  1
  Ga  Ga9  1  0.038961  0.165524  0.834476  1
  Ga  Ga10  1  0.967033  0.326932  0.163465  1
  Ga  Ga11  1  0.463831  0.165277  0.834723  1
  Ga  Ga12  1  0.038961  0.668951  0.834476  1
  Ga  Ga13  1  0.538448  0.833389  0.166611  1
  Ga  Ga14  1  0.967033  0.836535  0.673068  1
  Ga  Ga15  1  0.463831  0.669445  0.834723  1
  Ga  Ga16  1  0.038961  0.165524  0.331049  1
  Ga  Ga17  1  0.538448  0.333224  0.166611  1
  Ga  Ga18  1  0.463831  0.165277  0.330555  1
  Ga  Ga19  1  0.538448  0.833389  0.666776  1
  Ag  Ag20  1  0.952748  0.666667  0.333333  1
  Ag  Ag21  1  0.029393  0.333333  0.666667  1
  Ag  Ag22  1  0.470939  0.333333  0.666667  1
  Pt  Pt23  1  0.521451  0.666667  0.333333  1
