# generated using pymatgen
data_ZrUPa5Cl15
_symmetry_space_group_name_H-M   'P 1'
_cell_length_a   9.30622666
_cell_length_b   9.30628229
_cell_length_c   9.30628152
_cell_angle_alpha   107.66526632
_cell_angle_beta   110.38179517
_cell_angle_gamma   110.38180750
_symmetry_Int_Tables_number   1
_chemical_formula_structural   ZrUPa5Cl15
_chemical_formula_sum   'Zr1 U1 Pa5 Cl15'
_cell_volume   619.98374202
_cell_formula_units_Z   1
loop_
 _symmetry_equiv_pos_site_id
 _symmetry_equiv_pos_as_xyz
  1  'x, y, z'
loop_
 _atom_site_type_symbol
 _atom_site_label
 _atom_site_symmetry_multiplicity
 _atom_site_fract_x
 _atom_site_fract_y
 _atom_site_fract_z
 _atom_site_occupancy
  Zr  Zr0  1  0.000000  0.768089  0.768089  1
  U  U1  1  0.000000  0.019077  0.019077  1
  Pa  Pa2  1  0.765082  0.764343  0.999259  1
  Pa  Pa3  1  0.234918  0.999260  0.234177  1
  Pa  Pa4  1  0.000000  0.252078  0.252078  1
  Pa  Pa5  1  0.234918  0.234177  0.999260  1
  Pa  Pa6  1  0.765082  0.999259  0.764343  1
  Cl  Cl7  1  0.258277  0.249463  0.507753  1
  Cl  Cl8  1  0.741723  0.991186  0.249475  1
  Cl  Cl9  1  0.000000  0.740651  0.249851  1
  Cl  Cl10  1  0.741723  0.249475  0.991186  1
  Cl  Cl11  1  0.258277  0.507753  0.249463  1
  Cl  Cl12  1  0.000000  0.249851  0.740651  1
  Cl  Cl13  1  0.241972  0.748925  0.990895  1
  Cl  Cl14  1  0.241972  0.990895  0.748925  1
  Cl  Cl15  1  0.509205  0.249846  0.249846  1
  Cl  Cl16  1  0.758028  0.748924  0.506953  1
  Cl  Cl17  1  0.758028  0.506953  0.748924  1
  Cl  Cl18  1  0.490795  0.740642  0.740642  1
  Cl  Cl19  1  0.500000  0.497099  0.997099  1
  Cl  Cl20  1  0.500000  0.997099  0.497099  1
  Cl  Cl21  1  0.000000  0.494955  0.494955  1
