# generated using pymatgen
data_CeDy7(AlRu)2
_symmetry_space_group_name_H-M   'P 1'
_cell_length_a   9.55358348
_cell_length_b   9.49542175
_cell_length_c   9.49532029
_cell_angle_alpha   59.80669997
_cell_angle_beta   59.79130805
_cell_angle_gamma   59.79146615
_symmetry_Int_Tables_number   1
_chemical_formula_structural   CeDy7(AlRu)2
_chemical_formula_sum   'Ce2 Dy14 Al4 Ru4'
_cell_volume   606.26724767
_cell_formula_units_Z   2
loop_
 _symmetry_equiv_pos_site_id
 _symmetry_equiv_pos_as_xyz
  1  'x, y, z'
loop_
 _atom_site_type_symbol
 _atom_site_label
 _atom_site_symmetry_multiplicity
 _atom_site_fract_x
 _atom_site_fract_y
 _atom_site_fract_z
 _atom_site_occupancy
  Ce  Ce0  1  0.963948  0.343884  0.343897  1
  Ce  Ce1  1  0.348280  0.343902  0.343906  1
  Dy  Dy2  1  0.561629  0.562767  0.938500  1
  Dy  Dy3  1  0.937102  0.562776  0.938465  1
  Dy  Dy4  1  0.560581  0.939412  0.939408  1
  Dy  Dy5  1  0.937101  0.938463  0.562778  1
  Dy  Dy6  1  0.561631  0.938502  0.562763  1
  Dy  Dy7  1  0.938341  0.561666  0.561668  1
  Dy  Dy8  1  0.194524  0.193252  0.807286  1
  Dy  Dy9  1  0.804939  0.193258  0.807276  1
  Dy  Dy10  1  0.193392  0.806611  0.806600  1
  Dy  Dy11  1  0.804933  0.807279  0.193257  1
  Dy  Dy12  1  0.194523  0.807294  0.193251  1
  Dy  Dy13  1  0.806199  0.193808  0.193805  1
  Dy  Dy14  1  0.352188  0.354046  0.941552  1
  Dy  Dy15  1  0.352184  0.941556  0.354049  1
  Al  Al16  1  0.577816  0.574687  0.269611  1
  Al  Al17  1  0.577817  0.269611  0.574684  1
  Al  Al18  1  0.269603  0.575470  0.575469  1
  Al  Al19  1  0.579410  0.575488  0.575489  1
  Ru  Ru20  1  0.138187  0.150565  0.573186  1
  Ru  Ru21  1  0.138191  0.573184  0.150567  1
  Ru  Ru22  1  0.573358  0.146300  0.146308  1
  Ru  Ru23  1  0.134122  0.146221  0.146224  1
