# generated using pymatgen
data_Zr3Sc5P12(Ir3Rh5)2
_symmetry_space_group_name_H-M   'P 1'
_cell_length_a   12.78044200
_cell_length_b   12.78764893
_cell_length_c   3.90752500
_cell_angle_alpha   90.00000000
_cell_angle_beta   90.00000000
_cell_angle_gamma   119.98434424
_symmetry_Int_Tables_number   1
_chemical_formula_structural   Zr3Sc5P12(Ir3Rh5)2
_chemical_formula_sum   'Zr3 Sc5 P12 Ir6 Rh10'
_cell_volume   553.14305911
_cell_formula_units_Z   1
loop_
 _symmetry_equiv_pos_site_id
 _symmetry_equiv_pos_as_xyz
  1  'x, y, z'
loop_
 _atom_site_type_symbol
 _atom_site_label
 _atom_site_symmetry_multiplicity
 _atom_site_fract_x
 _atom_site_fract_y
 _atom_site_fract_z
 _atom_site_occupancy
  Zr  Zr0  1  0.447301  0.999213  0.000000  1
  Zr  Zr1  1  0.000684  0.447852  0.000000  1
  Zr  Zr2  1  0.551833  0.552521  0.000000  1
  Sc  Sc3  1  0.333114  0.666563  0.000000  1
  Sc  Sc4  1  0.665074  0.331984  0.000000  1
  Sc  Sc5  1  0.815925  0.000644  0.500000  1
  Sc  Sc6  1  0.000067  0.814837  0.500000  1
  Sc  Sc7  1  0.184445  0.184399  0.500000  1
  P  P8  1  0.173191  0.999166  0.000000  1
  P  P9  1  0.000794  0.173846  0.000000  1
  P  P10  1  0.825990  0.826100  0.000000  1
  P  P11  1  0.171558  0.484351  0.500000  1
  P  P12  1  0.515936  0.687893  0.500000  1
  P  P13  1  0.312303  0.828024  0.500000  1
  P  P14  1  0.687480  0.516245  0.500000  1
  P  P15  1  0.829224  0.313951  0.500000  1
  P  P16  1  0.483751  0.170521  0.500000  1
  P  P17  1  0.652255  0.000995  0.000000  1
  P  P18  1  0.999418  0.651461  0.000000  1
  P  P19  1  0.348720  0.347752  0.000000  1
  Ir  Ir20  1  0.643741  0.135627  0.500000  1
  Ir  Ir21  1  0.492315  0.356440  0.500000  1
  Ir  Ir22  1  0.274756  0.999355  0.500000  1
  Ir  Ir23  1  0.000626  0.275304  0.500000  1
  Ir  Ir24  1  0.724514  0.725153  0.500000  1
  Ir  Ir25  1  0.999760  0.999657  0.000000  1
  Rh  Rh26  1  0.356554  0.491203  0.500000  1
  Rh  Rh27  1  0.509428  0.866026  0.500000  1
  Rh  Rh28  1  0.133803  0.643736  0.500000  1
  Rh  Rh29  1  0.865762  0.510019  0.500000  1
  Rh  Rh30  1  0.179525  0.371017  0.000000  1
  Rh  Rh31  1  0.629097  0.808710  0.000000  1
  Rh  Rh32  1  0.192204  0.820739  0.000000  1
  Rh  Rh33  1  0.806982  0.628632  0.000000  1
  Rh  Rh34  1  0.821930  0.192088  0.000000  1
  Rh  Rh35  1  0.369943  0.177977  0.000000  1
