# generated using pymatgen
data_Zr10Bi3Pb3Au2
_symmetry_space_group_name_H-M   'P 1'
_cell_length_a   8.91446400
_cell_length_b   8.91446549
_cell_length_c   6.00046100
_cell_angle_alpha   90.00000000
_cell_angle_beta   90.00000000
_cell_angle_gamma   119.99999449
_symmetry_Int_Tables_number   1
_chemical_formula_structural   Zr10Bi3Pb3Au2
_chemical_formula_sum   'Zr10 Bi3 Pb3 Au2'
_cell_volume   412.95793594
_cell_formula_units_Z   1
loop_
 _symmetry_equiv_pos_site_id
 _symmetry_equiv_pos_as_xyz
  1  'x, y, z'
loop_
 _atom_site_type_symbol
 _atom_site_label
 _atom_site_symmetry_multiplicity
 _atom_site_fract_x
 _atom_site_fract_y
 _atom_site_fract_z
 _atom_site_occupancy
  Zr  Zr0  1  0.666667  0.333333  0.002194  1
  Zr  Zr1  1  0.333333  0.666667  0.002194  1
  Zr  Zr2  1  0.333333  0.666667  0.497806  1
  Zr  Zr3  1  0.666667  0.333333  0.497806  1
  Zr  Zr4  1  0.727098  0.727098  0.750000  1
  Zr  Zr5  1  0.272902  0.000000  0.750000  1
  Zr  Zr6  1  0.000000  0.272902  0.750000  1
  Zr  Zr7  1  0.274843  0.274843  0.250000  1
  Zr  Zr8  1  0.725157  0.000000  0.250000  1
  Zr  Zr9  1  0.000000  0.725157  0.250000  1
  Bi  Bi10  1  0.384497  0.384497  0.750000  1
  Bi  Bi11  1  0.615503  0.000000  0.750000  1
  Bi  Bi12  1  0.000000  0.615503  0.750000  1
  Pb  Pb13  1  0.618223  0.618223  0.250000  1
  Pb  Pb14  1  0.381777  0.000000  0.250000  1
  Pb  Pb15  1  0.000000  0.381777  0.250000  1
  Au  Au16  1  0.000000  0.000000  0.002663  1
  Au  Au17  1  0.000000  0.000000  0.497337  1
