# generated using pymatgen
data_NdY5CuRh17
_symmetry_space_group_name_H-M   'P 1'
_cell_length_a   5.30011901
_cell_length_b   5.30205947
_cell_length_c   17.40829900
_cell_angle_alpha   90.00000000
_cell_angle_beta   90.00000000
_cell_angle_gamma   119.96780504
_symmetry_Int_Tables_number   1
_chemical_formula_structural   NdY5CuRh17
_chemical_formula_sum   'Nd1 Y5 Cu1 Rh17'
_cell_volume   423.79710559
_cell_formula_units_Z   1
loop_
 _symmetry_equiv_pos_site_id
 _symmetry_equiv_pos_as_xyz
  1  'x, y, z'
loop_
 _atom_site_type_symbol
 _atom_site_label
 _atom_site_symmetry_multiplicity
 _atom_site_fract_x
 _atom_site_fract_y
 _atom_site_fract_z
 _atom_site_occupancy
  Nd  Nd0  1  0.666679  0.333332  0.250000  1
  Y  Y1  1  0.333340  0.666701  0.957774  1
  Y  Y2  1  0.666663  0.333323  0.041921  1
  Y  Y3  1  0.666663  0.333323  0.458079  1
  Y  Y4  1  0.333340  0.666701  0.542226  1
  Y  Y5  1  0.333330  0.666649  0.750000  1
  Cu  Cu6  1  0.333378  0.666717  0.250000  1
  Rh  Rh7  1  0.168599  0.831378  0.373487  1
  Rh  Rh8  1  0.168605  0.337202  0.373482  1
  Rh  Rh9  1  0.662772  0.831368  0.373493  1
  Rh  Rh10  1  0.832932  0.167074  0.625076  1
  Rh  Rh11  1  0.832926  0.665882  0.625081  1
  Rh  Rh12  1  0.334124  0.167079  0.625075  1
  Rh  Rh13  1  0.832932  0.167074  0.874924  1
  Rh  Rh14  1  0.832926  0.665882  0.874919  1
  Rh  Rh15  1  0.334124  0.167079  0.874925  1
  Rh  Rh16  1  0.168599  0.831378  0.126513  1
  Rh  Rh17  1  0.168605  0.337202  0.126518  1
  Rh  Rh18  1  0.662772  0.831368  0.126507  1
  Rh  Rh19  1  0.666653  0.333276  0.750000  1
  Rh  Rh20  1  0.999994  0.999949  0.250000  1
  Rh  Rh21  1  0.000019  0.000037  0.750000  1
  Rh  Rh22  1  0.000011  0.000011  0.497931  1
  Rh  Rh23  1  0.000011  0.000011  0.002069  1
