# generated using pymatgen
data_Nb(PtRh)4
_symmetry_space_group_name_H-M   'P 1'
_cell_length_a   6.23619304
_cell_length_b   6.23619270
_cell_length_c   6.23619367
_cell_angle_alpha   95.64245538
_cell_angle_beta   95.64244127
_cell_angle_gamma   143.45213669
_symmetry_Int_Tables_number   1
_chemical_formula_structural   Nb(PtRh)4
_chemical_formula_sum   'Nb1 Pt4 Rh4'
_cell_volume   137.13941533
_cell_formula_units_Z   1
loop_
 _symmetry_equiv_pos_site_id
 _symmetry_equiv_pos_as_xyz
  1  'x, y, z'
loop_
 _atom_site_type_symbol
 _atom_site_label
 _atom_site_symmetry_multiplicity
 _atom_site_fract_x
 _atom_site_fract_y
 _atom_site_fract_z
 _atom_site_occupancy
  Nb  Nb0  1  0.000000  0.000000  0.000000  1
  Pt  Pt1  1  0.000000  0.327939  0.327939  1
  Pt  Pt2  1  0.000000  0.672061  0.672061  1
  Pt  Pt3  1  0.672061  0.000000  0.672061  1
  Pt  Pt4  1  0.327939  0.000000  0.327939  1
  Rh  Rh5  1  0.338289  0.338289  0.676579  1
  Rh  Rh6  1  0.661711  0.661711  0.323421  1
  Rh  Rh7  1  0.661711  0.338289  0.000000  1
  Rh  Rh8  1  0.338289  0.661711  0.000000  1
