# generated using pymatgen
data_La2ScUO7
_symmetry_space_group_name_H-M   'P 1'
_cell_length_a   7.83701652
_cell_length_b   7.73862697
_cell_length_c   7.73862591
_cell_angle_alpha   59.60759721
_cell_angle_beta   59.57851110
_cell_angle_gamma   59.57851731
_symmetry_Int_Tables_number   1
_chemical_formula_structural   La2ScUO7
_chemical_formula_sum   'La4 Sc2 U2 O14'
_cell_volume   328.76018826
_cell_formula_units_Z   2
loop_
 _symmetry_equiv_pos_site_id
 _symmetry_equiv_pos_as_xyz
  1  'x, y, z'
loop_
 _atom_site_type_symbol
 _atom_site_label
 _atom_site_symmetry_multiplicity
 _atom_site_fract_x
 _atom_site_fract_y
 _atom_site_fract_z
 _atom_site_occupancy
  La  La0  1  0.625000  0.125000  0.125000  1
  La  La1  1  0.125000  0.125000  0.125000  1
  La  La2  1  0.125000  0.625000  0.125000  1
  La  La3  1  0.125000  0.125000  0.625000  1
  Sc  Sc4  1  0.625000  0.625000  0.125000  1
  Sc  Sc5  1  0.625000  0.125000  0.625000  1
  U  U6  1  0.625000  0.625000  0.625000  1
  U  U7  1  0.125000  0.625000  0.625000  1
  O  O8  1  0.709635  0.290365  0.290365  1
  O  O9  1  0.711736  0.708254  0.292105  1
  O  O10  1  0.287904  0.708254  0.292105  1
  O  O11  1  0.000613  0.999387  0.999387  1
  O  O12  1  0.711736  0.292105  0.708254  1
  O  O13  1  0.966849  0.533151  0.533151  1
  O  O14  1  0.283151  0.716849  0.716849  1
  O  O15  1  0.538264  0.957895  0.541746  1
  O  O16  1  0.249387  0.250613  0.250613  1
  O  O17  1  0.962096  0.541746  0.957895  1
  O  O18  1  0.538264  0.541746  0.957895  1
  O  O19  1  0.962096  0.957895  0.541746  1
  O  O20  1  0.540365  0.959635  0.959635  1
  O  O21  1  0.287904  0.292105  0.708254  1
