# generated using pymatgen
data_Yb3Lu(ReB4)4
_symmetry_space_group_name_H-M   'P 1'
_cell_length_a   3.57010100
_cell_length_b   5.96834886
_cell_length_c   11.53998647
_cell_angle_alpha   90.13035457
_cell_angle_beta   90.00000000
_cell_angle_gamma   90.00000000
_symmetry_Int_Tables_number   1
_chemical_formula_structural   Yb3Lu(ReB4)4
_chemical_formula_sum   'Yb3 Lu1 Re4 B16'
_cell_volume   245.88887434
_cell_formula_units_Z   1
loop_
 _symmetry_equiv_pos_site_id
 _symmetry_equiv_pos_as_xyz
  1  'x, y, z'
loop_
 _atom_site_type_symbol
 _atom_site_label
 _atom_site_symmetry_multiplicity
 _atom_site_fract_x
 _atom_site_fract_y
 _atom_site_fract_z
 _atom_site_occupancy
  Yb  Yb0  1  0.500000  0.628629  0.848849  1
  Yb  Yb1  1  0.500000  0.128381  0.649807  1
  Yb  Yb2  1  0.500000  0.872450  0.351154  1
  Lu  Lu3  1  0.500000  0.371617  0.150232  1
  Re  Re4  1  0.500000  0.369795  0.414662  1
  Re  Re5  1  0.500000  0.631012  0.583540  1
  Re  Re6  1  0.500000  0.132083  0.917023  1
  Re  Re7  1  0.500000  0.869507  0.085601  1
  B  B8  1  0.000000  0.114467  0.048580  1
  B  B9  1  0.000000  0.885259  0.952811  1
  B  B10  1  0.000000  0.384842  0.546821  1
  B  B11  1  0.000000  0.614358  0.451526  1
  B  B12  1  0.000000  0.134344  0.467424  1
  B  B13  1  0.000000  0.865353  0.531800  1
  B  B14  1  0.000000  0.365404  0.968926  1
  B  B15  1  0.000000  0.634790  0.032059  1
  B  B16  1  0.000000  0.024688  0.193259  1
  B  B17  1  0.000000  0.976296  0.808044  1
  B  B18  1  0.000000  0.475894  0.692255  1
  B  B19  1  0.000000  0.523882  0.306148  1
  B  B20  1  0.000000  0.214088  0.314170  1
  B  B21  1  0.000000  0.784711  0.684962  1
  B  B22  1  0.000000  0.283834  0.815019  1
  B  B23  1  0.000000  0.714316  0.185327  1
