# generated using pymatgen
data_Lu2Ta7WN12
_symmetry_space_group_name_H-M   'P 1'
_cell_length_a   5.27079800
_cell_length_b   5.27079757
_cell_length_c   10.70744700
_cell_angle_alpha   89.99968476
_cell_angle_beta   89.99968476
_cell_angle_gamma   119.86121083
_symmetry_Int_Tables_number   1
_chemical_formula_structural   Lu2Ta7WN12
_chemical_formula_sum   'Lu2 Ta7 W1 N12'
_cell_volume   257.97341471
_cell_formula_units_Z   1
loop_
 _symmetry_equiv_pos_site_id
 _symmetry_equiv_pos_as_xyz
  1  'x, y, z'
loop_
 _atom_site_type_symbol
 _atom_site_label
 _atom_site_symmetry_multiplicity
 _atom_site_fract_x
 _atom_site_fract_y
 _atom_site_fract_z
 _atom_site_occupancy
  Lu  Lu0  1  0.666848  0.333104  0.999823  1
  Lu  Lu1  1  0.333104  0.666848  0.999823  1
  Ta  Ta2  1  0.323242  0.999192  0.741623  1
  Ta  Ta3  1  0.999192  0.323242  0.741623  1
  Ta  Ta4  1  0.321457  0.321457  0.258927  1
  Ta  Ta5  1  0.678689  0.000054  0.259096  1
  Ta  Ta6  1  0.000054  0.678689  0.259096  1
  Ta  Ta7  1  0.331907  0.666436  0.496655  1
  Ta  Ta8  1  0.666436  0.331907  0.496655  1
  W  W9  1  0.676530  0.676530  0.740000  1
  N  N10  1  0.661861  0.661861  0.385679  1
  N  N11  1  0.337246  0.000419  0.384891  1
  N  N12  1  0.000419  0.337246  0.384891  1
  N  N13  1  0.344973  0.344973  0.616747  1
  N  N14  1  0.656958  0.998893  0.616763  1
  N  N15  1  0.998893  0.656958  0.616763  1
  N  N16  1  0.345497  0.345497  0.858897  1
  N  N17  1  0.657683  0.998489  0.859201  1
  N  N18  1  0.998489  0.657683  0.859201  1
  N  N19  1  0.655219  0.655219  0.141105  1
  N  N20  1  0.345006  0.000296  0.141270  1
  N  N21  1  0.000296  0.345006  0.141270  1
