# generated using pymatgen
data_Lu15Sc5ZnBi11
_symmetry_space_group_name_H-M   'P 1'
_cell_length_a   7.97200652
_cell_length_b   9.24598335
_cell_length_c   11.68301777
_cell_angle_alpha   89.94156844
_cell_angle_beta   89.67879610
_cell_angle_gamma   89.97975417
_symmetry_Int_Tables_number   1
_chemical_formula_structural   Lu15Sc5ZnBi11
_chemical_formula_sum   'Lu15 Sc5 Zn1 Bi11'
_cell_volume   861.12998676
_cell_formula_units_Z   1
loop_
 _symmetry_equiv_pos_site_id
 _symmetry_equiv_pos_as_xyz
  1  'x, y, z'
loop_
 _atom_site_type_symbol
 _atom_site_label
 _atom_site_symmetry_multiplicity
 _atom_site_fract_x
 _atom_site_fract_y
 _atom_site_fract_z
 _atom_site_occupancy
  Lu  Lu0  1  0.352518  0.248933  0.295920  1
  Lu  Lu1  1  0.650872  0.750105  0.716990  1
  Lu  Lu2  1  0.150739  0.749724  0.781188  1
  Lu  Lu3  1  0.850929  0.249662  0.215524  1
  Lu  Lu4  1  0.193310  0.249563  0.776611  1
  Lu  Lu5  1  0.808985  0.749983  0.216944  1
  Lu  Lu6  1  0.313255  0.750483  0.281900  1
  Lu  Lu7  1  0.672772  0.249611  0.710073  1
  Lu  Lu8  1  0.805644  0.932674  0.941805  1
  Lu  Lu9  1  0.307322  0.951676  0.557359  1
  Lu  Lu10  1  0.805948  0.567256  0.942042  1
  Lu  Lu11  1  0.686015  0.073179  0.445947  1
  Lu  Lu12  1  0.194862  0.431890  0.060978  1
  Lu  Lu13  1  0.685815  0.426536  0.446196  1
  Lu  Lu14  1  0.307379  0.548443  0.557509  1
  Sc  Sc15  1  0.035967  0.249969  0.508592  1
  Sc  Sc16  1  0.982438  0.750045  0.489801  1
  Sc  Sc17  1  0.476899  0.750512  0.011089  1
  Sc  Sc18  1  0.523603  0.248723  0.989726  1
  Sc  Sc19  1  0.195222  0.068696  0.061100  1
  Zn  Zn20  1  0.403321  0.250064  0.540257  1
  Bi  Bi21  1  0.600154  0.749905  0.457389  1
  Bi  Bi22  1  0.102590  0.754899  0.043185  1
  Bi  Bi23  1  0.905244  0.248126  0.954465  1
  Bi  Bi24  1  0.060239  0.002623  0.325114  1
  Bi  Bi25  1  0.936902  0.997970  0.671956  1
  Bi  Bi26  1  0.436132  0.996658  0.829294  1
  Bi  Bi27  1  0.936818  0.501759  0.672358  1
  Bi  Bi28  1  0.558989  0.004715  0.171229  1
  Bi  Bi29  1  0.059740  0.497703  0.326771  1
  Bi  Bi30  1  0.561816  0.494977  0.171999  1
  Bi  Bi31  1  0.437561  0.502936  0.828692  1
