# generated using pymatgen
data_UAl3Fe4
_symmetry_space_group_name_H-M   'P 1'
_cell_length_a   5.12860674
_cell_length_b   5.12860587
_cell_length_c   4.19318800
_cell_angle_alpha   90.00000000
_cell_angle_beta   90.00000000
_cell_angle_gamma   108.34638437
_symmetry_Int_Tables_number   1
_chemical_formula_structural   UAl3Fe4
_chemical_formula_sum   'U1 Al3 Fe4'
_cell_volume   104.68573479
_cell_formula_units_Z   1
loop_
 _symmetry_equiv_pos_site_id
 _symmetry_equiv_pos_as_xyz
  1  'x, y, z'
loop_
 _atom_site_type_symbol
 _atom_site_label
 _atom_site_symmetry_multiplicity
 _atom_site_fract_x
 _atom_site_fract_y
 _atom_site_fract_z
 _atom_site_occupancy
  U  U0  1  0.624968  0.375033  0.250001  1
  Al  Al1  1  0.125110  0.874891  0.250001  1
  Al  Al2  1  0.886739  0.113262  0.750000  1
  Al  Al3  1  0.363209  0.636792  0.750000  1
  Fe  Fe4  1  0.124955  0.374924  0.250001  1
  Fe  Fe5  1  0.625077  0.875046  0.250001  1
  Fe  Fe6  1  0.374734  0.124790  0.750000  1
  Fe  Fe7  1  0.875211  0.625267  0.750000  1
