# generated using pymatgen
data_PrGd3(ErSi2)2
_symmetry_space_group_name_H-M   'P 1'
_cell_length_a   7.55571600
_cell_length_b   7.55571654
_cell_length_c   4.32233000
_cell_angle_alpha   90.00000000
_cell_angle_beta   90.00000000
_cell_angle_gamma   90.66996728
_symmetry_Int_Tables_number   1
_chemical_formula_structural   PrGd3(ErSi2)2
_chemical_formula_sum   'Pr1 Gd3 Er2 Si4'
_cell_volume   246.73997258
_cell_formula_units_Z   1
loop_
 _symmetry_equiv_pos_site_id
 _symmetry_equiv_pos_as_xyz
  1  'x, y, z'
loop_
 _atom_site_type_symbol
 _atom_site_label
 _atom_site_symmetry_multiplicity
 _atom_site_fract_x
 _atom_site_fract_y
 _atom_site_fract_z
 _atom_site_occupancy
  Pr  Pr0  1  0.822943  0.677057  0.500000  1
  Gd  Gd1  1  0.674154  0.175462  0.500000  1
  Gd  Gd2  1  0.324538  0.825846  0.500000  1
  Gd  Gd3  1  0.177579  0.322421  0.500000  1
  Er  Er4  1  0.499974  0.499880  0.000000  1
  Er  Er5  1  0.000120  0.000026  0.000000  1
  Si  Si6  1  0.119984  0.612387  0.000000  1
  Si  Si7  1  0.887613  0.380016  0.000000  1
  Si  Si8  1  0.611333  0.888667  0.000000  1
  Si  Si9  1  0.381762  0.118238  0.000000  1
