# generated using pymatgen
data_Zr6Zn20GaNi3
_symmetry_space_group_name_H-M   'P 1'
_cell_length_a   8.74894202
_cell_length_b   8.74894178
_cell_length_c   8.69547600
_cell_angle_alpha   59.73622553
_cell_angle_beta   59.73622646
_cell_angle_gamma   59.54974651
_symmetry_Int_Tables_number   1
_chemical_formula_structural   Zr6Zn20GaNi3
_chemical_formula_sum   'Zr6 Zn20 Ga1 Ni3'
_cell_volume   467.15234550
_cell_formula_units_Z   1
loop_
 _symmetry_equiv_pos_site_id
 _symmetry_equiv_pos_as_xyz
  1  'x, y, z'
loop_
 _atom_site_type_symbol
 _atom_site_label
 _atom_site_symmetry_multiplicity
 _atom_site_fract_x
 _atom_site_fract_y
 _atom_site_fract_z
 _atom_site_occupancy
  Zr  Zr0  1  0.714656  0.282981  0.284924  1
  Zr  Zr1  1  0.285344  0.717019  0.715076  1
  Zr  Zr2  1  0.282981  0.714656  0.284924  1
  Zr  Zr3  1  0.717019  0.285344  0.715076  1
  Zr  Zr4  1  0.286803  0.286803  0.709929  1
  Zr  Zr5  1  0.713197  0.713197  0.290071  1
  Zn  Zn6  1  0.119292  0.119292  0.118404  1
  Zn  Zn7  1  0.880708  0.880708  0.881596  1
  Zn  Zn8  1  0.125929  0.125929  0.634891  1
  Zn  Zn9  1  0.115535  0.638260  0.130675  1
  Zn  Zn10  1  0.874071  0.874071  0.365109  1
  Zn  Zn11  1  0.884465  0.361740  0.869325  1
  Zn  Zn12  1  0.638260  0.115535  0.130675  1
  Zn  Zn13  1  0.361740  0.884465  0.869325  1
  Zn  Zn14  1  0.500000  0.000000  0.000000  1
  Zn  Zn15  1  0.000000  0.500000  0.000000  1
  Zn  Zn16  1  0.000000  0.000000  0.500000  1
  Zn  Zn17  1  0.500000  0.500000  0.000000  1
  Zn  Zn18  1  0.333598  0.333598  0.342141  1
  Zn  Zn19  1  0.666402  0.666402  0.657859  1
  Zn  Zn20  1  0.337320  0.337320  0.988769  1
  Zn  Zn21  1  0.339691  0.990232  0.341134  1
  Zn  Zn22  1  0.662680  0.662680  0.011231  1
  Zn  Zn23  1  0.660309  0.009768  0.658866  1
  Zn  Zn24  1  0.990232  0.339691  0.341134  1
  Zn  Zn25  1  0.009768  0.660309  0.658866  1
  Ga  Ga26  1  0.500000  0.500000  0.500000  1
  Ni  Ni27  1  0.000000  0.500000  0.500000  1
  Ni  Ni28  1  0.500000  0.000000  0.500000  1
  Ni  Ni29  1  0.000000  0.000000  0.000000  1
