# generated using pymatgen
data_Y5Er3Al8
_symmetry_space_group_name_H-M   'P 1'
_cell_length_a   5.59580300
_cell_length_b   5.85804015
_cell_length_c   11.42006528
_cell_angle_alpha   90.02548246
_cell_angle_beta   90.00000000
_cell_angle_gamma   90.00000000
_symmetry_Int_Tables_number   1
_chemical_formula_structural   Y5Er3Al8
_chemical_formula_sum   'Y5 Er3 Al8'
_cell_volume   374.35471196
_cell_formula_units_Z   1
loop_
 _symmetry_equiv_pos_site_id
 _symmetry_equiv_pos_as_xyz
  1  'x, y, z'
loop_
 _atom_site_type_symbol
 _atom_site_label
 _atom_site_symmetry_multiplicity
 _atom_site_fract_x
 _atom_site_fract_y
 _atom_site_fract_z
 _atom_site_occupancy
  Y  Y0  1  0.750000  0.164114  0.484827  1
  Y  Y1  1  0.250000  0.836105  0.515957  1
  Y  Y2  1  0.250000  0.162796  0.014864  1
  Y  Y3  1  0.750000  0.836893  0.983350  1
  Y  Y4  1  0.750000  0.399814  0.168616  1
  Er  Er5  1  0.250000  0.601463  0.831578  1
  Er  Er6  1  0.250000  0.398663  0.331802  1
  Er  Er7  1  0.750000  0.601332  0.668795  1
  Al  Al8  1  0.499633  0.931593  0.250353  1
  Al  Al9  1  0.000202  0.067500  0.749960  1
  Al  Al10  1  0.499798  0.067500  0.749960  1
  Al  Al11  1  0.000367  0.931593  0.250353  1
  Al  Al12  1  0.750000  0.660160  0.401858  1
  Al  Al13  1  0.250000  0.340171  0.598917  1
  Al  Al14  1  0.250000  0.660133  0.098516  1
  Al  Al15  1  0.750000  0.340170  0.900295  1
