# generated using pymatgen
data_K4Mn3CrP4(OF)12
_symmetry_space_group_name_H-M   'P 1'
_cell_length_a   12.87399000
_cell_length_b   5.51792468
_cell_length_c   7.87984300
_cell_angle_alpha   65.76172610
_cell_angle_beta   90.00000000
_cell_angle_gamma   90.00000000
_symmetry_Int_Tables_number   1
_chemical_formula_structural   K4Mn3CrP4(OF)12
_chemical_formula_sum   'K4 Mn3 Cr1 P4 O12 F12'
_cell_volume   510.42041516
_cell_formula_units_Z   1
loop_
 _symmetry_equiv_pos_site_id
 _symmetry_equiv_pos_as_xyz
  1  'x, y, z'
loop_
 _atom_site_type_symbol
 _atom_site_label
 _atom_site_symmetry_multiplicity
 _atom_site_fract_x
 _atom_site_fract_y
 _atom_site_fract_z
 _atom_site_occupancy
  K  K0  1  0.199378  0.649862  0.809402  1
  K  K1  1  0.299059  0.646980  0.307704  1
  K  K2  1  0.800622  0.350138  0.190598  1
  K  K3  1  0.700941  0.353020  0.692296  1
  Mn  Mn4  1  0.500000  0.500000  0.000000  1
  Mn  Mn5  1  0.000000  0.000000  0.000000  1
  Mn  Mn6  1  0.500000  0.000000  0.500000  1
  Cr  Cr7  1  0.000000  0.500000  0.500000  1
  P  P8  1  0.102426  0.109107  0.320183  1
  P  P9  1  0.394156  0.124371  0.816004  1
  P  P10  1  0.897574  0.890893  0.679817  1
  P  P11  1  0.605844  0.875629  0.183996  1
  O  O12  1  0.104400  0.810284  0.445263  1
  O  O13  1  0.386010  0.832257  0.944653  1
  O  O14  1  0.895600  0.189716  0.554737  1
  O  O15  1  0.613990  0.167743  0.055347  1
  O  O16  1  0.024869  0.192289  0.159330  1
  O  O17  1  0.473834  0.194632  0.658040  1
  O  O18  1  0.975131  0.807711  0.840670  1
  O  O19  1  0.526166  0.805368  0.341960  1
  O  O20  1  0.103020  0.290070  0.422722  1
  O  O21  1  0.397656  0.312030  0.915097  1
  O  O22  1  0.896980  0.709930  0.577278  1
  O  O23  1  0.602344  0.687970  0.084903  1
  F  F24  1  0.055974  0.336872  0.750284  1
  F  F25  1  0.444293  0.335758  0.243908  1
  F  F26  1  0.944026  0.663128  0.249716  1
  F  F27  1  0.555707  0.664242  0.756092  1
  F  F28  1  0.133939  0.857036  0.043100  1
  F  F29  1  0.365817  0.860572  0.540031  1
  F  F30  1  0.866061  0.142964  0.956900  1
  F  F31  1  0.634183  0.139428  0.459969  1
  F  F32  1  0.215106  0.167727  0.224154  1
  F  F33  1  0.283692  0.203424  0.712138  1
  F  F34  1  0.784894  0.832273  0.775846  1
  F  F35  1  0.716308  0.796576  0.287862  1
