# generated using pymatgen
data_Dy9Er5Tm2(Ga3Co)2
_symmetry_space_group_name_H-M   'P 1'
_cell_length_a   9.94214600
_cell_length_b   9.94149729
_cell_length_c   6.94921503
_cell_angle_alpha   89.99728154
_cell_angle_beta   90.00000000
_cell_angle_gamma   120.00214524
_symmetry_Int_Tables_number   1
_chemical_formula_structural   Dy9Er5Tm2(Ga3Co)2
_chemical_formula_sum   'Dy9 Er5 Tm2 Ga6 Co2'
_cell_volume   594.82460904
_cell_formula_units_Z   1
loop_
 _symmetry_equiv_pos_site_id
 _symmetry_equiv_pos_as_xyz
  1  'x, y, z'
loop_
 _atom_site_type_symbol
 _atom_site_label
 _atom_site_symmetry_multiplicity
 _atom_site_fract_x
 _atom_site_fract_y
 _atom_site_fract_z
 _atom_site_occupancy
  Dy  Dy0  1  0.666837  0.333674  0.326907  1
  Dy  Dy1  1  0.463174  0.537292  0.207453  1
  Dy  Dy2  1  0.074116  0.537292  0.207453  1
  Dy  Dy3  1  0.462780  0.925560  0.207605  1
  Dy  Dy4  1  0.537014  0.463564  0.708868  1
  Dy  Dy5  1  0.926550  0.463564  0.708868  1
  Dy  Dy6  1  0.536725  0.073449  0.708532  1
  Dy  Dy7  1  0.999920  0.999838  0.232278  1
  Dy  Dy8  1  0.999808  0.999614  0.731793  1
  Er  Er9  1  0.173647  0.826439  0.512495  1
  Er  Er10  1  0.652791  0.826439  0.512495  1
  Er  Er11  1  0.173621  0.347245  0.512397  1
  Er  Er12  1  0.827042  0.172896  0.011349  1
  Er  Er13  1  0.345854  0.172896  0.011349  1
  Tm  Tm14  1  0.826851  0.653702  0.011389  1
  Tm  Tm15  1  0.333342  0.666684  0.825090  1
  Ga  Ga16  1  0.163066  0.835567  0.957413  1
  Ga  Ga17  1  0.672502  0.835567  0.957413  1
  Ga  Ga18  1  0.163981  0.327962  0.957289  1
  Ga  Ga19  1  0.836921  0.163103  0.458419  1
  Ga  Ga20  1  0.326181  0.163103  0.458419  1
  Ga  Ga21  1  0.836969  0.673940  0.457668  1
  Co  Co22  1  0.333344  0.666688  0.445327  1
  Co  Co23  1  0.666962  0.333923  0.946568  1
