# generated using pymatgen
data_Ho16Lu3MgRh12
_symmetry_space_group_name_H-M   'P 1'
_cell_length_a   10.79250200
_cell_length_b   10.79250200
_cell_length_c   6.29699500
_cell_angle_alpha   90.00000000
_cell_angle_beta   90.00000000
_cell_angle_gamma   90.00000000
_symmetry_Int_Tables_number   1
_chemical_formula_structural   Ho16Lu3MgRh12
_chemical_formula_sum   'Ho16 Lu3 Mg1 Rh12'
_cell_volume   733.46200966
_cell_formula_units_Z   1
loop_
 _symmetry_equiv_pos_site_id
 _symmetry_equiv_pos_as_xyz
  1  'x, y, z'
loop_
 _atom_site_type_symbol
 _atom_site_label
 _atom_site_symmetry_multiplicity
 _atom_site_fract_x
 _atom_site_fract_y
 _atom_site_fract_z
 _atom_site_occupancy
  Ho  Ho0  1  0.283739  0.085101  0.379105  1
  Ho  Ho1  1  0.289860  0.911690  0.879614  1
  Ho  Ho2  1  0.710140  0.088310  0.879614  1
  Ho  Ho3  1  0.716261  0.914899  0.379105  1
  Ho  Ho4  1  0.588949  0.790921  0.879724  1
  Ho  Ho5  1  0.587670  0.208958  0.377736  1
  Ho  Ho6  1  0.412330  0.791042  0.377736  1
  Ho  Ho7  1  0.411051  0.209079  0.879724  1
  Ho  Ho8  1  0.208958  0.412330  0.622264  1
  Ho  Ho9  1  0.209079  0.588949  0.120276  1
  Ho  Ho10  1  0.790921  0.411051  0.120276  1
  Ho  Ho11  1  0.791042  0.587670  0.622264  1
  Ho  Ho12  1  0.911690  0.710140  0.120386  1
  Ho  Ho13  1  0.914899  0.283739  0.620895  1
  Ho  Ho14  1  0.085101  0.716261  0.620895  1
  Ho  Ho15  1  0.088310  0.289860  0.120386  1
  Lu  Lu16  1  0.000000  0.000000  0.000000  1
  Lu  Lu17  1  0.500000  0.500000  0.000000  1
  Lu  Lu18  1  0.500000  0.500000  0.500000  1
  Mg  Mg19  1  0.000000  0.000000  0.500000  1
  Rh  Rh20  1  0.847221  0.153504  0.246428  1
  Rh  Rh21  1  0.846496  0.847221  0.753572  1
  Rh  Rh22  1  0.153504  0.152779  0.753572  1
  Rh  Rh23  1  0.152779  0.846496  0.246428  1
  Rh  Rh24  1  0.652747  0.347727  0.748273  1
  Rh  Rh25  1  0.652273  0.652747  0.251727  1
  Rh  Rh26  1  0.347727  0.347253  0.251727  1
  Rh  Rh27  1  0.347253  0.652273  0.748273  1
  Rh  Rh28  1  0.500000  0.000000  0.124174  1
  Rh  Rh29  1  0.500000  0.000000  0.621030  1
  Rh  Rh30  1  0.000000  0.500000  0.875826  1
  Rh  Rh31  1  0.000000  0.500000  0.378970  1
