# generated using pymatgen
data_Ta4Al3V3Zn2
_symmetry_space_group_name_H-M   'P 1'
_cell_length_a   5.02641430
_cell_length_b   5.02641511
_cell_length_c   8.45203600
_cell_angle_alpha   90.00000000
_cell_angle_beta   90.00000000
_cell_angle_gamma   120.43859805
_symmetry_Int_Tables_number   1
_chemical_formula_structural   Ta4Al3V3Zn2
_chemical_formula_sum   'Ta4 Al3 V3 Zn2'
_cell_volume   184.10779556
_cell_formula_units_Z   1
loop_
 _symmetry_equiv_pos_site_id
 _symmetry_equiv_pos_as_xyz
  1  'x, y, z'
loop_
 _atom_site_type_symbol
 _atom_site_label
 _atom_site_symmetry_multiplicity
 _atom_site_fract_x
 _atom_site_fract_y
 _atom_site_fract_z
 _atom_site_occupancy
  Ta  Ta0  1  0.333285  0.666715  0.445189  1
  Ta  Ta1  1  0.668750  0.331250  0.564984  1
  Ta  Ta2  1  0.668750  0.331250  0.935016  1
  Ta  Ta3  1  0.333285  0.666715  0.054811  1
  Al  Al4  1  0.002478  0.997522  0.500148  1
  Al  Al5  1  0.002478  0.997522  0.999852  1
  Al  Al6  1  0.823307  0.176693  0.250000  1
  V  V7  1  0.173954  0.826046  0.750000  1
  V  V8  1  0.174822  0.344548  0.750000  1
  V  V9  1  0.655452  0.825178  0.750000  1
  Zn  Zn10  1  0.825118  0.661678  0.250000  1
  Zn  Zn11  1  0.338322  0.174882  0.250000  1
