# generated using pymatgen
data_Tm7(CCl5)2
_symmetry_space_group_name_H-M   'P 1'
_cell_length_a   10.13235356
_cell_length_b   10.13235268
_cell_length_c   12.59764290
_cell_angle_alpha   79.40287942
_cell_angle_beta   79.40288087
_cell_angle_gamma   21.09819688
_symmetry_Int_Tables_number   1
_chemical_formula_structural   Tm7(CCl5)2
_chemical_formula_sum   'Tm7 C2 Cl10'
_cell_volume   457.33920577
_cell_formula_units_Z   1
loop_
 _symmetry_equiv_pos_site_id
 _symmetry_equiv_pos_as_xyz
  1  'x, y, z'
loop_
 _atom_site_type_symbol
 _atom_site_label
 _atom_site_symmetry_multiplicity
 _atom_site_fract_x
 _atom_site_fract_y
 _atom_site_fract_z
 _atom_site_occupancy
  Tm  Tm0  1  0.817905  0.817905  0.506560  1
  Tm  Tm1  1  0.182095  0.182095  0.493440  1
  Tm  Tm2  1  0.698693  0.698693  0.721511  1
  Tm  Tm3  1  0.301307  0.301307  0.278489  1
  Tm  Tm4  1  0.343311  0.343311  0.728823  1
  Tm  Tm5  1  0.656689  0.656689  0.271177  1
  Tm  Tm6  1  0.000000  0.000000  0.000000  1
  C  C7  1  0.260346  0.260346  0.625411  1
  C  C8  1  0.739654  0.739654  0.374589  1
  Cl  Cl9  1  0.453524  0.453524  0.881633  1
  Cl  Cl10  1  0.546476  0.546476  0.118367  1
  Cl  Cl11  1  0.785397  0.785397  0.869524  1
  Cl  Cl12  1  0.214603  0.214603  0.130476  1
  Cl  Cl13  1  0.120206  0.120206  0.867648  1
  Cl  Cl14  1  0.075289  0.075289  0.373750  1
  Cl  Cl15  1  0.924711  0.924711  0.626250  1
  Cl  Cl16  1  0.403032  0.403032  0.383816  1
  Cl  Cl17  1  0.596968  0.596968  0.616184  1
  Cl  Cl18  1  0.879794  0.879794  0.132352  1
