# generated using pymatgen
data_DyHo4Tm11(InRh)4
_symmetry_space_group_name_H-M   'P 1'
_cell_length_a   9.55534181
_cell_length_b   9.55552872
_cell_length_c   9.55450305
_cell_angle_alpha   60.02344542
_cell_angle_beta   59.98426806
_cell_angle_gamma   59.98011633
_symmetry_Int_Tables_number   1
_chemical_formula_structural   DyHo4Tm11(InRh)4
_chemical_formula_sum   'Dy1 Ho4 Tm11 In4 Rh4'
_cell_volume   616.81362169
_cell_formula_units_Z   1
loop_
 _symmetry_equiv_pos_site_id
 _symmetry_equiv_pos_as_xyz
  1  'x, y, z'
loop_
 _atom_site_type_symbol
 _atom_site_label
 _atom_site_symmetry_multiplicity
 _atom_site_fract_x
 _atom_site_fract_y
 _atom_site_fract_z
 _atom_site_occupancy
  Dy  Dy0  1  0.062172  0.062483  0.437665  1
  Ho  Ho1  1  0.438161  0.061985  0.438050  1
  Ho  Ho2  1  0.062103  0.437895  0.062213  1
  Ho  Ho3  1  0.049537  0.650062  0.650215  1
  Ho  Ho4  1  0.438030  0.438027  0.061969  1
  Tm  Tm5  1  0.650303  0.048891  0.650369  1
  Tm  Tm6  1  0.188453  0.811616  0.188052  1
  Tm  Tm7  1  0.188431  0.188125  0.811714  1
  Tm  Tm8  1  0.811320  0.811523  0.188571  1
  Tm  Tm9  1  0.439253  0.060891  0.060707  1
  Tm  Tm10  1  0.811353  0.188434  0.188357  1
  Tm  Tm11  1  0.060982  0.438994  0.438831  1
  Tm  Tm12  1  0.811214  0.188596  0.811659  1
  Tm  Tm13  1  0.188317  0.811745  0.812015  1
  Tm  Tm14  1  0.650372  0.650322  0.048884  1
  Tm  Tm15  1  0.650326  0.650380  0.650397  1
  In  In16  1  0.416928  0.417081  0.417099  1
  In  In17  1  0.748731  0.417425  0.417237  1
  In  In18  1  0.418106  0.748972  0.416062  1
  In  In19  1  0.417959  0.416017  0.749198  1
  Rh  Rh20  1  0.857083  0.857584  0.426688  1
  Rh  Rh21  1  0.856240  0.858402  0.858642  1
  Rh  Rh22  1  0.427504  0.857784  0.857767  1
  Rh  Rh23  1  0.857118  0.426766  0.857640  1
