# generated using pymatgen
data_CsRbSi2(BiSe4)2
_symmetry_space_group_name_H-M   'P 1'
_cell_length_a   7.25477994
_cell_length_b   6.90737996
_cell_length_c   19.34834116
_cell_angle_alpha   71.77837282
_cell_angle_beta   90.17483010
_cell_angle_gamma   89.96833317
_symmetry_Int_Tables_number   1
_chemical_formula_structural   CsRbSi2(BiSe4)2
_chemical_formula_sum   'Cs2 Rb2 Si4 Bi4 Se16'
_cell_volume   920.94915479
_cell_formula_units_Z   2
loop_
 _symmetry_equiv_pos_site_id
 _symmetry_equiv_pos_as_xyz
  1  'x, y, z'
loop_
 _atom_site_type_symbol
 _atom_site_label
 _atom_site_symmetry_multiplicity
 _atom_site_fract_x
 _atom_site_fract_y
 _atom_site_fract_z
 _atom_site_occupancy
  Cs  Cs0  1  0.746798  0.730257  0.532806  1
  Cs  Cs1  1  0.253202  0.269743  0.467194  1
  Rb  Rb2  1  0.746789  0.730322  0.032466  1
  Rb  Rb3  1  0.253211  0.269678  0.967534  1
  Si  Si4  1  0.719703  0.199638  0.842185  1
  Si  Si5  1  0.777545  0.204509  0.333220  1
  Si  Si6  1  0.222455  0.795491  0.666780  1
  Si  Si7  1  0.280297  0.800362  0.157815  1
  Bi  Bi8  1  0.197156  0.248154  0.217778  1
  Bi  Bi9  1  0.700227  0.761570  0.273485  1
  Bi  Bi10  1  0.802844  0.751846  0.782222  1
  Bi  Bi11  1  0.299773  0.238430  0.726515  1
  Se  Se12  1  0.521926  0.020349  0.133756  1
  Se  Se13  1  0.757178  0.407743  0.406116  1
  Se  Se14  1  0.979988  0.000993  0.856654  1
  Se  Se15  1  0.829987  0.411486  0.214844  1
  Se  Se16  1  0.985671  0.023393  0.644126  1
  Se  Se17  1  0.251857  0.594723  0.085600  1
  Se  Se18  1  0.748143  0.405277  0.914400  1
  Se  Se19  1  0.330563  0.596216  0.276510  1
  Se  Se20  1  0.242822  0.592257  0.593884  1
  Se  Se21  1  0.478074  0.979651  0.866244  1
  Se  Se22  1  0.669437  0.403784  0.723490  1
  Se  Se23  1  0.170013  0.588514  0.785156  1
  Se  Se24  1  0.014329  0.976607  0.355874  1
  Se  Se25  1  0.020012  0.999007  0.143346  1
  Se  Se26  1  0.514874  0.010342  0.345413  1
  Se  Se27  1  0.485126  0.989658  0.654587  1
