# generated using pymatgen
data_YbCe7(Ta3Ge4)4
_symmetry_space_group_name_H-M   'P 1'
_cell_length_a   7.09445619
_cell_length_b   7.21349819
_cell_length_c   13.63944597
_cell_angle_alpha   90.05467884
_cell_angle_beta   89.89776981
_cell_angle_gamma   90.07086401
_symmetry_Int_Tables_number   1
_chemical_formula_structural   YbCe7(Ta3Ge4)4
_chemical_formula_sum   'Yb1 Ce7 Ta12 Ge16'
_cell_volume   698.00823723
_cell_formula_units_Z   1
loop_
 _symmetry_equiv_pos_site_id
 _symmetry_equiv_pos_as_xyz
  1  'x, y, z'
loop_
 _atom_site_type_symbol
 _atom_site_label
 _atom_site_symmetry_multiplicity
 _atom_site_fract_x
 _atom_site_fract_y
 _atom_site_fract_z
 _atom_site_occupancy
  Yb  Yb0  1  0.493876  0.671392  0.592775  1
  Ce  Ce1  1  0.996470  0.828448  0.905233  1
  Ce  Ce2  1  0.504499  0.329682  0.092931  1
  Ce  Ce3  1  0.004112  0.170690  0.408733  1
  Ce  Ce4  1  0.504034  0.328750  0.407784  1
  Ce  Ce5  1  0.004765  0.170163  0.092840  1
  Ce  Ce6  1  0.496803  0.670448  0.906571  1
  Ce  Ce7  1  0.997307  0.829628  0.592734  1
  Ta  Ta8  1  0.661116  0.168508  0.626610  1
  Ta  Ta9  1  0.161577  0.334452  0.873706  1
  Ta  Ta10  1  0.340367  0.833594  0.126679  1
  Ta  Ta11  1  0.842079  0.667301  0.373591  1
  Ta  Ta12  1  0.338600  0.834400  0.373012  1
  Ta  Ta13  1  0.841045  0.666419  0.126519  1
  Ta  Ta14  1  0.658081  0.167198  0.873211  1
  Ta  Ta15  1  0.155170  0.329720  0.626395  1
  Ta  Ta16  1  0.835565  0.489693  0.749835  1
  Ta  Ta17  1  0.333460  0.012412  0.751540  1
  Ta  Ta18  1  0.165726  0.509845  0.250634  1
  Ta  Ta19  1  0.665665  0.990189  0.249991  1
  Ge  Ge20  1  0.670642  0.953894  0.456493  1
  Ge  Ge21  1  0.172170  0.544550  0.044454  1
  Ge  Ge22  1  0.327833  0.044378  0.955891  1
  Ge  Ge23  1  0.822777  0.459887  0.545110  1
  Ge  Ge24  1  0.331573  0.040653  0.545755  1
  Ge  Ge25  1  0.828527  0.454989  0.955329  1
  Ge  Ge26  1  0.672099  0.955264  0.044109  1
  Ge  Ge27  1  0.173192  0.544313  0.456631  1
  Ge  Ge28  1  0.461044  0.376485  0.748342  1
  Ge  Ge29  1  0.959299  0.124741  0.751101  1
  Ge  Ge30  1  0.539737  0.625749  0.250497  1
  Ge  Ge31  1  0.039238  0.874995  0.249907  1
  Ge  Ge32  1  0.688676  0.860338  0.746456  1
  Ge  Ge33  1  0.196176  0.636456  0.747627  1
  Ge  Ge34  1  0.308503  0.137768  0.250512  1
  Ge  Ge35  1  0.808195  0.362609  0.250463  1
