# generated using pymatgen
data_Cs8Na4PrNd3Sb8
_symmetry_space_group_name_H-M   'P 1'
_cell_length_a   11.77854984
_cell_length_b   11.77854978
_cell_length_c   7.68812108
_cell_angle_alpha   89.99122295
_cell_angle_beta   90.00876879
_cell_angle_gamma   98.79082261
_symmetry_Int_Tables_number   1
_chemical_formula_structural   Cs8Na4PrNd3Sb8
_chemical_formula_sum   'Cs8 Na4 Pr1 Nd3 Sb8'
_cell_volume   1054.07602938
_cell_formula_units_Z   1
loop_
 _symmetry_equiv_pos_site_id
 _symmetry_equiv_pos_as_xyz
  1  'x, y, z'
loop_
 _atom_site_type_symbol
 _atom_site_label
 _atom_site_symmetry_multiplicity
 _atom_site_fract_x
 _atom_site_fract_y
 _atom_site_fract_z
 _atom_site_occupancy
  Cs  Cs0  1  0.068861  0.431290  0.250038  1
  Cs  Cs1  1  0.431290  0.068861  0.749962  1
  Cs  Cs2  1  0.930598  0.569041  0.749865  1
  Cs  Cs3  1  0.569041  0.930598  0.250135  1
  Cs  Cs4  1  0.678166  0.322179  0.212892  1
  Cs  Cs5  1  0.821910  0.178030  0.712576  1
  Cs  Cs6  1  0.322179  0.678166  0.787108  1
  Cs  Cs7  1  0.178030  0.821910  0.287424  1
  Na  Na8  1  0.382188  0.382188  0.000000  1
  Na  Na9  1  0.117924  0.117924  0.500000  1
  Na  Na10  1  0.617774  0.617774  0.000000  1
  Na  Na11  1  0.882162  0.882162  0.500000  1
  Pr  Pr12  1  0.632756  0.632756  0.500000  1
  Nd  Nd13  1  0.133015  0.133015  0.000000  1
  Nd  Nd14  1  0.367138  0.367138  0.500000  1
  Nd  Nd15  1  0.867548  0.867548  0.000000  1
  Sb  Sb16  1  0.846224  0.654149  0.249403  1
  Sb  Sb17  1  0.654149  0.846224  0.750597  1
  Sb  Sb18  1  0.154625  0.345579  0.749961  1
  Sb  Sb19  1  0.345579  0.154625  0.250039  1
  Sb  Sb20  1  0.903435  0.096414  0.215492  1
  Sb  Sb21  1  0.596352  0.402639  0.716555  1
  Sb  Sb22  1  0.096414  0.903435  0.784508  1
  Sb  Sb23  1  0.402639  0.596352  0.283445  1
