# generated using pymatgen
data_Cs2Si4Mo3P12W3O50
_symmetry_space_group_name_H-M   'P 1'
_cell_length_a   8.45599000
_cell_length_b   8.45598987
_cell_length_c   18.19295400
_cell_angle_alpha   90.00000000
_cell_angle_beta   90.00000000
_cell_angle_gamma   120.00000052
_symmetry_Int_Tables_number   1
_chemical_formula_structural   Cs2Si4Mo3P12W3O50
_chemical_formula_sum   'Cs2 Si4 Mo3 P12 W3 O50'
_cell_volume   1126.58188947
_cell_formula_units_Z   1
loop_
 _symmetry_equiv_pos_site_id
 _symmetry_equiv_pos_as_xyz
  1  'x, y, z'
loop_
 _atom_site_type_symbol
 _atom_site_label
 _atom_site_symmetry_multiplicity
 _atom_site_fract_x
 _atom_site_fract_y
 _atom_site_fract_z
 _atom_site_occupancy
  Cs  Cs0  1  0.666667  0.333333  0.750104  1
  Cs  Cs1  1  0.333333  0.666667  0.249260  1
  Si  Si2  1  0.000000  0.000000  0.587971  1
  Si  Si3  1  0.000000  0.000000  0.411990  1
  Si  Si4  1  0.000000  0.000000  0.912286  1
  Si  Si5  1  0.000000  0.000000  0.088155  1
  Mo  Mo6  1  0.333333  0.666667  0.019444  1
  Mo  Mo7  1  0.333333  0.666667  0.750069  1
  Mo  Mo8  1  0.666667  0.333333  0.249765  1
  P  P9  1  0.331199  0.377346  0.609995  1
  P  P10  1  0.668825  0.622615  0.389930  1
  P  P11  1  0.622654  0.953853  0.609995  1
  P  P12  1  0.331162  0.953043  0.890388  1
  P  P13  1  0.377385  0.046210  0.389930  1
  P  P14  1  0.668405  0.045617  0.109720  1
  P  P15  1  0.046147  0.668801  0.609995  1
  P  P16  1  0.621882  0.668838  0.890388  1
  P  P17  1  0.953790  0.331175  0.389930  1
  P  P18  1  0.377212  0.331595  0.109720  1
  P  P19  1  0.046957  0.378118  0.890388  1
  P  P20  1  0.954383  0.622788  0.109720  1
  W  W21  1  0.666667  0.333333  0.519319  1
  W  W22  1  0.333333  0.666667  0.480600  1
  W  W23  1  0.666667  0.333333  0.980675  1
  O  O24  1  0.252225  0.441781  0.548045  1
  O  O25  1  0.747767  0.558213  0.451919  1
  O  O26  1  0.558219  0.810443  0.548045  1
  O  O27  1  0.252263  0.809568  0.952393  1
  O  O28  1  0.441787  0.189553  0.451919  1
  O  O29  1  0.748070  0.189531  0.047933  1
  O  O30  1  0.189557  0.747775  0.548045  1
  O  O31  1  0.557305  0.747737  0.952393  1
  O  O32  1  0.810447  0.252233  0.451919  1
  O  O33  1  0.441461  0.251930  0.047933  1
  O  O34  1  0.190432  0.442695  0.952393  1
  O  O35  1  0.810469  0.558539  0.047933  1
  O  O36  1  0.341628  0.460569  0.684399  1
  O  O37  1  0.658586  0.539402  0.315540  1
  O  O38  1  0.539431  0.881059  0.684399  1
  O  O39  1  0.341653  0.880407  0.815944  1
  O  O40  1  0.460598  0.119184  0.315540  1
  O  O41  1  0.657197  0.118101  0.184127  1
  O  O42  1  0.118941  0.658372  0.684399  1
  O  O43  1  0.538754  0.658347  0.815944  1
  O  O44  1  0.880816  0.341414  0.315540  1
  O  O45  1  0.460903  0.342803  0.184127  1
  O  O46  1  0.119593  0.461246  0.815944  1
  O  O47  1  0.881899  0.539097  0.184127  1
  O  O48  1  0.000000  0.000000  0.499996  1
  O  O49  1  0.000000  0.000000  0.000199  1
  O  O50  1  0.597009  0.115908  0.589117  1
  O  O51  1  0.403055  0.884184  0.410837  1
  O  O52  1  0.884092  0.481100  0.589117  1
  O  O53  1  0.596760  0.481173  0.911033  1
  O  O54  1  0.115816  0.518871  0.410837  1
  O  O55  1  0.403137  0.519313  0.088477  1
  O  O56  1  0.518900  0.402991  0.589117  1
  O  O57  1  0.884412  0.403240  0.911033  1
  O  O58  1  0.481129  0.596945  0.410837  1
  O  O59  1  0.116177  0.596863  0.088477  1
  O  O60  1  0.518827  0.115588  0.911033  1
  O  O61  1  0.480687  0.883823  0.088477  1
  O  O62  1  0.837608  0.032976  0.619099  1
  O  O63  1  0.162412  0.967033  0.380894  1
  O  O64  1  0.967024  0.804632  0.619099  1
  O  O65  1  0.836754  0.805033  0.881210  1
  O  O66  1  0.032967  0.195379  0.380894  1
  O  O67  1  0.162415  0.195679  0.119056  1
  O  O68  1  0.195368  0.162392  0.619099  1
  O  O69  1  0.968279  0.163246  0.881210  1
  O  O70  1  0.804621  0.837588  0.380894  1
  O  O71  1  0.033264  0.837585  0.119056  1
  O  O72  1  0.194967  0.031721  0.881210  1
  O  O73  1  0.804321  0.966736  0.119056  1
