# generated using pymatgen
data_Nd12AlIn(NiOs)2
_symmetry_space_group_name_H-M   'P 1'
_cell_length_a   8.64194991
_cell_length_b   8.64194964
_cell_length_c   8.64195000
_cell_angle_alpha   112.80352997
_cell_angle_beta   110.48276804
_cell_angle_gamma   105.21857464
_symmetry_Int_Tables_number   1
_chemical_formula_structural   Nd12AlIn(NiOs)2
_chemical_formula_sum   'Nd12 Al1 In1 Ni2 Os2'
_cell_volume   494.58340415
_cell_formula_units_Z   1
loop_
 _symmetry_equiv_pos_site_id
 _symmetry_equiv_pos_as_xyz
  1  'x, y, z'
loop_
 _atom_site_type_symbol
 _atom_site_label
 _atom_site_symmetry_multiplicity
 _atom_site_fract_x
 _atom_site_fract_y
 _atom_site_fract_z
 _atom_site_occupancy
  Nd  Nd0  1  0.432928  0.238365  0.194563  1
  Nd  Nd1  1  0.567072  0.761635  0.805437  1
  Nd  Nd2  1  0.043802  0.238365  0.805437  1
  Nd  Nd3  1  0.956198  0.761635  0.194563  1
  Nd  Nd4  1  0.181340  0.280311  0.461652  1
  Nd  Nd5  1  0.818660  0.719689  0.538348  1
  Nd  Nd6  1  0.181340  0.719689  0.901029  1
  Nd  Nd7  1  0.818660  0.280311  0.098971  1
  Nd  Nd8  1  0.327818  0.642231  0.314414  1
  Nd  Nd9  1  0.672182  0.357769  0.685586  1
  Nd  Nd10  1  0.327818  0.013405  0.685586  1
  Nd  Nd11  1  0.672182  0.986595  0.314414  1
  Al  Al12  1  0.000000  0.000000  0.000000  1
  In  In13  1  0.500000  0.500000  0.000000  1
  Ni  Ni14  1  0.114398  0.614398  0.500000  1
  Ni  Ni15  1  0.885602  0.385602  0.500000  1
  Os  Os16  1  0.326835  0.000000  0.326835  1
  Os  Os17  1  0.673165  0.000000  0.673165  1
