# generated using pymatgen
data_Er3Mg3SnPtPb
_symmetry_space_group_name_H-M   'P 1'
_cell_length_a   7.43405000
_cell_length_b   7.43405087
_cell_length_c   4.49478900
_cell_angle_alpha   90.00000000
_cell_angle_beta   90.00000000
_cell_angle_gamma   120.00001394
_symmetry_Int_Tables_number   1
_chemical_formula_structural   Er3Mg3SnPtPb
_chemical_formula_sum   'Er3 Mg3 Sn1 Pt1 Pb1'
_cell_volume   215.12500143
_cell_formula_units_Z   1
loop_
 _symmetry_equiv_pos_site_id
 _symmetry_equiv_pos_as_xyz
  1  'x, y, z'
loop_
 _atom_site_type_symbol
 _atom_site_label
 _atom_site_symmetry_multiplicity
 _atom_site_fract_x
 _atom_site_fract_y
 _atom_site_fract_z
 _atom_site_occupancy
  Er  Er0  1  0.395937  0.398802  0.000000  1
  Er  Er1  1  0.601198  0.997134  0.000000  1
  Er  Er2  1  0.002866  0.604063  0.000000  1
  Mg  Mg3  1  0.002108  0.230506  0.500000  1
  Mg  Mg4  1  0.769494  0.771601  0.500000  1
  Mg  Mg5  1  0.228399  0.997892  0.500000  1
  Sn  Sn6  1  0.333333  0.666667  0.500000  1
  Pt  Pt7  1  0.000000  0.000000  0.000000  1
  Pb  Pb8  1  0.666667  0.333333  0.500000  1
