# generated using pymatgen
data_K2Ba2Sb3PPt4
_symmetry_space_group_name_H-M   'P 1'
_cell_length_a   7.04424805
_cell_length_b   7.01162598
_cell_length_c   6.99681843
_cell_angle_alpha   90.59185250
_cell_angle_beta   90.36247439
_cell_angle_gamma   90.45402133
_symmetry_Int_Tables_number   1
_chemical_formula_structural   K2Ba2Sb3PPt4
_chemical_formula_sum   'K2 Ba2 Sb3 P1 Pt4'
_cell_volume   345.54790210
_cell_formula_units_Z   1
loop_
 _symmetry_equiv_pos_site_id
 _symmetry_equiv_pos_as_xyz
  1  'x, y, z'
loop_
 _atom_site_type_symbol
 _atom_site_label
 _atom_site_symmetry_multiplicity
 _atom_site_fract_x
 _atom_site_fract_y
 _atom_site_fract_z
 _atom_site_occupancy
  K  K0  1  0.614550  0.376023  0.873584  1
  K  K1  1  0.126316  0.126415  0.120410  1
  Ba  Ba2  1  0.377618  0.872830  0.618179  1
  Ba  Ba3  1  0.867583  0.610202  0.376399  1
  Sb  Sb4  1  0.580101  0.915368  0.089713  1
  Sb  Sb5  1  0.091444  0.581266  0.917882  1
  Sb  Sb6  1  0.919063  0.089607  0.576324  1
  P  P7  1  0.413871  0.413893  0.414218  1
  Pt  Pt8  1  0.181495  0.355352  0.629691  1
  Pt  Pt9  1  0.629673  0.180974  0.355345  1
  Pt  Pt10  1  0.845811  0.844830  0.842110  1
  Pt  Pt11  1  0.352475  0.633242  0.186148  1
