# generated using pymatgen
data_Nb6TlSbSe12
_symmetry_space_group_name_H-M   'P 1'
_cell_length_a   6.15540700
_cell_length_b   6.15540603
_cell_length_c   15.66947800
_cell_angle_alpha   90.00000000
_cell_angle_beta   90.00000000
_cell_angle_gamma   119.99999984
_symmetry_Int_Tables_number   1
_chemical_formula_structural   Nb6TlSbSe12
_chemical_formula_sum   'Nb6 Tl1 Sb1 Se12'
_cell_volume   514.16041923
_cell_formula_units_Z   1
loop_
 _symmetry_equiv_pos_site_id
 _symmetry_equiv_pos_as_xyz
  1  'x, y, z'
loop_
 _atom_site_type_symbol
 _atom_site_label
 _atom_site_symmetry_multiplicity
 _atom_site_fract_x
 _atom_site_fract_y
 _atom_site_fract_z
 _atom_site_occupancy
  Nb  Nb0  1  0.000000  0.000000  0.766626  1
  Nb  Nb1  1  0.000000  0.000000  0.233374  1
  Nb  Nb2  1  0.333333  0.666667  0.233892  1
  Nb  Nb3  1  0.666667  0.333333  0.766108  1
  Nb  Nb4  1  0.666667  0.333333  0.233892  1
  Nb  Nb5  1  0.333333  0.666667  0.766108  1
  Tl  Tl6  1  0.000000  0.000000  0.500000  1
  Sb  Sb7  1  0.000000  0.000000  0.000000  1
  Se  Se8  1  0.338532  0.000000  0.128018  1
  Se  Se9  1  0.000000  0.338532  0.128018  1
  Se  Se10  1  0.661468  0.661468  0.128018  1
  Se  Se11  1  0.335550  0.335550  0.661255  1
  Se  Se12  1  0.664450  0.664450  0.338745  1
  Se  Se13  1  0.664450  0.000000  0.661255  1
  Se  Se14  1  0.000000  0.664450  0.661255  1
  Se  Se15  1  0.000000  0.661468  0.871982  1
  Se  Se16  1  0.338532  0.338532  0.871982  1
  Se  Se17  1  0.000000  0.335550  0.338745  1
  Se  Se18  1  0.335550  0.000000  0.338745  1
  Se  Se19  1  0.661468  0.000000  0.871982  1
