# generated using pymatgen
data_Sr3Ce3(Pr7Ga6)2
_symmetry_space_group_name_H-M   'P 1'
_cell_length_a   7.93578726
_cell_length_b   7.94131609
_cell_length_c   14.60870500
_cell_angle_alpha   90.00697681
_cell_angle_beta   90.01454093
_cell_angle_gamma   89.99522197
_symmetry_Int_Tables_number   1
_chemical_formula_structural   Sr3Ce3(Pr7Ga6)2
_chemical_formula_sum   'Sr3 Ce3 Pr14 Ga12'
_cell_volume   920.64924148
_cell_formula_units_Z   1
loop_
 _symmetry_equiv_pos_site_id
 _symmetry_equiv_pos_as_xyz
  1  'x, y, z'
loop_
 _atom_site_type_symbol
 _atom_site_label
 _atom_site_symmetry_multiplicity
 _atom_site_fract_x
 _atom_site_fract_y
 _atom_site_fract_z
 _atom_site_occupancy
  Sr  Sr0  1  0.001163  0.499000  0.736666  1
  Sr  Sr1  1  0.999629  0.499757  0.241626  1
  Sr  Sr2  1  0.501380  0.999212  0.254437  1
  Ce  Ce3  1  0.812482  0.833737  0.601925  1
  Ce  Ce4  1  0.173756  0.831086  0.096438  1
  Ce  Ce5  1  0.499935  0.999147  0.783775  1
  Pr  Pr6  1  0.165514  0.824404  0.400580  1
  Pr  Pr7  1  0.835582  0.174755  0.400704  1
  Pr  Pr8  1  0.677040  0.668663  0.402959  1
  Pr  Pr9  1  0.664222  0.315018  0.604313  1
  Pr  Pr10  1  0.335567  0.685573  0.603716  1
  Pr  Pr11  1  0.668139  0.674384  0.097914  1
  Pr  Pr12  1  0.676013  0.332293  0.896962  1
  Pr  Pr13  1  0.832859  0.824823  0.897240  1
  Pr  Pr14  1  0.323958  0.333706  0.400027  1
  Pr  Pr15  1  0.184406  0.164088  0.602419  1
  Pr  Pr16  1  0.828473  0.166898  0.096537  1
  Pr  Pr17  1  0.320833  0.672093  0.900409  1
  Pr  Pr18  1  0.331995  0.326913  0.098170  1
  Pr  Pr19  1  0.166443  0.173966  0.897155  1
  Ga  Ga20  1  0.614707  0.386764  0.249809  1
  Ga  Ga21  1  0.122235  0.887628  0.747970  1
  Ga  Ga22  1  0.388800  0.376449  0.750569  1
  Ga  Ga23  1  0.384702  0.615201  0.248378  1
  Ga  Ga24  1  0.889143  0.883522  0.246481  1
  Ga  Ga25  1  0.611265  0.625571  0.749579  1
  Ga  Ga26  1  0.999004  0.502067  0.502691  1
  Ga  Ga27  1  0.873771  0.108140  0.747521  1
  Ga  Ga28  1  0.501853  0.000061  0.496186  1
  Ga  Ga29  1  0.497936  0.000201  0.999243  1
  Ga  Ga30  1  0.116125  0.112396  0.246563  1
  Ga  Ga31  1  0.001070  0.502486  0.001040  1
