# generated using pymatgen
data_Pa4Sn2IrPd3
_symmetry_space_group_name_H-M   'P 1'
_cell_length_a   7.71134081
_cell_length_b   7.71134100
_cell_length_c   3.74430100
_cell_angle_alpha   90.00000000
_cell_angle_beta   90.00000000
_cell_angle_gamma   89.70174146
_symmetry_Int_Tables_number   1
_chemical_formula_structural   Pa4Sn2IrPd3
_chemical_formula_sum   'Pa4 Sn2 Ir1 Pd3'
_cell_volume   222.65101320
_cell_formula_units_Z   1
loop_
 _symmetry_equiv_pos_site_id
 _symmetry_equiv_pos_as_xyz
  1  'x, y, z'
loop_
 _atom_site_type_symbol
 _atom_site_label
 _atom_site_symmetry_multiplicity
 _atom_site_fract_x
 _atom_site_fract_y
 _atom_site_fract_z
 _atom_site_occupancy
  Pa  Pa0  1  0.673057  0.173057  0.500000  1
  Pa  Pa1  1  0.318056  0.818056  0.500000  1
  Pa  Pa2  1  0.176755  0.334776  0.500000  1
  Pa  Pa3  1  0.834776  0.676755  0.500000  1
  Sn  Sn4  1  0.000943  0.003004  0.000000  1
  Sn  Sn5  1  0.503004  0.500943  0.000000  1
  Ir  Ir6  1  0.127224  0.627224  0.000000  1
  Pd  Pd7  1  0.867229  0.367229  0.000000  1
  Pd  Pd8  1  0.628176  0.870780  0.000000  1
  Pd  Pd9  1  0.370780  0.128176  0.000000  1
