# generated using pymatgen
data_Hf8In4Co3Au5
_symmetry_space_group_name_H-M   'P 1'
_cell_length_a   7.50002476
_cell_length_b   7.50002505
_cell_length_c   6.80655592
_cell_angle_alpha   89.87658131
_cell_angle_beta   89.87658290
_cell_angle_gamma   91.30630684
_symmetry_Int_Tables_number   1
_chemical_formula_structural   Hf8In4Co3Au5
_chemical_formula_sum   'Hf8 In4 Co3 Au5'
_cell_volume   382.76998993
_cell_formula_units_Z   1
loop_
 _symmetry_equiv_pos_site_id
 _symmetry_equiv_pos_as_xyz
  1  'x, y, z'
loop_
 _atom_site_type_symbol
 _atom_site_label
 _atom_site_symmetry_multiplicity
 _atom_site_fract_x
 _atom_site_fract_y
 _atom_site_fract_z
 _atom_site_occupancy
  Hf  Hf0  1  0.156668  0.156668  0.010693  1
  Hf  Hf1  1  0.820597  0.820597  0.998745  1
  Hf  Hf2  1  0.644425  0.363344  0.486464  1
  Hf  Hf3  1  0.363344  0.644425  0.486464  1
  Hf  Hf4  1  0.677997  0.350052  0.010553  1
  Hf  Hf5  1  0.350052  0.677997  0.010553  1
  Hf  Hf6  1  0.792797  0.792797  0.500295  1
  Hf  Hf7  1  0.200905  0.200905  0.483415  1
  In  In8  1  0.500547  0.008188  0.246117  1
  In  In9  1  0.501039  0.992346  0.749324  1
  In  In10  1  0.008188  0.500547  0.246117  1
  In  In11  1  0.992346  0.501039  0.749324  1
  Co  Co12  1  0.372188  0.372188  0.219577  1
  Co  Co13  1  0.627585  0.627585  0.776184  1
  Co  Co14  1  0.627450  0.627450  0.224602  1
  Au  Au15  1  0.866975  0.130453  0.721109  1
  Au  Au16  1  0.867031  0.127609  0.283383  1
  Au  Au17  1  0.371808  0.371808  0.792587  1
  Au  Au18  1  0.127609  0.867031  0.283383  1
  Au  Au19  1  0.130453  0.866975  0.721109  1
