# generated using pymatgen
data_Ti3Nb4VP4
_symmetry_space_group_name_H-M   'P 1'
_cell_length_a   3.46378900
_cell_length_b   6.48380367
_cell_length_c   7.97682263
_cell_angle_alpha   90.27396971
_cell_angle_beta   90.00000000
_cell_angle_gamma   90.00000000
_symmetry_Int_Tables_number   1
_chemical_formula_structural   Ti3Nb4VP4
_chemical_formula_sum   'Ti3 Nb4 V1 P4'
_cell_volume   179.14564493
_cell_formula_units_Z   1
loop_
 _symmetry_equiv_pos_site_id
 _symmetry_equiv_pos_as_xyz
  1  'x, y, z'
loop_
 _atom_site_type_symbol
 _atom_site_label
 _atom_site_symmetry_multiplicity
 _atom_site_fract_x
 _atom_site_fract_y
 _atom_site_fract_z
 _atom_site_occupancy
  Ti  Ti0  1  0.250000  0.144598  0.438563  1
  Ti  Ti1  1  0.250000  0.636218  0.059647  1
  Ti  Ti2  1  0.750000  0.859882  0.562643  1
  Nb  Nb3  1  0.250000  0.039498  0.830958  1
  Nb  Nb4  1  0.250000  0.535349  0.674391  1
  Nb  Nb5  1  0.750000  0.965804  0.169624  1
  Nb  Nb6  1  0.750000  0.462428  0.323654  1
  V  V7  1  0.750000  0.359497  0.940653  1
  P  P8  1  0.250000  0.759466  0.360510  1
  P  P9  1  0.250000  0.257762  0.133824  1
  P  P10  1  0.750000  0.241173  0.644291  1
  P  P11  1  0.750000  0.738324  0.861241  1
