# generated using pymatgen
data_CeDy2In3Rh2Au
_symmetry_space_group_name_H-M   'P 1'
_cell_length_a   7.76345369
_cell_length_b   7.75531288
_cell_length_c   3.81917000
_cell_angle_alpha   90.00000000
_cell_angle_beta   90.00000000
_cell_angle_gamma   119.30917083
_symmetry_Int_Tables_number   1
_chemical_formula_structural   CeDy2In3Rh2Au
_chemical_formula_sum   'Ce1 Dy2 In3 Rh2 Au1'
_cell_volume   200.50963600
_cell_formula_units_Z   1
loop_
 _symmetry_equiv_pos_site_id
 _symmetry_equiv_pos_as_xyz
  1  'x, y, z'
loop_
 _atom_site_type_symbol
 _atom_site_label
 _atom_site_symmetry_multiplicity
 _atom_site_fract_x
 _atom_site_fract_y
 _atom_site_fract_z
 _atom_site_occupancy
  Ce  Ce0  1  0.607695  0.024154  0.000000  1
  Dy  Dy1  1  0.987150  0.589841  0.000000  1
  Dy  Dy2  1  0.414271  0.395212  0.000000  1
  In  In3  1  0.741703  0.735562  0.500000  1
  In  In4  1  0.008748  0.263704  0.500000  1
  In  In5  1  0.251258  0.002392  0.500000  1
  Rh  Rh6  1  0.665031  0.323008  0.500000  1
  Rh  Rh7  1  0.989181  0.997046  0.000000  1
  Au  Au8  1  0.334963  0.669081  0.500000  1
