# generated using pymatgen
data_CaYbEr2(Ga2Ag)4
_symmetry_space_group_name_H-M   'P 1'
_cell_length_a   4.32813800
_cell_length_b   6.95189499
_cell_length_c   10.36963598
_cell_angle_alpha   89.88772483
_cell_angle_beta   90.00000000
_cell_angle_gamma   90.00000000
_symmetry_Int_Tables_number   1
_chemical_formula_structural   CaYbEr2(Ga2Ag)4
_chemical_formula_sum   'Ca1 Yb1 Er2 Ga8 Ag4'
_cell_volume   312.00889854
_cell_formula_units_Z   1
loop_
 _symmetry_equiv_pos_site_id
 _symmetry_equiv_pos_as_xyz
  1  'x, y, z'
loop_
 _atom_site_type_symbol
 _atom_site_label
 _atom_site_symmetry_multiplicity
 _atom_site_fract_x
 _atom_site_fract_y
 _atom_site_fract_z
 _atom_site_occupancy
  Ca  Ca0  1  0.250000  0.775428  0.826557  1
  Yb  Yb1  1  0.250000  0.275153  0.671933  1
  Er  Er2  1  0.750000  0.222247  0.171729  1
  Er  Er3  1  0.750000  0.722058  0.328962  1
  Ga  Ga4  1  0.250000  0.703879  0.533430  1
  Ga  Ga5  1  0.750000  0.297660  0.463957  1
  Ga  Ga6  1  0.750000  0.796109  0.037478  1
  Ga  Ga7  1  0.250000  0.203326  0.966241  1
  Ga  Ga8  1  0.250000  0.927564  0.155707  1
  Ga  Ga9  1  0.750000  0.074170  0.850061  1
  Ga  Ga10  1  0.750000  0.571404  0.649046  1
  Ga  Ga11  1  0.250000  0.427392  0.344871  1
  Ag  Ag12  1  0.250000  0.542709  0.099541  1
  Ag  Ag13  1  0.750000  0.457275  0.901451  1
  Ag  Ag14  1  0.750000  0.959854  0.597988  1
  Ag  Ag15  1  0.250000  0.043771  0.401048  1
