# generated using pymatgen
data_LiTm3(CdHg3)2
_symmetry_space_group_name_H-M   'P 1'
_cell_length_a   5.07569200
_cell_length_b   6.91097700
_cell_length_c   15.16919000
_cell_angle_alpha   90.00000000
_cell_angle_beta   90.00133202
_cell_angle_gamma   90.00000000
_symmetry_Int_Tables_number   1
_chemical_formula_structural   LiTm3(CdHg3)2
_chemical_formula_sum   'Li2 Tm6 Cd4 Hg12'
_cell_volume   532.10470531
_cell_formula_units_Z   2
loop_
 _symmetry_equiv_pos_site_id
 _symmetry_equiv_pos_as_xyz
  1  'x, y, z'
loop_
 _atom_site_type_symbol
 _atom_site_label
 _atom_site_symmetry_multiplicity
 _atom_site_fract_x
 _atom_site_fract_y
 _atom_site_fract_z
 _atom_site_occupancy
  Li  Li0  1  0.000665  0.500001  0.667861  1
  Li  Li1  1  0.500306  0.000002  0.831945  1
  Tm  Tm2  1  0.999777  0.000000  0.000753  1
  Tm  Tm3  1  0.499754  0.499999  0.164633  1
  Tm  Tm4  1  0.999336  0.000000  0.335371  1
  Tm  Tm5  1  0.500255  0.500001  0.499245  1
  Tm  Tm6  1  0.000307  0.000001  0.663142  1
  Tm  Tm7  1  0.500585  0.500000  0.836826  1
  Cd  Cd8  1  0.000072  0.500000  0.998168  1
  Cd  Cd9  1  0.499443  0.000000  0.165124  1
  Cd  Cd10  1  0.999542  0.499999  0.334903  1
  Cd  Cd11  1  0.499997  0.000000  0.501965  1
  Hg  Hg12  1  0.499931  0.240169  0.993501  1
  Hg  Hg13  1  0.499691  0.759830  0.993500  1
  Hg  Hg14  1  0.999632  0.249081  0.167819  1
  Hg  Hg15  1  0.999697  0.750922  0.167820  1
  Hg  Hg16  1  0.499371  0.250911  0.332299  1
  Hg  Hg17  1  0.499300  0.749089  0.332297  1
  Hg  Hg18  1  0.000098  0.259773  0.506421  1
  Hg  Hg19  1  0.000320  0.740232  0.506417  1
  Hg  Hg20  1  0.500347  0.257452  0.674336  1
  Hg  Hg21  1  0.500276  0.742547  0.674335  1
  Hg  Hg22  1  0.000601  0.242577  0.825661  1
  Hg  Hg23  1  0.000690  0.757417  0.825658  1
