# generated using pymatgen
data_Be2BiB5O11
_symmetry_space_group_name_H-M   'P 1'
_cell_length_a   4.36660200
_cell_length_b   6.72502900
_cell_length_c   25.83481100
_cell_angle_alpha   90.00000000
_cell_angle_beta   90.00000000
_cell_angle_gamma   90.00000000
_symmetry_Int_Tables_number   1
_chemical_formula_structural   Be2BiB5O11
_chemical_formula_sum   'Be8 Bi4 B20 O44'
_cell_volume   758.65279040
_cell_formula_units_Z   4
loop_
 _symmetry_equiv_pos_site_id
 _symmetry_equiv_pos_as_xyz
  1  'x, y, z'
loop_
 _atom_site_type_symbol
 _atom_site_label
 _atom_site_symmetry_multiplicity
 _atom_site_fract_x
 _atom_site_fract_y
 _atom_site_fract_z
 _atom_site_occupancy
  Be  Be0  1  0.189451  0.451150  0.790176  1
  Be  Be1  1  0.810549  0.951150  0.209824  1
  Be  Be2  1  0.689451  0.951150  0.709824  1
  Be  Be3  1  0.310549  0.451150  0.290176  1
  Be  Be4  1  0.685577  0.230683  0.790985  1
  Be  Be5  1  0.314423  0.730683  0.209015  1
  Be  Be6  1  0.185577  0.730683  0.709015  1
  Be  Be7  1  0.814423  0.230683  0.290985  1
  Bi  Bi8  1  0.870903  0.369008  0.918804  1
  Bi  Bi9  1  0.129097  0.869008  0.081196  1
  Bi  Bi10  1  0.370903  0.869008  0.581196  1
  Bi  Bi11  1  0.629097  0.369008  0.418804  1
  B  B12  1  0.391456  0.039114  0.866127  1
  B  B13  1  0.608544  0.539114  0.133873  1
  B  B14  1  0.891456  0.539114  0.633873  1
  B  B15  1  0.108544  0.039114  0.366127  1
  B  B16  1  0.171941  0.708951  0.868781  1
  B  B17  1  0.828059  0.208951  0.131219  1
  B  B18  1  0.671941  0.208951  0.631219  1
  B  B19  1  0.328059  0.708951  0.368781  1
  B  B20  1  0.049068  0.940034  0.940499  1
  B  B21  1  0.950932  0.440034  0.059501  1
  B  B22  1  0.549068  0.440034  0.559501  1
  B  B23  1  0.450932  0.940034  0.440499  1
  B  B24  1  0.559463  0.955551  0.994439  1
  B  B25  1  0.440537  0.455551  0.005561  1
  B  B26  1  0.059463  0.455551  0.505561  1
  B  B27  1  0.940537  0.955551  0.494439  1
  B  B28  1  0.199610  0.090971  0.750750  1
  B  B29  1  0.800390  0.590971  0.249250  1
  B  B30  1  0.699610  0.590971  0.749250  1
  B  B31  1  0.300390  0.090971  0.250750  1
  O  O32  1  0.371880  0.845371  0.846745  1
  O  O33  1  0.628120  0.345371  0.153255  1
  O  O34  1  0.871880  0.345371  0.653255  1
  O  O35  1  0.128120  0.845371  0.346745  1
  O  O36  1  0.654416  0.919508  0.043296  1
  O  O37  1  0.345584  0.419508  0.956704  1
  O  O38  1  0.154416  0.419508  0.456704  1
  O  O39  1  0.845584  0.919508  0.543296  1
  O  O40  1  0.017966  0.748287  0.914491  1
  O  O41  1  0.982034  0.248287  0.085509  1
  O  O42  1  0.517966  0.248287  0.585509  1
  O  O43  1  0.482034  0.748287  0.414491  1
  O  O44  1  0.245634  0.928276  0.986821  1
  O  O45  1  0.754366  0.428276  0.013179  1
  O  O46  1  0.745634  0.428276  0.513179  1
  O  O47  1  0.254366  0.928276  0.486821  1
  O  O48  1  0.176204  0.087872  0.904116  1
  O  O49  1  0.823796  0.587872  0.095884  1
  O  O50  1  0.676204  0.587872  0.595884  1
  O  O51  1  0.323796  0.087872  0.404116  1
  O  O52  1  0.121746  0.524613  0.848813  1
  O  O53  1  0.878254  0.024613  0.151187  1
  O  O54  1  0.621746  0.024613  0.651187  1
  O  O55  1  0.378254  0.524613  0.348813  1
  O  O56  1  0.596671  0.174881  0.849910  1
  O  O57  1  0.403329  0.674881  0.150090  1
  O  O58  1  0.096671  0.674881  0.650090  1
  O  O59  1  0.903329  0.174881  0.349910  1
  O  O60  1  0.745441  0.017063  0.953971  1
  O  O61  1  0.254559  0.517063  0.046029  1
  O  O62  1  0.245441  0.517063  0.546029  1
  O  O63  1  0.754559  0.017063  0.453971  1
  O  O64  1  0.049561  0.226570  0.781809  1
  O  O65  1  0.950439  0.726570  0.218191  1
  O  O66  1  0.549561  0.726570  0.718191  1
  O  O67  1  0.450439  0.226570  0.281809  1
  O  O68  1  0.513427  0.091737  0.750079  1
  O  O69  1  0.486573  0.591737  0.249921  1
  O  O70  1  0.013427  0.591737  0.749921  1
  O  O71  1  0.986573  0.091737  0.250079  1
  O  O72  1  0.048606  0.953968  0.721202  1
  O  O73  1  0.951394  0.453968  0.278798  1
  O  O74  1  0.548606  0.453968  0.778798  1
  O  O75  1  0.451394  0.953968  0.221202  1
