# generated using pymatgen
data_YTh7(Si3Ir)4
_symmetry_space_group_name_H-M   'P 1'
_cell_length_a   8.23160950
_cell_length_b   8.20028997
_cell_length_c   8.46192100
_cell_angle_alpha   90.00000000
_cell_angle_beta   90.00000000
_cell_angle_gamma   119.87421879
_symmetry_Int_Tables_number   1
_chemical_formula_structural   YTh7(Si3Ir)4
_chemical_formula_sum   'Y1 Th7 Si12 Ir4'
_cell_volume   495.29349289
_cell_formula_units_Z   1
loop_
 _symmetry_equiv_pos_site_id
 _symmetry_equiv_pos_as_xyz
  1  'x, y, z'
loop_
 _atom_site_type_symbol
 _atom_site_label
 _atom_site_symmetry_multiplicity
 _atom_site_fract_x
 _atom_site_fract_y
 _atom_site_fract_z
 _atom_site_occupancy
  Y  Y0  1  0.999067  0.499534  0.750000  1
  Th  Th1  1  0.999999  0.999999  0.250000  1
  Th  Th2  1  0.999962  0.999981  0.750000  1
  Th  Th3  1  0.000506  0.500253  0.250000  1
  Th  Th4  1  0.499693  0.500325  0.250000  1
  Th  Th5  1  0.500440  0.000770  0.750000  1
  Th  Th6  1  0.499693  0.999367  0.250000  1
  Th  Th7  1  0.500440  0.499671  0.750000  1
  Si  Si8  1  0.165559  0.334010  0.998777  1
  Si  Si9  1  0.669987  0.834994  0.001499  1
  Si  Si10  1  0.165559  0.334010  0.501223  1
  Si  Si11  1  0.329951  0.164976  0.001830  1
  Si  Si12  1  0.165559  0.831549  0.998777  1
  Si  Si13  1  0.669987  0.834994  0.498501  1
  Si  Si14  1  0.834504  0.666091  0.999185  1
  Si  Si15  1  0.329951  0.164976  0.498170  1
  Si  Si16  1  0.165559  0.831549  0.501223  1
  Si  Si17  1  0.834504  0.666091  0.500815  1
  Si  Si18  1  0.834504  0.168414  0.999185  1
  Si  Si19  1  0.834504  0.168414  0.500815  1
  Ir  Ir20  1  0.336817  0.668409  0.994613  1
  Ir  Ir21  1  0.336817  0.668409  0.505387  1
  Ir  Ir22  1  0.663217  0.331608  0.997371  1
  Ir  Ir23  1  0.663217  0.331608  0.502629  1
