# generated using pymatgen
data_Dy2PS
_symmetry_space_group_name_H-M   'P 1'
_cell_length_a   6.87071360
_cell_length_b   6.87071316
_cell_length_c   6.87071414
_cell_angle_alpha   33.52047668
_cell_angle_beta   33.52048490
_cell_angle_gamma   33.52048670
_symmetry_Int_Tables_number   1
_chemical_formula_structural   Dy2PS
_chemical_formula_sum   'Dy2 P1 S1'
_cell_volume   88.09882851
_cell_formula_units_Z   1
loop_
 _symmetry_equiv_pos_site_id
 _symmetry_equiv_pos_as_xyz
  1  'x, y, z'
loop_
 _atom_site_type_symbol
 _atom_site_label
 _atom_site_symmetry_multiplicity
 _atom_site_fract_x
 _atom_site_fract_y
 _atom_site_fract_z
 _atom_site_occupancy
  Dy  Dy0  1  0.246940  0.246940  0.246940  1
  Dy  Dy1  1  0.753060  0.753060  0.753060  1
  P  P2  1  0.500000  0.500000  0.500000  1
  S  S3  1  0.000000  0.000000  0.000000  1
