# generated using pymatgen
data_Er4Al17Co6Si
_symmetry_space_group_name_H-M   'P 1'
_cell_length_a   7.37429701
_cell_length_b   7.37429961
_cell_length_c   9.24684100
_cell_angle_alpha   90.00000000
_cell_angle_beta   90.00000000
_cell_angle_gamma   119.24328450
_symmetry_Int_Tables_number   1
_chemical_formula_structural   Er4Al17Co6Si
_chemical_formula_sum   'Er4 Al17 Co6 Si1'
_cell_volume   438.75971431
_cell_formula_units_Z   1
loop_
 _symmetry_equiv_pos_site_id
 _symmetry_equiv_pos_as_xyz
  1  'x, y, z'
loop_
 _atom_site_type_symbol
 _atom_site_label
 _atom_site_symmetry_multiplicity
 _atom_site_fract_x
 _atom_site_fract_y
 _atom_site_fract_z
 _atom_site_occupancy
  Er  Er0  1  0.992393  0.678828  0.250000  1
  Er  Er1  1  0.005344  0.328558  0.750000  1
  Er  Er2  1  0.678870  0.992424  0.250000  1
  Er  Er3  1  0.328577  0.005366  0.750000  1
  Al  Al4  1  0.877737  0.877755  0.750000  1
  Al  Al5  1  0.330430  0.330489  0.546709  1
  Al  Al6  1  0.664829  0.664891  0.041348  1
  Al  Al7  1  0.330430  0.330489  0.953291  1
  Al  Al8  1  0.664829  0.664891  0.458652  1
  Al  Al9  1  0.336504  0.555737  0.250000  1
  Al  Al10  1  0.661373  0.445440  0.750000  1
  Al  Al11  1  0.555649  0.336494  0.250000  1
  Al  Al12  1  0.445371  0.661364  0.750000  1
  Al  Al13  1  0.998636  0.337610  0.074054  1
  Al  Al14  1  0.002414  0.665413  0.571330  1
  Al  Al15  1  0.337542  0.998478  0.425946  1
  Al  Al16  1  0.665360  0.002267  0.928660  1
  Al  Al17  1  0.002414  0.665413  0.928670  1
  Al  Al18  1  0.998636  0.337610  0.425946  1
  Al  Al19  1  0.665360  0.002267  0.571340  1
  Al  Al20  1  0.337542  0.998478  0.074054  1
  Co  Co21  1  0.000525  0.000532  0.008916  1
  Co  Co22  1  0.000525  0.000532  0.491084  1
  Co  Co23  1  0.669412  0.327280  0.000458  1
  Co  Co24  1  0.327289  0.669403  0.499540  1
  Co  Co25  1  0.327289  0.669403  0.000460  1
  Co  Co26  1  0.669412  0.327280  0.499542  1
  Si  Si27  1  0.125306  0.125312  0.250000  1
