# generated using pymatgen
data_Ce2MoOsC3
_symmetry_space_group_name_H-M   'P 1'
_cell_length_a   6.24098556
_cell_length_b   6.24098665
_cell_length_c   5.70893616
_cell_angle_alpha   65.84839832
_cell_angle_beta   65.84839236
_cell_angle_gamma   31.33977187
_symmetry_Int_Tables_number   1
_chemical_formula_structural   Ce2MoOsC3
_chemical_formula_sum   'Ce2 Mo1 Os1 C3'
_cell_volume   104.69165967
_cell_formula_units_Z   1
loop_
 _symmetry_equiv_pos_site_id
 _symmetry_equiv_pos_as_xyz
  1  'x, y, z'
loop_
 _atom_site_type_symbol
 _atom_site_label
 _atom_site_symmetry_multiplicity
 _atom_site_fract_x
 _atom_site_fract_y
 _atom_site_fract_z
 _atom_site_occupancy
  Ce  Ce0  1  0.395553  0.395553  0.802622  1
  Ce  Ce1  1  0.603607  0.603607  0.195194  1
  Mo  Mo2  1  0.843079  0.843079  0.323816  1
  Os  Os3  1  0.159978  0.159978  0.678454  1
  C  C4  1  0.002543  0.002543  0.996941  1
  C  C5  1  0.250539  0.250539  0.264861  1
  C  C6  1  0.744703  0.744703  0.738111  1
