# generated using pymatgen
data_Sr10GeW3N14
_symmetry_space_group_name_H-M   'P 1'
_cell_length_a   6.48019544
_cell_length_b   9.31279149
_cell_length_c   9.36415000
_cell_angle_alpha   115.07385447
_cell_angle_beta   96.97718552
_cell_angle_gamma   89.33204992
_symmetry_Int_Tables_number   1
_chemical_formula_structural   Sr10GeW3N14
_chemical_formula_sum   'Sr10 Ge1 W3 N14'
_cell_volume   507.57013407
_cell_formula_units_Z   1
loop_
 _symmetry_equiv_pos_site_id
 _symmetry_equiv_pos_as_xyz
  1  'x, y, z'
loop_
 _atom_site_type_symbol
 _atom_site_label
 _atom_site_symmetry_multiplicity
 _atom_site_fract_x
 _atom_site_fract_y
 _atom_site_fract_z
 _atom_site_occupancy
  Sr  Sr0  1  0.852818  0.581530  0.330205  1
  Sr  Sr1  1  0.267822  0.986733  0.554561  1
  Sr  Sr2  1  0.701069  0.411428  0.849037  1
  Sr  Sr3  1  0.293899  0.584648  0.143222  1
  Sr  Sr4  1  0.396164  0.794744  0.930501  1
  Sr  Sr5  1  0.603671  0.207894  0.084318  1
  Sr  Sr6  1  0.148303  0.404847  0.666738  1
  Sr  Sr7  1  0.896847  0.847726  0.760774  1
  Sr  Sr8  1  0.103824  0.156235  0.243356  1
  Sr  Sr9  1  0.738266  0.021307  0.441760  1
  Ge  Ge10  1  0.578983  0.346965  0.469692  1
  W  W11  1  0.425803  0.636918  0.526142  1
  W  W12  1  0.123172  0.215603  0.914509  1
  W  W13  1  0.877757  0.782015  0.084337  1
  N  N14  1  0.529503  0.560277  0.678816  1
  N  N15  1  0.455199  0.450831  0.330986  1
  N  N16  1  0.158441  0.706996  0.556799  1
  N  N17  1  0.845157  0.306797  0.429627  1
  N  N18  1  0.407655  0.197740  0.478781  1
  N  N19  1  0.590707  0.803148  0.530571  1
  N  N20  1  0.956709  0.136947  0.713500  1
  N  N21  1  0.050719  0.863746  0.281638  1
  N  N22  1  0.233568  0.051535  0.963916  1
  N  N23  1  0.764314  0.946483  0.037155  1
  N  N24  1  0.356780  0.330049  0.907110  1
  N  N25  1  0.964588  0.347722  0.074779  1
  N  N26  1  0.032265  0.650709  0.919658  1
  N  N27  1  0.645998  0.668429  0.097513  1
