# generated using pymatgen
data_Ta13Nb3(CoTe4)4
_symmetry_space_group_name_H-M   'P 1'
_cell_length_a   4.80628600
_cell_length_b   11.06130082
_cell_length_c   19.33051910
_cell_angle_alpha   90.06533750
_cell_angle_beta   90.00000000
_cell_angle_gamma   90.00000000
_symmetry_Int_Tables_number   1
_chemical_formula_structural   Ta13Nb3(CoTe4)4
_chemical_formula_sum   'Ta13 Nb3 Co4 Te16'
_cell_volume   1027.68270535
_cell_formula_units_Z   1
loop_
 _symmetry_equiv_pos_site_id
 _symmetry_equiv_pos_as_xyz
  1  'x, y, z'
loop_
 _atom_site_type_symbol
 _atom_site_label
 _atom_site_symmetry_multiplicity
 _atom_site_fract_x
 _atom_site_fract_y
 _atom_site_fract_z
 _atom_site_occupancy
  Ta  Ta0  1  0.500000  0.563810  0.386274  1
  Ta  Ta1  1  0.500000  0.435989  0.613545  1
  Ta  Ta2  1  0.500000  0.064521  0.113506  1
  Ta  Ta3  1  0.500000  0.937004  0.886127  1
  Ta  Ta4  1  0.500000  0.699938  0.534688  1
  Ta  Ta5  1  0.500000  0.299966  0.465029  1
  Ta  Ta6  1  0.500000  0.199897  0.965515  1
  Ta  Ta7  1  0.500000  0.800338  0.035682  1
  Ta  Ta8  1  0.000000  0.814647  0.944394  1
  Ta  Ta9  1  0.000000  0.403703  0.394622  1
  Ta  Ta10  1  0.000000  0.596028  0.605248  1
  Ta  Ta11  1  0.000000  0.903829  0.105486  1
  Ta  Ta12  1  0.000000  0.096083  0.894788  1
  Nb  Nb13  1  0.000000  0.688157  0.443423  1
  Nb  Nb14  1  0.000000  0.311923  0.556530  1
  Nb  Nb15  1  0.000000  0.188700  0.056499  1
  Co  Co16  1  0.250299  0.499966  0.499881  1
  Co  Co17  1  0.749965  0.998204  0.999676  1
  Co  Co18  1  0.749701  0.499966  0.499881  1
  Co  Co19  1  0.250035  0.998204  0.999676  1
  Te  Te20  1  0.000000  0.844083  0.562423  1
  Te  Te21  1  0.000000  0.155729  0.437675  1
  Te  Te22  1  0.000000  0.343938  0.937273  1
  Te  Te23  1  0.000000  0.655538  0.061407  1
  Te  Te24  1  0.500000  0.333841  0.318075  1
  Te  Te25  1  0.500000  0.665883  0.681651  1
  Te  Te26  1  0.500000  0.834301  0.182136  1
  Te  Te27  1  0.500000  0.165878  0.818152  1
  Te  Te28  1  0.500000  0.821635  0.403552  1
  Te  Te29  1  0.500000  0.178365  0.596271  1
  Te  Te30  1  0.500000  0.322238  0.096483  1
  Te  Te31  1  0.500000  0.679452  0.904067  1
  Te  Te32  1  0.000000  0.606698  0.302495  1
  Te  Te33  1  0.000000  0.393235  0.697456  1
  Te  Te34  1  0.000000  0.106851  0.197334  1
  Te  Te35  1  0.000000  0.891463  0.803079  1
