# generated using pymatgen
data_Gd3AgSn3RuRh
_symmetry_space_group_name_H-M   'P 1'
_cell_length_a   7.72313600
_cell_length_b   7.72313589
_cell_length_c   3.92013800
_cell_angle_alpha   90.00000000
_cell_angle_beta   90.00000000
_cell_angle_gamma   119.99998334
_symmetry_Int_Tables_number   1
_chemical_formula_structural   Gd3AgSn3RuRh
_chemical_formula_sum   'Gd3 Ag1 Sn3 Ru1 Rh1'
_cell_volume   202.49738501
_cell_formula_units_Z   1
loop_
 _symmetry_equiv_pos_site_id
 _symmetry_equiv_pos_as_xyz
  1  'x, y, z'
loop_
 _atom_site_type_symbol
 _atom_site_label
 _atom_site_symmetry_multiplicity
 _atom_site_fract_x
 _atom_site_fract_y
 _atom_site_fract_z
 _atom_site_occupancy
  Gd  Gd0  1  0.388750  0.411055  0.000000  1
  Gd  Gd1  1  0.022305  0.611250  0.000000  1
  Gd  Gd2  1  0.588945  0.977695  0.000000  1
  Ag  Ag3  1  0.666667  0.333333  0.500000  1
  Sn  Sn4  1  0.743180  0.742407  0.500000  1
  Sn  Sn5  1  0.999228  0.256820  0.500000  1
  Sn  Sn6  1  0.257593  0.000772  0.500000  1
  Ru  Ru7  1  0.000000  0.000000  0.000000  1
  Rh  Rh8  1  0.333333  0.666667  0.500000  1
