# generated using pymatgen
data_DyCuPt3Au
_symmetry_space_group_name_H-M   'P 1'
_cell_length_a   5.17577800
_cell_length_b   5.17577833
_cell_length_c   5.17577779
_cell_angle_alpha   62.87792549
_cell_angle_beta   62.87792259
_cell_angle_gamma   62.87792997
_symmetry_Int_Tables_number   1
_chemical_formula_structural   DyCuPt3Au
_chemical_formula_sum   'Dy1 Cu1 Pt3 Au1'
_cell_volume   104.31189332
_cell_formula_units_Z   1
loop_
 _symmetry_equiv_pos_site_id
 _symmetry_equiv_pos_as_xyz
  1  'x, y, z'
loop_
 _atom_site_type_symbol
 _atom_site_label
 _atom_site_symmetry_multiplicity
 _atom_site_fract_x
 _atom_site_fract_y
 _atom_site_fract_z
 _atom_site_occupancy
  Dy  Dy0  1  0.001559  0.001559  0.001559  1
  Cu  Cu1  1  0.623899  0.623899  0.623899  1
  Pt  Pt2  1  0.623714  0.623714  0.125486  1
  Pt  Pt3  1  0.623714  0.125486  0.623714  1
  Pt  Pt4  1  0.125486  0.623714  0.623714  1
  Au  Au5  1  0.251630  0.251630  0.251630  1
