# generated using pymatgen
data_YbSm3Ho4(B6Ru)4
_symmetry_space_group_name_H-M   'P 1'
_cell_length_a   3.68103200
_cell_length_b   9.17392754
_cell_length_c   11.57962801
_cell_angle_alpha   89.91579979
_cell_angle_beta   90.00000000
_cell_angle_gamma   90.00000000
_symmetry_Int_Tables_number   1
_chemical_formula_structural   YbSm3Ho4(B6Ru)4
_chemical_formula_sum   'Yb1 Sm3 Ho4 B24 Ru4'
_cell_volume   391.03806708
_cell_formula_units_Z   1
loop_
 _symmetry_equiv_pos_site_id
 _symmetry_equiv_pos_as_xyz
  1  'x, y, z'
loop_
 _atom_site_type_symbol
 _atom_site_label
 _atom_site_symmetry_multiplicity
 _atom_site_fract_x
 _atom_site_fract_y
 _atom_site_fract_z
 _atom_site_occupancy
  Yb  Yb0  1  0.000000  0.323543  0.413799  1
  Sm  Sm1  1  0.000000  0.675493  0.584815  1
  Sm  Sm2  1  0.000000  0.822955  0.086628  1
  Sm  Sm3  1  0.000000  0.177490  0.914434  1
  Ho  Ho4  1  0.000000  0.944364  0.371263  1
  Ho  Ho5  1  0.000000  0.058341  0.627584  1
  Ho  Ho6  1  0.000000  0.442817  0.130254  1
  Ho  Ho7  1  0.000000  0.555964  0.871591  1
  B  B8  1  0.500000  0.553608  0.431408  1
  B  B9  1  0.500000  0.444340  0.567504  1
  B  B10  1  0.500000  0.054749  0.068449  1
  B  B11  1  0.500000  0.944906  0.931154  1
  B  B12  1  0.500000  0.748449  0.418033  1
  B  B13  1  0.500000  0.251803  0.580545  1
  B  B14  1  0.500000  0.248484  0.082269  1
  B  B15  1  0.500000  0.750919  0.918358  1
  B  B16  1  0.500000  0.790606  0.266912  1
  B  B17  1  0.500000  0.210308  0.732880  1
  B  B18  1  0.500000  0.290278  0.234435  1
  B  B19  1  0.500000  0.709668  0.766559  1
  B  B20  1  0.500000  0.630771  0.186504  1
  B  B21  1  0.500000  0.369005  0.814605  1
  B  B22  1  0.500000  0.131845  0.314784  1
  B  B23  1  0.500000  0.869259  0.685128  1
  B  B24  1  0.500000  0.985118  0.213014  1
  B  B25  1  0.500000  0.015527  0.786360  1
  B  B26  1  0.500000  0.483478  0.287875  1
  B  B27  1  0.500000  0.514901  0.712868  1
  B  B28  1  0.500000  0.604795  0.029246  1
  B  B29  1  0.500000  0.395068  0.971594  1
  B  B30  1  0.500000  0.104350  0.471149  1
  B  B31  1  0.500000  0.896662  0.528365  1
  Ru  Ru32  1  0.000000  0.639176  0.320128  1
  Ru  Ru33  1  0.000000  0.361300  0.680075  1
  Ru  Ru34  1  0.000000  0.138217  0.179306  1
  Ru  Ru35  1  0.000000  0.861449  0.820125  1
