# generated using pymatgen
data_Tb3NdY(MnB3)2
_symmetry_space_group_name_H-M   'P 1'
_cell_length_a   5.44450343
_cell_length_b   5.44450317
_cell_length_c   8.35025750
_cell_angle_alpha   70.97333396
_cell_angle_beta   70.97333449
_cell_angle_gamma   60.00001575
_symmetry_Int_Tables_number   1
_chemical_formula_structural   Tb3NdY(MnB3)2
_chemical_formula_sum   'Tb3 Nd1 Y1 Mn2 B6'
_cell_volume   198.59326518
_cell_formula_units_Z   1
loop_
 _symmetry_equiv_pos_site_id
 _symmetry_equiv_pos_as_xyz
  1  'x, y, z'
loop_
 _atom_site_type_symbol
 _atom_site_label
 _atom_site_symmetry_multiplicity
 _atom_site_fract_x
 _atom_site_fract_y
 _atom_site_fract_z
 _atom_site_occupancy
  Tb  Tb0  1  0.250387  0.250387  0.248837  1
  Tb  Tb1  1  0.749645  0.749645  0.751066  1
  Tb  Tb2  1  0.417236  0.417236  0.748293  1
  Nd  Nd3  1  0.999919  0.999919  0.000244  1
  Y  Y4  1  0.582390  0.582390  0.252829  1
  Mn  Mn5  1  0.115536  0.115536  0.653391  1
  Mn  Mn6  1  0.884568  0.884568  0.346296  1
  B  B7  1  0.165815  0.834245  0.499841  1
  B  B8  1  0.834245  0.500100  0.499841  1
  B  B9  1  0.500100  0.165815  0.499841  1
  B  B10  1  0.165815  0.500100  0.499841  1
  B  B11  1  0.500100  0.834245  0.499841  1
  B  B12  1  0.834245  0.165815  0.499841  1
