# generated using pymatgen
data_Li8PrNd7(Sn3Bi)2
_symmetry_space_group_name_H-M   'P 1'
_cell_length_a   9.61535404
_cell_length_b   9.61582432
_cell_length_c   7.64334811
_cell_angle_alpha   89.99377458
_cell_angle_beta   90.06929785
_cell_angle_gamma   119.99704412
_symmetry_Int_Tables_number   1
_chemical_formula_structural   Li8PrNd7(Sn3Bi)2
_chemical_formula_sum   'Li8 Pr1 Nd7 Sn6 Bi2'
_cell_volume   612.03832415
_cell_formula_units_Z   1
loop_
 _symmetry_equiv_pos_site_id
 _symmetry_equiv_pos_as_xyz
  1  'x, y, z'
loop_
 _atom_site_type_symbol
 _atom_site_label
 _atom_site_symmetry_multiplicity
 _atom_site_fract_x
 _atom_site_fract_y
 _atom_site_fract_z
 _atom_site_occupancy
  Li  Li0  1  0.167582  0.333926  0.284041  1
  Li  Li1  1  0.167359  0.833512  0.283968  1
  Li  Li2  1  0.665731  0.832675  0.286646  1
  Li  Li3  1  0.829793  0.664776  0.787778  1
  Li  Li4  1  0.829910  0.165090  0.787820  1
  Li  Li5  1  0.336596  0.168399  0.790587  1
  Li  Li6  1  0.336571  0.668119  0.665230  1
  Li  Li7  1  0.666371  0.333265  0.168602  1
  Pr  Pr8  1  0.516984  0.026506  0.492027  1
  Nd  Nd9  1  0.517134  0.490716  0.491922  1
  Nd  Nd10  1  0.971011  0.485566  0.489641  1
  Nd  Nd11  1  0.492159  0.978043  0.997513  1
  Nd  Nd12  1  0.492209  0.514089  0.997553  1
  Nd  Nd13  1  0.019626  0.509820  0.999719  1
  Nd  Nd14  1  0.995232  0.997622  0.494574  1
  Nd  Nd15  1  0.995758  0.997882  0.003913  1
  Sn  Sn16  1  0.666864  0.833045  0.731337  1
  Sn  Sn17  1  0.833615  0.666744  0.231398  1
  Sn  Sn18  1  0.834157  0.167135  0.230918  1
  Sn  Sn19  1  0.333189  0.166956  0.230258  1
  Sn  Sn20  1  0.332488  0.665891  0.264918  1
  Sn  Sn21  1  0.667418  0.334084  0.766035  1
  Bi  Bi22  1  0.166372  0.333765  0.732590  1
  Bi  Bi23  1  0.165868  0.832372  0.732989  1
