# generated using pymatgen
data_CaAc2CeAs7Ir8
_symmetry_space_group_name_H-M   'P 1'
_cell_length_a   4.14860200
_cell_length_b   13.31144295
_cell_length_c   13.75329650
_cell_angle_alpha   82.17463112
_cell_angle_beta   90.00000000
_cell_angle_gamma   90.00000000
_symmetry_Int_Tables_number   1
_chemical_formula_structural   CaAc2CeAs7Ir8
_chemical_formula_sum   'Ca2 Ac4 Ce2 As14 Ir16'
_cell_volume   752.43755552
_cell_formula_units_Z   2
loop_
 _symmetry_equiv_pos_site_id
 _symmetry_equiv_pos_as_xyz
  1  'x, y, z'
loop_
 _atom_site_type_symbol
 _atom_site_label
 _atom_site_symmetry_multiplicity
 _atom_site_fract_x
 _atom_site_fract_y
 _atom_site_fract_z
 _atom_site_occupancy
  Ca  Ca0  1  0.250000  0.210887  0.440058  1
  Ca  Ca1  1  0.750000  0.789113  0.559942  1
  Ac  Ac2  1  0.250000  0.105316  0.790152  1
  Ac  Ac3  1  0.750000  0.894684  0.209848  1
  Ac  Ac4  1  0.250000  0.286703  0.102635  1
  Ac  Ac5  1  0.750000  0.713297  0.897365  1
  Ce  Ce6  1  0.250000  0.513904  0.293309  1
  Ce  Ce7  1  0.750000  0.486096  0.706691  1
  As  As8  1  0.250000  0.056341  0.100822  1
  As  As9  1  0.750000  0.943659  0.899178  1
  As  As10  1  0.250000  0.319408  0.684192  1
  As  As11  1  0.750000  0.680592  0.315808  1
  As  As12  1  0.250000  0.609485  0.563950  1
  As  As13  1  0.750000  0.390515  0.436050  1
  As  As14  1  0.250000  0.844336  0.715878  1
  As  As15  1  0.750000  0.155664  0.284122  1
  As  As16  1  0.750000  0.255699  0.914565  1
  As  As17  1  0.250000  0.744301  0.085435  1
  As  As18  1  0.750000  0.095574  0.584870  1
  As  As19  1  0.250000  0.904426  0.415130  1
  As  As20  1  0.750000  0.471997  0.127788  1
  As  As21  1  0.250000  0.528003  0.872212  1
  Ir  Ir22  1  0.250000  0.987332  0.572973  1
  Ir  Ir23  1  0.750000  0.012668  0.427027  1
  Ir  Ir24  1  0.250000  0.659821  0.729039  1
  Ir  Ir25  1  0.750000  0.340179  0.270961  1
  Ir  Ir26  1  0.250000  0.551136  0.050445  1
  Ir  Ir27  1  0.750000  0.448864  0.949555  1
  Ir  Ir28  1  0.250000  0.058321  0.282235  1
  Ir  Ir29  1  0.750000  0.941679  0.717765  1
  Ir  Ir30  1  0.250000  0.427692  0.524070  1
  Ir  Ir31  1  0.750000  0.572308  0.475930  1
  Ir  Ir32  1  0.250000  0.918793  0.996912  1
  Ir  Ir33  1  0.750000  0.081207  0.003088  1
  Ir  Ir34  1  0.250000  0.720723  0.400874  1
  Ir  Ir35  1  0.750000  0.279277  0.599126  1
  Ir  Ir36  1  0.250000  0.345918  0.856802  1
  Ir  Ir37  1  0.750000  0.654082  0.143198  1
