# generated using pymatgen
data_Zr3Ti2Nb(SiTc)6
_symmetry_space_group_name_H-M   'P 1'
_cell_length_a   3.35551900
_cell_length_b   6.89250767
_cell_length_c   11.99521026
_cell_angle_alpha   89.69718943
_cell_angle_beta   90.00000000
_cell_angle_gamma   90.00000000
_symmetry_Int_Tables_number   1
_chemical_formula_structural   Zr3Ti2Nb(SiTc)6
_chemical_formula_sum   'Zr3 Ti2 Nb1 Si6 Tc6'
_cell_volume   277.42063416
_cell_formula_units_Z   1
loop_
 _symmetry_equiv_pos_site_id
 _symmetry_equiv_pos_as_xyz
  1  'x, y, z'
loop_
 _atom_site_type_symbol
 _atom_site_label
 _atom_site_symmetry_multiplicity
 _atom_site_fract_x
 _atom_site_fract_y
 _atom_site_fract_z
 _atom_site_occupancy
  Zr  Zr0  1  0.500000  0.298167  0.297249  1
  Zr  Zr1  1  0.500000  0.298051  0.702396  1
  Zr  Zr2  1  0.500000  0.800065  0.202776  1
  Ti  Ti3  1  0.500000  0.405396  0.999460  1
  Ti  Ti4  1  0.500000  0.901781  0.502226  1
  Nb  Nb5  1  0.500000  0.798109  0.798014  1
  Si  Si6  1  0.000000  0.992115  0.664612  1
  Si  Si7  1  0.000000  0.498096  0.159258  1
  Si  Si8  1  0.000000  0.501907  0.837674  1
  Si  Si9  1  0.000000  0.996241  0.341083  1
  Si  Si10  1  0.500000  0.004397  0.998765  1
  Si  Si11  1  0.500000  0.501928  0.499492  1
  Tc  Tc12  1  0.000000  0.744693  0.995820  1
  Tc  Tc13  1  0.000000  0.241416  0.502070  1
  Tc  Tc14  1  0.000000  0.630064  0.628059  1
  Tc  Tc15  1  0.000000  0.130996  0.124409  1
  Tc  Tc16  1  0.000000  0.126820  0.872007  1
  Tc  Tc17  1  0.000000  0.629954  0.374630  1
