# generated using pymatgen
data_La3Pr(InPt)8
_symmetry_space_group_name_H-M   'P 1'
_cell_length_a   4.53701700
_cell_length_b   10.43874071
_cell_length_c   10.41705814
_cell_angle_alpha   62.86788672
_cell_angle_beta   90.00000000
_cell_angle_gamma   90.00000000
_symmetry_Int_Tables_number   1
_chemical_formula_structural   La3Pr(InPt)8
_chemical_formula_sum   'La3 Pr1 In8 Pt8'
_cell_volume   439.06901908
_cell_formula_units_Z   1
loop_
 _symmetry_equiv_pos_site_id
 _symmetry_equiv_pos_as_xyz
  1  'x, y, z'
loop_
 _atom_site_type_symbol
 _atom_site_label
 _atom_site_symmetry_multiplicity
 _atom_site_fract_x
 _atom_site_fract_y
 _atom_site_fract_z
 _atom_site_occupancy
  La  La0  1  0.250000  0.953313  0.791133  1
  La  La1  1  0.750000  0.047145  0.208963  1
  La  La2  1  0.250000  0.598741  0.708313  1
  Pr  Pr3  1  0.750000  0.401708  0.290323  1
  In  In4  1  0.250000  0.354449  0.552893  1
  In  In5  1  0.750000  0.645081  0.445710  1
  In  In6  1  0.250000  0.120693  0.424153  1
  In  In7  1  0.750000  0.881104  0.575242  1
  In  In8  1  0.250000  0.226767  0.897082  1
  In  In9  1  0.750000  0.772654  0.103575  1
  In  In10  1  0.250000  0.593547  0.041604  1
  In  In11  1  0.750000  0.405352  0.960124  1
  Pt  Pt12  1  0.250000  0.624455  0.297164  1
  Pt  Pt13  1  0.750000  0.375242  0.703211  1
  Pt  Pt14  1  0.250000  0.842969  0.420379  1
  Pt  Pt15  1  0.750000  0.156999  0.580331  1
  Pt  Pt16  1  0.250000  0.296149  0.131313  1
  Pt  Pt17  1  0.750000  0.704082  0.868661  1
  Pt  Pt18  1  0.250000  0.928778  0.100465  1
  Pt  Pt19  1  0.750000  0.070771  0.899361  1
