# generated using pymatgen
data_InTcF7
_symmetry_space_group_name_H-M   'P 1'
_cell_length_a   5.47198000
_cell_length_b   8.64588954
_cell_length_c   11.78515409
_cell_angle_alpha   63.09353756
_cell_angle_beta   90.00000000
_cell_angle_gamma   90.00000000
_symmetry_Int_Tables_number   1
_chemical_formula_structural   InTcF7
_chemical_formula_sum   'In4 Tc4 F28'
_cell_volume   497.19970199
_cell_formula_units_Z   4
loop_
 _symmetry_equiv_pos_site_id
 _symmetry_equiv_pos_as_xyz
  1  'x, y, z'
loop_
 _atom_site_type_symbol
 _atom_site_label
 _atom_site_symmetry_multiplicity
 _atom_site_fract_x
 _atom_site_fract_y
 _atom_site_fract_z
 _atom_site_occupancy
  In  In0  1  0.261346  0.816076  0.263530  1
  In  In1  1  0.738654  0.183924  0.736470  1
  In  In2  1  0.761346  0.183924  0.236470  1
  In  In3  1  0.238654  0.816076  0.763530  1
  Tc  Tc4  1  0.761069  0.726455  0.044265  1
  Tc  Tc5  1  0.238931  0.273545  0.955735  1
  Tc  Tc6  1  0.261069  0.273545  0.455735  1
  Tc  Tc7  1  0.738931  0.726455  0.544265  1
  F  F8  1  0.941231  0.703043  0.417642  1
  F  F9  1  0.058769  0.296957  0.582358  1
  F  F10  1  0.441231  0.296957  0.082358  1
  F  F11  1  0.558769  0.703043  0.917642  1
  F  F12  1  0.468950  0.725883  0.141508  1
  F  F13  1  0.531050  0.274117  0.858492  1
  F  F14  1  0.968950  0.274117  0.358492  1
  F  F15  1  0.031050  0.725883  0.641508  1
  F  F16  1  0.958589  0.744376  0.179192  1
  F  F17  1  0.041411  0.255624  0.820808  1
  F  F18  1  0.458589  0.255624  0.320808  1
  F  F19  1  0.541411  0.744376  0.679192  1
  F  F20  1  0.777664  0.471810  0.144830  1
  F  F21  1  0.222336  0.528190  0.855170  1
  F  F22  1  0.277664  0.528190  0.355170  1
  F  F23  1  0.722336  0.471810  0.644830  1
  F  F24  1  0.936705  0.276480  0.046573  1
  F  F25  1  0.063295  0.723520  0.953427  1
  F  F26  1  0.436705  0.723520  0.453427  1
  F  F27  1  0.563295  0.276480  0.546573  1
  F  F28  1  0.740454  0.978069  0.448826  1
  F  F29  1  0.259546  0.021931  0.551174  1
  F  F30  1  0.240454  0.021931  0.051174  1
  F  F31  1  0.759546  0.978069  0.948826  1
  F  F32  1  0.587910  0.970155  0.229814  1
  F  F33  1  0.412090  0.029845  0.770186  1
  F  F34  1  0.087910  0.029845  0.270186  1
  F  F35  1  0.912090  0.970155  0.729814  1
