# generated using pymatgen
data_Ho2Sn2PtRh
_symmetry_space_group_name_H-M   'P 1'
_cell_length_a   7.58551700
_cell_length_b   7.58551775
_cell_length_c   7.72504100
_cell_angle_alpha   90.00000000
_cell_angle_beta   90.00000000
_cell_angle_gamma   120.00000109
_symmetry_Int_Tables_number   1
_chemical_formula_structural   Ho2Sn2PtRh
_chemical_formula_sum   'Ho6 Sn6 Pt3 Rh3'
_cell_volume   384.94779377
_cell_formula_units_Z   3
loop_
 _symmetry_equiv_pos_site_id
 _symmetry_equiv_pos_as_xyz
  1  'x, y, z'
loop_
 _atom_site_type_symbol
 _atom_site_label
 _atom_site_symmetry_multiplicity
 _atom_site_fract_x
 _atom_site_fract_y
 _atom_site_fract_z
 _atom_site_occupancy
  Ho  Ho0  1  0.407059  0.003655  0.247794  1
  Ho  Ho1  1  0.596595  0.592941  0.247794  1
  Ho  Ho2  1  0.996345  0.403405  0.247794  1
  Ho  Ho3  1  0.406389  0.002258  0.752259  1
  Ho  Ho4  1  0.595867  0.593611  0.752259  1
  Ho  Ho5  1  0.997742  0.404133  0.752259  1
  Sn  Sn6  1  0.262353  0.257874  0.000167  1
  Sn  Sn7  1  0.995520  0.737647  0.000167  1
  Sn  Sn8  1  0.001562  0.742391  0.499868  1
  Sn  Sn9  1  0.740829  0.998438  0.499868  1
  Sn  Sn10  1  0.257609  0.259171  0.499868  1
  Sn  Sn11  1  0.742126  0.004480  0.000167  1
  Pt  Pt12  1  0.333333  0.666667  0.498617  1
  Pt  Pt13  1  0.333333  0.666667  0.001166  1
  Pt  Pt14  1  0.666667  0.333333  0.501364  1
  Rh  Rh15  1  0.000000  0.000000  0.749872  1
  Rh  Rh16  1  0.000000  0.000000  0.249685  1
  Rh  Rh17  1  0.666667  0.333333  0.999032  1
