# generated using pymatgen
data_Yb7Gd(Sc3Pb4)4
_symmetry_space_group_name_H-M   'P 1'
_cell_length_a   7.75391444
_cell_length_b   15.29362159
_cell_length_c   8.23193700
_cell_angle_alpha   89.98802656
_cell_angle_beta   90.37989262
_cell_angle_gamma   90.04280971
_symmetry_Int_Tables_number   1
_chemical_formula_structural   Yb7Gd(Sc3Pb4)4
_chemical_formula_sum   'Yb7 Gd1 Sc12 Pb16'
_cell_volume   976.16606522
_cell_formula_units_Z   1
loop_
 _symmetry_equiv_pos_site_id
 _symmetry_equiv_pos_as_xyz
  1  'x, y, z'
loop_
 _atom_site_type_symbol
 _atom_site_label
 _atom_site_symmetry_multiplicity
 _atom_site_fract_x
 _atom_site_fract_y
 _atom_site_fract_z
 _atom_site_occupancy
  Yb  Yb0  1  0.487418  0.590919  0.682677  1
  Yb  Yb1  1  0.986446  0.908586  0.818887  1
  Yb  Yb2  1  0.510879  0.089883  0.317360  1
  Yb  Yb3  1  0.011799  0.409197  0.182816  1
  Yb  Yb4  1  0.510984  0.410304  0.316315  1
  Yb  Yb5  1  0.011052  0.090124  0.182538  1
  Yb  Yb6  1  0.488360  0.908703  0.681380  1
  Gd  Gd7  1  0.990386  0.593294  0.816114  1
  Sc  Sc8  1  0.665683  0.625928  0.150001  1
  Sc  Sc9  1  0.168243  0.873691  0.348520  1
  Sc  Sc10  1  0.334471  0.125283  0.848876  1
  Sc  Sc11  1  0.834979  0.373858  0.650352  1
  Sc  Sc12  1  0.334916  0.374497  0.849971  1
  Sc  Sc13  1  0.834153  0.125507  0.650760  1
  Sc  Sc14  1  0.665650  0.874075  0.152676  1
  Sc  Sc15  1  0.166158  0.626174  0.349462  1
  Sc  Sc16  1  0.829691  0.749696  0.499873  1
  Sc  Sc17  1  0.329027  0.750398  0.000307  1
  Sc  Sc18  1  0.169228  0.249529  0.500752  1
  Sc  Sc19  1  0.670708  0.249599  0.999902  1
  Pb  Pb20  1  0.687055  0.454844  0.953592  1
  Pb  Pb21  1  0.182729  0.045035  0.543898  1
  Pb  Pb22  1  0.317014  0.954098  0.043544  1
  Pb  Pb23  1  0.816345  0.545813  0.456890  1
  Pb  Pb24  1  0.315692  0.546004  0.045703  1
  Pb  Pb25  1  0.818098  0.953914  0.456481  1
  Pb  Pb26  1  0.682470  0.045102  0.955012  1
  Pb  Pb27  1  0.182584  0.455474  0.545376  1
  Pb  Pb28  1  0.474201  0.748794  0.364836  1
  Pb  Pb29  1  0.972804  0.749985  0.132135  1
  Pb  Pb30  1  0.526660  0.250300  0.634926  1
  Pb  Pb31  1  0.028124  0.249514  0.867548  1
  Pb  Pb32  1  0.684440  0.749492  0.847047  1
  Pb  Pb33  1  0.185330  0.752114  0.654068  1
  Pb  Pb34  1  0.313930  0.250299  0.153179  1
  Pb  Pb35  1  0.812290  0.249967  0.346225  1
