# generated using pymatgen
data_HoLu2Sc3CoBi2
_symmetry_space_group_name_H-M   'P 1'
_cell_length_a   7.98451600
_cell_length_b   7.93257431
_cell_length_c   4.06635300
_cell_angle_alpha   90.00000000
_cell_angle_beta   90.00000000
_cell_angle_gamma   120.21684014
_symmetry_Int_Tables_number   1
_chemical_formula_structural   HoLu2Sc3CoBi2
_chemical_formula_sum   'Ho1 Lu2 Sc3 Co1 Bi2'
_cell_volume   222.55909985
_cell_formula_units_Z   1
loop_
 _symmetry_equiv_pos_site_id
 _symmetry_equiv_pos_as_xyz
  1  'x, y, z'
loop_
 _atom_site_type_symbol
 _atom_site_label
 _atom_site_symmetry_multiplicity
 _atom_site_fract_x
 _atom_site_fract_y
 _atom_site_fract_z
 _atom_site_occupancy
  Ho  Ho0  1  0.614579  0.000000  0.500000  1
  Lu  Lu1  1  0.000091  0.620647  0.500000  1
  Lu  Lu2  1  0.379444  0.379353  0.500000  1
  Sc  Sc3  1  0.224727  0.000000  0.000000  1
  Sc  Sc4  1  0.774340  0.774840  0.000000  1
  Sc  Sc5  1  0.999499  0.225160  0.000000  1
  Co  Co6  1  0.010214  0.000000  0.500000  1
  Bi  Bi7  1  0.330616  0.664127  0.000000  1
  Bi  Bi8  1  0.666489  0.335873  0.000000  1
