# generated using pymatgen
data_YHo4Ti3(Co4As3)4
_symmetry_space_group_name_H-M   'P 1'
_cell_length_a   12.57605500
_cell_length_b   12.57605566
_cell_length_c   3.80306300
_cell_angle_alpha   90.00000000
_cell_angle_beta   90.00000000
_cell_angle_gamma   120.00000617
_symmetry_Int_Tables_number   1
_chemical_formula_structural   YHo4Ti3(Co4As3)4
_chemical_formula_sum   'Y1 Ho4 Ti3 Co16 As12'
_cell_volume   520.89837575
_cell_formula_units_Z   1
loop_
 _symmetry_equiv_pos_site_id
 _symmetry_equiv_pos_as_xyz
  1  'x, y, z'
loop_
 _atom_site_type_symbol
 _atom_site_label
 _atom_site_symmetry_multiplicity
 _atom_site_fract_x
 _atom_site_fract_y
 _atom_site_fract_z
 _atom_site_occupancy
  Y  Y0  1  0.666667  0.333333  0.000000  1
  Ho  Ho1  1  0.185862  0.185863  0.500000  1
  Ho  Ho2  1  0.814137  0.000000  0.500000  1
  Ho  Ho3  1  0.000000  0.814138  0.500000  1
  Ho  Ho4  1  0.333333  0.666667  0.000000  1
  Ti  Ti5  1  0.563802  0.563918  0.000000  1
  Ti  Ti6  1  0.436082  0.999885  0.000000  1
  Ti  Ti7  1  0.000115  0.436198  0.000000  1
  Co  Co8  1  0.716583  0.716725  0.500000  1
  Co  Co9  1  0.283275  0.999858  0.500000  1
  Co  Co10  1  0.000142  0.283417  0.500000  1
  Co  Co11  1  0.177145  0.375938  0.000000  1
  Co  Co12  1  0.624062  0.801208  0.000000  1
  Co  Co13  1  0.198792  0.822855  0.000000  1
  Co  Co14  1  0.801329  0.624332  0.000000  1
  Co  Co15  1  0.823003  0.198671  0.000000  1
  Co  Co16  1  0.375668  0.176997  0.000000  1
  Co  Co17  1  0.355879  0.479812  0.500000  1
  Co  Co18  1  0.520188  0.876067  0.500000  1
  Co  Co19  1  0.123933  0.644121  0.500000  1
  Co  Co20  1  0.876501  0.520570  0.500000  1
  Co  Co21  1  0.644069  0.123499  0.500000  1
  Co  Co22  1  0.479430  0.355931  0.500000  1
  Co  Co23  1  0.000000  0.000000  0.000000  1
  As  As24  1  0.822062  0.822116  0.000000  1
  As  As25  1  0.177884  0.999946  0.000000  1
  As  As26  1  0.000054  0.177938  0.000000  1
  As  As27  1  0.168995  0.483243  0.500000  1
  As  As28  1  0.516757  0.685753  0.500000  1
  As  As29  1  0.314247  0.831005  0.500000  1
  As  As30  1  0.685793  0.517280  0.500000  1
  As  As31  1  0.831488  0.314207  0.500000  1
  As  As32  1  0.482720  0.168512  0.500000  1
  As  As33  1  0.359413  0.359411  0.000000  1
  As  As34  1  0.640589  0.000002  0.000000  1
  As  As35  1  0.999998  0.640587  0.000000  1
