# generated using pymatgen
data_Hf4Si4IrOs2Rh
_symmetry_space_group_name_H-M   'P 1'
_cell_length_a   4.00030500
_cell_length_b   6.45047413
_cell_length_c   7.44882520
_cell_angle_alpha   90.20104150
_cell_angle_beta   90.00000000
_cell_angle_gamma   90.00000000
_symmetry_Int_Tables_number   1
_chemical_formula_structural   Hf4Si4IrOs2Rh
_chemical_formula_sum   'Hf4 Si4 Ir1 Os2 Rh1'
_cell_volume   192.20728866
_cell_formula_units_Z   1
loop_
 _symmetry_equiv_pos_site_id
 _symmetry_equiv_pos_as_xyz
  1  'x, y, z'
loop_
 _atom_site_type_symbol
 _atom_site_label
 _atom_site_symmetry_multiplicity
 _atom_site_fract_x
 _atom_site_fract_y
 _atom_site_fract_z
 _atom_site_occupancy
  Hf  Hf0  1  0.250000  0.518362  0.186992  1
  Hf  Hf1  1  0.750000  0.480135  0.814441  1
  Hf  Hf2  1  0.250000  0.017196  0.317890  1
  Hf  Hf3  1  0.750000  0.984621  0.681446  1
  Si  Si4  1  0.250000  0.784232  0.881434  1
  Si  Si5  1  0.750000  0.215067  0.118802  1
  Si  Si6  1  0.250000  0.275911  0.621635  1
  Si  Si7  1  0.750000  0.724452  0.378052  1
  Ir  Ir8  1  0.750000  0.344729  0.431248  1
  Os  Os9  1  0.750000  0.838932  0.058718  1
  Os  Os10  1  0.250000  0.162170  0.940427  1
  Rh  Rh11  1  0.250000  0.654192  0.568915  1
