# generated using pymatgen
data_Li3Eu2LuPb3
_symmetry_space_group_name_H-M   'P 1'
_cell_length_a   7.35339025
_cell_length_b   7.35338975
_cell_length_c   4.98909800
_cell_angle_alpha   90.00000000
_cell_angle_beta   90.00000000
_cell_angle_gamma   113.57754455
_symmetry_Int_Tables_number   1
_chemical_formula_structural   Li3Eu2LuPb3
_chemical_formula_sum   'Li3 Eu2 Lu1 Pb3'
_cell_volume   247.25152275
_cell_formula_units_Z   1
loop_
 _symmetry_equiv_pos_site_id
 _symmetry_equiv_pos_as_xyz
  1  'x, y, z'
loop_
 _atom_site_type_symbol
 _atom_site_label
 _atom_site_symmetry_multiplicity
 _atom_site_fract_x
 _atom_site_fract_y
 _atom_site_fract_z
 _atom_site_occupancy
  Li  Li0  1  0.758748  0.988265  0.000000  1
  Li  Li1  1  0.210269  0.210270  0.000000  1
  Li  Li2  1  0.988265  0.758748  0.000000  1
  Eu  Eu3  1  0.444139  0.012676  0.499999  1
  Eu  Eu4  1  0.012676  0.444139  0.499999  1
  Lu  Lu5  1  0.592865  0.592865  0.499999  1
  Pb  Pb6  1  0.655439  0.359623  0.000000  1
  Pb  Pb7  1  0.359623  0.655439  0.000000  1
  Pb  Pb8  1  0.977974  0.977974  0.499999  1
