# generated using pymatgen
data_Dy11Y4Th(CdNi)4
_symmetry_space_group_name_H-M   'P 1'
_cell_length_a   9.59680158
_cell_length_b   9.59910588
_cell_length_c   9.59910480
_cell_angle_alpha   59.81382468
_cell_angle_beta   59.80630384
_cell_angle_gamma   59.80631175
_symmetry_Int_Tables_number   1
_chemical_formula_structural   Dy11Y4Th(CdNi)4
_chemical_formula_sum   'Dy11 Y4 Th1 Cd4 Ni4'
_cell_volume   622.56420740
_cell_formula_units_Z   1
loop_
 _symmetry_equiv_pos_site_id
 _symmetry_equiv_pos_as_xyz
  1  'x, y, z'
loop_
 _atom_site_type_symbol
 _atom_site_label
 _atom_site_symmetry_multiplicity
 _atom_site_fract_x
 _atom_site_fract_y
 _atom_site_fract_z
 _atom_site_occupancy
  Dy  Dy0  1  0.598308  0.597822  0.202659  1
  Dy  Dy1  1  0.598308  0.202659  0.597822  1
  Dy  Dy2  1  0.202676  0.598242  0.598242  1
  Dy  Dy3  1  0.061797  0.438508  0.438508  1
  Dy  Dy4  1  0.440320  0.061456  0.061456  1
  Dy  Dy5  1  0.438605  0.061724  0.438526  1
  Dy  Dy6  1  0.061443  0.440425  0.061423  1
  Dy  Dy7  1  0.438605  0.438526  0.061724  1
  Dy  Dy8  1  0.061443  0.061423  0.440425  1
  Dy  Dy9  1  0.187266  0.813812  0.813812  1
  Dy  Dy10  1  0.814408  0.186459  0.186459  1
  Y  Y11  1  0.814285  0.186622  0.814308  1
  Y  Y12  1  0.185944  0.814999  0.185857  1
  Y  Y13  1  0.814285  0.814308  0.186622  1
  Y  Y14  1  0.185944  0.185857  0.814999  1
  Th  Th15  1  0.594887  0.595694  0.595694  1
  Cd  Cd16  1  0.831251  0.831180  0.831180  1
  Cd  Cd17  1  0.831585  0.831656  0.506227  1
  Cd  Cd18  1  0.831585  0.506227  0.831656  1
  Cd  Cd19  1  0.506282  0.831536  0.831536  1
  Ni  Ni20  1  0.392571  0.392579  0.392579  1
  Ni  Ni21  1  0.393445  0.393462  0.821368  1
  Ni  Ni22  1  0.393445  0.821368  0.393462  1
  Ni  Ni23  1  0.821311  0.393456  0.393456  1
