# generated using pymatgen
data_Lu10IrRu3
_symmetry_space_group_name_H-M   'P 1'
_cell_length_a   6.20103783
_cell_length_b   7.22325060
_cell_length_c   8.25334137
_cell_angle_alpha   96.89693155
_cell_angle_beta   112.13640277
_cell_angle_gamma   90.05399256
_symmetry_Int_Tables_number   1
_chemical_formula_structural   Lu10IrRu3
_chemical_formula_sum   'Lu10 Ir1 Ru3'
_cell_volume   339.52433889
_cell_formula_units_Z   1
loop_
 _symmetry_equiv_pos_site_id
 _symmetry_equiv_pos_as_xyz
  1  'x, y, z'
loop_
 _atom_site_type_symbol
 _atom_site_label
 _atom_site_symmetry_multiplicity
 _atom_site_fract_x
 _atom_site_fract_y
 _atom_site_fract_z
 _atom_site_occupancy
  Lu  Lu0  1  0.524274  0.084307  0.814864  1
  Lu  Lu1  1  0.475595  0.918062  0.183972  1
  Lu  Lu2  1  0.710394  0.415113  0.183226  1
  Lu  Lu3  1  0.290180  0.584132  0.813755  1
  Lu  Lu4  1  0.293869  0.314835  0.437103  1
  Lu  Lu5  1  0.705645  0.683202  0.564661  1
  Lu  Lu6  1  0.857466  0.183197  0.564077  1
  Lu  Lu7  1  0.141045  0.818084  0.436905  1
  Lu  Lu8  1  0.080276  0.248705  0.998663  1
  Lu  Lu9  1  0.919170  0.750242  0.000159  1
  Ir  Ir10  1  0.322844  0.577778  0.221521  1
  Ru  Ru11  1  0.676123  0.423284  0.780399  1
  Ru  Ru12  1  0.105376  0.921780  0.780502  1
  Ru  Ru13  1  0.897743  0.077278  0.220193  1
