# generated using pymatgen
data_Rb3VRhCl9
_symmetry_space_group_name_H-M   'P 1'
_cell_length_a   7.26224600
_cell_length_b   7.26256616
_cell_length_c   17.86094000
_cell_angle_alpha   90.00000000
_cell_angle_beta   90.00000000
_cell_angle_gamma   120.02550048
_symmetry_Int_Tables_number   1
_chemical_formula_structural   Rb3VRhCl9
_chemical_formula_sum   'Rb6 V2 Rh2 Cl18'
_cell_volume   815.61339044
_cell_formula_units_Z   2
loop_
 _symmetry_equiv_pos_site_id
 _symmetry_equiv_pos_as_xyz
  1  'x, y, z'
loop_
 _atom_site_type_symbol
 _atom_site_label
 _atom_site_symmetry_multiplicity
 _atom_site_fract_x
 _atom_site_fract_y
 _atom_site_fract_z
 _atom_site_occupancy
  Rb  Rb0  1  0.666658  0.333354  0.932722  1
  Rb  Rb1  1  0.333342  0.666646  0.432722  1
  Rb  Rb2  1  0.666653  0.333364  0.570249  1
  Rb  Rb3  1  0.333347  0.666636  0.070249  1
  Rb  Rb4  1  0.000004  0.000021  0.748547  1
  Rb  Rb5  1  0.999996  0.999979  0.248547  1
  V  V6  1  0.666684  0.333305  0.336541  1
  V  V7  1  0.333316  0.666695  0.836541  1
  Rh  Rh8  1  0.333329  0.666668  0.668198  1
  Rh  Rh9  1  0.666671  0.333332  0.168198  1
  Cl  Cl10  1  0.823168  0.646264  0.405766  1
  Cl  Cl11  1  0.176832  0.353736  0.905766  1
  Cl  Cl12  1  0.176875  0.823112  0.905760  1
  Cl  Cl13  1  0.180211  0.360499  0.593627  1
  Cl  Cl14  1  0.646283  0.823168  0.905764  1
  Cl  Cl15  1  0.353717  0.176832  0.405764  1
  Cl  Cl16  1  0.026200  0.513073  0.748523  1
  Cl  Cl17  1  0.823125  0.176888  0.405760  1
  Cl  Cl18  1  0.513089  0.026216  0.248524  1
  Cl  Cl19  1  0.486823  0.513167  0.748515  1
  Cl  Cl20  1  0.513177  0.486833  0.248515  1
  Cl  Cl21  1  0.973800  0.486927  0.248523  1
  Cl  Cl22  1  0.360492  0.180215  0.093625  1
  Cl  Cl23  1  0.486911  0.973784  0.748524  1
  Cl  Cl24  1  0.819789  0.639501  0.093627  1
  Cl  Cl25  1  0.180275  0.819720  0.593638  1
  Cl  Cl26  1  0.639508  0.819785  0.593625  1
  Cl  Cl27  1  0.819725  0.180280  0.093638  1
