# generated using pymatgen
data_Pr7Sm(HoBi)12
_symmetry_space_group_name_H-M   'P 1'
_cell_length_a   8.38841302
_cell_length_b   9.58554500
_cell_length_c   12.32849000
_cell_angle_alpha   90.00000000
_cell_angle_beta   89.99568322
_cell_angle_gamma   90.00000000
_symmetry_Int_Tables_number   1
_chemical_formula_structural   Pr7Sm(HoBi)12
_chemical_formula_sum   'Pr7 Sm1 Ho12 Bi12'
_cell_volume   991.30318654
_cell_formula_units_Z   1
loop_
 _symmetry_equiv_pos_site_id
 _symmetry_equiv_pos_as_xyz
  1  'x, y, z'
loop_
 _atom_site_type_symbol
 _atom_site_label
 _atom_site_symmetry_multiplicity
 _atom_site_fract_x
 _atom_site_fract_y
 _atom_site_fract_z
 _atom_site_occupancy
  Pr  Pr0  1  0.184787  0.750000  0.720774  1
  Pr  Pr1  1  0.685533  0.750000  0.778994  1
  Pr  Pr2  1  0.816646  0.250000  0.280214  1
  Pr  Pr3  1  0.315036  0.250000  0.221423  1
  Pr  Pr4  1  0.352399  0.750000  0.215271  1
  Pr  Pr5  1  0.852719  0.750000  0.284532  1
  Pr  Pr6  1  0.646956  0.250000  0.784455  1
  Sm  Sm7  1  0.147920  0.250000  0.716306  1
  Ho  Ho8  1  0.025451  0.750000  0.987107  1
  Ho  Ho9  1  0.524787  0.750000  0.512575  1
  Ho  Ho10  1  0.974856  0.250000  0.010734  1
  Ho  Ho11  1  0.474524  0.250000  0.488483  1
  Ho  Ho12  1  0.308037  0.435882  0.940728  1
  Ho  Ho13  1  0.807615  0.063909  0.559061  1
  Ho  Ho14  1  0.692295  0.936189  0.057591  1
  Ho  Ho15  1  0.191849  0.563947  0.442191  1
  Ho  Ho16  1  0.692295  0.563811  0.057591  1
  Ho  Ho17  1  0.191849  0.936053  0.442191  1
  Ho  Ho18  1  0.308037  0.064118  0.940728  1
  Ho  Ho19  1  0.807615  0.436091  0.559061  1
  Bi  Bi20  1  0.432883  0.005864  0.668082  1
  Bi  Bi21  1  0.937183  0.493844  0.829874  1
  Bi  Bi22  1  0.564804  0.504471  0.332605  1
  Bi  Bi23  1  0.064889  0.995679  0.167464  1
  Bi  Bi24  1  0.564804  0.995529  0.332605  1
  Bi  Bi25  1  0.064889  0.504321  0.167464  1
  Bi  Bi26  1  0.432883  0.494136  0.668082  1
  Bi  Bi27  1  0.937183  0.006156  0.829874  1
  Bi  Bi28  1  0.407365  0.750000  0.957290  1
  Bi  Bi29  1  0.906740  0.750000  0.542503  1
  Bi  Bi30  1  0.592603  0.250000  0.042684  1
  Bi  Bi31  1  0.092570  0.250000  0.461458  1
