# generated using pymatgen
data_LaPr6Tc4C9
_symmetry_space_group_name_H-M   'P 1'
_cell_length_a   6.57258489
_cell_length_b   6.57258554
_cell_length_c   12.09068435
_cell_angle_alpha   71.24303457
_cell_angle_beta   71.24303082
_cell_angle_gamma   47.93069440
_symmetry_Int_Tables_number   1
_chemical_formula_structural   LaPr6Tc4C9
_chemical_formula_sum   'La1 Pr6 Tc4 C9'
_cell_volume   362.92604418
_cell_formula_units_Z   1
loop_
 _symmetry_equiv_pos_site_id
 _symmetry_equiv_pos_as_xyz
  1  'x, y, z'
loop_
 _atom_site_type_symbol
 _atom_site_label
 _atom_site_symmetry_multiplicity
 _atom_site_fract_x
 _atom_site_fract_y
 _atom_site_fract_z
 _atom_site_occupancy
  La  La0  1  0.628779  0.628779  0.156451  1
  Pr  Pr1  1  0.374108  0.374108  0.841212  1
  Pr  Pr2  1  0.143108  0.143108  0.685673  1
  Pr  Pr3  1  0.856825  0.856825  0.314923  1
  Pr  Pr4  1  0.138192  0.138192  0.380073  1
  Pr  Pr5  1  0.861707  0.861707  0.620544  1
  Pr  Pr6  1  0.999784  0.999784  0.999636  1
  Tc  Tc7  1  0.356883  0.356883  0.140066  1
  Tc  Tc8  1  0.567311  0.567311  0.569612  1
  Tc  Tc9  1  0.432006  0.432006  0.431059  1
  Tc  Tc10  1  0.642739  0.642739  0.859849  1
  C  C11  1  0.381189  0.381189  0.290910  1
  C  C12  1  0.924529  0.924529  0.817677  1
  C  C13  1  0.393307  0.393307  0.612118  1
  C  C14  1  0.193195  0.193195  0.142824  1
  C  C15  1  0.806835  0.806835  0.857593  1
  C  C16  1  0.499187  0.499187  0.999231  1
  C  C17  1  0.075518  0.075518  0.182404  1
  C  C18  1  0.618673  0.618673  0.709187  1
  C  C19  1  0.606128  0.606128  0.388957  1
