# generated using pymatgen
data_Dy3Ho7Cd3Co
_symmetry_space_group_name_H-M   'P 1'
_cell_length_a   9.54653600
_cell_length_b   9.54655536
_cell_length_c   9.73100600
_cell_angle_alpha   90.00000000
_cell_angle_beta   90.00000000
_cell_angle_gamma   120.00039567
_symmetry_Int_Tables_number   1
_chemical_formula_structural   Dy3Ho7Cd3Co
_chemical_formula_sum   'Dy6 Ho14 Cd6 Co2'
_cell_volume   768.03170879
_cell_formula_units_Z   2
loop_
 _symmetry_equiv_pos_site_id
 _symmetry_equiv_pos_as_xyz
  1  'x, y, z'
loop_
 _atom_site_type_symbol
 _atom_site_label
 _atom_site_symmetry_multiplicity
 _atom_site_fract_x
 _atom_site_fract_y
 _atom_site_fract_z
 _atom_site_occupancy
  Dy  Dy0  1  0.542573  0.457427  0.250000  1
  Dy  Dy1  1  0.542574  0.085147  0.250000  1
  Dy  Dy2  1  0.914854  0.457427  0.250000  1
  Dy  Dy3  1  0.457427  0.542573  0.750000  1
  Dy  Dy4  1  0.457426  0.914853  0.750000  1
  Dy  Dy5  1  0.085146  0.542573  0.750000  1
  Ho  Ho6  1  0.000000  0.000000  0.500000  1
  Ho  Ho7  1  0.000000  0.000000  0.000000  1
  Ho  Ho8  1  0.211982  0.788015  0.436260  1
  Ho  Ho9  1  0.211983  0.423967  0.436259  1
  Ho  Ho10  1  0.576032  0.788015  0.436258  1
  Ho  Ho11  1  0.788018  0.211985  0.563740  1
  Ho  Ho12  1  0.788017  0.576033  0.563741  1
  Ho  Ho13  1  0.423968  0.211985  0.563742  1
  Ho  Ho14  1  0.788018  0.211985  0.936260  1
  Ho  Ho15  1  0.788017  0.576033  0.936259  1
  Ho  Ho16  1  0.423968  0.211985  0.936258  1
  Ho  Ho17  1  0.211982  0.788015  0.063740  1
  Ho  Ho18  1  0.211983  0.423967  0.063741  1
  Ho  Ho19  1  0.576032  0.788015  0.063742  1
  Cd  Cd20  1  0.885118  0.114882  0.250000  1
  Cd  Cd21  1  0.885119  0.770237  0.250000  1
  Cd  Cd22  1  0.229762  0.114881  0.250000  1
  Cd  Cd23  1  0.114882  0.885118  0.750000  1
  Cd  Cd24  1  0.114881  0.229763  0.750000  1
  Cd  Cd25  1  0.770238  0.885119  0.750000  1
  Co  Co26  1  0.333333  0.666668  0.250000  1
  Co  Co27  1  0.666667  0.333332  0.750000  1
