# generated using pymatgen
data_Sc2Ga8SiRh3
_symmetry_space_group_name_H-M   'P 1'
_cell_length_a   7.47289505
_cell_length_b   7.48853707
_cell_length_c   9.27107700
_cell_angle_alpha   90.00000000
_cell_angle_beta   90.00000000
_cell_angle_gamma   119.88958861
_symmetry_Int_Tables_number   1
_chemical_formula_structural   Sc2Ga8SiRh3
_chemical_formula_sum   'Sc4 Ga16 Si2 Rh6'
_cell_volume   449.80968230
_cell_formula_units_Z   2
loop_
 _symmetry_equiv_pos_site_id
 _symmetry_equiv_pos_as_xyz
  1  'x, y, z'
loop_
 _atom_site_type_symbol
 _atom_site_label
 _atom_site_symmetry_multiplicity
 _atom_site_fract_x
 _atom_site_fract_y
 _atom_site_fract_z
 _atom_site_occupancy
  Sc  Sc0  1  0.005422  0.673321  0.250000  1
  Sc  Sc1  1  0.994578  0.326679  0.750000  1
  Sc  Sc2  1  0.663290  0.989560  0.250000  1
  Sc  Sc3  1  0.336710  0.010440  0.750000  1
  Ga  Ga4  1  0.325991  0.329469  0.574752  1
  Ga  Ga5  1  0.674008  0.670532  0.425248  1
  Ga  Ga6  1  0.674008  0.670532  0.074752  1
  Ga  Ga7  1  0.325991  0.329469  0.925248  1
  Ga  Ga8  1  0.561569  0.341832  0.250000  1
  Ga  Ga9  1  0.438431  0.658168  0.750000  1
  Ga  Ga10  1  0.990439  0.331394  0.084163  1
  Ga  Ga11  1  0.009561  0.668606  0.915837  1
  Ga  Ga12  1  0.009561  0.668606  0.584163  1
  Ga  Ga13  1  0.336494  0.999764  0.417532  1
  Ga  Ga14  1  0.990439  0.331394  0.415837  1
  Ga  Ga15  1  0.663506  0.000236  0.582468  1
  Ga  Ga16  1  0.663506  0.000236  0.917532  1
  Ga  Ga17  1  0.336494  0.999764  0.082468  1
  Ga  Ga18  1  0.121771  0.125387  0.250000  1
  Ga  Ga19  1  0.878229  0.874613  0.750000  1
  Si  Si20  1  0.337674  0.546995  0.250000  1
  Si  Si21  1  0.662326  0.453005  0.750000  1
  Rh  Rh22  1  0.000000  0.000000  0.000000  1
  Rh  Rh23  1  0.000000  0.000000  0.500000  1
  Rh  Rh24  1  0.670320  0.332223  0.988824  1
  Rh  Rh25  1  0.329680  0.667777  0.011176  1
  Rh  Rh26  1  0.329680  0.667777  0.488824  1
  Rh  Rh27  1  0.670320  0.332223  0.511176  1
