# generated using pymatgen
data_Pr8AlGa9Cl4
_symmetry_space_group_name_H-M   'P 1'
_cell_length_a   11.47423338
_cell_length_b   11.47423262
_cell_length_c   4.20899200
_cell_angle_alpha   90.00000000
_cell_angle_beta   90.00000000
_cell_angle_gamma   93.57878637
_symmetry_Int_Tables_number   1
_chemical_formula_structural   Pr8AlGa9Cl4
_chemical_formula_sum   'Pr8 Al1 Ga9 Cl4'
_cell_volume   553.06692632
_cell_formula_units_Z   1
loop_
 _symmetry_equiv_pos_site_id
 _symmetry_equiv_pos_as_xyz
  1  'x, y, z'
loop_
 _atom_site_type_symbol
 _atom_site_label
 _atom_site_symmetry_multiplicity
 _atom_site_fract_x
 _atom_site_fract_y
 _atom_site_fract_z
 _atom_site_occupancy
  Pr  Pr0  1  0.679799  0.040732  0.500000  1
  Pr  Pr1  1  0.319975  0.959095  0.500000  1
  Pr  Pr2  1  0.040732  0.679799  0.500000  1
  Pr  Pr3  1  0.959095  0.319975  0.500000  1
  Pr  Pr4  1  0.735069  0.735069  0.000000  1
  Pr  Pr5  1  0.265709  0.265709  0.000000  1
  Pr  Pr6  1  0.365212  0.634498  0.000000  1
  Pr  Pr7  1  0.634498  0.365212  0.000000  1
  Al  Al8  1  0.579927  0.579927  0.500000  1
  Ga  Ga9  1  0.419081  0.419081  0.500000  1
  Ga  Ga10  1  0.536151  0.900245  0.000000  1
  Ga  Ga11  1  0.463265  0.099931  0.000000  1
  Ga  Ga12  1  0.900245  0.536151  0.000000  1
  Ga  Ga13  1  0.099931  0.463265  0.000000  1
  Ga  Ga14  1  0.513565  0.783773  0.500000  1
  Ga  Ga15  1  0.486799  0.216548  0.500000  1
  Ga  Ga16  1  0.216548  0.486799  0.500000  1
  Ga  Ga17  1  0.783773  0.513565  0.500000  1
  Cl  Cl18  1  0.128544  0.128544  0.500000  1
  Cl  Cl19  1  0.872174  0.872174  0.500000  1
  Cl  Cl20  1  0.823068  0.176838  0.000000  1
  Cl  Cl21  1  0.176838  0.823068  0.000000  1
