# generated using pymatgen
data_DyY15(HoIr3)4
_symmetry_space_group_name_H-M   'P 1'
_cell_length_a   10.91970805
_cell_length_b   10.91931014
_cell_length_c   6.38079306
_cell_angle_alpha   90.01547467
_cell_angle_beta   90.00100726
_cell_angle_gamma   89.98956869
_symmetry_Int_Tables_number   1
_chemical_formula_structural   DyY15(HoIr3)4
_chemical_formula_sum   'Dy1 Y15 Ho4 Ir12'
_cell_volume   760.81815139
_cell_formula_units_Z   1
loop_
 _symmetry_equiv_pos_site_id
 _symmetry_equiv_pos_as_xyz
  1  'x, y, z'
loop_
 _atom_site_type_symbol
 _atom_site_label
 _atom_site_symmetry_multiplicity
 _atom_site_fract_x
 _atom_site_fract_y
 _atom_site_fract_z
 _atom_site_occupancy
  Dy  Dy0  1  0.087921  0.291221  0.121828  1
  Y  Y1  1  0.290886  0.087987  0.377965  1
  Y  Y2  1  0.290970  0.912029  0.877917  1
  Y  Y3  1  0.708999  0.087941  0.877950  1
  Y  Y4  1  0.709037  0.912048  0.377894  1
  Y  Y5  1  0.587953  0.790983  0.877941  1
  Y  Y6  1  0.587964  0.209032  0.377892  1
  Y  Y7  1  0.412044  0.790969  0.377939  1
  Y  Y8  1  0.412033  0.209025  0.877904  1
  Y  Y9  1  0.209024  0.412028  0.622124  1
  Y  Y10  1  0.209049  0.587950  0.122077  1
  Y  Y11  1  0.790996  0.412040  0.122027  1
  Y  Y12  1  0.791004  0.587967  0.622057  1
  Y  Y13  1  0.912032  0.709064  0.122061  1
  Y  Y14  1  0.912059  0.290972  0.622150  1
  Y  Y15  1  0.087911  0.708998  0.622034  1
  Ho  Ho16  1  0.000028  0.000006  0.500010  1
  Ho  Ho17  1  0.000026  0.000031  0.999997  1
  Ho  Ho18  1  0.499993  0.500013  0.999988  1
  Ho  Ho19  1  0.499983  0.499976  0.499965  1
  Ir  Ir20  1  0.847592  0.152727  0.249919  1
  Ir  Ir21  1  0.847425  0.847442  0.749977  1
  Ir  Ir22  1  0.152518  0.152795  0.750530  1
  Ir  Ir23  1  0.152600  0.847427  0.249990  1
  Ir  Ir24  1  0.652601  0.347406  0.750013  1
  Ir  Ir25  1  0.652590  0.652568  0.250014  1
  Ir  Ir26  1  0.347118  0.347361  0.249827  1
  Ir  Ir27  1  0.347403  0.652573  0.750005  1
  Ir  Ir28  1  0.499992  0.000002  0.122517  1
  Ir  Ir29  1  0.500003  0.999997  0.622524  1
  Ir  Ir30  1  0.000139  0.499694  0.877836  1
  Ir  Ir31  1  0.000105  0.499728  0.377128  1
