# generated using pymatgen
data_Tb4Tm4B24Os3W
_symmetry_space_group_name_H-M   'P 1'
_cell_length_a   3.63292800
_cell_length_b   9.15368578
_cell_length_c   11.56150301
_cell_angle_alpha   89.89789598
_cell_angle_beta   90.00000000
_cell_angle_gamma   90.00000000
_symmetry_Int_Tables_number   1
_chemical_formula_structural   Tb4Tm4B24Os3W
_chemical_formula_sum   'Tb4 Tm4 B24 Os3 W1'
_cell_volume   384.47348845
_cell_formula_units_Z   1
loop_
 _symmetry_equiv_pos_site_id
 _symmetry_equiv_pos_as_xyz
  1  'x, y, z'
loop_
 _atom_site_type_symbol
 _atom_site_label
 _atom_site_symmetry_multiplicity
 _atom_site_fract_x
 _atom_site_fract_y
 _atom_site_fract_z
 _atom_site_occupancy
  Tb  Tb0  1  0.000000  0.320663  0.413433  1
  Tb  Tb1  1  0.000000  0.678108  0.585462  1
  Tb  Tb2  1  0.000000  0.820188  0.086471  1
  Tb  Tb3  1  0.000000  0.177324  0.914390  1
  Tm  Tm4  1  0.000000  0.945703  0.373360  1
  Tm  Tm5  1  0.000000  0.057388  0.628273  1
  Tm  Tm6  1  0.000000  0.442896  0.126087  1
  Tm  Tm7  1  0.000000  0.556585  0.871591  1
  B  B8  1  0.500000  0.550226  0.436050  1
  B  B9  1  0.500000  0.445543  0.568907  1
  B  B10  1  0.500000  0.054423  0.067318  1
  B  B11  1  0.500000  0.945949  0.932658  1
  B  B12  1  0.500000  0.753019  0.421776  1
  B  B13  1  0.500000  0.251086  0.582037  1
  B  B14  1  0.500000  0.249198  0.080519  1
  B  B15  1  0.500000  0.750814  0.918380  1
  B  B16  1  0.500000  0.795738  0.264261  1
  B  B17  1  0.500000  0.208572  0.734314  1
  B  B18  1  0.500000  0.290498  0.232348  1
  B  B19  1  0.500000  0.709352  0.766001  1
  B  B20  1  0.500000  0.631367  0.181790  1
  B  B21  1  0.500000  0.368785  0.815224  1
  B  B22  1  0.500000  0.131130  0.314153  1
  B  B23  1  0.500000  0.870070  0.685504  1
  B  B24  1  0.500000  0.983796  0.213258  1
  B  B25  1  0.500000  0.017095  0.787582  1
  B  B26  1  0.500000  0.477252  0.285606  1
  B  B27  1  0.500000  0.516304  0.713750  1
  B  B28  1  0.500000  0.603670  0.027016  1
  B  B29  1  0.500000  0.395373  0.970356  1
  B  B30  1  0.500000  0.104935  0.471852  1
  B  B31  1  0.500000  0.898567  0.529960  1
  Os  Os32  1  0.000000  0.361214  0.680742  1
  Os  Os33  1  0.000000  0.137533  0.178394  1
  Os  Os34  1  0.000000  0.862071  0.820197  1
  W  W35  1  0.000000  0.637566  0.320982  1
