# generated using pymatgen
data_Tb3Dy2Nb2P12Ir17
_symmetry_space_group_name_H-M   'P 1'
_cell_length_a   12.59506900
_cell_length_b   12.79971420
_cell_length_c   4.00683100
_cell_angle_alpha   90.00000000
_cell_angle_beta   90.00000000
_cell_angle_gamma   119.47250952
_symmetry_Int_Tables_number   1
_chemical_formula_structural   Tb3Dy2Nb2P12Ir17
_chemical_formula_sum   'Tb3 Dy2 Nb2 P12 Ir17'
_cell_volume   562.36262731
_cell_formula_units_Z   1
loop_
 _symmetry_equiv_pos_site_id
 _symmetry_equiv_pos_as_xyz
  1  'x, y, z'
loop_
 _atom_site_type_symbol
 _atom_site_label
 _atom_site_symmetry_multiplicity
 _atom_site_fract_x
 _atom_site_fract_y
 _atom_site_fract_z
 _atom_site_occupancy
  Tb  Tb0  1  0.999313  0.813256  0.000000  1
  Tb  Tb1  1  0.186058  0.186744  0.000000  1
  Tb  Tb2  1  0.814886  0.000000  0.000000  1
  Dy  Dy3  1  0.330363  0.661569  0.500000  1
  Dy  Dy4  1  0.668795  0.338431  0.500000  1
  Nb  Nb5  1  0.997559  0.450905  0.500000  1
  Nb  Nb6  1  0.546653  0.549095  0.500000  1
  P  P7  1  0.002929  0.641842  0.500000  1
  P  P8  1  0.361087  0.358158  0.500000  1
  P  P9  1  0.645324  0.000000  0.500000  1
  P  P10  1  0.514507  0.683185  0.000000  1
  P  P11  1  0.308724  0.823960  0.000000  1
  P  P12  1  0.163500  0.480779  0.000000  1
  P  P13  1  0.484764  0.176040  0.000000  1
  P  P14  1  0.682721  0.519221  0.000000  1
  P  P15  1  0.831322  0.316815  0.000000  1
  P  P16  1  0.000175  0.176011  0.500000  1
  P  P17  1  0.824163  0.823989  0.500000  1
  P  P18  1  0.181108  0.000000  0.500000  1
  Ir  Ir19  1  0.505481  0.863899  0.000000  1
  Ir  Ir20  1  0.127921  0.641055  0.000000  1
  Ir  Ir21  1  0.354719  0.493467  0.000000  1
  Ir  Ir22  1  0.486867  0.358945  0.000000  1
  Ir  Ir23  1  0.861254  0.506533  0.000000  1
  Ir  Ir24  1  0.641583  0.136101  0.000000  1
  Ir  Ir25  1  0.464384  0.000000  0.500000  1
  Ir  Ir26  1  0.997394  0.282429  0.000000  1
  Ir  Ir27  1  0.714965  0.717571  0.000000  1
  Ir  Ir28  1  0.291611  0.000000  0.000000  1
  Ir  Ir29  1  0.624105  0.806819  0.500000  1
  Ir  Ir30  1  0.201897  0.823952  0.500000  1
  Ir  Ir31  1  0.177445  0.368828  0.500000  1
  Ir  Ir32  1  0.377945  0.176048  0.500000  1
  Ir  Ir33  1  0.808616  0.631172  0.500000  1
  Ir  Ir34  1  0.817286  0.193181  0.500000  1
  Ir  Ir35  1  0.002576  0.000000  0.500000  1
