# generated using pymatgen
data_Pa2Be3Co14H3
_symmetry_space_group_name_H-M   'P 1'
_cell_length_a   6.15528503
_cell_length_b   6.15528550
_cell_length_c   6.15528564
_cell_angle_alpha   83.62720984
_cell_angle_beta   83.62720993
_cell_angle_gamma   83.62720557
_symmetry_Int_Tables_number   1
_chemical_formula_structural   Pa2Be3Co14H3
_chemical_formula_sum   'Pa2 Be3 Co14 H3'
_cell_volume   229.18297095
_cell_formula_units_Z   1
loop_
 _symmetry_equiv_pos_site_id
 _symmetry_equiv_pos_as_xyz
  1  'x, y, z'
loop_
 _atom_site_type_symbol
 _atom_site_label
 _atom_site_symmetry_multiplicity
 _atom_site_fract_x
 _atom_site_fract_y
 _atom_site_fract_z
 _atom_site_occupancy
  Pa  Pa0  1  0.661629  0.661629  0.661629  1
  Pa  Pa1  1  0.338371  0.338371  0.338371  1
  Be  Be2  1  0.000000  0.000000  0.500000  1
  Be  Be3  1  0.000000  0.500000  0.000000  1
  Be  Be4  1  0.500000  0.000000  0.000000  1
  Co  Co5  1  0.284372  0.715628  0.000000  1
  Co  Co6  1  0.715628  0.000000  0.284372  1
  Co  Co7  1  0.000000  0.284372  0.715628  1
  Co  Co8  1  0.284372  0.000000  0.715628  1
  Co  Co9  1  0.000000  0.715628  0.284372  1
  Co  Co10  1  0.715628  0.284372  0.000000  1
  Co  Co11  1  0.345320  0.345320  0.852998  1
  Co  Co12  1  0.345320  0.852998  0.345320  1
  Co  Co13  1  0.852998  0.345320  0.345320  1
  Co  Co14  1  0.654680  0.654680  0.147002  1
  Co  Co15  1  0.654680  0.147002  0.654680  1
  Co  Co16  1  0.147002  0.654680  0.654680  1
  Co  Co17  1  0.898598  0.898598  0.898598  1
  Co  Co18  1  0.101402  0.101402  0.101402  1
  H  H19  1  0.500000  0.500000  0.000000  1
  H  H20  1  0.500000  0.000000  0.500000  1
  H  H21  1  0.000000  0.500000  0.500000  1
