# generated using pymatgen
data_Er5(GeB4)2
_symmetry_space_group_name_H-M   'P 1'
_cell_length_a   7.20434500
_cell_length_b   7.20434500
_cell_length_c   8.05656800
_cell_angle_alpha   90.00000000
_cell_angle_beta   90.00000000
_cell_angle_gamma   90.00000000
_symmetry_Int_Tables_number   1
_chemical_formula_structural   Er5(GeB4)2
_chemical_formula_sum   'Er10 Ge4 B16'
_cell_volume   418.15672057
_cell_formula_units_Z   2
loop_
 _symmetry_equiv_pos_site_id
 _symmetry_equiv_pos_as_xyz
  1  'x, y, z'
loop_
 _atom_site_type_symbol
 _atom_site_label
 _atom_site_symmetry_multiplicity
 _atom_site_fract_x
 _atom_site_fract_y
 _atom_site_fract_z
 _atom_site_occupancy
  Er  Er0  1  0.680237  0.180237  0.220584  1
  Er  Er1  1  0.319763  0.819763  0.779416  1
  Er  Er2  1  0.319763  0.819763  0.220584  1
  Er  Er3  1  0.819763  0.680237  0.220584  1
  Er  Er4  1  0.819763  0.680237  0.779416  1
  Er  Er5  1  0.680237  0.180237  0.779416  1
  Er  Er6  1  0.180237  0.319763  0.779416  1
  Er  Er7  1  0.180237  0.319763  0.220584  1
  Er  Er8  1  0.000000  0.000000  0.500000  1
  Er  Er9  1  0.500000  0.500000  0.500000  1
  Ge  Ge10  1  0.120909  0.620909  0.500000  1
  Ge  Ge11  1  0.879091  0.379091  0.500000  1
  Ge  Ge12  1  0.379091  0.120909  0.500000  1
  Ge  Ge13  1  0.620909  0.879091  0.500000  1
  B  B14  1  0.172461  0.039342  0.000000  1
  B  B15  1  0.827539  0.960658  0.000000  1
  B  B16  1  0.960658  0.172461  0.000000  1
  B  B17  1  0.327539  0.539342  0.000000  1
  B  B18  1  0.039342  0.827539  0.000000  1
  B  B19  1  0.672461  0.460658  0.000000  1
  B  B20  1  0.539342  0.672461  0.000000  1
  B  B21  1  0.460658  0.327539  0.000000  1
  B  B22  1  0.089896  0.589896  0.000000  1
  B  B23  1  0.910104  0.410104  0.000000  1
  B  B24  1  0.410104  0.089896  0.000000  1
  B  B25  1  0.589896  0.910104  0.000000  1
  B  B26  1  0.000000  0.000000  0.164207  1
  B  B27  1  0.000000  0.000000  0.835793  1
  B  B28  1  0.500000  0.500000  0.835793  1
  B  B29  1  0.500000  0.500000  0.164207  1
