# generated using pymatgen
data_Pr20Ga5Si6Tc
_symmetry_space_group_name_H-M   'P 1'
_cell_length_a   7.90524138
_cell_length_b   7.91290242
_cell_length_c   14.48006132
_cell_angle_alpha   89.65459847
_cell_angle_beta   89.73352688
_cell_angle_gamma   90.32987219
_symmetry_Int_Tables_number   1
_chemical_formula_structural   Pr20Ga5Si6Tc
_chemical_formula_sum   'Pr20 Ga5 Si6 Tc1'
_cell_volume   905.73570709
_cell_formula_units_Z   1
loop_
 _symmetry_equiv_pos_site_id
 _symmetry_equiv_pos_as_xyz
  1  'x, y, z'
loop_
 _atom_site_type_symbol
 _atom_site_label
 _atom_site_symmetry_multiplicity
 _atom_site_fract_x
 _atom_site_fract_y
 _atom_site_fract_z
 _atom_site_occupancy
  Pr  Pr0  1  0.814605  0.834781  0.606794  1
  Pr  Pr1  1  0.185492  0.833182  0.104711  1
  Pr  Pr2  1  0.165527  0.812999  0.395095  1
  Pr  Pr3  1  0.000299  0.501054  0.724117  1
  Pr  Pr4  1  0.831117  0.191676  0.390312  1
  Pr  Pr5  1  0.678162  0.657996  0.388717  1
  Pr  Pr6  1  0.668600  0.313004  0.610279  1
  Pr  Pr7  1  0.333834  0.686903  0.607408  1
  Pr  Pr8  1  0.993395  0.498703  0.223270  1
  Pr  Pr9  1  0.661927  0.677839  0.110808  1
  Pr  Pr10  1  0.687245  0.330611  0.889626  1
  Pr  Pr11  1  0.830116  0.813494  0.892583  1
  Pr  Pr12  1  0.323732  0.341694  0.390572  1
  Pr  Pr13  1  0.186300  0.169097  0.606837  1
  Pr  Pr14  1  0.807195  0.167159  0.109441  1
  Pr  Pr15  1  0.312646  0.665213  0.892527  1
  Pr  Pr16  1  0.344162  0.323076  0.109648  1
  Pr  Pr17  1  0.509304  0.003918  0.277538  1
  Pr  Pr18  1  0.164871  0.185433  0.893532  1
  Pr  Pr19  1  0.497815  0.001932  0.775963  1
  Ga  Ga20  1  0.998789  0.500666  0.505109  1
  Ga  Ga21  1  0.499899  0.997242  0.498239  1
  Ga  Ga22  1  0.498510  0.998193  0.995085  1
  Ga  Ga23  1  0.122256  0.113659  0.248744  1
  Ga  Ga24  1  0.000618  0.498958  0.002137  1
  Si  Si25  1  0.113311  0.886077  0.749976  1
  Si  Si26  1  0.385140  0.385614  0.750512  1
  Si  Si27  1  0.380491  0.619922  0.249457  1
  Si  Si28  1  0.886780  0.879283  0.250944  1
  Si  Si29  1  0.613977  0.614983  0.749637  1
  Si  Si30  1  0.886103  0.113750  0.750162  1
  Tc  Tc31  1  0.617780  0.381885  0.250220  1
