# generated using pymatgen
data_YNp3Ga12Pt
_symmetry_space_group_name_H-M   'P 1'
_cell_length_a   7.46872490
_cell_length_b   7.52350924
_cell_length_c   7.46872500
_cell_angle_alpha   109.61987007
_cell_angle_beta   109.32215232
_cell_angle_gamma   109.61987897
_symmetry_Int_Tables_number   1
_chemical_formula_structural   YNp3Ga12Pt
_chemical_formula_sum   'Y1 Np3 Ga12 Pt1'
_cell_volume   322.47161394
_cell_formula_units_Z   1
loop_
 _symmetry_equiv_pos_site_id
 _symmetry_equiv_pos_as_xyz
  1  'x, y, z'
loop_
 _atom_site_type_symbol
 _atom_site_label
 _atom_site_symmetry_multiplicity
 _atom_site_fract_x
 _atom_site_fract_y
 _atom_site_fract_z
 _atom_site_occupancy
  Y  Y0  1  0.000000  0.500000  0.000000  1
  Np  Np1  1  0.500000  0.500000  0.500000  1
  Np  Np2  1  0.000000  0.000000  0.500000  1
  Np  Np3  1  0.500000  0.000000  0.000000  1
  Ga  Ga4  1  0.749653  0.500000  0.250347  1
  Ga  Ga5  1  0.500694  0.750347  0.250347  1
  Ga  Ga6  1  0.499306  0.249653  0.749653  1
  Ga  Ga7  1  0.749653  0.249653  0.499306  1
  Ga  Ga8  1  0.250347  0.750347  0.500694  1
  Ga  Ga9  1  0.250347  0.500000  0.749653  1
  Ga  Ga10  1  0.296025  0.001840  0.296025  1
  Ga  Ga11  1  0.000000  0.294186  0.296025  1
  Ga  Ga12  1  0.000000  0.705814  0.703975  1
  Ga  Ga13  1  0.296025  0.294186  0.000000  1
  Ga  Ga14  1  0.703975  0.705814  0.000000  1
  Ga  Ga15  1  0.703975  0.998160  0.703975  1
  Pt  Pt16  1  0.000000  0.000000  0.000000  1
