# generated using pymatgen
data_Nd5Th5(Pb3Br)2
_symmetry_space_group_name_H-M   'P 1'
_cell_length_a   9.64499200
_cell_length_b   9.63712305
_cell_length_c   6.75610500
_cell_angle_alpha   90.00000000
_cell_angle_beta   90.00000000
_cell_angle_gamma   120.02702095
_symmetry_Int_Tables_number   1
_chemical_formula_structural   Nd5Th5(Pb3Br)2
_chemical_formula_sum   'Nd5 Th5 Pb6 Br2'
_cell_volume   543.69831095
_cell_formula_units_Z   1
loop_
 _symmetry_equiv_pos_site_id
 _symmetry_equiv_pos_as_xyz
  1  'x, y, z'
loop_
 _atom_site_type_symbol
 _atom_site_label
 _atom_site_symmetry_multiplicity
 _atom_site_fract_x
 _atom_site_fract_y
 _atom_site_fract_z
 _atom_site_occupancy
  Nd  Nd0  1  0.728641  0.000000  0.750000  1
  Nd  Nd1  1  0.000294  0.270917  0.250000  1
  Nd  Nd2  1  0.999497  0.728699  0.750000  1
  Nd  Nd3  1  0.729376  0.729083  0.250000  1
  Nd  Nd4  1  0.270798  0.271301  0.750000  1
  Th  Th5  1  0.275108  0.000000  0.250000  1
  Th  Th6  1  0.332885  0.668533  0.004337  1
  Th  Th7  1  0.664353  0.331467  0.004337  1
  Th  Th8  1  0.664353  0.331467  0.495663  1
  Th  Th9  1  0.332885  0.668533  0.495663  1
  Pb  Pb10  1  0.619117  0.000000  0.250000  1
  Pb  Pb11  1  0.384593  0.000000  0.750000  1
  Pb  Pb12  1  0.998525  0.615248  0.250000  1
  Pb  Pb13  1  0.999375  0.385682  0.750000  1
  Pb  Pb14  1  0.383277  0.384752  0.250000  1
  Pb  Pb15  1  0.613693  0.614318  0.750000  1
  Br  Br16  1  0.001615  0.000000  0.000595  1
  Br  Br17  1  0.001615  0.000000  0.499405  1
