# generated using pymatgen
data_Th2Fe2Si5Ir
_symmetry_space_group_name_H-M   'P 1'
_cell_length_a   8.12160357
_cell_length_b   8.15457555
_cell_length_c   8.15457575
_cell_angle_alpha   138.47487594
_cell_angle_beta   106.12844247
_cell_angle_gamma   88.54245791
_symmetry_Int_Tables_number   1
_chemical_formula_structural   Th2Fe2Si5Ir
_chemical_formula_sum   'Th4 Fe4 Si10 Ir2'
_cell_volume   329.51175262
_cell_formula_units_Z   2
loop_
 _symmetry_equiv_pos_site_id
 _symmetry_equiv_pos_as_xyz
  1  'x, y, z'
loop_
 _atom_site_type_symbol
 _atom_site_label
 _atom_site_symmetry_multiplicity
 _atom_site_fract_x
 _atom_site_fract_y
 _atom_site_fract_z
 _atom_site_occupancy
  Th  Th0  1  0.861392  0.630823  0.230568  1
  Th  Th1  1  0.138609  0.369177  0.769432  1
  Th  Th2  1  0.392976  0.130376  0.262600  1
  Th  Th3  1  0.607024  0.869624  0.737400  1
  Fe  Fe4  1  0.000000  0.752143  0.752143  1
  Fe  Fe5  1  0.000000  0.247857  0.247857  1
  Fe  Fe6  1  0.240796  0.857202  0.383592  1
  Fe  Fe7  1  0.759204  0.142798  0.616408  1
  Si  Si8  1  0.500000  0.776142  0.276142  1
  Si  Si9  1  0.500000  0.223858  0.723858  1
  Si  Si10  1  0.219402  0.961792  0.733082  1
  Si  Si11  1  0.780598  0.513681  0.742390  1
  Si  Si12  1  0.780598  0.038208  0.266918  1
  Si  Si13  1  0.219402  0.486319  0.257610  1
  Si  Si14  1  0.048645  0.898007  0.150638  1
  Si  Si15  1  0.951355  0.101993  0.849362  1
  Si  Si16  1  0.757334  0.401664  0.355670  1
  Si  Si17  1  0.242666  0.598336  0.644330  1
  Ir  Ir18  1  0.470547  0.359614  0.110932  1
  Ir  Ir19  1  0.529453  0.640386  0.889068  1
