# generated using pymatgen
data_Tm4B16Os3Ru
_symmetry_space_group_name_H-M   'P 1'
_cell_length_a   3.54787600
_cell_length_b   5.93570701
_cell_length_c   11.47989702
_cell_angle_alpha   90.00586912
_cell_angle_beta   90.00000000
_cell_angle_gamma   90.00000000
_symmetry_Int_Tables_number   1
_chemical_formula_structural   Tm4B16Os3Ru
_chemical_formula_sum   'Tm4 B16 Os3 Ru1'
_cell_volume   241.75689992
_cell_formula_units_Z   1
loop_
 _symmetry_equiv_pos_site_id
 _symmetry_equiv_pos_as_xyz
  1  'x, y, z'
loop_
 _atom_site_type_symbol
 _atom_site_label
 _atom_site_symmetry_multiplicity
 _atom_site_fract_x
 _atom_site_fract_y
 _atom_site_fract_z
 _atom_site_occupancy
  Tm  Tm0  1  0.500000  0.128685  0.149671  1
  Tm  Tm1  1  0.500000  0.871330  0.850430  1
  Tm  Tm2  1  0.500000  0.629022  0.349551  1
  Tm  Tm3  1  0.500000  0.370958  0.650492  1
  B  B4  1  0.000000  0.476494  0.192213  1
  B  B5  1  0.000000  0.523100  0.807698  1
  B  B6  1  0.000000  0.976253  0.307708  1
  B  B7  1  0.000000  0.024209  0.692427  1
  B  B8  1  0.000000  0.290751  0.313556  1
  B  B9  1  0.000000  0.709202  0.686409  1
  B  B10  1  0.000000  0.790675  0.185973  1
  B  B11  1  0.000000  0.209375  0.814130  1
  B  B12  1  0.000000  0.364539  0.470350  1
  B  B13  1  0.000000  0.635484  0.529833  1
  B  B14  1  0.000000  0.864636  0.029882  1
  B  B15  1  0.000000  0.135263  0.969762  1
  B  B16  1  0.000000  0.387205  0.047101  1
  B  B17  1  0.000000  0.612776  0.952882  1
  B  B18  1  0.000000  0.887229  0.452799  1
  B  B19  1  0.000000  0.112871  0.547352  1
  Os  Os20  1  0.500000  0.142571  0.406422  1
  Os  Os21  1  0.500000  0.857552  0.593585  1
  Os  Os22  1  0.500000  0.641546  0.093481  1
  Ru  Ru23  1  0.500000  0.358277  0.906293  1
