# generated using pymatgen
data_EuNp5Te8
_symmetry_space_group_name_H-M   'P 1'
_cell_length_a   8.12464658
_cell_length_b   8.12464557
_cell_length_c   8.12464700
_cell_angle_alpha   109.07508720
_cell_angle_beta   109.66965254
_cell_angle_gamma   109.66964660
_symmetry_Int_Tables_number   1
_chemical_formula_structural   EuNp5Te8
_chemical_formula_sum   'Eu1 Np5 Te8'
_cell_volume   412.83447511
_cell_formula_units_Z   1
loop_
 _symmetry_equiv_pos_site_id
 _symmetry_equiv_pos_as_xyz
  1  'x, y, z'
loop_
 _atom_site_type_symbol
 _atom_site_label
 _atom_site_symmetry_multiplicity
 _atom_site_fract_x
 _atom_site_fract_y
 _atom_site_fract_z
 _atom_site_occupancy
  Eu  Eu0  1  0.750000  0.875000  0.125000  1
  Np  Np1  1  0.374214  0.253255  0.628442  1
  Np  Np2  1  0.250000  0.625000  0.375000  1
  Np  Np3  1  0.875187  0.120958  0.746745  1
  Np  Np4  1  0.624813  0.371558  0.245772  1
  Np  Np5  1  0.125786  0.754228  0.879042  1
  Te  Te6  1  0.650227  0.645596  0.642452  1
  Te  Te7  1  0.849773  0.492225  0.995369  1
  Te  Te8  1  0.497861  0.998787  0.842434  1
  Te  Te9  1  0.343648  0.499075  0.001213  1
  Te  Te10  1  0.002139  0.844573  0.500925  1
  Te  Te11  1  0.003144  0.357548  0.507775  1
  Te  Te12  1  0.496856  0.004631  0.354404  1
  Te  Te13  1  0.156352  0.157566  0.155427  1
