# generated using pymatgen
data_Zr10BeGaPb6
_symmetry_space_group_name_H-M   'P 1'
_cell_length_a   8.81082800
_cell_length_b   8.81082897
_cell_length_c   5.94280600
_cell_angle_alpha   90.00000000
_cell_angle_beta   90.00000000
_cell_angle_gamma   119.99999635
_symmetry_Int_Tables_number   1
_chemical_formula_structural   Zr10BeGaPb6
_chemical_formula_sum   'Zr10 Be1 Ga1 Pb6'
_cell_volume   399.53579581
_cell_formula_units_Z   1
loop_
 _symmetry_equiv_pos_site_id
 _symmetry_equiv_pos_as_xyz
  1  'x, y, z'
loop_
 _atom_site_type_symbol
 _atom_site_label
 _atom_site_symmetry_multiplicity
 _atom_site_fract_x
 _atom_site_fract_y
 _atom_site_fract_z
 _atom_site_occupancy
  Zr  Zr0  1  0.666667  0.333333  0.000000  1
  Zr  Zr1  1  0.333333  0.666667  0.000000  1
  Zr  Zr2  1  0.333333  0.666667  0.500000  1
  Zr  Zr3  1  0.666667  0.333333  0.500000  1
  Zr  Zr4  1  0.744733  0.744733  0.761971  1
  Zr  Zr5  1  0.255267  0.000000  0.761971  1
  Zr  Zr6  1  0.000000  0.255267  0.761971  1
  Zr  Zr7  1  0.255267  0.255267  0.238029  1
  Zr  Zr8  1  0.744733  0.000000  0.238029  1
  Zr  Zr9  1  0.000000  0.744733  0.238029  1
  Be  Be10  1  0.000000  0.000000  0.000000  1
  Ga  Ga11  1  0.000000  0.000000  0.500000  1
  Pb  Pb12  1  0.388865  0.388865  0.746631  1
  Pb  Pb13  1  0.611135  0.000000  0.746631  1
  Pb  Pb14  1  0.000000  0.611135  0.746631  1
  Pb  Pb15  1  0.611135  0.611135  0.253369  1
  Pb  Pb16  1  0.388865  0.000000  0.253369  1
  Pb  Pb17  1  0.000000  0.388865  0.253369  1
