# generated using pymatgen
data_Ac8ErPd6
_symmetry_space_group_name_H-M   'P 1'
_cell_length_a   8.09346737
_cell_length_b   8.09346805
_cell_length_c   8.09346831
_cell_angle_alpha   72.41704764
_cell_angle_beta   72.41703464
_cell_angle_gamma   72.41703902
_symmetry_Int_Tables_number   1
_chemical_formula_structural   Ac8ErPd6
_chemical_formula_sum   'Ac8 Er1 Pd6'
_cell_volume   468.63118727
_cell_formula_units_Z   1
loop_
 _symmetry_equiv_pos_site_id
 _symmetry_equiv_pos_as_xyz
  1  'x, y, z'
loop_
 _atom_site_type_symbol
 _atom_site_label
 _atom_site_symmetry_multiplicity
 _atom_site_fract_x
 _atom_site_fract_y
 _atom_site_fract_z
 _atom_site_occupancy
  Ac  Ac0  1  0.799094  0.799094  0.799094  1
  Ac  Ac1  1  0.200906  0.200906  0.200906  1
  Ac  Ac2  1  0.326629  0.617801  0.835540  1
  Ac  Ac3  1  0.835540  0.326629  0.617801  1
  Ac  Ac4  1  0.617801  0.835540  0.326629  1
  Ac  Ac5  1  0.673371  0.382199  0.164460  1
  Ac  Ac6  1  0.164460  0.673371  0.382199  1
  Ac  Ac7  1  0.382199  0.164460  0.673371  1
  Er  Er8  1  0.000000  0.000000  0.000000  1
  Pd  Pd9  1  0.148024  0.960697  0.602828  1
  Pd  Pd10  1  0.602828  0.148024  0.960697  1
  Pd  Pd11  1  0.960697  0.602828  0.148024  1
  Pd  Pd12  1  0.851976  0.039303  0.397172  1
  Pd  Pd13  1  0.397172  0.851976  0.039303  1
  Pd  Pd14  1  0.039303  0.397172  0.851976  1
