# generated using pymatgen
data_Sr2Fe2NiN3
_symmetry_space_group_name_H-M   'P 1'
_cell_length_a   6.51755086
_cell_length_b   6.51755045
_cell_length_c   6.30127670
_cell_angle_alpha   88.44606023
_cell_angle_beta   88.44606623
_cell_angle_gamma   118.20690516
_symmetry_Int_Tables_number   1
_chemical_formula_structural   Sr2Fe2NiN3
_chemical_formula_sum   'Sr4 Fe4 Ni2 N6'
_cell_volume   235.55282098
_cell_formula_units_Z   2
loop_
 _symmetry_equiv_pos_site_id
 _symmetry_equiv_pos_as_xyz
  1  'x, y, z'
loop_
 _atom_site_type_symbol
 _atom_site_label
 _atom_site_symmetry_multiplicity
 _atom_site_fract_x
 _atom_site_fract_y
 _atom_site_fract_z
 _atom_site_occupancy
  Sr  Sr0  1  0.829379  0.675850  0.898152  1
  Sr  Sr1  1  0.324150  0.170621  0.601848  1
  Sr  Sr2  1  0.170621  0.324150  0.101848  1
  Sr  Sr3  1  0.675850  0.829379  0.398152  1
  Fe  Fe4  1  0.565426  0.165054  0.101807  1
  Fe  Fe5  1  0.434574  0.834946  0.898193  1
  Fe  Fe6  1  0.834946  0.434574  0.398193  1
  Fe  Fe7  1  0.165054  0.565426  0.601807  1
  Ni  Ni8  1  0.807174  0.192826  0.750000  1
  Ni  Ni9  1  0.192826  0.807174  0.250000  1
  N  N10  1  0.410708  0.589292  0.750000  1
  N  N11  1  0.589292  0.410708  0.250000  1
  N  N12  1  0.012327  0.727512  0.502709  1
  N  N13  1  0.727512  0.012327  0.002709  1
  N  N14  1  0.987673  0.272488  0.497291  1
  N  N15  1  0.272488  0.987673  0.997291  1
