# generated using pymatgen
data_LiTb4Al16ZnPd6
_symmetry_space_group_name_H-M   'P 1'
_cell_length_a   7.61210101
_cell_length_b   7.61210084
_cell_length_c   9.48536900
_cell_angle_alpha   90.00000000
_cell_angle_beta   90.00000000
_cell_angle_gamma   118.96401535
_symmetry_Int_Tables_number   1
_chemical_formula_structural   LiTb4Al16ZnPd6
_chemical_formula_sum   'Li1 Tb4 Al16 Zn1 Pd6'
_cell_volume   480.87660114
_cell_formula_units_Z   1
loop_
 _symmetry_equiv_pos_site_id
 _symmetry_equiv_pos_as_xyz
  1  'x, y, z'
loop_
 _atom_site_type_symbol
 _atom_site_label
 _atom_site_symmetry_multiplicity
 _atom_site_fract_x
 _atom_site_fract_y
 _atom_site_fract_z
 _atom_site_occupancy
  Li  Li0  1  0.133284  0.133284  0.250000  1
  Tb  Tb1  1  0.994588  0.667371  0.250000  1
  Tb  Tb2  1  0.006370  0.326316  0.750000  1
  Tb  Tb3  1  0.667371  0.994588  0.250000  1
  Tb  Tb4  1  0.326316  0.006370  0.750000  1
  Al  Al5  1  0.002091  0.329923  0.082017  1
  Al  Al6  1  0.998549  0.667082  0.922057  1
  Al  Al7  1  0.998549  0.667082  0.577943  1
  Al  Al8  1  0.329923  0.002091  0.417983  1
  Al  Al9  1  0.002091  0.329923  0.417983  1
  Al  Al10  1  0.667082  0.998549  0.577943  1
  Al  Al11  1  0.667082  0.998549  0.922057  1
  Al  Al12  1  0.329923  0.002091  0.082017  1
  Al  Al13  1  0.334307  0.334307  0.545194  1
  Al  Al14  1  0.671104  0.671104  0.444307  1
  Al  Al15  1  0.671104  0.671104  0.055693  1
  Al  Al16  1  0.334307  0.334307  0.954806  1
  Al  Al17  1  0.342601  0.544557  0.250000  1
  Al  Al18  1  0.657389  0.452385  0.750000  1
  Al  Al19  1  0.544557  0.342601  0.250000  1
  Al  Al20  1  0.452385  0.657389  0.750000  1
  Zn  Zn21  1  0.858678  0.858678  0.750000  1
  Pd  Pd22  1  0.675262  0.328571  0.999845  1
  Pd  Pd23  1  0.328571  0.675262  0.999845  1
  Pd  Pd24  1  0.328571  0.675262  0.500155  1
  Pd  Pd25  1  0.675262  0.328571  0.500155  1
  Pd  Pd26  1  0.001342  0.001342  0.998664  1
  Pd  Pd27  1  0.001342  0.001342  0.501336  1
