# generated using pymatgen
data_LiYb2As4(PPd10)2
_symmetry_space_group_name_H-M   'P 1'
_cell_length_a   8.74742458
_cell_length_b   8.74742464
_cell_length_c   8.82833300
_cell_angle_alpha   59.69355421
_cell_angle_beta   59.69355397
_cell_angle_gamma   60.61289846
_symmetry_Int_Tables_number   1
_chemical_formula_structural   LiYb2As4(PPd10)2
_chemical_formula_sum   'Li1 Yb2 As4 P2 Pd20'
_cell_volume   477.58330112
_cell_formula_units_Z   1
loop_
 _symmetry_equiv_pos_site_id
 _symmetry_equiv_pos_as_xyz
  1  'x, y, z'
loop_
 _atom_site_type_symbol
 _atom_site_label
 _atom_site_symmetry_multiplicity
 _atom_site_fract_x
 _atom_site_fract_y
 _atom_site_fract_z
 _atom_site_occupancy
  Li  Li0  1  0.000000  0.000000  0.000000  1
  Yb  Yb1  1  0.250000  0.250000  0.250000  1
  Yb  Yb2  1  0.750000  0.750000  0.750000  1
  As  As3  1  0.738339  0.261661  0.261661  1
  As  As4  1  0.261661  0.738339  0.738339  1
  As  As5  1  0.261661  0.738339  0.261661  1
  As  As6  1  0.738339  0.261661  0.738339  1
  P  P7  1  0.264454  0.264454  0.735546  1
  P  P8  1  0.735546  0.735546  0.264454  1
  Pd  Pd9  1  0.381864  0.381864  0.389452  1
  Pd  Pd10  1  0.618136  0.618136  0.610548  1
  Pd  Pd11  1  0.381864  0.381864  0.846821  1
  Pd  Pd12  1  0.389452  0.846821  0.381864  1
  Pd  Pd13  1  0.618136  0.618136  0.153179  1
  Pd  Pd14  1  0.610548  0.153179  0.618136  1
  Pd  Pd15  1  0.846821  0.389452  0.381864  1
  Pd  Pd16  1  0.153179  0.610548  0.618136  1
  Pd  Pd17  1  0.345746  0.009146  0.990854  1
  Pd  Pd18  1  0.654254  0.990854  0.009146  1
  Pd  Pd19  1  0.009146  0.345746  0.654254  1
  Pd  Pd20  1  0.990854  0.654254  0.345746  1
  Pd  Pd21  1  0.009146  0.345746  0.990854  1
  Pd  Pd22  1  0.654254  0.990854  0.345746  1
  Pd  Pd23  1  0.990854  0.654254  0.009146  1
  Pd  Pd24  1  0.345746  0.009146  0.654254  1
  Pd  Pd25  1  0.000000  0.000000  0.348293  1
  Pd  Pd26  1  0.000000  0.000000  0.651707  1
  Pd  Pd27  1  0.651707  0.348293  0.000000  1
  Pd  Pd28  1  0.348293  0.651707  0.000000  1
