# generated using pymatgen
data_La8Ho2GaPb5
_symmetry_space_group_name_H-M   'P 1'
_cell_length_a   9.42804886
_cell_length_b   9.42805089
_cell_length_c   9.42805000
_cell_angle_alpha   96.37588949
_cell_angle_beta   96.37588475
_cell_angle_gamma   141.06855699
_symmetry_Int_Tables_number   1
_chemical_formula_structural   La8Ho2GaPb5
_chemical_formula_sum   'La8 Ho2 Ga1 Pb5'
_cell_volume   496.51622009
_cell_formula_units_Z   1
loop_
 _symmetry_equiv_pos_site_id
 _symmetry_equiv_pos_as_xyz
  1  'x, y, z'
loop_
 _atom_site_type_symbol
 _atom_site_label
 _atom_site_symmetry_multiplicity
 _atom_site_fract_x
 _atom_site_fract_y
 _atom_site_fract_z
 _atom_site_occupancy
  La  La0  1  0.905585  0.213799  0.132376  1
  La  La1  1  0.213793  0.081424  0.308235  1
  La  La2  1  0.773221  0.905572  0.691778  1
  La  La3  1  0.081447  0.773216  0.867644  1
  La  La4  1  0.726811  0.418576  0.132369  1
  La  La5  1  0.286206  0.594428  0.867649  1
  La  La6  1  0.594428  0.726784  0.308231  1
  La  La7  1  0.418577  0.286201  0.691786  1
  Ho  Ho8  1  0.750003  0.250000  0.500003  1
  Ho  Ho9  1  0.250007  0.750000  0.500007  1
  Ga  Ga10  1  0.749920  0.750000  0.999920  1
  Pb  Pb11  1  0.249944  0.250000  0.999944  1
  Pb  Pb12  1  0.845244  0.654762  0.499994  1
  Pb  Pb13  1  0.654793  0.154736  0.809526  1
  Pb  Pb14  1  0.345232  0.845238  0.190481  1
  Pb  Pb15  1  0.154789  0.345264  0.500057  1
