# generated using pymatgen
data_Ho4Ir2Pb5
_symmetry_space_group_name_H-M   'P 1'
_cell_length_a   8.21402556
_cell_length_b   3.55092500
_cell_length_c   9.90357787
_cell_angle_alpha   90.00000000
_cell_angle_beta   93.87795592
_cell_angle_gamma   90.00000000
_symmetry_Int_Tables_number   1
_chemical_formula_structural   Ho4Ir2Pb5
_chemical_formula_sum   'Ho4 Ir2 Pb5'
_cell_volume   288.20012042
_cell_formula_units_Z   1
loop_
 _symmetry_equiv_pos_site_id
 _symmetry_equiv_pos_as_xyz
  1  'x, y, z'
loop_
 _atom_site_type_symbol
 _atom_site_label
 _atom_site_symmetry_multiplicity
 _atom_site_fract_x
 _atom_site_fract_y
 _atom_site_fract_z
 _atom_site_occupancy
  Ho  Ho0  1  0.804991  0.500001  0.159600  1
  Ho  Ho1  1  0.197664  0.500001  0.434864  1
  Ho  Ho2  1  0.802336  0.500001  0.565136  1
  Ho  Ho3  1  0.195008  0.500001  0.840400  1
  Ir  Ir4  1  0.920969  0.000000  0.362751  1
  Ir  Ir5  1  0.079032  0.000000  0.637250  1
  Pb  Pb6  1  0.500000  0.000000  0.000000  1
  Pb  Pb7  1  0.146869  0.000000  0.137576  1
  Pb  Pb8  1  0.538378  0.000000  0.334836  1
  Pb  Pb9  1  0.461621  0.000000  0.665163  1
  Pb  Pb10  1  0.853130  0.000000  0.862425  1
