# generated using pymatgen
data_Er3Cd3Pt2
_symmetry_space_group_name_H-M   'P 1'
_cell_length_a   7.60438100
_cell_length_b   7.60438151
_cell_length_c   3.66773900
_cell_angle_alpha   90.00000000
_cell_angle_beta   90.00000000
_cell_angle_gamma   119.99999345
_symmetry_Int_Tables_number   1
_chemical_formula_structural   Er3Cd3Pt2
_chemical_formula_sum   'Er3 Cd3 Pt2'
_cell_volume   183.67787601
_cell_formula_units_Z   1
loop_
 _symmetry_equiv_pos_site_id
 _symmetry_equiv_pos_as_xyz
  1  'x, y, z'
loop_
 _atom_site_type_symbol
 _atom_site_label
 _atom_site_symmetry_multiplicity
 _atom_site_fract_x
 _atom_site_fract_y
 _atom_site_fract_z
 _atom_site_occupancy
  Er  Er0  1  0.574694  0.000000  0.500000  1
  Er  Er1  1  0.425307  0.425307  0.500000  1
  Er  Er2  1  0.000000  0.574693  0.500000  1
  Cd  Cd3  1  0.228382  0.000000  0.000000  1
  Cd  Cd4  1  0.000000  0.228381  0.000000  1
  Cd  Cd5  1  0.771619  0.771619  0.000000  1
  Pt  Pt6  1  0.666668  0.333334  0.000000  1
  Pt  Pt7  1  0.333333  0.666666  0.000000  1
