# generated using pymatgen
data_PrNdAg2(Pt2O7)2
_symmetry_space_group_name_H-M   'P 1'
_cell_length_a   7.48704469
_cell_length_b   7.32534689
_cell_length_c   7.32534536
_cell_angle_alpha   59.43433117
_cell_angle_beta   59.24520613
_cell_angle_gamma   59.24520941
_symmetry_Int_Tables_number   1
_chemical_formula_structural   PrNdAg2(Pt2O7)2
_chemical_formula_sum   'Pr1 Nd1 Ag2 Pt4 O14'
_cell_volume   279.61065994
_cell_formula_units_Z   1
loop_
 _symmetry_equiv_pos_site_id
 _symmetry_equiv_pos_as_xyz
  1  'x, y, z'
loop_
 _atom_site_type_symbol
 _atom_site_label
 _atom_site_symmetry_multiplicity
 _atom_site_fract_x
 _atom_site_fract_y
 _atom_site_fract_z
 _atom_site_occupancy
  Pr  Pr0  1  0.125000  0.625000  0.625000  1
  Nd  Nd1  1  0.625000  0.625000  0.625000  1
  Ag  Ag2  1  0.625000  0.625000  0.125000  1
  Ag  Ag3  1  0.625000  0.125000  0.625000  1
  Pt  Pt4  1  0.125000  0.125000  0.625000  1
  Pt  Pt5  1  0.125000  0.625000  0.125000  1
  Pt  Pt6  1  0.625000  0.125000  0.125000  1
  Pt  Pt7  1  0.125000  0.125000  0.125000  1
  O  O8  1  0.521778  0.479845  0.479845  1
  O  O9  1  0.728222  0.770155  0.770155  1
  O  O10  1  0.452911  0.036496  0.457006  1
  O  O11  1  0.197011  0.793520  0.211689  1
  O  O12  1  0.452911  0.457006  0.036496  1
  O  O13  1  0.034779  0.464099  0.464099  1
  O  O14  1  0.452589  0.047532  0.047532  1
  O  O15  1  0.052989  0.038311  0.456480  1
  O  O16  1  0.052989  0.456480  0.038311  1
  O  O17  1  0.797411  0.202468  0.202468  1
  O  O18  1  0.215221  0.785901  0.785901  1
  O  O19  1  0.797089  0.213504  0.792994  1
  O  O20  1  0.197011  0.211689  0.793520  1
  O  O21  1  0.797089  0.792994  0.213504  1
