# generated using pymatgen
data_Nd5ErAl24(Os3Ru)2
_symmetry_space_group_name_H-M   'P 1'
_cell_length_a   8.86828000
_cell_length_b   8.89502743
_cell_length_c   9.68148100
_cell_angle_alpha   90.00000000
_cell_angle_beta   90.00000000
_cell_angle_gamma   119.90058612
_symmetry_Int_Tables_number   1
_chemical_formula_structural   Nd5ErAl24(Os3Ru)2
_chemical_formula_sum   'Nd5 Er1 Al24 Os6 Ru2'
_cell_volume   662.05383466
_cell_formula_units_Z   1
loop_
 _symmetry_equiv_pos_site_id
 _symmetry_equiv_pos_as_xyz
  1  'x, y, z'
loop_
 _atom_site_type_symbol
 _atom_site_label
 _atom_site_symmetry_multiplicity
 _atom_site_fract_x
 _atom_site_fract_y
 _atom_site_fract_z
 _atom_site_occupancy
  Nd  Nd0  1  0.807101  0.614204  0.750000  1
  Nd  Nd1  1  0.616796  0.808854  0.250000  1
  Nd  Nd2  1  0.383866  0.190967  0.750000  1
  Nd  Nd3  1  0.192060  0.808854  0.250000  1
  Nd  Nd4  1  0.807099  0.190967  0.750000  1
  Er  Er5  1  0.195186  0.390371  0.250000  1
  Al  Al6  1  0.333058  0.666117  0.014222  1
  Al  Al7  1  0.666404  0.332808  0.989667  1
  Al  Al8  1  0.666404  0.332808  0.510333  1
  Al  Al9  1  0.333058  0.666117  0.485778  1
  Al  Al10  1  0.163198  0.326398  0.571556  1
  Al  Al11  1  0.836562  0.673124  0.424056  1
  Al  Al12  1  0.672872  0.836365  0.573143  1
  Al  Al13  1  0.836562  0.673124  0.075944  1
  Al  Al14  1  0.325344  0.164010  0.424631  1
  Al  Al15  1  0.163198  0.326398  0.928444  1
  Al  Al16  1  0.163492  0.836365  0.573143  1
  Al  Al17  1  0.325344  0.164010  0.075369  1
  Al  Al18  1  0.838667  0.164010  0.424631  1
  Al  Al19  1  0.672872  0.836365  0.926857  1
  Al  Al20  1  0.838667  0.164010  0.075369  1
  Al  Al21  1  0.163492  0.836365  0.926857  1
  Al  Al22  1  0.562683  0.125364  0.250000  1
  Al  Al23  1  0.437070  0.874141  0.750000  1
  Al  Al24  1  0.877977  0.437335  0.250000  1
  Al  Al25  1  0.124414  0.561260  0.750000  1
  Al  Al26  1  0.559359  0.437335  0.250000  1
  Al  Al27  1  0.436846  0.561260  0.750000  1
  Al  Al28  1  0.003368  0.006737  0.250000  1
  Al  Al29  1  0.999339  0.998678  0.750000  1
  Os  Os30  1  0.499925  0.999850  0.000346  1
  Os  Os31  1  0.000864  0.499249  0.001001  1
  Os  Os32  1  0.499925  0.999850  0.499654  1
  Os  Os33  1  0.498386  0.499249  0.001001  1
  Os  Os34  1  0.000864  0.499249  0.498999  1
  Os  Os35  1  0.498386  0.499249  0.498999  1
  Ru  Ru36  1  0.999646  0.999292  0.000349  1
  Ru  Ru37  1  0.999646  0.999292  0.499651  1
