# generated using pymatgen
data_Dy5Y15Co3Bi8Os
_symmetry_space_group_name_H-M   'P 1'
_cell_length_a   8.02398976
_cell_length_b   8.92282822
_cell_length_c   12.47609608
_cell_angle_alpha   89.97617623
_cell_angle_beta   90.26452177
_cell_angle_gamma   90.00863803
_symmetry_Int_Tables_number   1
_chemical_formula_structural   Dy5Y15Co3Bi8Os
_chemical_formula_sum   'Dy5 Y15 Co3 Bi8 Os1'
_cell_volume   893.23747978
_cell_formula_units_Z   1
loop_
 _symmetry_equiv_pos_site_id
 _symmetry_equiv_pos_as_xyz
  1  'x, y, z'
loop_
 _atom_site_type_symbol
 _atom_site_label
 _atom_site_symmetry_multiplicity
 _atom_site_fract_x
 _atom_site_fract_y
 _atom_site_fract_z
 _atom_site_occupancy
  Dy  Dy0  1  0.324890  0.534501  0.436316  1
  Dy  Dy1  1  0.824611  0.035557  0.063166  1
  Dy  Dy2  1  0.676003  0.459642  0.564974  1
  Dy  Dy3  1  0.824543  0.464598  0.063162  1
  Dy  Dy4  1  0.175015  0.533661  0.936816  1
  Y  Y5  1  0.846263  0.749733  0.800106  1
  Y  Y6  1  0.153091  0.250111  0.198507  1
  Y  Y7  1  0.346943  0.250226  0.699639  1
  Y  Y8  1  0.655110  0.749762  0.294427  1
  Y  Y9  1  0.375913  0.749766  0.694080  1
  Y  Y10  1  0.620862  0.250155  0.310164  1
  Y  Y11  1  0.879025  0.250197  0.811240  1
  Y  Y12  1  0.120640  0.749863  0.187560  1
  Y  Y13  1  0.946516  0.749471  0.503759  1
  Y  Y14  1  0.049182  0.250593  0.496852  1
  Y  Y15  1  0.453130  0.250333  0.997243  1
  Y  Y16  1  0.547425  0.749745  0.002630  1
  Y  Y17  1  0.676731  0.040785  0.565377  1
  Y  Y18  1  0.324105  0.965143  0.435791  1
  Y  Y19  1  0.175813  0.966125  0.936394  1
  Co  Co20  1  0.434553  0.251133  0.490955  1
  Co  Co21  1  0.059513  0.250708  0.992199  1
  Co  Co22  1  0.938658  0.749600  0.007516  1
  Bi  Bi23  1  0.570069  0.492069  0.827131  1
  Bi  Bi24  1  0.429655  0.507055  0.173282  1
  Bi  Bi25  1  0.069614  0.507192  0.674490  1
  Bi  Bi26  1  0.429737  0.992935  0.173225  1
  Bi  Bi27  1  0.931929  0.492329  0.325711  1
  Bi  Bi28  1  0.569817  0.007887  0.827198  1
  Bi  Bi29  1  0.931991  0.007601  0.325944  1
  Bi  Bi30  1  0.069484  0.992815  0.674277  1
  Os  Os31  1  0.569169  0.748707  0.509871  1
