# generated using pymatgen
data_Mn4AlCuPd10
_symmetry_space_group_name_H-M   'P 1'
_cell_length_a   4.08901800
_cell_length_b   5.43655925
_cell_length_c   10.68574954
_cell_angle_alpha   89.26704682
_cell_angle_beta   90.00000000
_cell_angle_gamma   90.00000000
_symmetry_Int_Tables_number   1
_chemical_formula_structural   Mn4AlCuPd10
_chemical_formula_sum   'Mn4 Al1 Cu1 Pd10'
_cell_volume   237.52679157
_cell_formula_units_Z   1
loop_
 _symmetry_equiv_pos_site_id
 _symmetry_equiv_pos_as_xyz
  1  'x, y, z'
loop_
 _atom_site_type_symbol
 _atom_site_label
 _atom_site_symmetry_multiplicity
 _atom_site_fract_x
 _atom_site_fract_y
 _atom_site_fract_z
 _atom_site_occupancy
  Mn  Mn0  1  0.500000  0.179645  0.361840  1
  Mn  Mn1  1  0.500000  0.820355  0.638160  1
  Mn  Mn2  1  0.500000  0.691972  0.132193  1
  Mn  Mn3  1  0.500000  0.308028  0.867807  1
  Al  Al4  1  0.000000  0.500000  0.500000  1
  Cu  Cu5  1  0.000000  0.000000  0.000000  1
  Pd  Pd6  1  0.500000  0.194511  0.113922  1
  Pd  Pd7  1  0.500000  0.805489  0.886078  1
  Pd  Pd8  1  0.500000  0.685158  0.392052  1
  Pd  Pd9  1  0.500000  0.314842  0.607948  1
  Pd  Pd10  1  0.000000  0.000000  0.500000  1
  Pd  Pd11  1  0.000000  0.500000  0.000000  1
  Pd  Pd12  1  0.000000  0.923344  0.243123  1
  Pd  Pd13  1  0.000000  0.076656  0.756877  1
  Pd  Pd14  1  0.000000  0.424550  0.260284  1
  Pd  Pd15  1  0.000000  0.575450  0.739716  1
