# generated using pymatgen
data_Hf3Nb3(B2Ru5)2
_symmetry_space_group_name_H-M   'P 1'
_cell_length_a   9.46936340
_cell_length_b   9.46936340
_cell_length_c   3.09029100
_cell_angle_alpha   90.00000000
_cell_angle_beta   90.00000000
_cell_angle_gamma   89.96653992
_symmetry_Int_Tables_number   1
_chemical_formula_structural   Hf3Nb3(B2Ru5)2
_chemical_formula_sum   'Hf3 Nb3 B4 Ru10'
_cell_volume   277.10277209
_cell_formula_units_Z   1
loop_
 _symmetry_equiv_pos_site_id
 _symmetry_equiv_pos_as_xyz
  1  'x, y, z'
loop_
 _atom_site_type_symbol
 _atom_site_label
 _atom_site_symmetry_multiplicity
 _atom_site_fract_x
 _atom_site_fract_y
 _atom_site_fract_z
 _atom_site_occupancy
  Hf  Hf0  1  0.824420  0.676394  0.000000  1
  Hf  Hf1  1  0.176394  0.324420  0.000000  1
  Hf  Hf2  1  0.323748  0.823748  0.000000  1
  Nb  Nb3  1  0.676834  0.176834  0.000000  1
  Nb  Nb4  1  0.499761  0.500263  0.000000  1
  Nb  Nb5  1  0.000263  0.999761  0.000000  1
  B  B6  1  0.621187  0.878225  0.000000  1
  B  B7  1  0.378225  0.121187  0.000000  1
  B  B8  1  0.121077  0.621077  0.000000  1
  B  B9  1  0.878466  0.378466  0.000000  1
  Ru  Ru10  1  0.571110  0.718731  0.500000  1
  Ru  Ru11  1  0.431949  0.280686  0.500000  1
  Ru  Ru12  1  0.070226  0.781546  0.500000  1
  Ru  Ru13  1  0.926216  0.217250  0.500000  1
  Ru  Ru14  1  0.281546  0.570226  0.500000  1
  Ru  Ru15  1  0.717250  0.426216  0.500000  1
  Ru  Ru16  1  0.218731  0.071110  0.500000  1
  Ru  Ru17  1  0.780686  0.931949  0.500000  1
  Ru  Ru18  1  0.502532  0.002532  0.500000  1
  Ru  Ru19  1  0.999378  0.499378  0.500000  1
