# generated using pymatgen
data_Ce7Ho3(SiBi3)2
_symmetry_space_group_name_H-M   'P 1'
_cell_length_a   9.56981400
_cell_length_b   9.56981347
_cell_length_c   6.39818500
_cell_angle_alpha   90.00000000
_cell_angle_beta   90.00000000
_cell_angle_gamma   119.99999492
_symmetry_Int_Tables_number   1
_chemical_formula_structural   Ce7Ho3(SiBi3)2
_chemical_formula_sum   'Ce7 Ho3 Si2 Bi6'
_cell_volume   507.45135556
_cell_formula_units_Z   1
loop_
 _symmetry_equiv_pos_site_id
 _symmetry_equiv_pos_as_xyz
  1  'x, y, z'
loop_
 _atom_site_type_symbol
 _atom_site_label
 _atom_site_symmetry_multiplicity
 _atom_site_fract_x
 _atom_site_fract_y
 _atom_site_fract_z
 _atom_site_occupancy
  Ce  Ce0  1  0.666667  0.333333  0.502947  1
  Ce  Ce1  1  0.333333  0.666667  0.502947  1
  Ce  Ce2  1  0.333333  0.666667  0.997053  1
  Ce  Ce3  1  0.666667  0.333333  0.997053  1
  Ce  Ce4  1  0.245525  0.245525  0.750000  1
  Ce  Ce5  1  0.754475  0.000000  0.750000  1
  Ce  Ce6  1  0.000000  0.754475  0.750000  1
  Ho  Ho7  1  0.740172  0.740172  0.250000  1
  Ho  Ho8  1  0.259828  0.000000  0.250000  1
  Ho  Ho9  1  0.000000  0.259828  0.250000  1
  Si  Si10  1  0.000000  0.000000  0.470657  1
  Si  Si11  1  0.000000  0.000000  0.029343  1
  Bi  Bi12  1  0.383478  0.383478  0.250000  1
  Bi  Bi13  1  0.616522  0.000000  0.250000  1
  Bi  Bi14  1  0.000000  0.616522  0.250000  1
  Bi  Bi15  1  0.611748  0.611748  0.750000  1
  Bi  Bi16  1  0.388252  0.000000  0.750000  1
  Bi  Bi17  1  0.000000  0.388252  0.750000  1
