# generated using pymatgen
data_DyTh(Si2Ni)2
_symmetry_space_group_name_H-M   'P 1'
_cell_length_a   8.41542852
_cell_length_b   8.41542874
_cell_length_c   4.05261400
_cell_angle_alpha   90.00000000
_cell_angle_beta   90.00000000
_cell_angle_gamma   151.89371749
_symmetry_Int_Tables_number   1
_chemical_formula_structural   DyTh(Si2Ni)2
_chemical_formula_sum   'Dy1 Th1 Si4 Ni2'
_cell_volume   135.20998313
_cell_formula_units_Z   1
loop_
 _symmetry_equiv_pos_site_id
 _symmetry_equiv_pos_as_xyz
  1  'x, y, z'
loop_
 _atom_site_type_symbol
 _atom_site_label
 _atom_site_symmetry_multiplicity
 _atom_site_fract_x
 _atom_site_fract_y
 _atom_site_fract_z
 _atom_site_occupancy
  Dy  Dy0  1  0.604801  0.395199  0.250000  1
  Th  Th1  1  0.394338  0.605662  0.750000  1
  Si  Si2  1  0.963064  0.036936  0.250000  1
  Si  Si3  1  0.041961  0.958039  0.750000  1
  Si  Si4  1  0.247530  0.752470  0.250000  1
  Si  Si5  1  0.747537  0.252463  0.750000  1
  Ni  Ni6  1  0.820665  0.179335  0.250000  1
  Ni  Ni7  1  0.180105  0.819895  0.750000  1
