# generated using pymatgen
data_LaEr3Zn2(Co2B)6
_symmetry_space_group_name_H-M   'P 1'
_cell_length_a   5.09406401
_cell_length_b   5.09680601
_cell_length_c   12.61767400
_cell_angle_alpha   90.00000000
_cell_angle_beta   90.00000000
_cell_angle_gamma   119.95480783
_symmetry_Int_Tables_number   1
_chemical_formula_structural   LaEr3Zn2(Co2B)6
_chemical_formula_sum   'La1 Er3 Zn2 Co12 B6'
_cell_volume   283.83766685
_cell_formula_units_Z   1
loop_
 _symmetry_equiv_pos_site_id
 _symmetry_equiv_pos_as_xyz
  1  'x, y, z'
loop_
 _atom_site_type_symbol
 _atom_site_label
 _atom_site_symmetry_multiplicity
 _atom_site_fract_x
 _atom_site_fract_y
 _atom_site_fract_z
 _atom_site_occupancy
  La  La0  1  0.000000  0.000000  0.000000  1
  Er  Er1  1  0.000000  0.000000  0.500000  1
  Er  Er2  1  0.000000  0.000000  0.737438  1
  Er  Er3  1  0.000000  0.000000  0.262562  1
  Zn  Zn4  1  0.666765  0.333342  0.000000  1
  Zn  Zn5  1  0.333235  0.666658  0.000000  1
  Co  Co6  1  0.500000  0.500000  0.835647  1
  Co  Co7  1  0.500000  0.000000  0.835647  1
  Co  Co8  1  0.000000  0.500000  0.835651  1
  Co  Co9  1  0.500000  0.500000  0.164353  1
  Co  Co10  1  0.500000  0.000000  0.164353  1
  Co  Co11  1  0.000000  0.500000  0.164349  1
  Co  Co12  1  0.500000  0.500000  0.612582  1
  Co  Co13  1  0.500000  0.000000  0.612566  1
  Co  Co14  1  0.000000  0.500000  0.612572  1
  Co  Co15  1  0.500000  0.500000  0.387418  1
  Co  Co16  1  0.500000  0.000000  0.387434  1
  Co  Co17  1  0.000000  0.500000  0.387428  1
  B  B18  1  0.666649  0.333421  0.500000  1
  B  B19  1  0.333351  0.666579  0.500000  1
  B  B20  1  0.666643  0.333407  0.728266  1
  B  B21  1  0.333357  0.666593  0.728266  1
  B  B22  1  0.333357  0.666593  0.271734  1
  B  B23  1  0.666643  0.333407  0.271734  1
