# generated using pymatgen
data_Pr4SmY5Sn8
_symmetry_space_group_name_H-M   'P 1'
_cell_length_a   8.15716100
_cell_length_b   8.33792206
_cell_length_c   15.77593888
_cell_angle_alpha   89.91954294
_cell_angle_beta   90.00000000
_cell_angle_gamma   90.00000000
_symmetry_Int_Tables_number   1
_chemical_formula_structural   Pr4SmY5Sn8
_chemical_formula_sum   'Pr8 Sm2 Y10 Sn16'
_cell_volume   1072.98006237
_cell_formula_units_Z   2
loop_
 _symmetry_equiv_pos_site_id
 _symmetry_equiv_pos_as_xyz
  1  'x, y, z'
loop_
 _atom_site_type_symbol
 _atom_site_label
 _atom_site_symmetry_multiplicity
 _atom_site_fract_x
 _atom_site_fract_y
 _atom_site_fract_z
 _atom_site_occupancy
  Pr  Pr0  1  0.511925  0.320892  0.903891  1
  Pr  Pr1  1  0.011925  0.179108  0.596109  1
  Pr  Pr2  1  0.487596  0.677983  0.402565  1
  Pr  Pr3  1  0.987596  0.822017  0.097435  1
  Pr  Pr4  1  0.487279  0.678743  0.097797  1
  Pr  Pr5  1  0.987279  0.821257  0.402203  1
  Pr  Pr6  1  0.513090  0.320630  0.595711  1
  Pr  Pr7  1  0.013090  0.179370  0.904289  1
  Sm  Sm8  1  0.359991  0.834458  0.879657  1
  Sm  Sm9  1  0.859991  0.665542  0.620343  1
  Y  Y10  1  0.641360  0.164297  0.375176  1
  Y  Y11  1  0.141360  0.335703  0.124824  1
  Y  Y12  1  0.641430  0.163734  0.123199  1
  Y  Y13  1  0.141430  0.336266  0.376801  1
  Y  Y14  1  0.357171  0.835140  0.623175  1
  Y  Y15  1  0.857171  0.664860  0.876825  1
  Y  Y16  1  0.191575  0.501781  0.749531  1
  Y  Y17  1  0.691575  0.998219  0.750469  1
  Y  Y18  1  0.807556  0.498090  0.249320  1
  Y  Y19  1  0.307556  0.001910  0.250680  1
  Sn  Sn20  1  0.304043  0.041858  0.044536  1
  Sn  Sn21  1  0.804043  0.458142  0.455464  1
  Sn  Sn22  1  0.691204  0.962534  0.540973  1
  Sn  Sn23  1  0.191204  0.537466  0.959027  1
  Sn  Sn24  1  0.700527  0.960880  0.958806  1
  Sn  Sn25  1  0.200527  0.539120  0.541194  1
  Sn  Sn26  1  0.305875  0.040289  0.458059  1
  Sn  Sn27  1  0.805875  0.459711  0.041941  1
  Sn  Sn28  1  0.558056  0.621058  0.750267  1
  Sn  Sn29  1  0.058056  0.878942  0.749733  1
  Sn  Sn30  1  0.442397  0.376938  0.249731  1
  Sn  Sn31  1  0.942397  0.123062  0.250269  1
  Sn  Sn32  1  0.320388  0.142155  0.749796  1
  Sn  Sn33  1  0.820388  0.357845  0.750204  1
  Sn  Sn34  1  0.678539  0.857638  0.249901  1
  Sn  Sn35  1  0.178539  0.642362  0.250099  1
