# generated using pymatgen
data_ErPa3TlInPd4
_symmetry_space_group_name_H-M   'P 1'
_cell_length_a   7.83932134
_cell_length_b   7.83064346
_cell_length_c   3.65538200
_cell_angle_alpha   90.00000000
_cell_angle_beta   90.00000000
_cell_angle_gamma   89.16286057
_symmetry_Int_Tables_number   1
_chemical_formula_structural   ErPa3TlInPd4
_chemical_formula_sum   'Er1 Pa3 Tl1 In1 Pd4'
_cell_volume   224.36872939
_cell_formula_units_Z   1
loop_
 _symmetry_equiv_pos_site_id
 _symmetry_equiv_pos_as_xyz
  1  'x, y, z'
loop_
 _atom_site_type_symbol
 _atom_site_label
 _atom_site_symmetry_multiplicity
 _atom_site_fract_x
 _atom_site_fract_y
 _atom_site_fract_z
 _atom_site_occupancy
  Er  Er0  1  0.673737  0.175161  0.500000  1
  Pa  Pa1  1  0.330693  0.828733  0.500000  1
  Pa  Pa2  1  0.824831  0.671919  0.500000  1
  Pa  Pa3  1  0.174116  0.327000  0.500000  1
  Tl  Tl4  1  0.993668  0.002664  0.000000  1
  In  In5  1  0.502671  0.494346  0.000000  1
  Pd  Pd6  1  0.366038  0.125551  0.000000  1
  Pd  Pd7  1  0.878379  0.381762  0.000000  1
  Pd  Pd8  1  0.133590  0.630634  0.000000  1
  Pd  Pd9  1  0.622278  0.862230  0.000000  1
