# generated using pymatgen
data_LiTe28
_symmetry_space_group_name_H-M   'P 1'
_cell_length_a   8.94072182
_cell_length_b   12.26360450
_cell_length_c   11.98178300
_cell_angle_alpha   120.72037550
_cell_angle_beta   96.55679143
_cell_angle_gamma   98.18565023
_symmetry_Int_Tables_number   1
_chemical_formula_structural   LiTe28
_chemical_formula_sum   'Li1 Te28'
_cell_volume   1090.57840227
_cell_formula_units_Z   1
loop_
 _symmetry_equiv_pos_site_id
 _symmetry_equiv_pos_as_xyz
  1  'x, y, z'
loop_
 _atom_site_type_symbol
 _atom_site_label
 _atom_site_symmetry_multiplicity
 _atom_site_fract_x
 _atom_site_fract_y
 _atom_site_fract_z
 _atom_site_occupancy
  Li  Li0  1  0.500000  0.000000  0.000000  1
  Te  Te1  1  0.175154  0.090882  0.427380  1
  Te  Te2  1  0.638284  0.084290  0.421105  1
  Te  Te3  1  0.323998  0.360903  0.820771  1
  Te  Te4  1  0.823235  0.348545  0.828733  1
  Te  Te5  1  0.227458  0.680011  0.801759  1
  Te  Te6  1  0.704046  0.578120  0.706321  1
  Te  Te7  1  0.361716  0.915710  0.578895  1
  Te  Te8  1  0.824846  0.909118  0.572620  1
  Te  Te9  1  0.176765  0.651455  0.171267  1
  Te  Te10  1  0.676002  0.639097  0.179229  1
  Te  Te11  1  0.295954  0.421880  0.293679  1
  Te  Te12  1  0.772542  0.319989  0.198241  1
  Te  Te13  1  0.679768  0.078819  0.773798  1
  Te  Te14  1  0.232752  0.044574  0.807788  1
  Te  Te15  1  0.937373  0.641093  0.949664  1
  Te  Te16  1  0.464418  0.673740  0.012658  1
  Te  Te17  1  0.494734  0.252687  0.280069  1
  Te  Te18  1  0.991658  0.191839  0.286108  1
  Te  Te19  1  0.767248  0.955426  0.192212  1
  Te  Te20  1  0.320232  0.921181  0.226202  1
  Te  Te21  1  0.535582  0.326260  0.987342  1
  Te  Te22  1  0.062627  0.358907  0.050336  1
  Te  Te23  1  0.008342  0.808161  0.713892  1
  Te  Te24  1  0.505266  0.747313  0.719931  1
  Te  Te25  1  0.929764  0.288783  0.589247  1
  Te  Te26  1  0.446695  0.327204  0.594855  1
  Te  Te27  1  0.553305  0.672796  0.405145  1
  Te  Te28  1  0.070236  0.711217  0.410753  1
