# generated using pymatgen
data_MnCrAgS4
_symmetry_space_group_name_H-M   'P 1'
_cell_length_a   7.17968287
_cell_length_b   7.17968350
_cell_length_c   7.17968251
_cell_angle_alpha   119.62242399
_cell_angle_beta   119.72581520
_cell_angle_gamma   90.56539391
_symmetry_Int_Tables_number   1
_chemical_formula_structural   MnCrAgS4
_chemical_formula_sum   'Mn2 Cr2 Ag2 S8'
_cell_volume   262.97316196
_cell_formula_units_Z   2
loop_
 _symmetry_equiv_pos_site_id
 _symmetry_equiv_pos_as_xyz
  1  'x, y, z'
loop_
 _atom_site_type_symbol
 _atom_site_label
 _atom_site_symmetry_multiplicity
 _atom_site_fract_x
 _atom_site_fract_y
 _atom_site_fract_z
 _atom_site_occupancy
  Mn  Mn0  1  0.251516  0.250000  0.501516  1
  Mn  Mn1  1  0.248484  0.750000  0.998484  1
  Cr  Cr2  1  0.750000  0.748796  0.998796  1
  Cr  Cr3  1  0.250000  0.751204  0.501204  1
  Ag  Ag4  1  0.877740  0.127740  0.750000  1
  Ag  Ag5  1  0.622260  0.372260  0.250000  1
  S  S6  1  0.479435  0.512195  0.966626  1
  S  S7  1  0.483001  0.514459  0.530335  1
  S  S8  1  0.045570  0.512809  0.533374  1
  S  S9  1  0.484122  0.952665  0.969665  1
  S  S10  1  0.020565  0.987191  0.032761  1
  S  S11  1  0.016999  0.547335  0.031458  1
  S  S12  1  0.454430  0.987805  0.467239  1
  S  S13  1  0.015878  0.985541  0.468542  1
