# generated using pymatgen
data_Hf8Ti9Cr(Si8Mo)2
_symmetry_space_group_name_H-M   'P 1'
_cell_length_a   6.55360961
_cell_length_b   6.71397385
_cell_length_c   12.91873900
_cell_angle_alpha   90.00000000
_cell_angle_beta   90.00000000
_cell_angle_gamma   89.93269941
_symmetry_Int_Tables_number   1
_chemical_formula_structural   Hf8Ti9Cr(Si8Mo)2
_chemical_formula_sum   'Hf8 Ti9 Cr1 Si16 Mo2'
_cell_volume   568.43398806
_cell_formula_units_Z   1
loop_
 _symmetry_equiv_pos_site_id
 _symmetry_equiv_pos_as_xyz
  1  'x, y, z'
loop_
 _atom_site_type_symbol
 _atom_site_label
 _atom_site_symmetry_multiplicity
 _atom_site_fract_x
 _atom_site_fract_y
 _atom_site_fract_z
 _atom_site_occupancy
  Hf  Hf0  1  0.995465  0.172701  0.094285  1
  Hf  Hf1  1  0.003147  0.827192  0.906178  1
  Hf  Hf2  1  0.502579  0.673629  0.906438  1
  Hf  Hf3  1  0.003147  0.827192  0.593822  1
  Hf  Hf4  1  0.496457  0.326844  0.093674  1
  Hf  Hf5  1  0.995465  0.172701  0.405715  1
  Hf  Hf6  1  0.496457  0.326844  0.406326  1
  Hf  Hf7  1  0.502579  0.673629  0.593562  1
  Ti  Ti8  1  0.162827  0.493134  0.750000  1
  Ti  Ti9  1  0.334922  0.170367  0.624784  1
  Ti  Ti10  1  0.665124  0.830641  0.374444  1
  Ti  Ti11  1  0.164710  0.669551  0.373825  1
  Ti  Ti12  1  0.665124  0.830641  0.125556  1
  Ti  Ti13  1  0.834563  0.329160  0.624201  1
  Ti  Ti14  1  0.334922  0.170367  0.875216  1
  Ti  Ti15  1  0.834563  0.329160  0.875799  1
  Ti  Ti16  1  0.164710  0.669551  0.126175  1
  Cr  Cr17  1  0.840236  0.507358  0.250000  1
  Si  Si18  1  0.037098  0.117757  0.750000  1
  Si  Si19  1  0.962309  0.880747  0.250000  1
  Si  Si20  1  0.470710  0.612513  0.250000  1
  Si  Si21  1  0.536301  0.383489  0.750000  1
  Si  Si22  1  0.296443  0.860682  0.750000  1
  Si  Si23  1  0.704422  0.144671  0.250000  1
  Si  Si24  1  0.196623  0.363411  0.250000  1
  Si  Si25  1  0.798780  0.636948  0.750000  1
  Si  Si26  1  0.169889  0.461629  0.537779  1
  Si  Si27  1  0.830555  0.538629  0.459470  1
  Si  Si28  1  0.329198  0.961390  0.461175  1
  Si  Si29  1  0.830555  0.538629  0.040530  1
  Si  Si30  1  0.670266  0.038550  0.538630  1
  Si  Si31  1  0.169889  0.461629  0.962221  1
  Si  Si32  1  0.670266  0.038550  0.961370  1
  Si  Si33  1  0.329198  0.961390  0.038825  1
  Mo  Mo34  1  0.337975  0.994059  0.250000  1
  Mo  Mo35  1  0.662531  0.004664  0.750000  1
