# generated using pymatgen
data_Th(Ga3Pt)3
_symmetry_space_group_name_H-M   'P 1'
_cell_length_a   10.47077339
_cell_length_b   10.47077355
_cell_length_c   10.47077311
_cell_angle_alpha   43.01723817
_cell_angle_beta   43.01724382
_cell_angle_gamma   43.01723984
_symmetry_Int_Tables_number   1
_chemical_formula_structural   Th(Ga3Pt)3
_chemical_formula_sum   'Th2 Ga18 Pt6'
_cell_volume   484.30508489
_cell_formula_units_Z   2
loop_
 _symmetry_equiv_pos_site_id
 _symmetry_equiv_pos_as_xyz
  1  'x, y, z'
loop_
 _atom_site_type_symbol
 _atom_site_label
 _atom_site_symmetry_multiplicity
 _atom_site_fract_x
 _atom_site_fract_y
 _atom_site_fract_z
 _atom_site_occupancy
  Th  Th0  1  0.166810  0.166810  0.166810  1
  Th  Th1  1  0.833190  0.833190  0.833190  1
  Ga  Ga2  1  0.048527  0.048527  0.048527  1
  Ga  Ga3  1  0.698906  0.500000  0.301094  1
  Ga  Ga4  1  0.665315  0.334685  0.000000  1
  Ga  Ga5  1  0.109203  0.436417  0.763866  1
  Ga  Ga6  1  0.436417  0.763866  0.109203  1
  Ga  Ga7  1  0.383492  0.383492  0.383492  1
  Ga  Ga8  1  0.334685  0.000000  0.665315  1
  Ga  Ga9  1  0.616508  0.616508  0.616508  1
  Ga  Ga10  1  0.236134  0.563583  0.890797  1
  Ga  Ga11  1  0.563583  0.890797  0.236134  1
  Ga  Ga12  1  0.500000  0.301094  0.698906  1
  Ga  Ga13  1  0.763866  0.109203  0.436417  1
  Ga  Ga14  1  0.951473  0.951473  0.951473  1
  Ga  Ga15  1  0.301094  0.698906  0.500000  1
  Ga  Ga16  1  0.000000  0.665315  0.334685  1
  Ga  Ga17  1  0.714391  0.714391  0.714391  1
  Ga  Ga18  1  0.285609  0.285609  0.285609  1
  Ga  Ga19  1  0.890797  0.236134  0.563583  1
  Pt  Pt20  1  0.240118  0.921065  0.580892  1
  Pt  Pt21  1  0.921065  0.580892  0.240118  1
  Pt  Pt22  1  0.759882  0.419108  0.078935  1
  Pt  Pt23  1  0.078935  0.759882  0.419108  1
  Pt  Pt24  1  0.419108  0.078935  0.759882  1
  Pt  Pt25  1  0.580892  0.240118  0.921065  1
