# generated using pymatgen
data_Ca10LuReN10
_symmetry_space_group_name_H-M   'P 1'
_cell_length_a   7.06373967
_cell_length_b   7.06373903
_cell_length_c   8.93377271
_cell_angle_alpha   80.42738853
_cell_angle_beta   80.42739258
_cell_angle_gamma   59.91017086
_symmetry_Int_Tables_number   1
_chemical_formula_structural   Ca10LuReN10
_chemical_formula_sum   'Ca10 Lu1 Re1 N10'
_cell_volume   378.52128870
_cell_formula_units_Z   1
loop_
 _symmetry_equiv_pos_site_id
 _symmetry_equiv_pos_as_xyz
  1  'x, y, z'
loop_
 _atom_site_type_symbol
 _atom_site_label
 _atom_site_symmetry_multiplicity
 _atom_site_fract_x
 _atom_site_fract_y
 _atom_site_fract_z
 _atom_site_occupancy
  Ca  Ca0  1  0.874435  0.361027  0.825223  1
  Ca  Ca1  1  0.873247  0.873247  0.812684  1
  Ca  Ca2  1  0.736627  0.736627  0.533319  1
  Ca  Ca3  1  0.744237  0.258474  0.516013  1
  Ca  Ca4  1  0.622616  0.141371  0.148317  1
  Ca  Ca5  1  0.361027  0.874435  0.825223  1
  Ca  Ca6  1  0.258474  0.744237  0.516013  1
  Ca  Ca7  1  0.240600  0.240600  0.504755  1
  Ca  Ca8  1  0.142377  0.142377  0.159475  1
  Ca  Ca9  1  0.141371  0.622616  0.148317  1
  Lu  Lu10  1  0.369489  0.369489  0.781692  1
  Re  Re11  1  0.632172  0.632172  0.227469  1
  N  N12  1  0.899546  0.475430  0.313926  1
  N  N13  1  0.992144  0.992144  0.027811  1
  N  N14  1  0.674212  0.674212  0.021103  1
  N  N15  1  0.550754  0.550754  0.683875  1
  N  N16  1  0.475430  0.899546  0.313926  1
  N  N17  1  0.551904  0.067252  0.661396  1
  N  N18  1  0.478345  0.478345  0.295641  1
  N  N19  1  0.315930  0.315930  0.024037  1
  N  N20  1  0.060095  0.060095  0.644198  1
  N  N21  1  0.067252  0.551904  0.661396  1
