# generated using pymatgen
data_Th4Ge4PdPt3
_symmetry_space_group_name_H-M   'P 1'
_cell_length_a   4.41660200
_cell_length_b   7.83018546
_cell_length_c   7.61949801
_cell_angle_alpha   89.97725417
_cell_angle_beta   90.00000000
_cell_angle_gamma   90.00000000
_symmetry_Int_Tables_number   1
_chemical_formula_structural   Th4Ge4PdPt3
_chemical_formula_sum   'Th4 Ge4 Pd1 Pt3'
_cell_volume   263.50365228
_cell_formula_units_Z   1
loop_
 _symmetry_equiv_pos_site_id
 _symmetry_equiv_pos_as_xyz
  1  'x, y, z'
loop_
 _atom_site_type_symbol
 _atom_site_label
 _atom_site_symmetry_multiplicity
 _atom_site_fract_x
 _atom_site_fract_y
 _atom_site_fract_z
 _atom_site_occupancy
  Th  Th0  1  0.750000  0.500666  0.247260  1
  Th  Th1  1  0.750000  0.001689  0.256316  1
  Th  Th2  1  0.250000  0.504063  0.751390  1
  Th  Th3  1  0.250000  0.000449  0.744385  1
  Ge  Ge4  1  0.750000  0.777630  0.917587  1
  Ge  Ge5  1  0.750000  0.273817  0.585857  1
  Ge  Ge6  1  0.250000  0.266079  0.081174  1
  Ge  Ge7  1  0.250000  0.765881  0.415525  1
  Pd  Pd8  1  0.750000  0.221225  0.917432  1
  Pt  Pt9  1  0.750000  0.726473  0.583208  1
  Pt  Pt10  1  0.250000  0.729002  0.081822  1
  Pt  Pt11  1  0.250000  0.233025  0.418043  1
