# generated using pymatgen
data_CeY10Er5(CdPt)4
_symmetry_space_group_name_H-M   'P 1'
_cell_length_a   9.67833673
_cell_length_b   9.69498775
_cell_length_c   9.69498844
_cell_angle_alpha   59.94043998
_cell_angle_beta   60.17410836
_cell_angle_gamma   60.17410604
_symmetry_Int_Tables_number   1
_chemical_formula_structural   CeY10Er5(CdPt)4
_chemical_formula_sum   'Ce1 Y10 Er5 Cd4 Pt4'
_cell_volume   644.64601925
_cell_formula_units_Z   1
loop_
 _symmetry_equiv_pos_site_id
 _symmetry_equiv_pos_as_xyz
  1  'x, y, z'
loop_
 _atom_site_type_symbol
 _atom_site_label
 _atom_site_symmetry_multiplicity
 _atom_site_fract_x
 _atom_site_fract_y
 _atom_site_fract_z
 _atom_site_occupancy
  Ce  Ce0  1  0.348979  0.349476  0.349476  1
  Y  Y1  1  0.189617  0.811541  0.189416  1
  Y  Y2  1  0.810284  0.191268  0.810421  1
  Y  Y3  1  0.189617  0.189416  0.811541  1
  Y  Y4  1  0.810284  0.810421  0.191268  1
  Y  Y5  1  0.937126  0.565151  0.565151  1
  Y  Y6  1  0.563144  0.936827  0.936827  1
  Y  Y7  1  0.564480  0.937594  0.564284  1
  Y  Y8  1  0.937923  0.562314  0.937599  1
  Y  Y9  1  0.564480  0.564284  0.937594  1
  Y  Y10  1  0.937923  0.937599  0.562314  1
  Er  Er11  1  0.353370  0.352920  0.941392  1
  Er  Er12  1  0.353370  0.941392  0.352920  1
  Er  Er13  1  0.940967  0.353482  0.353482  1
  Er  Er14  1  0.810890  0.190454  0.190454  1
  Er  Er15  1  0.192425  0.809607  0.809607  1
  Cd  Cd16  1  0.581296  0.581383  0.581383  1
  Cd  Cd17  1  0.581599  0.581870  0.254161  1
  Cd  Cd18  1  0.581599  0.254161  0.581870  1
  Cd  Cd19  1  0.254302  0.581481  0.581481  1
  Pt  Pt20  1  0.141422  0.146264  0.146264  1
  Pt  Pt21  1  0.142658  0.138531  0.569451  1
  Pt  Pt22  1  0.142658  0.569451  0.138531  1
  Pt  Pt23  1  0.569588  0.143114  0.143114  1
