# generated using pymatgen
data_La2Sb2RhAu
_symmetry_space_group_name_H-M   'P 1'
_cell_length_a   4.73178500
_cell_length_b   7.82625347
_cell_length_c   8.15557489
_cell_angle_alpha   91.39607798
_cell_angle_beta   90.00000000
_cell_angle_gamma   90.00000000
_symmetry_Int_Tables_number   1
_chemical_formula_structural   La2Sb2RhAu
_chemical_formula_sum   'La4 Sb4 Rh2 Au2'
_cell_volume   301.92881144
_cell_formula_units_Z   2
loop_
 _symmetry_equiv_pos_site_id
 _symmetry_equiv_pos_as_xyz
  1  'x, y, z'
loop_
 _atom_site_type_symbol
 _atom_site_label
 _atom_site_symmetry_multiplicity
 _atom_site_fract_x
 _atom_site_fract_y
 _atom_site_fract_z
 _atom_site_occupancy
  La  La0  1  0.250000  0.503613  0.216735  1
  La  La1  1  0.750000  0.496387  0.783265  1
  La  La2  1  0.750000  0.995077  0.688903  1
  La  La3  1  0.250000  0.004923  0.311097  1
  Sb  Sb4  1  0.250000  0.690333  0.585301  1
  Sb  Sb5  1  0.750000  0.309667  0.414699  1
  Sb  Sb6  1  0.750000  0.782688  0.104940  1
  Sb  Sb7  1  0.250000  0.217312  0.895060  1
  Rh  Rh8  1  0.750000  0.718636  0.428932  1
  Rh  Rh9  1  0.250000  0.281364  0.571068  1
  Au  Au10  1  0.250000  0.803383  0.916638  1
  Au  Au11  1  0.750000  0.196617  0.083362  1
