# generated using pymatgen
data_Nd2UAlGa2Ir3
_symmetry_space_group_name_H-M   'P 1'
_cell_length_a   7.25262220
_cell_length_b   7.29579493
_cell_length_c   3.96419300
_cell_angle_alpha   90.00000000
_cell_angle_beta   90.00000000
_cell_angle_gamma   120.19713600
_symmetry_Int_Tables_number   1
_chemical_formula_structural   Nd2UAlGa2Ir3
_chemical_formula_sum   'Nd2 U1 Al1 Ga2 Ir3'
_cell_volume   181.29546848
_cell_formula_units_Z   1
loop_
 _symmetry_equiv_pos_site_id
 _symmetry_equiv_pos_as_xyz
  1  'x, y, z'
loop_
 _atom_site_type_symbol
 _atom_site_label
 _atom_site_symmetry_multiplicity
 _atom_site_fract_x
 _atom_site_fract_y
 _atom_site_fract_z
 _atom_site_occupancy
  Nd  Nd0  1  0.416118  0.417558  0.500000  1
  Nd  Nd1  1  0.583885  0.001427  0.500000  1
  U  U2  1  0.999989  0.584759  0.500000  1
  Al  Al3  1  0.999998  0.226690  0.000000  1
  Ga  Ga4  1  0.755067  0.757876  0.000000  1
  Ga  Ga5  1  0.244950  0.002842  0.000000  1
  Ir  Ir6  1  0.716778  0.368869  0.000000  1
  Ir  Ir7  1  0.283224  0.652115  0.000000  1
  Ir  Ir8  1  0.999993  0.987864  0.500000  1
