# generated using pymatgen
data_NdEr(NbSe2)6
_symmetry_space_group_name_H-M   'P 1'
_cell_length_a   6.09544800
_cell_length_b   6.09544816
_cell_length_c   14.61620800
_cell_angle_alpha   90.00000000
_cell_angle_beta   90.00000000
_cell_angle_gamma   119.99999913
_symmetry_Int_Tables_number   1
_chemical_formula_structural   NdEr(NbSe2)6
_chemical_formula_sum   'Nd1 Er1 Nb6 Se12'
_cell_volume   470.30178053
_cell_formula_units_Z   1
loop_
 _symmetry_equiv_pos_site_id
 _symmetry_equiv_pos_as_xyz
  1  'x, y, z'
loop_
 _atom_site_type_symbol
 _atom_site_label
 _atom_site_symmetry_multiplicity
 _atom_site_fract_x
 _atom_site_fract_y
 _atom_site_fract_z
 _atom_site_occupancy
  Nd  Nd0  1  0.666667  0.333333  0.750000  1
  Er  Er1  1  0.333333  0.666667  0.250000  1
  Nb  Nb2  1  0.333333  0.666667  0.005758  1
  Nb  Nb3  1  0.000000  0.000000  0.004657  1
  Nb  Nb4  1  0.666667  0.333333  0.002057  1
  Nb  Nb5  1  0.333333  0.666667  0.494242  1
  Nb  Nb6  1  0.000000  0.000000  0.495343  1
  Nb  Nb7  1  0.666667  0.333333  0.497943  1
  Se  Se8  1  0.671622  0.664667  0.381033  1
  Se  Se9  1  0.665642  0.675482  0.610300  1
  Se  Se10  1  0.009839  0.675482  0.889700  1
  Se  Se11  1  0.665642  0.990161  0.889700  1
  Se  Se12  1  0.671622  0.006955  0.118967  1
  Se  Se13  1  0.335333  0.006955  0.381033  1
  Se  Se14  1  0.009839  0.334358  0.610300  1
  Se  Se15  1  0.324518  0.990161  0.610300  1
  Se  Se16  1  0.993045  0.664667  0.118967  1
  Se  Se17  1  0.324518  0.334358  0.889700  1
  Se  Se18  1  0.993045  0.328378  0.381033  1
  Se  Se19  1  0.335333  0.328378  0.118967  1
