# generated using pymatgen
data_NaHo(Si7Rh3)2
_symmetry_space_group_name_H-M   'P 1'
_cell_length_a   7.97287812
_cell_length_b   7.97287856
_cell_length_c   7.97288013
_cell_angle_alpha   57.10705741
_cell_angle_beta   57.10705744
_cell_angle_gamma   57.10705248
_symmetry_Int_Tables_number   1
_chemical_formula_structural   NaHo(Si7Rh3)2
_chemical_formula_sum   'Na1 Ho1 Si14 Rh6'
_cell_volume   334.47689894
_cell_formula_units_Z   1
loop_
 _symmetry_equiv_pos_site_id
 _symmetry_equiv_pos_as_xyz
  1  'x, y, z'
loop_
 _atom_site_type_symbol
 _atom_site_label
 _atom_site_symmetry_multiplicity
 _atom_site_fract_x
 _atom_site_fract_y
 _atom_site_fract_z
 _atom_site_occupancy
  Na  Na0  1  0.500000  0.500000  0.500000  1
  Ho  Ho1  1  0.000000  0.000000  0.000000  1
  Si  Si2  1  0.750385  0.750385  0.750385  1
  Si  Si3  1  0.249615  0.249615  0.249615  1
  Si  Si4  1  0.849534  0.067949  0.670940  1
  Si  Si5  1  0.670940  0.849534  0.067949  1
  Si  Si6  1  0.067949  0.670940  0.849534  1
  Si  Si7  1  0.648119  0.825584  0.434316  1
  Si  Si8  1  0.434316  0.648119  0.825584  1
  Si  Si9  1  0.825584  0.434316  0.648119  1
  Si  Si10  1  0.174416  0.565684  0.351881  1
  Si  Si11  1  0.565684  0.351881  0.174416  1
  Si  Si12  1  0.351881  0.174416  0.565684  1
  Si  Si13  1  0.932051  0.329060  0.150466  1
  Si  Si14  1  0.329060  0.150466  0.932051  1
  Si  Si15  1  0.150466  0.932051  0.329060  1
  Rh  Rh16  1  0.067825  0.426976  0.752663  1
  Rh  Rh17  1  0.247337  0.932175  0.573024  1
  Rh  Rh18  1  0.573024  0.247337  0.932175  1
  Rh  Rh19  1  0.932175  0.573024  0.247337  1
  Rh  Rh20  1  0.426976  0.752663  0.067825  1
  Rh  Rh21  1  0.752663  0.067825  0.426976  1
