# generated using pymatgen
data_Lu2CrSbO7
_symmetry_space_group_name_H-M   'P 1'
_cell_length_a   7.18928513
_cell_length_b   7.15826359
_cell_length_c   7.25038300
_cell_angle_alpha   90.00053045
_cell_angle_beta   59.72039611
_cell_angle_gamma   119.85751675
_symmetry_Int_Tables_number   1
_chemical_formula_structural   Lu2CrSbO7
_chemical_formula_sum   'Lu4 Cr2 Sb2 O14'
_cell_volume   263.28909812
_cell_formula_units_Z   2
loop_
 _symmetry_equiv_pos_site_id
 _symmetry_equiv_pos_as_xyz
  1  'x, y, z'
loop_
 _atom_site_type_symbol
 _atom_site_label
 _atom_site_symmetry_multiplicity
 _atom_site_fract_x
 _atom_site_fract_y
 _atom_site_fract_z
 _atom_site_occupancy
  Lu  Lu0  1  0.499989  0.499993  0.000010  1
  Lu  Lu1  1  0.500014  0.000002  0.999997  1
  Lu  Lu2  1  0.999977  0.999985  0.499991  1
  Lu  Lu3  1  0.999997  0.000019  0.999992  1
  Cr  Cr4  1  0.500149  0.000088  0.499905  1
  Cr  Cr5  1  0.500049  0.500015  0.499979  1
  Sb  Sb6  1  0.999958  0.499944  0.000015  1
  Sb  Sb7  1  0.999957  0.499961  0.500002  1
  O  O8  1  0.256078  0.128027  0.121963  1
  O  O9  1  0.743947  0.871971  0.878027  1
  O  O10  1  0.688245  0.844135  0.405865  1
  O  O11  1  0.831398  0.415710  0.834305  1
  O  O12  1  0.252853  0.835182  0.839663  1
  O  O13  1  0.252871  0.417680  0.407500  1
  O  O14  1  0.252889  0.417719  0.839625  1
  O  O15  1  0.252856  0.835170  0.407494  1
  O  O16  1  0.311659  0.155831  0.594184  1
  O  O17  1  0.168650  0.584338  0.165686  1
  O  O18  1  0.747064  0.164745  0.160427  1
  O  O19  1  0.747145  0.582331  0.592490  1
  O  O20  1  0.747138  0.582332  0.160372  1
  O  O21  1  0.747117  0.164822  0.592510  1
