# generated using pymatgen
data_Na4TmSbO6
_symmetry_space_group_name_H-M   'P 1'
_cell_length_a   5.71253855
_cell_length_b   5.71253885
_cell_length_c   5.84994672
_cell_angle_alpha   99.36569866
_cell_angle_beta   99.36570125
_cell_angle_gamma   120.02620680
_symmetry_Int_Tables_number   1
_chemical_formula_structural   Na4TmSbO6
_chemical_formula_sum   'Na4 Tm1 Sb1 O6'
_cell_volume   156.27560644
_cell_formula_units_Z   1
loop_
 _symmetry_equiv_pos_site_id
 _symmetry_equiv_pos_as_xyz
  1  'x, y, z'
loop_
 _atom_site_type_symbol
 _atom_site_label
 _atom_site_symmetry_multiplicity
 _atom_site_fract_x
 _atom_site_fract_y
 _atom_site_fract_z
 _atom_site_occupancy
  Na  Na0  1  0.499194  0.500806  0.000000  1
  Na  Na1  1  0.011602  0.988398  0.500000  1
  Na  Na2  1  0.656317  0.343679  0.500000  1
  Na  Na3  1  0.336445  0.663551  0.500000  1
  Tm  Tm4  1  0.832870  0.167129  0.000000  1
  Sb  Sb5  1  0.166846  0.833154  0.000000  1
  O  O6  1  0.950820  0.595638  0.207203  1
  O  O7  1  0.542641  0.926628  0.212618  1
  O  O8  1  0.213427  0.187898  0.211849  1
  O  O9  1  0.812104  0.786576  0.788153  1
  O  O10  1  0.073372  0.457359  0.787383  1
  O  O11  1  0.404363  0.049181  0.792796  1
