# generated using pymatgen
data_Ce6ZrTaSb10
_symmetry_space_group_name_H-M   'P 1'
_cell_length_a   9.41172703
_cell_length_b   9.40973431
_cell_length_c   6.26071911
_cell_angle_alpha   90.02107211
_cell_angle_beta   89.99138269
_cell_angle_gamma   120.00541077
_symmetry_Int_Tables_number   1
_chemical_formula_structural   Ce6ZrTaSb10
_chemical_formula_sum   'Ce6 Zr1 Ta1 Sb10'
_cell_volume   480.15098441
_cell_formula_units_Z   1
loop_
 _symmetry_equiv_pos_site_id
 _symmetry_equiv_pos_as_xyz
  1  'x, y, z'
loop_
 _atom_site_type_symbol
 _atom_site_label
 _atom_site_symmetry_multiplicity
 _atom_site_fract_x
 _atom_site_fract_y
 _atom_site_fract_z
 _atom_site_occupancy
  Ce  Ce0  1  0.618946  0.999966  0.249613  1
  Ce  Ce1  1  0.381054  0.000034  0.750387  1
  Ce  Ce2  1  0.999982  0.619002  0.249608  1
  Ce  Ce3  1  0.000018  0.380998  0.750392  1
  Ce  Ce4  1  0.381119  0.381077  0.249603  1
  Ce  Ce5  1  0.618881  0.618923  0.750397  1
  Zr  Zr6  1  0.000000  0.000000  0.500000  1
  Ta  Ta7  1  0.000000  0.000000  0.000000  1
  Sb  Sb8  1  0.264743  0.000050  0.244674  1
  Sb  Sb9  1  0.735257  0.999950  0.755326  1
  Sb  Sb10  1  0.000031  0.264722  0.244676  1
  Sb  Sb11  1  0.999969  0.735278  0.755324  1
  Sb  Sb12  1  0.735242  0.735262  0.244669  1
  Sb  Sb13  1  0.264758  0.264738  0.755331  1
  Sb  Sb14  1  0.333330  0.666652  0.999999  1
  Sb  Sb15  1  0.666670  0.333348  0.000001  1
  Sb  Sb16  1  0.666661  0.333351  0.500004  1
  Sb  Sb17  1  0.333339  0.666649  0.499996  1
