# generated using pymatgen
data_LaTb4LuU4O20
_symmetry_space_group_name_H-M   'P 1'
_cell_length_a   6.66678244
_cell_length_b   7.55355494
_cell_length_c   8.48287520
_cell_angle_alpha   101.07009253
_cell_angle_beta   97.82284580
_cell_angle_gamma   107.27244714
_symmetry_Int_Tables_number   1
_chemical_formula_structural   LaTb4LuU4O20
_chemical_formula_sum   'La1 Tb4 Lu1 U4 O20'
_cell_volume   391.73293332
_cell_formula_units_Z   1
loop_
 _symmetry_equiv_pos_site_id
 _symmetry_equiv_pos_as_xyz
  1  'x, y, z'
loop_
 _atom_site_type_symbol
 _atom_site_label
 _atom_site_symmetry_multiplicity
 _atom_site_fract_x
 _atom_site_fract_y
 _atom_site_fract_z
 _atom_site_occupancy
  La  La0  1  0.000000  0.500000  0.500000  1
  Tb  Tb1  1  0.614680  0.706364  0.700368  1
  Tb  Tb2  1  0.385320  0.293636  0.299632  1
  Tb  Tb3  1  0.198090  0.898739  0.893779  1
  Tb  Tb4  1  0.801910  0.101261  0.106221  1
  Lu  Lu5  1  0.000000  0.000000  0.500000  1
  U  U6  1  0.404287  0.806479  0.301691  1
  U  U7  1  0.199174  0.399408  0.901113  1
  U  U8  1  0.800826  0.600592  0.098887  1
  U  U9  1  0.595713  0.193521  0.698309  1
  O  O10  1  0.439044  0.532551  0.135897  1
  O  O11  1  0.554592  0.986683  0.840767  1
  O  O12  1  0.268215  0.143383  0.742547  1
  O  O13  1  0.368419  0.596376  0.439081  1
  O  O14  1  0.053563  0.736439  0.330216  1
  O  O15  1  0.445408  0.013317  0.159233  1
  O  O16  1  0.151017  0.183431  0.032020  1
  O  O17  1  0.560956  0.467449  0.864103  1
  O  O18  1  0.855451  0.336444  0.949879  1
  O  O19  1  0.261788  0.609603  0.766862  1
  O  O20  1  0.953477  0.785679  0.654028  1
  O  O21  1  0.351249  0.060215  0.454388  1
  O  O22  1  0.648751  0.939785  0.545612  1
  O  O23  1  0.046523  0.214321  0.345972  1
  O  O24  1  0.738212  0.390397  0.233138  1
  O  O25  1  0.144549  0.663556  0.050121  1
  O  O26  1  0.848983  0.816569  0.967980  1
  O  O27  1  0.946437  0.263561  0.669784  1
  O  O28  1  0.631581  0.403624  0.560919  1
  O  O29  1  0.731785  0.856617  0.257453  1
