# generated using pymatgen
data_Ac5Sn2Ir
_symmetry_space_group_name_H-M   'P 1'
_cell_length_a   8.74654500
_cell_length_b   9.69409300
_cell_length_c   13.49852100
_cell_angle_alpha   90.00000000
_cell_angle_beta   90.00000000
_cell_angle_gamma   90.00000000
_symmetry_Int_Tables_number   1
_chemical_formula_structural   Ac5Sn2Ir
_chemical_formula_sum   'Ac20 Sn8 Ir4'
_cell_volume   1144.53717475
_cell_formula_units_Z   4
loop_
 _symmetry_equiv_pos_site_id
 _symmetry_equiv_pos_as_xyz
  1  'x, y, z'
loop_
 _atom_site_type_symbol
 _atom_site_label
 _atom_site_symmetry_multiplicity
 _atom_site_fract_x
 _atom_site_fract_y
 _atom_site_fract_z
 _atom_site_occupancy
  Ac  Ac0  1  0.837016  0.750000  0.791009  1
  Ac  Ac1  1  0.162984  0.250000  0.208991  1
  Ac  Ac2  1  0.337016  0.250000  0.708991  1
  Ac  Ac3  1  0.662984  0.750000  0.291009  1
  Ac  Ac4  1  0.367511  0.750000  0.693864  1
  Ac  Ac5  1  0.632489  0.250000  0.306136  1
  Ac  Ac6  1  0.867511  0.250000  0.806136  1
  Ac  Ac7  1  0.132489  0.750000  0.193864  1
  Ac  Ac8  1  0.941326  0.750000  0.502138  1
  Ac  Ac9  1  0.058674  0.250000  0.497862  1
  Ac  Ac10  1  0.441326  0.250000  0.997862  1
  Ac  Ac11  1  0.558674  0.750000  0.002138  1
  Ac  Ac12  1  0.677651  0.036777  0.575020  1
  Ac  Ac13  1  0.322349  0.963223  0.424980  1
  Ac  Ac14  1  0.177651  0.963223  0.924980  1
  Ac  Ac15  1  0.322349  0.536777  0.424980  1
  Ac  Ac16  1  0.822349  0.036777  0.075020  1
  Ac  Ac17  1  0.677651  0.463223  0.575020  1
  Ac  Ac18  1  0.822349  0.463223  0.075020  1
  Ac  Ac19  1  0.177651  0.536777  0.924980  1
  Sn  Sn20  1  0.562304  0.494755  0.828711  1
  Sn  Sn21  1  0.437696  0.505245  0.171289  1
  Sn  Sn22  1  0.062304  0.505245  0.671289  1
  Sn  Sn23  1  0.437696  0.994755  0.171289  1
  Sn  Sn24  1  0.937696  0.494755  0.328711  1
  Sn  Sn25  1  0.562304  0.005245  0.828711  1
  Sn  Sn26  1  0.937696  0.005245  0.328711  1
  Sn  Sn27  1  0.062304  0.994755  0.671289  1
  Ir  Ir28  1  0.574600  0.750000  0.508046  1
  Ir  Ir29  1  0.425400  0.250000  0.491954  1
  Ir  Ir30  1  0.074600  0.250000  0.991954  1
  Ir  Ir31  1  0.925400  0.750000  0.008046  1
