# generated using pymatgen
data_NdPuNiO6
_symmetry_space_group_name_H-M   'P 1'
_cell_length_a   5.34874300
_cell_length_b   5.34874298
_cell_length_c   5.18387200
_cell_angle_alpha   90.00000000
_cell_angle_beta   90.00000000
_cell_angle_gamma   120.00000633
_symmetry_Int_Tables_number   1
_chemical_formula_structural   NdPuNiO6
_chemical_formula_sum   'Nd1 Pu1 Ni1 O6'
_cell_volume   128.43646200
_cell_formula_units_Z   1
loop_
 _symmetry_equiv_pos_site_id
 _symmetry_equiv_pos_as_xyz
  1  'x, y, z'
loop_
 _atom_site_type_symbol
 _atom_site_label
 _atom_site_symmetry_multiplicity
 _atom_site_fract_x
 _atom_site_fract_y
 _atom_site_fract_z
 _atom_site_occupancy
  Nd  Nd0  1  0.333333  0.666667  0.000000  1
  Pu  Pu1  1  0.000000  0.000000  0.500000  1
  Ni  Ni2  1  0.666667  0.333333  0.500000  1
  O  O3  1  0.321657  0.017565  0.717861  1
  O  O4  1  0.982435  0.678343  0.282139  1
  O  O5  1  0.321657  0.304092  0.282139  1
  O  O6  1  0.695908  0.017565  0.282139  1
  O  O7  1  0.982435  0.304092  0.717861  1
  O  O8  1  0.695908  0.678343  0.717861  1
