# generated using pymatgen
data_MgScBeB2Ir5
_symmetry_space_group_name_H-M   'P 1'
_cell_length_a   9.30988952
_cell_length_b   9.30988952
_cell_length_c   2.92758400
_cell_angle_alpha   90.00000000
_cell_angle_beta   90.00000000
_cell_angle_gamma   88.84669081
_symmetry_Int_Tables_number   1
_chemical_formula_structural   MgScBeB2Ir5
_chemical_formula_sum   'Mg2 Sc2 Be2 B4 Ir10'
_cell_volume   253.69413659
_cell_formula_units_Z   2
loop_
 _symmetry_equiv_pos_site_id
 _symmetry_equiv_pos_as_xyz
  1  'x, y, z'
loop_
 _atom_site_type_symbol
 _atom_site_label
 _atom_site_symmetry_multiplicity
 _atom_site_fract_x
 _atom_site_fract_y
 _atom_site_fract_z
 _atom_site_occupancy
  Mg  Mg0  1  0.824765  0.675235  0.000000  1
  Mg  Mg1  1  0.175235  0.324766  0.000000  1
  Sc  Sc2  1  0.323046  0.823045  0.000000  1
  Sc  Sc3  1  0.676955  0.176955  0.000000  1
  Be  Be4  1  0.000000  0.000000  0.000000  1
  Be  Be5  1  0.500000  0.500000  0.000000  1
  B  B6  1  0.126915  0.626914  0.000000  1
  B  B7  1  0.873086  0.373086  0.000000  1
  B  B8  1  0.630955  0.869045  0.000000  1
  B  B9  1  0.369045  0.130956  0.000000  1
  Ir  Ir10  1  0.000000  0.500000  0.499999  1
  Ir  Ir11  1  0.500000  0.000000  0.499999  1
  Ir  Ir12  1  0.206249  0.069109  0.499999  1
  Ir  Ir13  1  0.793751  0.930890  0.499999  1
  Ir  Ir14  1  0.706777  0.431267  0.499999  1
  Ir  Ir15  1  0.293222  0.568731  0.499999  1
  Ir  Ir16  1  0.430889  0.293750  0.499999  1
  Ir  Ir17  1  0.569109  0.706249  0.499999  1
  Ir  Ir18  1  0.068731  0.793223  0.499999  1
  Ir  Ir19  1  0.931268  0.206777  0.499999  1
