# generated using pymatgen
data_Tb2Ce(BO3)3
_symmetry_space_group_name_H-M   'P 1'
_cell_length_a   6.69124055
_cell_length_b   6.69124122
_cell_length_c   9.00935812
_cell_angle_alpha   90.01451618
_cell_angle_beta   90.01450779
_cell_angle_gamma   119.81720860
_symmetry_Int_Tables_number   1
_chemical_formula_structural   Tb2Ce(BO3)3
_chemical_formula_sum   'Tb4 Ce2 B6 O18'
_cell_volume   349.97317060
_cell_formula_units_Z   2
loop_
 _symmetry_equiv_pos_site_id
 _symmetry_equiv_pos_as_xyz
  1  'x, y, z'
loop_
 _atom_site_type_symbol
 _atom_site_label
 _atom_site_symmetry_multiplicity
 _atom_site_fract_x
 _atom_site_fract_y
 _atom_site_fract_z
 _atom_site_occupancy
  Tb  Tb0  1  0.328332  0.671668  0.000000  1
  Tb  Tb1  1  0.000614  0.999386  0.000000  1
  Tb  Tb2  1  0.669129  0.330871  0.500000  1
  Tb  Tb3  1  0.672417  0.327583  0.000000  1
  Ce  Ce4  1  0.328462  0.671538  0.500000  1
  Ce  Ce5  1  0.998418  0.001582  0.500000  1
  B  B6  1  0.337938  0.100343  0.754351  1
  B  B7  1  0.095161  0.334842  0.755821  1
  B  B8  1  0.573513  0.571158  0.755685  1
  B  B9  1  0.428842  0.426487  0.244315  1
  B  B10  1  0.665158  0.904839  0.244179  1
  B  B11  1  0.899657  0.662062  0.245649  1
  O  O12  1  0.453315  0.666504  0.242521  1
  O  O13  1  0.665387  0.448330  0.244395  1
  O  O14  1  0.876109  0.876271  0.243662  1
  O  O15  1  0.123729  0.123891  0.756338  1
  O  O16  1  0.551670  0.334613  0.755605  1
  O  O17  1  0.333496  0.546685  0.757479  1
  O  O18  1  0.015156  0.665732  0.108055  1
  O  O19  1  0.002646  0.658114  0.388165  1
  O  O20  1  0.666446  0.014371  0.104961  1
  O  O21  1  0.665918  0.019078  0.383467  1
  O  O22  1  0.316690  0.315935  0.105566  1
  O  O23  1  0.326002  0.320975  0.387554  1
  O  O24  1  0.679025  0.673998  0.612446  1
  O  O25  1  0.684065  0.683310  0.894434  1
  O  O26  1  0.980922  0.334082  0.616533  1
  O  O27  1  0.985629  0.333554  0.895039  1
  O  O28  1  0.341886  0.997354  0.611835  1
  O  O29  1  0.334268  0.984844  0.891945  1
