# generated using pymatgen
data_Ca6In3Fe(SeO3)12
_symmetry_space_group_name_H-M   'P 1'
_cell_length_a   14.51808985
_cell_length_b   14.51808987
_cell_length_c   14.51809039
_cell_angle_alpha   34.93241710
_cell_angle_beta   34.93241667
_cell_angle_gamma   34.93241607
_symmetry_Int_Tables_number   1
_chemical_formula_structural   Ca6In3Fe(SeO3)12
_chemical_formula_sum   'Ca6 In3 Fe1 Se12 O36'
_cell_volume   895.75519904
_cell_formula_units_Z   1
loop_
 _symmetry_equiv_pos_site_id
 _symmetry_equiv_pos_as_xyz
  1  'x, y, z'
loop_
 _atom_site_type_symbol
 _atom_site_label
 _atom_site_symmetry_multiplicity
 _atom_site_fract_x
 _atom_site_fract_y
 _atom_site_fract_z
 _atom_site_occupancy
  Ca  Ca0  1  0.748198  0.159889  0.338810  1
  Ca  Ca1  1  0.840111  0.661190  0.251802  1
  Ca  Ca2  1  0.159889  0.338810  0.748198  1
  Ca  Ca3  1  0.338810  0.748198  0.159889  1
  Ca  Ca4  1  0.661190  0.251802  0.840111  1
  Ca  Ca5  1  0.251802  0.840111  0.661190  1
  In  In6  1  0.500000  0.500000  0.500000  1
  In  In7  1  0.250761  0.250761  0.250761  1
  In  In8  1  0.749239  0.749239  0.749239  1
  Fe  Fe9  1  0.000000  0.000000  0.000000  1
  Se  Se10  1  0.497244  0.088952  0.818934  1
  Se  Se11  1  0.911048  0.181066  0.502756  1
  Se  Se12  1  0.311830  0.596035  0.002538  1
  Se  Se13  1  0.181066  0.502756  0.911048  1
  Se  Se14  1  0.818934  0.497244  0.088952  1
  Se  Se15  1  0.403965  0.997462  0.688170  1
  Se  Se16  1  0.088952  0.818934  0.497244  1
  Se  Se17  1  0.688170  0.403965  0.997462  1
  Se  Se18  1  0.997462  0.688170  0.403965  1
  Se  Se19  1  0.002538  0.311830  0.596035  1
  Se  Se20  1  0.502756  0.911048  0.181066  1
  Se  Se21  1  0.596035  0.002538  0.311830  1
  O  O22  1  0.346957  0.319764  0.987196  1
  O  O23  1  0.514371  0.185785  0.150374  1
  O  O24  1  0.307545  0.610632  0.679760  1
  O  O25  1  0.338996  0.039748  0.941338  1
  O  O26  1  0.841170  0.432940  0.551005  1
  O  O27  1  0.900425  0.180990  0.827505  1
  O  O28  1  0.941338  0.338996  0.039748  1
  O  O29  1  0.653043  0.680236  0.012804  1
  O  O30  1  0.567060  0.448995  0.158830  1
  O  O31  1  0.319764  0.987196  0.346957  1
  O  O32  1  0.819011  0.172495  0.099575  1
  O  O33  1  0.185785  0.150374  0.514371  1
  O  O34  1  0.158830  0.567060  0.448995  1
  O  O35  1  0.987196  0.346957  0.319764  1
  O  O36  1  0.012804  0.653043  0.680236  1
  O  O37  1  0.679760  0.307545  0.610632  1
  O  O38  1  0.039748  0.941338  0.338996  1
  O  O39  1  0.150374  0.514371  0.185785  1
  O  O40  1  0.661004  0.960252  0.058662  1
  O  O41  1  0.172495  0.099575  0.819011  1
  O  O42  1  0.610632  0.679760  0.307545  1
  O  O43  1  0.827505  0.900425  0.180990  1
  O  O44  1  0.814215  0.849626  0.485629  1
  O  O45  1  0.389368  0.320240  0.692454  1
  O  O46  1  0.692455  0.389368  0.320240  1
  O  O47  1  0.551005  0.841170  0.432940  1
  O  O48  1  0.849626  0.485629  0.814215  1
  O  O49  1  0.058662  0.661004  0.960252  1
  O  O50  1  0.320240  0.692454  0.389368  1
  O  O51  1  0.448995  0.158830  0.567060  1
  O  O52  1  0.485629  0.814215  0.849626  1
  O  O53  1  0.680236  0.012804  0.653043  1
  O  O54  1  0.960252  0.058662  0.661004  1
  O  O55  1  0.432940  0.551005  0.841170  1
  O  O56  1  0.180990  0.827505  0.900425  1
  O  O57  1  0.099575  0.819010  0.172495  1
