# generated using pymatgen
data_Dy19Tm(SiBi2)4
_symmetry_space_group_name_H-M   'P 1'
_cell_length_a   8.05992821
_cell_length_b   9.19082302
_cell_length_c   12.06800933
_cell_angle_alpha   90.00612029
_cell_angle_beta   89.97373789
_cell_angle_gamma   90.00306976
_symmetry_Int_Tables_number   1
_chemical_formula_structural   Dy19Tm(SiBi2)4
_chemical_formula_sum   'Dy19 Tm1 Si4 Bi8'
_cell_volume   893.96633751
_cell_formula_units_Z   1
loop_
 _symmetry_equiv_pos_site_id
 _symmetry_equiv_pos_as_xyz
  1  'x, y, z'
loop_
 _atom_site_type_symbol
 _atom_site_label
 _atom_site_symmetry_multiplicity
 _atom_site_fract_x
 _atom_site_fract_y
 _atom_site_fract_z
 _atom_site_occupancy
  Dy  Dy0  1  0.679167  0.947318  0.562757  1
  Dy  Dy1  1  0.179256  0.052680  0.937166  1
  Dy  Dy2  1  0.320781  0.447283  0.437137  1
  Dy  Dy3  1  0.179308  0.447431  0.937272  1
  Dy  Dy4  1  0.320728  0.052654  0.437169  1
  Dy  Dy5  1  0.820568  0.947031  0.062807  1
  Dy  Dy6  1  0.679289  0.552703  0.562818  1
  Dy  Dy7  1  0.166311  0.749762  0.212204  1
  Dy  Dy8  1  0.333377  0.749976  0.712334  1
  Dy  Dy9  1  0.833464  0.249989  0.787669  1
  Dy  Dy10  1  0.666672  0.250063  0.287641  1
  Dy  Dy11  1  0.461408  0.749935  0.001395  1
  Dy  Dy12  1  0.039024  0.749944  0.501291  1
  Dy  Dy13  1  0.539179  0.250208  0.998694  1
  Dy  Dy14  1  0.961047  0.250029  0.498620  1
  Dy  Dy15  1  0.637103  0.749760  0.295193  1
  Dy  Dy16  1  0.862854  0.749765  0.795801  1
  Dy  Dy17  1  0.363113  0.249918  0.704521  1
  Dy  Dy18  1  0.136895  0.249969  0.204441  1
  Tm  Tm19  1  0.821494  0.553272  0.062786  1
  Si  Si20  1  0.412130  0.750023  0.479241  1
  Si  Si21  1  0.087374  0.749220  0.979409  1
  Si  Si22  1  0.587934  0.249968  0.520750  1
  Si  Si23  1  0.911760  0.251386  0.021047  1
  Bi  Bi24  1  0.932623  0.510768  0.325244  1
  Bi  Bi25  1  0.567140  0.989121  0.825551  1
  Bi  Bi26  1  0.067117  0.010761  0.674537  1
  Bi  Bi27  1  0.433117  0.489193  0.174327  1
  Bi  Bi28  1  0.067064  0.489218  0.674569  1
  Bi  Bi29  1  0.432870  0.010696  0.174464  1
  Bi  Bi30  1  0.932851  0.989158  0.325501  1
  Bi  Bi31  1  0.566982  0.510799  0.825643  1
