# generated using pymatgen
data_Ho2Er6Ti3Si16Tc9
_symmetry_space_group_name_H-M   'P 1'
_cell_length_a   6.76747352
_cell_length_b   6.76751842
_cell_length_c   12.88785816
_cell_angle_alpha   90.01689041
_cell_angle_beta   89.96064855
_cell_angle_gamma   89.53907388
_symmetry_Int_Tables_number   1
_chemical_formula_structural   Ho2Er6Ti3Si16Tc9
_chemical_formula_sum   'Ho2 Er6 Ti3 Si16 Tc9'
_cell_volume   590.23177234
_cell_formula_units_Z   1
loop_
 _symmetry_equiv_pos_site_id
 _symmetry_equiv_pos_as_xyz
  1  'x, y, z'
loop_
 _atom_site_type_symbol
 _atom_site_label
 _atom_site_symmetry_multiplicity
 _atom_site_fract_x
 _atom_site_fract_y
 _atom_site_fract_z
 _atom_site_occupancy
  Ho  Ho0  1  0.337301  0.994884  0.468539  1
  Ho  Ho1  1  0.507022  0.835312  0.718183  1
  Er  Er2  1  0.489312  0.166231  0.216395  1
  Er  Er3  1  0.835573  0.507076  0.281836  1
  Er  Er4  1  0.166195  0.489268  0.783568  1
  Er  Er5  1  0.659669  0.007574  0.969391  1
  Er  Er6  1  0.994700  0.337664  0.531409  1
  Er  Er7  1  0.007556  0.659639  0.030666  1
  Ti  Ti8  1  0.157028  0.843476  0.248778  1
  Ti  Ti9  1  0.843563  0.157086  0.751150  1
  Ti  Ti10  1  0.658111  0.657996  0.499939  1
  Si  Si11  1  0.206219  0.121762  0.680398  1
  Si  Si12  1  0.386323  0.693467  0.931537  1
  Si  Si13  1  0.621749  0.296355  0.431399  1
  Si  Si14  1  0.693557  0.386348  0.068543  1
  Si  Si15  1  0.296041  0.621221  0.568553  1
  Si  Si16  1  0.793518  0.880373  0.180935  1
  Si  Si17  1  0.121437  0.206557  0.319572  1
  Si  Si18  1  0.880644  0.793525  0.819098  1
  Si  Si19  1  0.267281  0.986879  0.053571  1
  Si  Si20  1  0.520703  0.782822  0.308180  1
  Si  Si21  1  0.479637  0.220853  0.810154  1
  Si  Si22  1  0.783111  0.520445  0.691706  1
  Si  Si23  1  0.220572  0.479685  0.189933  1
  Si  Si24  1  0.725136  0.019765  0.555740  1
  Si  Si25  1  0.986864  0.267285  0.946426  1
  Si  Si26  1  0.019513  0.724623  0.444195  1
  Tc  Tc27  1  0.337745  0.337765  0.999986  1
  Tc  Tc28  1  0.180898  0.989429  0.863387  1
  Tc  Tc29  1  0.498373  0.693608  0.117087  1
  Tc  Tc30  1  0.501439  0.318419  0.617741  1
  Tc  Tc31  1  0.693677  0.498314  0.882965  1
  Tc  Tc32  1  0.318237  0.501306  0.382291  1
  Tc  Tc33  1  0.819783  0.002261  0.363842  1
  Tc  Tc34  1  0.989323  0.181089  0.136722  1
  Tc  Tc35  1  0.002189  0.819635  0.636190  1
