# generated using pymatgen
data_Ca2Ce3Hf2ScSb10
_symmetry_space_group_name_H-M   'P 1'
_cell_length_a   9.33457102
_cell_length_b   9.37163650
_cell_length_c   6.24132900
_cell_angle_alpha   90.00000000
_cell_angle_beta   90.00000000
_cell_angle_gamma   119.81818213
_symmetry_Int_Tables_number   1
_chemical_formula_structural   Ca2Ce3Hf2ScSb10
_chemical_formula_sum   'Ca2 Ce3 Hf2 Sc1 Sb10'
_cell_volume   473.70751452
_cell_formula_units_Z   1
loop_
 _symmetry_equiv_pos_site_id
 _symmetry_equiv_pos_as_xyz
  1  'x, y, z'
loop_
 _atom_site_type_symbol
 _atom_site_label
 _atom_site_symmetry_multiplicity
 _atom_site_fract_x
 _atom_site_fract_y
 _atom_site_fract_z
 _atom_site_occupancy
  Ca  Ca0  1  0.617836  0.998176  0.250000  1
  Ca  Ca1  1  0.388598  0.002569  0.750000  1
  Ce  Ce2  1  0.997784  0.385268  0.750000  1
  Ce  Ce3  1  0.384601  0.368109  0.250000  1
  Ce  Ce4  1  0.609285  0.625531  0.750000  1
  Hf  Hf5  1  0.999612  0.997692  0.000746  1
  Hf  Hf6  1  0.999612  0.997692  0.499254  1
  Sc  Sc7  1  0.999367  0.623537  0.250000  1
  Sb  Sb8  1  0.255866  0.981826  0.250000  1
  Sb  Sb9  1  0.740177  0.005859  0.750000  1
  Sb  Sb10  1  0.001951  0.268757  0.250000  1
  Sb  Sb11  1  0.998117  0.734863  0.750000  1
  Sb  Sb12  1  0.738302  0.727110  0.250000  1
  Sb  Sb13  1  0.265596  0.264904  0.750000  1
  Sb  Sb14  1  0.320875  0.657076  0.013332  1
  Sb  Sb15  1  0.680773  0.351978  0.004631  1
  Sb  Sb16  1  0.680773  0.351978  0.495369  1
  Sb  Sb17  1  0.320875  0.657076  0.486668  1
