# generated using pymatgen
data_Re4IrOsRh2
_symmetry_space_group_name_H-M   'P 1'
_cell_length_a   5.49317400
_cell_length_b   5.54038448
_cell_length_c   4.40039800
_cell_angle_alpha   90.00000000
_cell_angle_beta   90.00000000
_cell_angle_gamma   119.71852047
_symmetry_Int_Tables_number   1
_chemical_formula_structural   Re4IrOsRh2
_chemical_formula_sum   'Re4 Ir1 Os1 Rh2'
_cell_volume   116.30829719
_cell_formula_units_Z   1
loop_
 _symmetry_equiv_pos_site_id
 _symmetry_equiv_pos_as_xyz
  1  'x, y, z'
loop_
 _atom_site_type_symbol
 _atom_site_label
 _atom_site_symmetry_multiplicity
 _atom_site_fract_x
 _atom_site_fract_y
 _atom_site_fract_z
 _atom_site_occupancy
  Re  Re0  1  0.669981  0.835479  0.250000  1
  Re  Re1  1  0.165499  0.835479  0.250000  1
  Re  Re2  1  0.329207  0.165182  0.750000  1
  Re  Re3  1  0.835974  0.165182  0.750000  1
  Ir  Ir4  1  0.832954  0.665909  0.750000  1
  Os  Os5  1  0.164644  0.329286  0.250000  1
  Rh  Rh6  1  0.333972  0.667944  0.750000  1
  Rh  Rh7  1  0.667769  0.335538  0.250000  1
