# generated using pymatgen
data_Y2FeAuO7
_symmetry_space_group_name_H-M   'P 1'
_cell_length_a   7.29997103
_cell_length_b   7.34283995
_cell_length_c   7.29998272
_cell_angle_alpha   59.80532552
_cell_angle_beta   59.54254188
_cell_angle_gamma   59.80535732
_symmetry_Int_Tables_number   1
_chemical_formula_structural   Y2FeAuO7
_chemical_formula_sum   'Y4 Fe2 Au2 O14'
_cell_volume   274.91141685
_cell_formula_units_Z   2
loop_
 _symmetry_equiv_pos_site_id
 _symmetry_equiv_pos_as_xyz
  1  'x, y, z'
loop_
 _atom_site_type_symbol
 _atom_site_label
 _atom_site_symmetry_multiplicity
 _atom_site_fract_x
 _atom_site_fract_y
 _atom_site_fract_z
 _atom_site_occupancy
  Y  Y0  1  0.499999  0.999999  0.500003  1
  Y  Y1  1  0.000001  0.499998  0.500000  1
  Y  Y2  1  0.499999  0.500002  0.000001  1
  Y  Y3  1  0.500001  0.500002  0.499998  1
  Fe  Fe4  1  0.000003  0.500002  0.999996  1
  Fe  Fe5  1  0.999997  0.000002  0.000001  1
  Au  Au6  1  0.500001  0.000006  0.999996  1
  Au  Au7  1  0.999995  0.999999  0.500002  1
  O  O8  1  0.622148  0.627835  0.622151  1
  O  O9  1  0.377852  0.372162  0.377855  1
  O  O10  1  0.340269  0.912930  0.907906  1
  O  O11  1  0.092093  0.661091  0.659721  1
  O  O12  1  0.914347  0.335657  0.914346  1
  O  O13  1  0.907910  0.912930  0.340267  1
  O  O14  1  0.340283  0.338909  0.907900  1
  O  O15  1  0.340109  0.909922  0.340109  1
  O  O16  1  0.907907  0.338908  0.340279  1
  O  O17  1  0.659717  0.661089  0.092100  1
  O  O18  1  0.092092  0.087069  0.659734  1
  O  O19  1  0.659730  0.087071  0.092095  1
  O  O20  1  0.659894  0.090079  0.659890  1
  O  O21  1  0.085655  0.664344  0.085651  1
