# generated using pymatgen
data_Li8Nd8Sn6BiSb
_symmetry_space_group_name_H-M   'P 1'
_cell_length_a   9.58518956
_cell_length_b   9.58496867
_cell_length_c   7.61423930
_cell_angle_alpha   90.02390147
_cell_angle_beta   90.05267938
_cell_angle_gamma   120.00313322
_symmetry_Int_Tables_number   1
_chemical_formula_structural   Li8Nd8Sn6BiSb
_chemical_formula_sum   'Li8 Nd8 Sn6 Bi1 Sb1'
_cell_volume   605.80721061
_cell_formula_units_Z   1
loop_
 _symmetry_equiv_pos_site_id
 _symmetry_equiv_pos_as_xyz
  1  'x, y, z'
loop_
 _atom_site_type_symbol
 _atom_site_label
 _atom_site_symmetry_multiplicity
 _atom_site_fract_x
 _atom_site_fract_y
 _atom_site_fract_z
 _atom_site_occupancy
  Li  Li0  1  0.166860  0.333627  0.282767  1
  Li  Li1  1  0.167345  0.833373  0.283790  1
  Li  Li2  1  0.666390  0.833489  0.285542  1
  Li  Li3  1  0.832991  0.666347  0.785018  1
  Li  Li4  1  0.829933  0.165103  0.786111  1
  Li  Li5  1  0.334737  0.165070  0.787580  1
  Li  Li6  1  0.334477  0.669505  0.669723  1
  Li  Li7  1  0.666945  0.333127  0.172790  1
  Nd  Nd8  1  0.513817  0.023727  0.493161  1
  Nd  Nd9  1  0.516467  0.491366  0.491892  1
  Nd  Nd10  1  0.973154  0.488619  0.490306  1
  Nd  Nd11  1  0.490293  0.978384  0.996139  1
  Nd  Nd12  1  0.493472  0.513469  0.997699  1
  Nd  Nd13  1  0.019826  0.512260  0.998554  1
  Nd  Nd14  1  0.997057  0.995963  0.495419  1
  Nd  Nd15  1  0.996381  0.996394  0.002938  1
  Sn  Sn16  1  0.666487  0.833208  0.730810  1
  Sn  Sn17  1  0.833543  0.666680  0.232048  1
  Sn  Sn18  1  0.833595  0.166970  0.232006  1
  Sn  Sn19  1  0.333594  0.166872  0.231049  1
  Sn  Sn20  1  0.332857  0.666357  0.264834  1
  Sn  Sn21  1  0.666965  0.333540  0.765151  1
  Bi  Bi22  1  0.166508  0.333669  0.733227  1
  Sb  Sb23  1  0.166304  0.832879  0.733418  1
