# generated using pymatgen
data_Lu4HfPd3F28
_symmetry_space_group_name_H-M   'P 1'
_cell_length_a   5.49718427
_cell_length_b   8.73839943
_cell_length_c   11.80783731
_cell_angle_alpha   62.78741615
_cell_angle_beta   90.08886738
_cell_angle_gamma   90.03402420
_symmetry_Int_Tables_number   1
_chemical_formula_structural   Lu4HfPd3F28
_chemical_formula_sum   'Lu4 Hf1 Pd3 F28'
_cell_volume   504.42674878
_cell_formula_units_Z   1
loop_
 _symmetry_equiv_pos_site_id
 _symmetry_equiv_pos_as_xyz
  1  'x, y, z'
loop_
 _atom_site_type_symbol
 _atom_site_label
 _atom_site_symmetry_multiplicity
 _atom_site_fract_x
 _atom_site_fract_y
 _atom_site_fract_z
 _atom_site_occupancy
  Lu  Lu0  1  0.259137  0.813574  0.270310  1
  Lu  Lu1  1  0.739267  0.185152  0.735667  1
  Lu  Lu2  1  0.762238  0.181557  0.238026  1
  Lu  Lu3  1  0.240603  0.815937  0.761655  1
  Hf  Hf4  1  0.756048  0.725309  0.043784  1
  Pd  Pd5  1  0.239336  0.271822  0.956123  1
  Pd  Pd6  1  0.260830  0.271145  0.457603  1
  Pd  Pd7  1  0.740918  0.726671  0.544455  1
  F  F8  1  0.936178  0.700468  0.417228  1
  F  F9  1  0.062165  0.298610  0.582830  1
  F  F10  1  0.438006  0.298861  0.082528  1
  F  F11  1  0.536508  0.709167  0.915614  1
  F  F12  1  0.475688  0.731902  0.149492  1
  F  F13  1  0.528700  0.277256  0.859522  1
  F  F14  1  0.969726  0.273280  0.362071  1
  F  F15  1  0.033760  0.725259  0.637452  1
  F  F16  1  0.967222  0.750578  0.174219  1
  F  F17  1  0.048621  0.254088  0.822450  1
  F  F18  1  0.455486  0.254457  0.324212  1
  F  F19  1  0.551393  0.743963  0.678022  1
  F  F20  1  0.776983  0.468501  0.142582  1
  F  F21  1  0.218601  0.521835  0.855211  1
  F  F22  1  0.272597  0.521515  0.358754  1
  F  F23  1  0.727275  0.476076  0.643667  1
  F  F24  1  0.938848  0.274389  0.044940  1
  F  F25  1  0.058802  0.725460  0.948242  1
  F  F26  1  0.438347  0.718416  0.459741  1
  F  F27  1  0.561144  0.279951  0.543278  1
  F  F28  1  0.744695  0.976175  0.451628  1
  F  F29  1  0.258367  0.021513  0.549041  1
  F  F30  1  0.247415  0.022531  0.050884  1
  F  F31  1  0.756945  0.981014  0.940404  1
  F  F32  1  0.577248  0.971659  0.235820  1
  F  F33  1  0.420392  0.029950  0.763683  1
  F  F34  1  0.079171  0.027538  0.269381  1
  F  F35  1  0.921340  0.974423  0.729480  1
