# generated using pymatgen
data_Hf18NbRe7B2
_symmetry_space_group_name_H-M   'P 1'
_cell_length_a   8.49944700
_cell_length_b   8.49944723
_cell_length_c   8.52933100
_cell_angle_alpha   90.00000000
_cell_angle_beta   90.00000000
_cell_angle_gamma   120.00000299
_symmetry_Int_Tables_number   1
_chemical_formula_structural   Hf18NbRe7B2
_chemical_formula_sum   'Hf18 Nb1 Re7 B2'
_cell_volume   533.61366082
_cell_formula_units_Z   1
loop_
 _symmetry_equiv_pos_site_id
 _symmetry_equiv_pos_as_xyz
  1  'x, y, z'
loop_
 _atom_site_type_symbol
 _atom_site_label
 _atom_site_symmetry_multiplicity
 _atom_site_fract_x
 _atom_site_fract_y
 _atom_site_fract_z
 _atom_site_occupancy
  Hf  Hf0  1  0.203254  0.796746  0.444409  1
  Hf  Hf1  1  0.203254  0.406509  0.444409  1
  Hf  Hf2  1  0.593491  0.796746  0.444409  1
  Hf  Hf3  1  0.796746  0.203254  0.555591  1
  Hf  Hf4  1  0.796746  0.593491  0.555591  1
  Hf  Hf5  1  0.406509  0.203254  0.555591  1
  Hf  Hf6  1  0.799296  0.200704  0.944063  1
  Hf  Hf7  1  0.799296  0.598593  0.944063  1
  Hf  Hf8  1  0.401407  0.200704  0.944063  1
  Hf  Hf9  1  0.200704  0.799296  0.055937  1
  Hf  Hf10  1  0.200704  0.401407  0.055937  1
  Hf  Hf11  1  0.598593  0.799296  0.055937  1
  Hf  Hf12  1  0.540170  0.459830  0.248840  1
  Hf  Hf13  1  0.540170  0.080341  0.248840  1
  Hf  Hf14  1  0.919659  0.459830  0.248840  1
  Hf  Hf15  1  0.459830  0.540170  0.751160  1
  Hf  Hf16  1  0.459830  0.919659  0.751160  1
  Hf  Hf17  1  0.080341  0.540170  0.751160  1
  Nb  Nb18  1  0.000000  0.000000  0.500000  1
  Re  Re19  1  0.887974  0.112026  0.249778  1
  Re  Re20  1  0.887974  0.775950  0.249778  1
  Re  Re21  1  0.224050  0.112026  0.249778  1
  Re  Re22  1  0.112026  0.887974  0.750222  1
  Re  Re23  1  0.112026  0.224050  0.750222  1
  Re  Re24  1  0.775950  0.887974  0.750222  1
  Re  Re25  1  0.000000  0.000000  0.000000  1
  B  B26  1  0.333333  0.666667  0.248727  1
  B  B27  1  0.666667  0.333333  0.751273  1
