# generated using pymatgen
data_K3Rb(Ga3S5)4
_symmetry_space_group_name_H-M   'P 1'
_cell_length_a   12.78760934
_cell_length_b   7.17755112
_cell_length_c   10.61141200
_cell_angle_alpha   75.75915703
_cell_angle_beta   89.83606916
_cell_angle_gamma   90.12190388
_symmetry_Int_Tables_number   1
_chemical_formula_structural   K3Rb(Ga3S5)4
_chemical_formula_sum   'K3 Rb1 Ga12 S20'
_cell_volume   944.01757222
_cell_formula_units_Z   1
loop_
 _symmetry_equiv_pos_site_id
 _symmetry_equiv_pos_as_xyz
  1  'x, y, z'
loop_
 _atom_site_type_symbol
 _atom_site_label
 _atom_site_symmetry_multiplicity
 _atom_site_fract_x
 _atom_site_fract_y
 _atom_site_fract_z
 _atom_site_occupancy
  K  K0  1  0.128350  0.160715  0.131552  1
  K  K1  1  0.370556  0.161152  0.632255  1
  K  K2  1  0.872090  0.839544  0.868589  1
  Rb  Rb3  1  0.618225  0.837596  0.384293  1
  Ga  Ga4  1  0.923139  0.802990  0.399250  1
  Ga  Ga5  1  0.578645  0.801819  0.897658  1
  Ga  Ga6  1  0.421330  0.199363  0.100277  1
  Ga  Ga7  1  0.395219  0.562869  0.806471  1
  Ga  Ga8  1  0.104902  0.561808  0.306919  1
  Ga  Ga9  1  0.336702  0.707417  0.125339  1
  Ga  Ga10  1  0.605681  0.437261  0.191284  1
  Ga  Ga11  1  0.078126  0.197270  0.600859  1
  Ga  Ga12  1  0.662521  0.292956  0.872475  1
  Ga  Ga13  1  0.896611  0.436939  0.693895  1
  Ga  Ga14  1  0.162971  0.706898  0.625782  1
  Ga  Ga15  1  0.838194  0.292665  0.373651  1
  S  S16  1  0.829985  0.718470  0.584291  1
  S  S17  1  0.105887  0.812623  0.411657  1
  S  S18  1  0.674324  0.717237  0.079548  1
  S  S19  1  0.396078  0.813422  0.911433  1
  S  S20  1  0.326158  0.283151  0.917667  1
  S  S21  1  0.664340  0.339905  0.397634  1
  S  S22  1  0.577660  0.576547  0.767064  1
  S  S23  1  0.603665  0.186228  0.086491  1
  S  S24  1  0.895538  0.187282  0.588202  1
  S  S25  1  0.629174  0.075156  0.754050  1
  S  S26  1  0.366297  0.928232  0.242442  1
  S  S27  1  0.173714  0.282347  0.417928  1
  S  S28  1  0.078758  0.421910  0.731862  1
  S  S29  1  0.922677  0.577559  0.269196  1
  S  S30  1  0.874113  0.076029  0.255585  1
  S  S31  1  0.129352  0.924879  0.743913  1
  S  S32  1  0.835639  0.342146  0.899476  1
  S  S33  1  0.336652  0.658058  0.600269  1
  S  S34  1  0.422945  0.424990  0.230542  1
  S  S35  1  0.163785  0.654567  0.100204  1
