# generated using pymatgen
data_SmDyNiOs3
_symmetry_space_group_name_H-M   'P 1'
_cell_length_a   5.37246405
_cell_length_b   5.37246369
_cell_length_c   5.37246460
_cell_angle_alpha   58.78906880
_cell_angle_beta   58.78907056
_cell_angle_gamma   58.78907129
_symmetry_Int_Tables_number   1
_chemical_formula_structural   SmDyNiOs3
_chemical_formula_sum   'Sm1 Dy1 Ni1 Os3'
_cell_volume   106.61680743
_cell_formula_units_Z   1
loop_
 _symmetry_equiv_pos_site_id
 _symmetry_equiv_pos_as_xyz
  1  'x, y, z'
loop_
 _atom_site_type_symbol
 _atom_site_label
 _atom_site_symmetry_multiplicity
 _atom_site_fract_x
 _atom_site_fract_y
 _atom_site_fract_z
 _atom_site_occupancy
  Sm  Sm0  1  0.248511  0.248511  0.248511  1
  Dy  Dy1  1  0.001931  0.001931  0.001931  1
  Ni  Ni2  1  0.625319  0.625319  0.625319  1
  Os  Os3  1  0.624816  0.624816  0.124606  1
  Os  Os4  1  0.624816  0.124606  0.624816  1
  Os  Os5  1  0.124606  0.624816  0.624816  1
