# generated using pymatgen
data_ZrTa2Re3Si2B
_symmetry_space_group_name_H-M   'P 1'
_cell_length_a   6.80682666
_cell_length_b   6.79955026
_cell_length_c   3.26586000
_cell_angle_alpha   90.00000000
_cell_angle_beta   90.00000000
_cell_angle_gamma   119.96465472
_symmetry_Int_Tables_number   1
_chemical_formula_structural   ZrTa2Re3Si2B
_chemical_formula_sum   'Zr1 Ta2 Re3 Si2 B1'
_cell_volume   130.95064565
_cell_formula_units_Z   1
loop_
 _symmetry_equiv_pos_site_id
 _symmetry_equiv_pos_as_xyz
  1  'x, y, z'
loop_
 _atom_site_type_symbol
 _atom_site_label
 _atom_site_symmetry_multiplicity
 _atom_site_fract_x
 _atom_site_fract_y
 _atom_site_fract_z
 _atom_site_occupancy
  Zr  Zr0  1  0.000000  0.605505  0.000000  1
  Ta  Ta1  1  0.607496  0.000033  0.000000  1
  Ta  Ta2  1  0.392504  0.392537  0.000000  1
  Re  Re3  1  0.245931  0.005592  0.500000  1
  Re  Re4  1  0.754069  0.759661  0.500000  1
  Re  Re5  1  0.000000  0.238999  0.500000  1
  Si  Si6  1  0.338463  0.667654  0.500000  1
  Si  Si7  1  0.661537  0.329190  0.500000  1
  B  B8  1  0.000000  0.000829  0.000000  1
