# generated using pymatgen
data_SrMn3CoO8
_symmetry_space_group_name_H-M   'P 1'
_cell_length_a   5.88988729
_cell_length_b   5.88988691
_cell_length_c   6.75549110
_cell_angle_alpha   66.25278191
_cell_angle_beta   66.25277222
_cell_angle_gamma   58.71880726
_symmetry_Int_Tables_number   1
_chemical_formula_structural   SrMn3CoO8
_chemical_formula_sum   'Sr1 Mn3 Co1 O8'
_cell_volume   177.62393610
_cell_formula_units_Z   1
loop_
 _symmetry_equiv_pos_site_id
 _symmetry_equiv_pos_as_xyz
  1  'x, y, z'
loop_
 _atom_site_type_symbol
 _atom_site_label
 _atom_site_symmetry_multiplicity
 _atom_site_fract_x
 _atom_site_fract_y
 _atom_site_fract_z
 _atom_site_occupancy
  Sr  Sr0  1  0.000000  0.000000  0.500000  1
  Mn  Mn1  1  0.500000  0.500000  0.000000  1
  Mn  Mn2  1  0.500000  0.000000  0.000000  1
  Mn  Mn3  1  0.000000  0.500000  0.000000  1
  Co  Co4  1  0.000000  0.000000  0.000000  1
  O  O5  1  0.715253  0.212583  0.835807  1
  O  O6  1  0.212583  0.715253  0.835807  1
  O  O7  1  0.259253  0.259253  0.182047  1
  O  O8  1  0.784032  0.784032  0.164679  1
  O  O9  1  0.215968  0.215968  0.835321  1
  O  O10  1  0.740747  0.740747  0.817954  1
  O  O11  1  0.787417  0.284747  0.164193  1
  O  O12  1  0.284747  0.787417  0.164193  1
