# generated using pymatgen
data_La11NdAl3Ga5Rh8
_symmetry_space_group_name_H-M   'P 1'
_cell_length_a   5.80426418
_cell_length_b   8.34553896
_cell_length_c   13.74680989
_cell_angle_alpha   89.97365401
_cell_angle_beta   90.00995565
_cell_angle_gamma   90.13675950
_symmetry_Int_Tables_number   1
_chemical_formula_structural   La11NdAl3Ga5Rh8
_chemical_formula_sum   'La11 Nd1 Al3 Ga5 Rh8'
_cell_volume   665.88954635
_cell_formula_units_Z   1
loop_
 _symmetry_equiv_pos_site_id
 _symmetry_equiv_pos_as_xyz
  1  'x, y, z'
loop_
 _atom_site_type_symbol
 _atom_site_label
 _atom_site_symmetry_multiplicity
 _atom_site_fract_x
 _atom_site_fract_y
 _atom_site_fract_z
 _atom_site_occupancy
  La  La0  1  0.363044  0.742071  0.749239  1
  La  La1  1  0.363449  0.758824  0.250850  1
  La  La2  1  0.635895  0.241433  0.748852  1
  La  La3  1  0.146829  0.401095  0.096898  1
  La  La4  1  0.853861  0.598865  0.904146  1
  La  La5  1  0.850519  0.597920  0.595437  1
  La  La6  1  0.850694  0.902223  0.403471  1
  La  La7  1  0.149619  0.398889  0.404322  1
  La  La8  1  0.149542  0.101891  0.594827  1
  La  La9  1  0.146692  0.099957  0.903793  1
  La  La10  1  0.854007  0.901231  0.096881  1
  Nd  Nd11  1  0.637470  0.257345  0.250929  1
  Al  Al12  1  0.621477  0.249630  0.001694  1
  Al  Al13  1  0.379815  0.750056  0.000139  1
  Al  Al14  1  0.375058  0.749898  0.499923  1
  Ga  Ga15  1  0.142793  0.113047  0.249899  1
  Ga  Ga16  1  0.858917  0.890117  0.749451  1
  Ga  Ga17  1  0.857148  0.607410  0.250643  1
  Ga  Ga18  1  0.140508  0.390932  0.750113  1
  Ga  Ga19  1  0.634224  0.249520  0.498240  1
  Rh  Rh20  1  0.363093  0.028547  0.090272  1
  Rh  Rh21  1  0.636806  0.971286  0.909725  1
  Rh  Rh22  1  0.632096  0.967035  0.591111  1
  Rh  Rh23  1  0.630262  0.533000  0.408780  1
  Rh  Rh24  1  0.361360  0.027032  0.409367  1
  Rh  Rh25  1  0.363551  0.471584  0.590672  1
  Rh  Rh26  1  0.365661  0.470182  0.909900  1
  Rh  Rh27  1  0.635613  0.528981  0.090423  1
