# generated using pymatgen
data_HoEr4Mn2O12
_symmetry_space_group_name_H-M   'P 1'
_cell_length_a   6.76033185
_cell_length_b   6.76033216
_cell_length_c   7.16976700
_cell_angle_alpha   74.55155633
_cell_angle_beta   74.55155726
_cell_angle_gamma   50.12165241
_symmetry_Int_Tables_number   1
_chemical_formula_structural   HoEr4Mn2O12
_chemical_formula_sum   'Ho1 Er4 Mn2 O12'
_cell_volume   240.34168662
_cell_formula_units_Z   1
loop_
 _symmetry_equiv_pos_site_id
 _symmetry_equiv_pos_as_xyz
  1  'x, y, z'
loop_
 _atom_site_type_symbol
 _atom_site_label
 _atom_site_symmetry_multiplicity
 _atom_site_fract_x
 _atom_site_fract_y
 _atom_site_fract_z
 _atom_site_occupancy
  Ho  Ho0  1  0.000000  0.000000  0.500000  1
  Er  Er1  1  0.304696  0.304696  0.356758  1
  Er  Er2  1  0.695304  0.695304  0.643242  1
  Er  Er3  1  0.307596  0.307596  0.835361  1
  Er  Er4  1  0.692404  0.692404  0.164639  1
  Mn  Mn5  1  0.754135  0.245865  0.000000  1
  Mn  Mn6  1  0.245865  0.754135  0.000000  1
  O  O7  1  0.901955  0.423322  0.917720  1
  O  O8  1  0.423322  0.901955  0.917720  1
  O  O9  1  0.098045  0.576678  0.082280  1
  O  O10  1  0.576678  0.098045  0.082280  1
  O  O11  1  0.097263  0.597379  0.574398  1
  O  O12  1  0.597379  0.097263  0.574398  1
  O  O13  1  0.902737  0.402621  0.425602  1
  O  O14  1  0.402621  0.902737  0.425602  1
  O  O15  1  0.999716  0.999716  0.820420  1
  O  O16  1  0.000284  0.000284  0.179580  1
  O  O17  1  0.499987  0.499987  0.817539  1
  O  O18  1  0.500013  0.500013  0.182461  1
