# generated using pymatgen
data_TbY3Ho4(CdNi)2
_symmetry_space_group_name_H-M   'P 1'
_cell_length_a   9.55691743
_cell_length_b   9.55703080
_cell_length_c   9.55815339
_cell_angle_alpha   60.11207981
_cell_angle_beta   60.11240010
_cell_angle_gamma   60.12894801
_symmetry_Int_Tables_number   1
_chemical_formula_structural   TbY3Ho4(CdNi)2
_chemical_formula_sum   'Tb2 Y6 Ho8 Cd4 Ni4'
_cell_volume   618.95261009
_cell_formula_units_Z   2
loop_
 _symmetry_equiv_pos_site_id
 _symmetry_equiv_pos_as_xyz
  1  'x, y, z'
loop_
 _atom_site_type_symbol
 _atom_site_label
 _atom_site_symmetry_multiplicity
 _atom_site_fract_x
 _atom_site_fract_y
 _atom_site_fract_z
 _atom_site_occupancy
  Tb  Tb0  1  0.596383  0.596351  0.596576  1
  Tb  Tb1  1  0.600384  0.600303  0.200985  1
  Y  Y2  1  0.186127  0.814174  0.813999  1
  Y  Y3  1  0.811681  0.187909  0.188040  1
  Y  Y4  1  0.814211  0.186134  0.813961  1
  Y  Y5  1  0.187961  0.811700  0.188006  1
  Y  Y6  1  0.814088  0.814158  0.185770  1
  Y  Y7  1  0.188158  0.188209  0.811485  1
  Ho  Ho8  1  0.600137  0.201626  0.600492  1
  Ho  Ho9  1  0.201613  0.600154  0.600465  1
  Ho  Ho10  1  0.062652  0.439276  0.439144  1
  Ho  Ho11  1  0.436316  0.063457  0.063202  1
  Ho  Ho12  1  0.439219  0.062690  0.439168  1
  Ho  Ho13  1  0.063400  0.436294  0.063245  1
  Ho  Ho14  1  0.438949  0.438947  0.063011  1
  Ho  Ho15  1  0.062855  0.062802  0.436771  1
  Cd  Cd16  1  0.830561  0.830611  0.829464  1
  Cd  Cd17  1  0.830634  0.830627  0.506414  1
  Cd  Cd18  1  0.830685  0.506666  0.829994  1
  Cd  Cd19  1  0.506652  0.830705  0.829983  1
  Ni  Ni20  1  0.393207  0.393233  0.394461  1
  Ni  Ni21  1  0.390310  0.390378  0.823184  1
  Ni  Ni22  1  0.389952  0.823815  0.391045  1
  Ni  Ni23  1  0.823865  0.389784  0.391133  1
