# generated using pymatgen
data_Ca8TbSm(Sn3H)2
_symmetry_space_group_name_H-M   'P 1'
_cell_length_a   9.42638337
_cell_length_b   9.42638226
_cell_length_c   9.42819119
_cell_angle_alpha   128.89386476
_cell_angle_beta   128.89387255
_cell_angle_gamma   75.15040889
_symmetry_Int_Tables_number   1
_chemical_formula_structural   Ca8TbSm(Sn3H)2
_chemical_formula_sum   'Ca8 Tb1 Sm1 Sn6 H2'
_cell_volume   494.15168661
_cell_formula_units_Z   1
loop_
 _symmetry_equiv_pos_site_id
 _symmetry_equiv_pos_as_xyz
  1  'x, y, z'
loop_
 _atom_site_type_symbol
 _atom_site_label
 _atom_site_symmetry_multiplicity
 _atom_site_fract_x
 _atom_site_fract_y
 _atom_site_fract_z
 _atom_site_occupancy
  Ca  Ca0  1  0.500687  0.501080  0.999911  1
  Ca  Ca1  1  0.001080  0.000687  0.999911  1
  Ca  Ca2  1  0.008153  0.186515  0.500263  1
  Ca  Ca3  1  0.686515  0.508153  0.500263  1
  Ca  Ca4  1  0.489132  0.989132  0.179423  1
  Ca  Ca5  1  0.810239  0.310239  0.821119  1
  Ca  Ca6  1  0.988026  0.812003  0.499600  1
  Ca  Ca7  1  0.312003  0.488026  0.499600  1
  Tb  Tb8  1  0.187538  0.687538  0.169919  1
  Sm  Sm9  1  0.518472  0.018472  0.832481  1
  Sn  Sn10  1  0.253163  0.255080  0.000336  1
  Sn  Sn11  1  0.755080  0.753163  0.000336  1
  Sn  Sn12  1  0.870294  0.370294  0.243480  1
  Sn  Sn13  1  0.127747  0.627747  0.758621  1
  Sn  Sn14  1  0.365720  0.122006  0.498867  1
  Sn  Sn15  1  0.622006  0.865720  0.498867  1
  H  H16  1  0.256568  0.756568  0.497109  1
  H  H17  1  0.747576  0.247576  0.499894  1
