# generated using pymatgen
data_Nd6Zn3GaPt13
_symmetry_space_group_name_H-M   'P 1'
_cell_length_a   8.43151318
_cell_length_b   8.38478200
_cell_length_c   8.38478229
_cell_angle_alpha   109.35804734
_cell_angle_beta   109.58415875
_cell_angle_gamma   109.58416327
_symmetry_Int_Tables_number   1
_chemical_formula_structural   Nd6Zn3GaPt13
_chemical_formula_sum   'Nd6 Zn3 Ga1 Pt13'
_cell_volume   455.67998062
_cell_formula_units_Z   1
loop_
 _symmetry_equiv_pos_site_id
 _symmetry_equiv_pos_as_xyz
  1  'x, y, z'
loop_
 _atom_site_type_symbol
 _atom_site_label
 _atom_site_symmetry_multiplicity
 _atom_site_fract_x
 _atom_site_fract_y
 _atom_site_fract_z
 _atom_site_occupancy
  Nd  Nd0  1  0.699299  0.697822  0.000000  1
  Nd  Nd1  1  0.300701  0.000000  0.302178  1
  Nd  Nd2  1  0.001476  0.302178  0.302178  1
  Nd  Nd3  1  0.300701  0.302178  0.000000  1
  Nd  Nd4  1  0.699299  0.000000  0.697822  1
  Nd  Nd5  1  0.998524  0.697822  0.697822  1
  Zn  Zn6  1  0.000000  0.000000  0.500000  1
  Zn  Zn7  1  0.000000  0.500000  0.000000  1
  Zn  Zn8  1  0.500000  0.500000  0.500000  1
  Ga  Ga9  1  0.500000  0.000000  0.000000  1
  Pt  Pt10  1  0.328405  0.328405  0.656808  1
  Pt  Pt11  1  0.674691  0.000000  0.325152  1
  Pt  Pt12  1  0.000000  0.671595  0.328405  1
  Pt  Pt13  1  0.674691  0.325152  0.000000  1
  Pt  Pt14  1  0.328405  0.656808  0.328405  1
  Pt  Pt15  1  0.000000  0.328405  0.671595  1
  Pt  Pt16  1  0.325309  0.674848  0.000000  1
  Pt  Pt17  1  0.325309  0.000000  0.674848  1
  Pt  Pt18  1  0.650460  0.325152  0.325152  1
  Pt  Pt19  1  0.671595  0.671595  0.343192  1
  Pt  Pt20  1  0.671595  0.343192  0.671595  1
  Pt  Pt21  1  0.349540  0.674848  0.674848  1
  Pt  Pt22  1  0.000000  0.000000  0.000000  1
