# generated using pymatgen
data_FeCo7Si4(Mo3N)4
_symmetry_space_group_name_H-M   'P 1'
_cell_length_a   7.80893132
_cell_length_b   7.82017966
_cell_length_c   7.82018000
_cell_angle_alpha   59.99999857
_cell_angle_beta   59.95233754
_cell_angle_gamma   59.95233926
_symmetry_Int_Tables_number   1
_chemical_formula_structural   FeCo7Si4(Mo3N)4
_chemical_formula_sum   'Fe1 Co7 Si4 Mo12 N4'
_cell_volume   337.44021328
_cell_formula_units_Z   1
loop_
 _symmetry_equiv_pos_site_id
 _symmetry_equiv_pos_as_xyz
  1  'x, y, z'
loop_
 _atom_site_type_symbol
 _atom_site_label
 _atom_site_symmetry_multiplicity
 _atom_site_fract_x
 _atom_site_fract_y
 _atom_site_fract_z
 _atom_site_occupancy
  Fe  Fe0  1  0.242327  0.919225  0.919225  1
  Co  Co1  1  0.918791  0.243817  0.918697  1
  Co  Co2  1  0.918791  0.918697  0.918697  1
  Co  Co3  1  0.918791  0.918697  0.243817  1
  Co  Co4  1  0.997820  0.334060  0.334060  1
  Co  Co5  1  0.334331  0.333058  0.999553  1
  Co  Co6  1  0.334331  0.999553  0.333058  1
  Co  Co7  1  0.334331  0.333058  0.333058  1
  Si  Si8  1  0.622455  0.125848  0.125848  1
  Si  Si9  1  0.124810  0.128125  0.618940  1
  Si  Si10  1  0.124810  0.618940  0.128125  1
  Si  Si11  1  0.124810  0.128125  0.128125  1
  Mo  Mo12  1  0.697553  0.302509  0.697430  1
  Mo  Mo13  1  0.556083  0.555519  0.944199  1
  Mo  Mo14  1  0.556083  0.944199  0.555519  1
  Mo  Mo15  1  0.944946  0.944094  0.555480  1
  Mo  Mo16  1  0.944946  0.555480  0.555480  1
  Mo  Mo17  1  0.944946  0.555480  0.944094  1
  Mo  Mo18  1  0.697553  0.302509  0.302509  1
  Mo  Mo19  1  0.302069  0.698471  0.300990  1
  Mo  Mo20  1  0.302069  0.300990  0.698471  1
  Mo  Mo21  1  0.302069  0.698471  0.698471  1
  Mo  Mo22  1  0.697553  0.697430  0.302509  1
  Mo  Mo23  1  0.556083  0.944199  0.944199  1
  N  N24  1  0.624939  0.624539  0.624539  1
  N  N25  1  0.126834  0.624389  0.624389  1
  N  N26  1  0.624939  0.125984  0.624539  1
  N  N27  1  0.624939  0.624539  0.125984  1
