# generated using pymatgen
data_Tb10Ga3NiBi2
_symmetry_space_group_name_H-M   'P 1'
_cell_length_a   8.59372876
_cell_length_b   8.59372881
_cell_length_c   8.78514611
_cell_angle_alpha   124.03471518
_cell_angle_beta   124.03471850
_cell_angle_gamma   81.70188288
_symmetry_Int_Tables_number   1
_chemical_formula_structural   Tb10Ga3NiBi2
_chemical_formula_sum   'Tb10 Ga3 Ni1 Bi2'
_cell_volume   431.86771382
_cell_formula_units_Z   1
loop_
 _symmetry_equiv_pos_site_id
 _symmetry_equiv_pos_as_xyz
  1  'x, y, z'
loop_
 _atom_site_type_symbol
 _atom_site_label
 _atom_site_symmetry_multiplicity
 _atom_site_fract_x
 _atom_site_fract_y
 _atom_site_fract_z
 _atom_site_occupancy
  Tb  Tb0  1  0.993834  0.996393  0.990228  1
  Tb  Tb1  1  0.503607  0.506166  0.009772  1
  Tb  Tb2  1  0.779840  0.296584  0.795177  1
  Tb  Tb3  1  0.203416  0.720160  0.204823  1
  Tb  Tb4  1  0.484663  0.001407  0.204823  1
  Tb  Tb5  1  0.303591  0.459309  0.500000  1
  Tb  Tb6  1  0.040691  0.196409  0.500000  1
  Tb  Tb7  1  0.498593  0.015337  0.795177  1
  Tb  Tb8  1  0.704838  0.516389  0.500000  1
  Tb  Tb9  1  0.983611  0.795162  0.500000  1
  Ga  Ga10  1  0.147131  0.644692  0.791822  1
  Ga  Ga11  1  0.855308  0.352869  0.208178  1
  Ga  Ga12  1  0.634247  0.865753  0.500000  1
  Ni  Ni13  1  0.377555  0.122445  0.500000  1
  Bi  Bi14  1  0.244536  0.255464  0.000000  1
  Bi  Bi15  1  0.744536  0.755464  0.000000  1
