# generated using pymatgen
data_Ce5YHo2(AlRu)8
_symmetry_space_group_name_H-M   'P 1'
_cell_length_a   4.01633200
_cell_length_b   7.22344781
_cell_length_c   16.01623933
_cell_angle_alpha   90.70957947
_cell_angle_beta   90.00000000
_cell_angle_gamma   90.00000000
_symmetry_Int_Tables_number   1
_chemical_formula_structural   Ce5YHo2(AlRu)8
_chemical_formula_sum   'Ce5 Y1 Ho2 Al8 Ru8'
_cell_volume   464.62373179
_cell_formula_units_Z   1
loop_
 _symmetry_equiv_pos_site_id
 _symmetry_equiv_pos_as_xyz
  1  'x, y, z'
loop_
 _atom_site_type_symbol
 _atom_site_label
 _atom_site_symmetry_multiplicity
 _atom_site_fract_x
 _atom_site_fract_y
 _atom_site_fract_z
 _atom_site_occupancy
  Ce  Ce0  1  0.750000  0.823334  0.437920  1
  Ce  Ce1  1  0.750000  0.455352  0.281541  1
  Ce  Ce2  1  0.750000  0.331252  0.061421  1
  Ce  Ce3  1  0.250000  0.043720  0.780673  1
  Ce  Ce4  1  0.250000  0.542093  0.720178  1
  Y  Y5  1  0.750000  0.960776  0.218261  1
  Ho  Ho6  1  0.250000  0.162270  0.561192  1
  Ho  Ho7  1  0.250000  0.666868  0.938871  1
  Al  Al8  1  0.750000  0.490639  0.562788  1
  Al  Al9  1  0.750000  0.372501  0.853760  1
  Al  Al10  1  0.750000  0.994742  0.937357  1
  Al  Al11  1  0.750000  0.870980  0.647467  1
  Al  Al12  1  0.250000  0.484553  0.437921  1
  Al  Al13  1  0.250000  0.994290  0.065188  1
  Al  Al14  1  0.250000  0.640165  0.152911  1
  Al  Al15  1  0.250000  0.122940  0.344768  1
  Ru  Ru16  1  0.750000  0.757387  0.807931  1
  Ru  Ru17  1  0.250000  0.237420  0.938300  1
  Ru  Ru18  1  0.750000  0.261163  0.426950  1
  Ru  Ru19  1  0.250000  0.749180  0.325146  1
  Ru  Ru20  1  0.750000  0.764385  0.065790  1
  Ru  Ru21  1  0.750000  0.261722  0.692153  1
  Ru  Ru22  1  0.250000  0.276491  0.179075  1
  Ru  Ru23  1  0.250000  0.735777  0.562438  1
