# generated using pymatgen
data_Tb3Ho3Al24GaRu7
_symmetry_space_group_name_H-M   'P 1'
_cell_length_a   8.85401726
_cell_length_b   8.85286486
_cell_length_c   9.55310736
_cell_angle_alpha   90.15904964
_cell_angle_beta   89.81913373
_cell_angle_gamma   119.89330846
_symmetry_Int_Tables_number   1
_chemical_formula_structural   Tb3Ho3Al24GaRu7
_chemical_formula_sum   'Tb3 Ho3 Al24 Ga1 Ru7'
_cell_volume   649.17653194
_cell_formula_units_Z   1
loop_
 _symmetry_equiv_pos_site_id
 _symmetry_equiv_pos_as_xyz
  1  'x, y, z'
loop_
 _atom_site_type_symbol
 _atom_site_label
 _atom_site_symmetry_multiplicity
 _atom_site_fract_x
 _atom_site_fract_y
 _atom_site_fract_z
 _atom_site_occupancy
  Tb  Tb0  1  0.193032  0.384796  0.245825  1
  Tb  Tb1  1  0.806798  0.615043  0.754181  1
  Tb  Tb2  1  0.615193  0.806987  0.245885  1
  Ho  Ho3  1  0.385485  0.193102  0.753875  1
  Ho  Ho4  1  0.194086  0.805797  0.254974  1
  Ho  Ho5  1  0.805728  0.194237  0.744921  1
  Al  Al6  1  0.326691  0.673307  0.020631  1
  Al  Al7  1  0.672974  0.326591  0.979070  1
  Al  Al8  1  0.666139  0.333439  0.516953  1
  Al  Al9  1  0.333566  0.666403  0.483314  1
  Al  Al10  1  0.161785  0.324014  0.574968  1
  Al  Al11  1  0.838404  0.675878  0.425242  1
  Al  Al12  1  0.675901  0.838345  0.574892  1
  Al  Al13  1  0.853682  0.679537  0.082531  1
  Al  Al14  1  0.324090  0.161603  0.425426  1
  Al  Al15  1  0.146488  0.320382  0.917288  1
  Al  Al16  1  0.162602  0.837754  0.578593  1
  Al  Al17  1  0.320457  0.146321  0.082300  1
  Al  Al18  1  0.837524  0.162507  0.421587  1
  Al  Al19  1  0.679574  0.853720  0.917411  1
  Al  Al20  1  0.837528  0.162439  0.078945  1
  Al  Al21  1  0.162599  0.837835  0.920868  1
  Al  Al22  1  0.561295  0.120832  0.248912  1
  Al  Al23  1  0.438579  0.879518  0.751058  1
  Al  Al24  1  0.879181  0.438704  0.248963  1
  Al  Al25  1  0.120875  0.561329  0.751058  1
  Al  Al26  1  0.565731  0.434264  0.258637  1
  Al  Al27  1  0.434156  0.565315  0.741469  1
  Al  Al28  1  0.999156  0.000869  0.250679  1
  Al  Al29  1  0.001354  0.999423  0.749336  1
  Ga  Ga30  1  0.499945  0.499954  0.999956  1
  Ru  Ru31  1  0.499875  0.000111  0.999763  1
  Ru  Ru32  1  0.999889  0.499929  0.999964  1
  Ru  Ru33  1  0.499928  0.000109  0.500190  1
  Ru  Ru34  1  0.999835  0.499905  0.500093  1
  Ru  Ru35  1  0.499883  0.499712  0.500232  1
  Ru  Ru36  1  0.999991  0.999981  0.999981  1
  Ru  Ru37  1  0.000002  0.000010  0.500032  1
