# generated using pymatgen
data_Sm3Bi(AuO5)2
_symmetry_space_group_name_H-M   'P 1'
_cell_length_a   8.63901650
_cell_length_b   8.63901650
_cell_length_c   5.85846553
_cell_angle_alpha   88.66382857
_cell_angle_beta   91.33617143
_cell_angle_gamma   90.01242147
_symmetry_Int_Tables_number   1
_chemical_formula_structural   Sm3Bi(AuO5)2
_chemical_formula_sum   'Sm6 Bi2 Au4 O20'
_cell_volume   436.99478136
_cell_formula_units_Z   2
loop_
 _symmetry_equiv_pos_site_id
 _symmetry_equiv_pos_as_xyz
  1  'x, y, z'
loop_
 _atom_site_type_symbol
 _atom_site_label
 _atom_site_symmetry_multiplicity
 _atom_site_fract_x
 _atom_site_fract_y
 _atom_site_fract_z
 _atom_site_occupancy
  Sm  Sm0  1  0.350837  0.653229  0.246834  1
  Sm  Sm1  1  0.846771  0.149163  0.746834  1
  Sm  Sm2  1  0.651507  0.651507  0.750000  1
  Sm  Sm3  1  0.653229  0.350837  0.253166  1
  Sm  Sm4  1  0.848493  0.848493  0.250000  1
  Sm  Sm5  1  0.149163  0.846771  0.753166  1
  Bi  Bi6  1  0.356816  0.356816  0.750000  1
  Bi  Bi7  1  0.143184  0.143184  0.250000  1
  Au  Au8  1  0.493475  0.998893  0.404374  1
  Au  Au9  1  0.501107  0.006525  0.904374  1
  Au  Au10  1  0.998893  0.493475  0.095626  1
  Au  Au11  1  0.006525  0.501107  0.595626  1
  O  O12  1  0.109160  0.292424  0.600795  1
  O  O13  1  0.913202  0.277961  0.118981  1
  O  O14  1  0.912147  0.715922  0.609536  1
  O  O15  1  0.715922  0.912147  0.890464  1
  O  O16  1  0.222039  0.586798  0.618981  1
  O  O17  1  0.409481  0.791492  0.896105  1
  O  O18  1  0.390840  0.207576  0.399205  1
  O  O19  1  0.784078  0.587853  0.109536  1
  O  O20  1  0.277961  0.913202  0.381019  1
  O  O21  1  0.586798  0.222039  0.881019  1
  O  O22  1  0.487959  0.496554  0.994371  1
  O  O23  1  0.496554  0.487959  0.505629  1
  O  O24  1  0.791492  0.409481  0.603895  1
  O  O25  1  0.090519  0.708508  0.103895  1
  O  O26  1  0.292424  0.109160  0.899205  1
  O  O27  1  0.587853  0.784078  0.390464  1
  O  O28  1  0.207576  0.390840  0.100795  1
  O  O29  1  0.012041  0.003446  0.005629  1
  O  O30  1  0.003446  0.012041  0.494371  1
  O  O31  1  0.708508  0.090519  0.396105  1
