# generated using pymatgen
data_Pt(SCl)2
_symmetry_space_group_name_H-M   'P 1'
_cell_length_a   6.29418265
_cell_length_b   6.50687444
_cell_length_c   6.93888948
_cell_angle_alpha   92.76810838
_cell_angle_beta   108.17905716
_cell_angle_gamma   104.89191527
_symmetry_Int_Tables_number   1
_chemical_formula_structural   Pt(SCl)2
_chemical_formula_sum   'Pt2 S4 Cl4'
_cell_volume   258.36497751
_cell_formula_units_Z   2
loop_
 _symmetry_equiv_pos_site_id
 _symmetry_equiv_pos_as_xyz
  1  'x, y, z'
loop_
 _atom_site_type_symbol
 _atom_site_label
 _atom_site_symmetry_multiplicity
 _atom_site_fract_x
 _atom_site_fract_y
 _atom_site_fract_z
 _atom_site_occupancy
  Pt  Pt0  1  0.192880  0.982203  0.347871  1
  Pt  Pt1  1  0.807121  0.017797  0.652129  1
  S  S2  1  0.902328  0.727881  0.080017  1
  S  S3  1  0.325047  0.150336  0.096793  1
  S  S4  1  0.674954  0.849665  0.903208  1
  S  S5  1  0.097672  0.272118  0.919982  1
  Cl  Cl6  1  0.447376  0.766065  0.362618  1
  Cl  Cl7  1  0.959658  0.203217  0.380815  1
  Cl  Cl8  1  0.040341  0.796784  0.619185  1
  Cl  Cl9  1  0.552624  0.233934  0.637382  1
