# generated using pymatgen
data_Ho18Tm2Ir5Pt7
_symmetry_space_group_name_H-M   'P 1'
_cell_length_a   10.99021701
_cell_length_b   10.99021631
_cell_length_c   6.30044707
_cell_angle_alpha   90.01641221
_cell_angle_beta   90.01641375
_cell_angle_gamma   90.23223613
_symmetry_Int_Tables_number   1
_chemical_formula_structural   Ho18Tm2Ir5Pt7
_chemical_formula_sum   'Ho18 Tm2 Ir5 Pt7'
_cell_volume   760.99231650
_cell_formula_units_Z   1
loop_
 _symmetry_equiv_pos_site_id
 _symmetry_equiv_pos_as_xyz
  1  'x, y, z'
loop_
 _atom_site_type_symbol
 _atom_site_label
 _atom_site_symmetry_multiplicity
 _atom_site_fract_x
 _atom_site_fract_y
 _atom_site_fract_z
 _atom_site_occupancy
  Ho  Ho0  1  0.294951  0.086489  0.373630  1
  Ho  Ho1  1  0.295063  0.908479  0.874204  1
  Ho  Ho2  1  0.704641  0.086958  0.873464  1
  Ho  Ho3  1  0.704623  0.912029  0.372861  1
  Ho  Ho4  1  0.583714  0.792241  0.872360  1
  Ho  Ho5  1  0.587395  0.205978  0.374777  1
  Ho  Ho6  1  0.410688  0.791938  0.378162  1
  Ho  Ho7  1  0.412231  0.204401  0.874558  1
  Ho  Ho8  1  0.207759  0.416286  0.627640  1
  Ho  Ho9  1  0.208062  0.589312  0.121838  1
  Ho  Ho10  1  0.794022  0.412605  0.125223  1
  Ho  Ho11  1  0.795599  0.587769  0.625442  1
  Ho  Ho12  1  0.913511  0.705049  0.126370  1
  Ho  Ho13  1  0.913042  0.295359  0.626536  1
  Ho  Ho14  1  0.091521  0.704937  0.625796  1
  Ho  Ho15  1  0.087971  0.295377  0.127139  1
  Ho  Ho16  1  0.999468  0.999925  0.500392  1
  Ho  Ho17  1  0.000075  0.000532  0.999608  1
  Tm  Tm18  1  0.497943  0.500676  0.999502  1
  Tm  Tm19  1  0.499324  0.502057  0.500498  1
  Ir  Ir20  1  0.347731  0.652269  0.750000  1
  Ir  Ir21  1  0.499968  0.999914  0.121418  1
  Ir  Ir22  1  0.499785  0.000110  0.620156  1
  Ir  Ir23  1  0.999890  0.500215  0.879844  1
  Ir  Ir24  1  0.000086  0.500032  0.378582  1
  Pt  Pt25  1  0.846321  0.153679  0.250000  1
  Pt  Pt26  1  0.845245  0.846437  0.750732  1
  Pt  Pt27  1  0.153563  0.154755  0.749268  1
  Pt  Pt28  1  0.152857  0.847143  0.250000  1
  Pt  Pt29  1  0.652464  0.347536  0.750000  1
  Pt  Pt30  1  0.653996  0.653511  0.249762  1
  Pt  Pt31  1  0.346489  0.346004  0.250238  1
