# generated using pymatgen
data_Be8V3Mo
_symmetry_space_group_name_H-M   'P 1'
_cell_length_a   4.39152800
_cell_length_b   4.39152780
_cell_length_c   7.11090900
_cell_angle_alpha   90.00000000
_cell_angle_beta   90.00000000
_cell_angle_gamma   120.00001658
_symmetry_Int_Tables_number   1
_chemical_formula_structural   Be8V3Mo
_chemical_formula_sum   'Be8 V3 Mo1'
_cell_volume   118.76458962
_cell_formula_units_Z   1
loop_
 _symmetry_equiv_pos_site_id
 _symmetry_equiv_pos_as_xyz
  1  'x, y, z'
loop_
 _atom_site_type_symbol
 _atom_site_label
 _atom_site_symmetry_multiplicity
 _atom_site_fract_x
 _atom_site_fract_y
 _atom_site_fract_z
 _atom_site_occupancy
  Be  Be0  1  0.000000  0.000000  0.501414  1
  Be  Be1  1  0.000000  0.000000  0.998963  1
  Be  Be2  1  0.829074  0.170926  0.251383  1
  Be  Be3  1  0.829074  0.658147  0.251383  1
  Be  Be4  1  0.341853  0.170926  0.251383  1
  Be  Be5  1  0.170914  0.829086  0.748641  1
  Be  Be6  1  0.170914  0.341829  0.748641  1
  Be  Be7  1  0.658171  0.829086  0.748641  1
  V  V8  1  0.333333  0.666667  0.434524  1
  V  V9  1  0.666667  0.333333  0.567763  1
  V  V10  1  0.666667  0.333333  0.932065  1
  Mo  Mo11  1  0.333333  0.666667  0.065200  1
