# generated using pymatgen
data_Tb6Zn4Pd9Pt4
_symmetry_space_group_name_H-M   'P 1'
_cell_length_a   8.28036055
_cell_length_b   8.28036170
_cell_length_c   8.25720000
_cell_angle_alpha   109.41456764
_cell_angle_beta   109.41457043
_cell_angle_gamma   109.52781549
_symmetry_Int_Tables_number   1
_chemical_formula_structural   Tb6Zn4Pd9Pt4
_chemical_formula_sum   'Tb6 Zn4 Pd9 Pt4'
_cell_volume   436.12664078
_cell_formula_units_Z   1
loop_
 _symmetry_equiv_pos_site_id
 _symmetry_equiv_pos_as_xyz
  1  'x, y, z'
loop_
 _atom_site_type_symbol
 _atom_site_label
 _atom_site_symmetry_multiplicity
 _atom_site_fract_x
 _atom_site_fract_y
 _atom_site_fract_z
 _atom_site_occupancy
  Tb  Tb0  1  0.701759  0.701759  0.002618  1
  Tb  Tb1  1  0.298241  0.000000  0.300859  1
  Tb  Tb2  1  0.000000  0.298241  0.300859  1
  Tb  Tb3  1  0.299295  0.299295  0.998450  1
  Tb  Tb4  1  0.700705  0.000000  0.699155  1
  Tb  Tb5  1  0.000000  0.700705  0.699155  1
  Zn  Zn6  1  0.000000  0.000000  0.499919  1
  Zn  Zn7  1  0.000000  0.500031  0.000020  1
  Zn  Zn8  1  0.500031  0.000000  0.000020  1
  Zn  Zn9  1  0.499969  0.499969  0.499989  1
  Pd  Pd10  1  0.665539  0.333568  0.999681  1
  Pd  Pd11  1  0.334461  0.668030  0.334142  1
  Pd  Pd12  1  0.000000  0.334838  0.667121  1
  Pd  Pd13  1  0.333568  0.665539  0.999681  1
  Pd  Pd14  1  0.334838  0.000000  0.667121  1
  Pd  Pd15  1  0.668030  0.334461  0.334142  1
  Pd  Pd16  1  0.665162  0.665162  0.332281  1
  Pd  Pd17  1  0.666432  0.331970  0.666113  1
  Pd  Pd18  1  0.331970  0.666432  0.666113  1
  Pt  Pt19  1  0.334274  0.334274  0.667558  1
  Pt  Pt20  1  0.665726  0.000000  0.333282  1
  Pt  Pt21  1  0.000000  0.665726  0.333282  1
  Pt  Pt22  1  0.000000  0.000000  0.998441  1
