# generated using pymatgen
data_HoEr(Ga3Ir)3
_symmetry_space_group_name_H-M   'P 1'
_cell_length_a   7.57947172
_cell_length_b   7.57980623
_cell_length_c   9.49235400
_cell_angle_alpha   90.00000000
_cell_angle_beta   90.00000000
_cell_angle_gamma   119.97988020
_symmetry_Int_Tables_number   1
_chemical_formula_structural   HoEr(Ga3Ir)3
_chemical_formula_sum   'Ho2 Er2 Ga18 Ir6'
_cell_volume   472.37794396
_cell_formula_units_Z   2
loop_
 _symmetry_equiv_pos_site_id
 _symmetry_equiv_pos_as_xyz
  1  'x, y, z'
loop_
 _atom_site_type_symbol
 _atom_site_label
 _atom_site_symmetry_multiplicity
 _atom_site_fract_x
 _atom_site_fract_y
 _atom_site_fract_z
 _atom_site_occupancy
  Ho  Ho0  1  0.997025  0.667672  0.750000  1
  Ho  Ho1  1  0.002975  0.332328  0.250000  1
  Er  Er2  1  0.667686  0.997040  0.750000  1
  Er  Er3  1  0.332314  0.002960  0.250000  1
  Ga  Ga4  1  0.126738  0.126775  0.750000  1
  Ga  Ga5  1  0.873262  0.873225  0.250000  1
  Ga  Ga6  1  0.998959  0.333720  0.580200  1
  Ga  Ga7  1  0.001041  0.666280  0.419800  1
  Ga  Ga8  1  0.001041  0.666280  0.080200  1
  Ga  Ga9  1  0.333861  0.999024  0.919846  1
  Ga  Ga10  1  0.998959  0.333720  0.919800  1
  Ga  Ga11  1  0.666139  0.000976  0.080154  1
  Ga  Ga12  1  0.666139  0.000976  0.419846  1
  Ga  Ga13  1  0.333861  0.999024  0.580154  1
  Ga  Ga14  1  0.332720  0.332664  0.064483  1
  Ga  Ga15  1  0.667280  0.667336  0.935517  1
  Ga  Ga16  1  0.667280  0.667336  0.564483  1
  Ga  Ga17  1  0.332720  0.332664  0.435517  1
  Ga  Ga18  1  0.338513  0.546212  0.750000  1
  Ga  Ga19  1  0.661487  0.453788  0.250000  1
  Ga  Ga20  1  0.546161  0.338432  0.750000  1
  Ga  Ga21  1  0.453839  0.661568  0.250000  1
  Ir  Ir22  1  0.671778  0.328159  0.500002  1
  Ir  Ir23  1  0.328222  0.671841  0.499998  1
  Ir  Ir24  1  0.328222  0.671841  0.000002  1
  Ir  Ir25  1  0.671778  0.328159  0.999998  1
  Ir  Ir26  1  0.000000  0.000000  0.500000  1
  Ir  Ir27  1  0.000000  0.000000  0.000000  1
