# generated using pymatgen
data_Mn2Fe3Si3Mo4
_symmetry_space_group_name_H-M   'P 1'
_cell_length_a   4.72435764
_cell_length_b   4.75274847
_cell_length_c   7.75278300
_cell_angle_alpha   90.00000000
_cell_angle_beta   90.00000000
_cell_angle_gamma   119.95770924
_symmetry_Int_Tables_number   1
_chemical_formula_structural   Mn2Fe3Si3Mo4
_chemical_formula_sum   'Mn2 Fe3 Si3 Mo4'
_cell_volume   150.82063819
_cell_formula_units_Z   1
loop_
 _symmetry_equiv_pos_site_id
 _symmetry_equiv_pos_as_xyz
  1  'x, y, z'
loop_
 _atom_site_type_symbol
 _atom_site_label
 _atom_site_symmetry_multiplicity
 _atom_site_fract_x
 _atom_site_fract_y
 _atom_site_fract_z
 _atom_site_occupancy
  Mn  Mn0  1  0.176149  0.350807  0.250000  1
  Mn  Mn1  1  0.173422  0.831219  0.250000  1
  Fe  Fe2  1  0.825620  0.153745  0.750000  1
  Fe  Fe3  1  0.328201  0.153968  0.750000  1
  Fe  Fe4  1  0.662807  0.832659  0.250000  1
  Si  Si5  1  0.819235  0.637354  0.750000  1
  Si  Si6  1  0.006184  0.013990  0.498015  1
  Si  Si7  1  0.006184  0.013990  0.001985  1
  Mo  Mo8  1  0.666819  0.337500  0.066374  1
  Mo  Mo9  1  0.334278  0.668634  0.936445  1
  Mo  Mo10  1  0.334278  0.668634  0.563555  1
  Mo  Mo11  1  0.666819  0.337500  0.433626  1
