# generated using pymatgen
data_Tb7Dy5Sn4(GeRh2)4
_symmetry_space_group_name_H-M   'P 1'
_cell_length_a   5.67078533
_cell_length_b   8.11783446
_cell_length_c   13.37624704
_cell_angle_alpha   90.00456990
_cell_angle_beta   90.00723308
_cell_angle_gamma   90.03843698
_symmetry_Int_Tables_number   1
_chemical_formula_structural   Tb7Dy5Sn4(GeRh2)4
_chemical_formula_sum   'Tb7 Dy5 Sn4 Ge4 Rh8'
_cell_volume   615.76865316
_cell_formula_units_Z   1
loop_
 _symmetry_equiv_pos_site_id
 _symmetry_equiv_pos_as_xyz
  1  'x, y, z'
loop_
 _atom_site_type_symbol
 _atom_site_label
 _atom_site_symmetry_multiplicity
 _atom_site_fract_x
 _atom_site_fract_y
 _atom_site_fract_z
 _atom_site_occupancy
  Tb  Tb0  1  0.633883  0.257350  0.250195  1
  Tb  Tb1  1  0.365937  0.742796  0.749945  1
  Tb  Tb2  1  0.366352  0.757609  0.250043  1
  Tb  Tb3  1  0.633530  0.242205  0.749963  1
  Tb  Tb4  1  0.157359  0.396527  0.101317  1
  Tb  Tb5  1  0.842819  0.603422  0.898740  1
  Tb  Tb6  1  0.842816  0.603297  0.601047  1
  Dy  Dy7  1  0.842248  0.896809  0.399059  1
  Dy  Dy8  1  0.157816  0.396511  0.398883  1
  Dy  Dy9  1  0.157721  0.103407  0.600836  1
  Dy  Dy10  1  0.157706  0.103283  0.898974  1
  Dy  Dy11  1  0.842395  0.896794  0.101088  1
  Sn  Sn12  1  0.670121  0.249905  0.000181  1
  Sn  Sn13  1  0.329918  0.750064  0.999854  1
  Sn  Sn14  1  0.330056  0.749949  0.499972  1
  Sn  Sn15  1  0.670335  0.249991  0.499846  1
  Ge  Ge16  1  0.122838  0.112282  0.250223  1
  Ge  Ge17  1  0.877087  0.888123  0.749953  1
  Ge  Ge18  1  0.877292  0.613196  0.250275  1
  Ge  Ge19  1  0.123036  0.386677  0.749879  1
  Rh  Rh20  1  0.367889  0.043909  0.098265  1
  Rh  Rh21  1  0.631935  0.956146  0.901726  1
  Rh  Rh22  1  0.631914  0.956186  0.598337  1
  Rh  Rh23  1  0.631153  0.544015  0.401439  1
  Rh  Rh24  1  0.367724  0.044338  0.401890  1
  Rh  Rh25  1  0.367732  0.455153  0.598152  1
  Rh  Rh26  1  0.368320  0.455436  0.901492  1
  Rh  Rh27  1  0.632067  0.544619  0.098424  1
