# generated using pymatgen
data_TbAlZnSiAu
_symmetry_space_group_name_H-M   'P 1'
_cell_length_a   4.13193200
_cell_length_b   4.13193200
_cell_length_c   11.01051400
_cell_angle_alpha   90.00000000
_cell_angle_beta   90.00000000
_cell_angle_gamma   90.00000000
_symmetry_Int_Tables_number   1
_chemical_formula_structural   TbAlZnSiAu
_chemical_formula_sum   'Tb2 Al2 Zn2 Si2 Au2'
_cell_volume   187.98098665
_cell_formula_units_Z   2
loop_
 _symmetry_equiv_pos_site_id
 _symmetry_equiv_pos_as_xyz
  1  'x, y, z'
loop_
 _atom_site_type_symbol
 _atom_site_label
 _atom_site_symmetry_multiplicity
 _atom_site_fract_x
 _atom_site_fract_y
 _atom_site_fract_z
 _atom_site_occupancy
  Tb  Tb0  1  0.000000  0.500000  0.231609  1
  Tb  Tb1  1  0.500000  0.000000  0.768391  1
  Al  Al2  1  0.000000  0.000000  0.500000  1
  Al  Al3  1  0.500000  0.500000  0.500000  1
  Zn  Zn4  1  0.000000  0.000000  0.000000  1
  Zn  Zn5  1  0.500000  0.500000  0.000000  1
  Si  Si6  1  0.000000  0.500000  0.863940  1
  Si  Si7  1  0.500000  0.000000  0.136060  1
  Au  Au8  1  0.000000  0.500000  0.642262  1
  Au  Au9  1  0.500000  0.000000  0.357738  1
