# generated using pymatgen
data_Hf4Co16Si7Mo2
_symmetry_space_group_name_H-M   'P 1'
_cell_length_a   7.94028113
_cell_length_b   7.96942289
_cell_length_c   7.94025669
_cell_angle_alpha   59.87483797
_cell_angle_beta   60.18997697
_cell_angle_gamma   59.87389069
_symmetry_Int_Tables_number   1
_chemical_formula_structural   Hf4Co16Si7Mo2
_chemical_formula_sum   'Hf4 Co16 Si7 Mo2'
_cell_volume   355.11763170
_cell_formula_units_Z   1
loop_
 _symmetry_equiv_pos_site_id
 _symmetry_equiv_pos_as_xyz
  1  'x, y, z'
loop_
 _atom_site_type_symbol
 _atom_site_label
 _atom_site_symmetry_multiplicity
 _atom_site_fract_x
 _atom_site_fract_y
 _atom_site_fract_z
 _atom_site_occupancy
  Hf  Hf0  1  0.791644  0.205942  0.208343  1
  Hf  Hf1  1  0.208343  0.205954  0.791641  1
  Hf  Hf2  1  0.798206  0.199544  0.798213  1
  Hf  Hf3  1  0.201826  0.795954  0.201839  1
  Co  Co4  1  0.621278  0.621878  0.142892  1
  Co  Co5  1  0.166839  0.499122  0.166842  1
  Co  Co6  1  0.857149  0.386039  0.378702  1
  Co  Co7  1  0.504631  0.832277  0.831480  1
  Co  Co8  1  0.495350  0.168393  0.168509  1
  Co  Co9  1  0.831477  0.832276  0.504634  1
  Co  Co10  1  0.168508  0.168394  0.495351  1
  Co  Co11  1  0.142897  0.621873  0.621272  1
  Co  Co12  1  0.168045  0.168894  0.168046  1
  Co  Co13  1  0.378702  0.386037  0.857149  1
  Co  Co14  1  0.615260  0.621239  0.615255  1
  Co  Co15  1  0.384743  0.851731  0.384740  1
  Co  Co16  1  0.378501  0.380041  0.378500  1
  Co  Co17  1  0.833137  0.832818  0.833142  1
  Co  Co18  1  0.621499  0.137048  0.621498  1
  Co  Co19  1  0.831949  0.504983  0.831951  1
  Si  Si20  1  0.499993  0.992288  0.499975  1
  Si  Si21  1  0.499073  0.502272  0.995066  1
  Si  Si22  1  0.499938  0.492760  0.499957  1
  Si  Si23  1  0.005004  0.996346  0.500946  1
  Si  Si24  1  0.999990  0.503109  0.999982  1
  Si  Si25  1  0.995063  0.502285  0.499070  1
  Si  Si26  1  0.500948  0.996354  0.005005  1
  Mo  Mo27  1  0.201067  0.797074  0.798939  1
  Mo  Mo28  1  0.798941  0.797076  0.201064  1
