# generated using pymatgen
data_Tb6Nb3Al13Ru7
_symmetry_space_group_name_H-M   'P 1'
_cell_length_a   9.08072051
_cell_length_b   9.08072069
_cell_length_c   9.08072044
_cell_angle_alpha   59.63957238
_cell_angle_beta   59.63957090
_cell_angle_gamma   59.63956605
_symmetry_Int_Tables_number   1
_chemical_formula_structural   Tb6Nb3Al13Ru7
_chemical_formula_sum   'Tb6 Nb3 Al13 Ru7'
_cell_volume   525.13908182
_cell_formula_units_Z   1
loop_
 _symmetry_equiv_pos_site_id
 _symmetry_equiv_pos_as_xyz
  1  'x, y, z'
loop_
 _atom_site_type_symbol
 _atom_site_label
 _atom_site_symmetry_multiplicity
 _atom_site_fract_x
 _atom_site_fract_y
 _atom_site_fract_z
 _atom_site_occupancy
  Tb  Tb0  1  0.708796  0.708796  0.284999  1
  Tb  Tb1  1  0.293586  0.708371  0.293586  1
  Tb  Tb2  1  0.708371  0.293586  0.293586  1
  Tb  Tb3  1  0.293586  0.293586  0.708371  1
  Tb  Tb4  1  0.708796  0.284999  0.708796  1
  Tb  Tb5  1  0.284999  0.708796  0.708796  1
  Nb  Nb6  1  0.877611  0.877611  0.360691  1
  Nb  Nb7  1  0.877611  0.360691  0.877611  1
  Nb  Nb8  1  0.360691  0.877611  0.877611  1
  Al  Al9  1  0.881334  0.881334  0.881334  1
  Al  Al10  1  0.121170  0.121170  0.640111  1
  Al  Al11  1  0.121170  0.640111  0.121170  1
  Al  Al12  1  0.640111  0.121170  0.121170  1
  Al  Al13  1  0.120396  0.120396  0.120396  1
  Al  Al14  1  0.671599  0.671599  0.989527  1
  Al  Al15  1  0.671599  0.989527  0.671599  1
  Al  Al16  1  0.989527  0.671599  0.671599  1
  Al  Al17  1  0.667942  0.667942  0.667942  1
  Al  Al18  1  0.330725  0.330725  0.010860  1
  Al  Al19  1  0.330725  0.010860  0.330725  1
  Al  Al20  1  0.010860  0.330725  0.330725  1
  Al  Al21  1  0.331028  0.331028  0.331028  1
  Ru  Ru22  1  0.002087  0.002087  0.002087  1
  Ru  Ru23  1  0.998946  0.998946  0.497343  1
  Ru  Ru24  1  0.502471  0.995503  0.502471  1
  Ru  Ru25  1  0.995503  0.502471  0.502471  1
  Ru  Ru26  1  0.502471  0.502471  0.995503  1
  Ru  Ru27  1  0.998946  0.497343  0.998946  1
  Ru  Ru28  1  0.497343  0.998946  0.998946  1
