# generated using pymatgen
data_LiY4Tm(P2Ru3)6
_symmetry_space_group_name_H-M   'P 1'
_cell_length_a   12.62539901
_cell_length_b   12.43186246
_cell_length_c   3.97479200
_cell_angle_alpha   90.00000000
_cell_angle_beta   90.00000000
_cell_angle_gamma   119.49421166
_symmetry_Int_Tables_number   1
_chemical_formula_structural   LiY4Tm(P2Ru3)6
_chemical_formula_sum   'Li1 Y4 Tm1 P12 Ru18'
_cell_volume   543.02185865
_cell_formula_units_Z   1
loop_
 _symmetry_equiv_pos_site_id
 _symmetry_equiv_pos_as_xyz
  1  'x, y, z'
loop_
 _atom_site_type_symbol
 _atom_site_label
 _atom_site_symmetry_multiplicity
 _atom_site_fract_x
 _atom_site_fract_y
 _atom_site_fract_z
 _atom_site_occupancy
  Li  Li0  1  0.000035  0.561640  0.000000  1
  Y  Y1  1  0.000015  0.181913  0.500000  1
  Y  Y2  1  0.817189  0.815813  0.500000  1
  Y  Y3  1  0.182845  0.998697  0.500000  1
  Y  Y4  1  0.341295  0.670137  0.000000  1
  Tm  Tm5  1  0.658385  0.328470  0.000000  1
  P  P6  1  0.999734  0.807125  0.000000  1
  P  P7  1  0.181768  0.183439  0.000000  1
  P  P8  1  0.818434  0.002100  0.000000  1
  P  P9  1  0.691973  0.174083  0.500000  1
  P  P10  1  0.818436  0.517607  0.500000  1
  P  P11  1  0.473676  0.306437  0.500000  1
  P  P12  1  0.180780  0.699443  0.500000  1
  P  P13  1  0.527108  0.833498  0.500000  1
  P  P14  1  0.308077  0.481157  0.500000  1
  P  P15  1  0.000049  0.368139  0.000000  1
  P  P16  1  0.625883  0.625072  0.000000  1
  P  P17  1  0.374054  0.999141  0.000000  1
  Ru  Ru18  1  0.443861  0.444747  0.000000  1
  Ru  Ru19  1  0.556210  0.001039  0.000000  1
  Ru  Ru20  1  0.999661  0.710489  0.500000  1
  Ru  Ru21  1  0.280528  0.283245  0.500000  1
  Ru  Ru22  1  0.719838  0.003506  0.500000  1
  Ru  Ru23  1  0.805667  0.187471  0.000000  1
  Ru  Ru24  1  0.812368  0.617216  0.000000  1
  Ru  Ru25  1  0.372906  0.189230  0.000000  1
  Ru  Ru26  1  0.186943  0.805227  0.000000  1
  Ru  Ru27  1  0.627951  0.816917  0.000000  1
  Ru  Ru28  1  0.193963  0.380800  0.000000  1
  Ru  Ru29  1  0.875606  0.367681  0.500000  1
  Ru  Ru30  1  0.630206  0.507536  0.500000  1
  Ru  Ru31  1  0.492916  0.129224  0.500000  1
  Ru  Ru32  1  0.369717  0.878575  0.500000  1
  Ru  Ru33  1  0.508463  0.636308  0.500000  1
  Ru  Ru34  1  0.123444  0.491211  0.500000  1
  Ru  Ru35  1  0.000016  0.995668  0.000000  1
