# generated using pymatgen
data_Mn2Nb2FeOs
_symmetry_space_group_name_H-M   'P 1'
_cell_length_a   4.84579454
_cell_length_b   4.85106443
_cell_length_c   8.12698500
_cell_angle_alpha   90.00000000
_cell_angle_beta   90.00000000
_cell_angle_gamma   60.08225438
_symmetry_Int_Tables_number   1
_chemical_formula_structural   Mn2Nb2FeOs
_chemical_formula_sum   'Mn4 Nb4 Fe2 Os2'
_cell_volume   165.58519282
_cell_formula_units_Z   2
loop_
 _symmetry_equiv_pos_site_id
 _symmetry_equiv_pos_as_xyz
  1  'x, y, z'
loop_
 _atom_site_type_symbol
 _atom_site_label
 _atom_site_symmetry_multiplicity
 _atom_site_fract_x
 _atom_site_fract_y
 _atom_site_fract_z
 _atom_site_occupancy
  Mn  Mn0  1  0.824109  0.824028  0.750000  1
  Mn  Mn1  1  0.178139  0.643119  0.250000  1
  Mn  Mn2  1  0.643135  0.178132  0.250000  1
  Mn  Mn3  1  0.177225  0.177177  0.250000  1
  Nb  Nb4  1  0.333303  0.333313  0.568655  1
  Nb  Nb5  1  0.666339  0.666438  0.434805  1
  Nb  Nb6  1  0.666339  0.666438  0.065195  1
  Nb  Nb7  1  0.333303  0.333313  0.931345  1
  Fe  Fe8  1  0.827208  0.351190  0.750000  1
  Fe  Fe9  1  0.350985  0.827254  0.750000  1
  Os  Os10  1  0.999959  0.999800  0.501871  1
  Os  Os11  1  0.999959  0.999800  0.998129  1
