# generated using pymatgen
data_Tm2VCr2O8
_symmetry_space_group_name_H-M   'P 1'
_cell_length_a   6.24643758
_cell_length_b   6.24643649
_cell_length_c   5.10357800
_cell_angle_alpha   71.60976954
_cell_angle_beta   71.60977288
_cell_angle_gamma   57.95834021
_symmetry_Int_Tables_number   1
_chemical_formula_structural   Tm2VCr2O8
_chemical_formula_sum   'Tm2 V1 Cr2 O8'
_cell_volume   157.43695258
_cell_formula_units_Z   1
loop_
 _symmetry_equiv_pos_site_id
 _symmetry_equiv_pos_as_xyz
  1  'x, y, z'
loop_
 _atom_site_type_symbol
 _atom_site_label
 _atom_site_symmetry_multiplicity
 _atom_site_fract_x
 _atom_site_fract_y
 _atom_site_fract_z
 _atom_site_occupancy
  Tm  Tm0  1  0.726347  0.723473  0.334132  1
  Tm  Tm1  1  0.276527  0.273653  0.665868  1
  V  V2  1  0.733812  0.266188  0.000000  1
  Cr  Cr3  1  0.003842  0.996158  0.500000  1
  Cr  Cr4  1  0.253300  0.746700  0.000000  1
  O  O5  1  0.401589  0.390429  0.929824  1
  O  O6  1  0.609571  0.598411  0.070176  1
  O  O7  1  0.893239  0.897816  0.917512  1
  O  O8  1  0.102184  0.106761  0.082488  1
  O  O9  1  0.342221  0.894510  0.591943  1
  O  O10  1  0.888147  0.336269  0.609348  1
  O  O11  1  0.105490  0.657779  0.408057  1
  O  O12  1  0.663731  0.111853  0.390652  1
