# generated using pymatgen
data_Ho5ErScVO12
_symmetry_space_group_name_H-M   'P 1'
_cell_length_a   6.53492838
_cell_length_b   6.53774512
_cell_length_c   6.53627922
_cell_angle_alpha   92.69697656
_cell_angle_beta   92.72482159
_cell_angle_gamma   92.72323941
_symmetry_Int_Tables_number   1
_chemical_formula_structural   Ho5ErScVO12
_chemical_formula_sum   'Ho5 Er1 Sc1 V1 O12'
_cell_volume   278.28275705
_cell_formula_units_Z   1
loop_
 _symmetry_equiv_pos_site_id
 _symmetry_equiv_pos_as_xyz
  1  'x, y, z'
loop_
 _atom_site_type_symbol
 _atom_site_label
 _atom_site_symmetry_multiplicity
 _atom_site_fract_x
 _atom_site_fract_y
 _atom_site_fract_z
 _atom_site_occupancy
  Ho  Ho0  1  0.927092  0.435364  0.743170  1
  Ho  Ho1  1  0.435875  0.743346  0.926923  1
  Ho  Ho2  1  0.256660  0.072718  0.564165  1
  Ho  Ho3  1  0.072641  0.564608  0.256544  1
  Ho  Ho4  1  0.564221  0.256387  0.073038  1
  Er  Er5  1  0.743448  0.927314  0.435811  1
  Sc  Sc6  1  0.999485  0.999749  0.999725  1
  V  V7  1  0.500378  0.500165  0.499747  1
  O  O8  1  0.589618  0.461035  0.801944  1
  O  O9  1  0.462112  0.802673  0.589354  1
  O  O10  1  0.802294  0.590744  0.461033  1
  O  O11  1  0.410396  0.538739  0.197939  1
  O  O12  1  0.540090  0.197717  0.410683  1
  O  O13  1  0.198164  0.410303  0.538877  1
  O  O14  1  0.068102  0.915120  0.308554  1
  O  O15  1  0.914845  0.308317  0.068812  1
  O  O16  1  0.691342  0.930580  0.086348  1
  O  O17  1  0.085089  0.691636  0.930954  1
  O  O18  1  0.930046  0.084505  0.691512  1
  O  O19  1  0.308104  0.068980  0.914867  1
