# generated using pymatgen
data_TbY3Ti2(Ge2Mo)4
_symmetry_space_group_name_H-M   'P 1'
_cell_length_a   6.91576400
_cell_length_b   7.09855602
_cell_length_c   13.35481804
_cell_angle_alpha   90.00920420
_cell_angle_beta   90.00000000
_cell_angle_gamma   90.00000000
_symmetry_Int_Tables_number   1
_chemical_formula_structural   TbY3Ti2(Ge2Mo)4
_chemical_formula_sum   'Tb2 Y6 Ti4 Ge16 Mo8'
_cell_volume   655.61389352
_cell_formula_units_Z   2
loop_
 _symmetry_equiv_pos_site_id
 _symmetry_equiv_pos_as_xyz
  1  'x, y, z'
loop_
 _atom_site_type_symbol
 _atom_site_label
 _atom_site_symmetry_multiplicity
 _atom_site_fract_x
 _atom_site_fract_y
 _atom_site_fract_z
 _atom_site_occupancy
  Tb  Tb0  1  0.506540  0.330093  0.405874  1
  Tb  Tb1  1  0.006540  0.169907  0.094126  1
  Y  Y2  1  0.004503  0.174119  0.405424  1
  Y  Y3  1  0.504503  0.325881  0.094576  1
  Y  Y4  1  0.495510  0.674195  0.594142  1
  Y  Y5  1  0.995510  0.825805  0.905858  1
  Y  Y6  1  0.993462  0.829993  0.593722  1
  Y  Y7  1  0.493462  0.670007  0.906278  1
  Ti  Ti8  1  0.159874  0.334090  0.627523  1
  Ti  Ti9  1  0.659874  0.165910  0.872477  1
  Ti  Ti10  1  0.840164  0.665939  0.127909  1
  Ti  Ti11  1  0.340164  0.834061  0.372091  1
  Ge  Ge12  1  0.328941  0.044486  0.544887  1
  Ge  Ge13  1  0.828941  0.455514  0.955113  1
  Ge  Ge14  1  0.670884  0.955362  0.045296  1
  Ge  Ge15  1  0.170884  0.544638  0.454704  1
  Ge  Ge16  1  0.172581  0.544497  0.044387  1
  Ge  Ge17  1  0.672581  0.955503  0.455613  1
  Ge  Ge18  1  0.827533  0.455718  0.543944  1
  Ge  Ge19  1  0.327533  0.044282  0.956056  1
  Ge  Ge20  1  0.808968  0.364820  0.248763  1
  Ge  Ge21  1  0.308968  0.135180  0.251237  1
  Ge  Ge22  1  0.691112  0.864606  0.751250  1
  Ge  Ge23  1  0.191112  0.635394  0.748750  1
  Ge  Ge24  1  0.036372  0.870258  0.251372  1
  Ge  Ge25  1  0.536372  0.629742  0.248628  1
  Ge  Ge26  1  0.463636  0.370446  0.748625  1
  Ge  Ge27  1  0.963636  0.129554  0.751375  1
  Mo  Mo28  1  0.334286  0.835793  0.125115  1
  Mo  Mo29  1  0.834286  0.664207  0.374885  1
  Mo  Mo30  1  0.665717  0.164176  0.624732  1
  Mo  Mo31  1  0.165717  0.335824  0.875268  1
  Mo  Mo32  1  0.333126  0.011428  0.750289  1
  Mo  Mo33  1  0.666789  0.988448  0.250368  1
  Mo  Mo34  1  0.166789  0.511552  0.249632  1
  Mo  Mo35  1  0.833126  0.488572  0.749711  1
