# generated using pymatgen
data_Li4HfNi9P7
_symmetry_space_group_name_H-M   'P 1'
_cell_length_a   9.02954500
_cell_length_b   9.02954494
_cell_length_c   3.62884400
_cell_angle_alpha   90.00000000
_cell_angle_beta   90.00000000
_cell_angle_gamma   120.00000387
_symmetry_Int_Tables_number   1
_chemical_formula_structural   Li4HfNi9P7
_chemical_formula_sum   'Li4 Hf1 Ni9 P7'
_cell_volume   256.23039387
_cell_formula_units_Z   1
loop_
 _symmetry_equiv_pos_site_id
 _symmetry_equiv_pos_as_xyz
  1  'x, y, z'
loop_
 _atom_site_type_symbol
 _atom_site_label
 _atom_site_symmetry_multiplicity
 _atom_site_fract_x
 _atom_site_fract_y
 _atom_site_fract_z
 _atom_site_occupancy
  Li  Li0  1  0.886489  0.784369  0.500000  1
  Li  Li1  1  0.897879  0.113511  0.500000  1
  Li  Li2  1  0.215631  0.102121  0.500000  1
  Li  Li3  1  0.666667  0.333333  0.500000  1
  Hf  Hf4  1  0.333333  0.666667  0.000000  1
  Ni  Ni5  1  0.712147  0.880252  0.000000  1
  Ni  Ni6  1  0.168105  0.287853  0.000000  1
  Ni  Ni7  1  0.119748  0.831895  0.000000  1
  Ni  Ni8  1  0.626610  0.569576  0.000000  1
  Ni  Ni9  1  0.942966  0.373390  0.000000  1
  Ni  Ni10  1  0.430424  0.057034  0.000000  1
  Ni  Ni11  1  0.562661  0.954551  0.500000  1
  Ni  Ni12  1  0.391889  0.437339  0.500000  1
  Ni  Ni13  1  0.045449  0.608111  0.500000  1
  P  P14  1  0.585524  0.712805  0.500000  1
  P  P15  1  0.127281  0.414476  0.500000  1
  P  P16  1  0.287195  0.872719  0.500000  1
  P  P17  1  0.000000  0.000000  0.000000  1
  P  P18  1  0.877117  0.577440  0.000000  1
  P  P19  1  0.700323  0.122883  0.000000  1
  P  P20  1  0.422560  0.299677  0.000000  1
