# generated using pymatgen
data_Nd2Mg2Si2Ir3Rh
_symmetry_space_group_name_H-M   'P 1'
_cell_length_a   4.12936300
_cell_length_b   4.12936300
_cell_length_c   11.03818500
_cell_angle_alpha   90.00000000
_cell_angle_beta   90.00000000
_cell_angle_gamma   90.00000000
_symmetry_Int_Tables_number   1
_chemical_formula_structural   Nd2Mg2Si2Ir3Rh
_chemical_formula_sum   'Nd2 Mg2 Si2 Ir3 Rh1'
_cell_volume   188.21914347
_cell_formula_units_Z   1
loop_
 _symmetry_equiv_pos_site_id
 _symmetry_equiv_pos_as_xyz
  1  'x, y, z'
loop_
 _atom_site_type_symbol
 _atom_site_label
 _atom_site_symmetry_multiplicity
 _atom_site_fract_x
 _atom_site_fract_y
 _atom_site_fract_z
 _atom_site_occupancy
  Nd  Nd0  1  0.000000  0.500000  0.237586  1
  Nd  Nd1  1  0.500000  0.000000  0.762414  1
  Mg  Mg2  1  0.000000  0.000000  0.500000  1
  Mg  Mg3  1  0.500000  0.500000  0.500000  1
  Si  Si4  1  0.000000  0.500000  0.885316  1
  Si  Si5  1  0.500000  0.000000  0.114684  1
  Ir  Ir6  1  0.500000  0.500000  0.000000  1
  Ir  Ir7  1  0.000000  0.500000  0.667514  1
  Ir  Ir8  1  0.500000  0.000000  0.332486  1
  Rh  Rh9  1  0.000000  0.000000  0.000000  1
