# generated using pymatgen
data_NdDyGa2(Co3B)2
_symmetry_space_group_name_H-M   'P 1'
_cell_length_a   5.21176000
_cell_length_b   5.21166166
_cell_length_c   6.68350400
_cell_angle_alpha   90.00000000
_cell_angle_beta   90.00000000
_cell_angle_gamma   120.00062422
_symmetry_Int_Tables_number   1
_chemical_formula_structural   NdDyGa2(Co3B)2
_chemical_formula_sum   'Nd1 Dy1 Ga2 Co6 B2'
_cell_volume   157.21454890
_cell_formula_units_Z   1
loop_
 _symmetry_equiv_pos_site_id
 _symmetry_equiv_pos_as_xyz
  1  'x, y, z'
loop_
 _atom_site_type_symbol
 _atom_site_label
 _atom_site_symmetry_multiplicity
 _atom_site_fract_x
 _atom_site_fract_y
 _atom_site_fract_z
 _atom_site_occupancy
  Nd  Nd0  1  0.999929  0.000000  0.000000  1
  Dy  Dy1  1  0.999993  0.000000  0.500000  1
  Ga  Ga2  1  0.333344  0.666647  0.000000  1
  Ga  Ga3  1  0.666698  0.333353  0.000000  1
  Co  Co4  1  0.499952  0.000000  0.296895  1
  Co  Co5  1  0.499970  0.499963  0.297002  1
  Co  Co6  1  0.000007  0.500037  0.297002  1
  Co  Co7  1  0.499952  0.000000  0.703105  1
  Co  Co8  1  0.499970  0.499963  0.702998  1
  Co  Co9  1  0.000007  0.500037  0.702998  1
  B  B10  1  0.333381  0.666785  0.500000  1
  B  B11  1  0.666596  0.333215  0.500000  1
