# generated using pymatgen
data_SmTiBi2SbO9
_symmetry_space_group_name_H-M   'P 1'
_cell_length_a   5.47072900
_cell_length_b   5.43327699
_cell_length_c   13.11684987
_cell_angle_alpha   77.62028002
_cell_angle_beta   90.00000000
_cell_angle_gamma   90.00000000
_symmetry_Int_Tables_number   1
_chemical_formula_structural   SmTiBi2SbO9
_chemical_formula_sum   'Sm2 Ti2 Bi4 Sb2 O18'
_cell_volume   380.81954126
_cell_formula_units_Z   2
loop_
 _symmetry_equiv_pos_site_id
 _symmetry_equiv_pos_as_xyz
  1  'x, y, z'
loop_
 _atom_site_type_symbol
 _atom_site_label
 _atom_site_symmetry_multiplicity
 _atom_site_fract_x
 _atom_site_fract_y
 _atom_site_fract_z
 _atom_site_occupancy
  Sm  Sm0  1  0.495833  0.242206  0.998806  1
  Sm  Sm1  1  0.995833  0.757794  0.001194  1
  Ti  Ti2  1  0.536266  0.657735  0.177597  1
  Ti  Ti3  1  0.036266  0.342265  0.822403  1
  Bi  Bi4  1  0.453635  0.031903  0.397946  1
  Bi  Bi5  1  0.460990  0.425945  0.601012  1
  Bi  Bi6  1  0.953635  0.968097  0.602054  1
  Bi  Bi7  1  0.960990  0.574055  0.398988  1
  Sb  Sb8  1  0.539119  0.830838  0.834317  1
  Sb  Sb9  1  0.039119  0.169162  0.165683  1
  O  O10  1  0.530016  0.665425  0.311292  1
  O  O11  1  0.538922  0.972792  0.685216  1
  O  O12  1  0.030016  0.334575  0.688708  1
  O  O13  1  0.038922  0.027208  0.314784  1
  O  O14  1  0.847310  0.479184  0.170468  1
  O  O15  1  0.855708  0.638000  0.829543  1
  O  O16  1  0.347310  0.520816  0.829532  1
  O  O17  1  0.355708  0.362000  0.170457  1
  O  O18  1  0.561539  0.672522  0.990783  1
  O  O19  1  0.061539  0.327478  0.009217  1
  O  O20  1  0.726721  0.257379  0.500119  1
  O  O21  1  0.727463  0.755021  0.501203  1
  O  O22  1  0.226721  0.742621  0.499881  1
  O  O23  1  0.227463  0.244979  0.498797  1
  O  O24  1  0.761284  0.971186  0.120406  1
  O  O25  1  0.765995  0.095188  0.878688  1
  O  O26  1  0.261284  0.028814  0.879594  1
  O  O27  1  0.265995  0.904812  0.121312  1
