# generated using pymatgen
data_ScTi4Re13Tc11
_symmetry_space_group_name_H-M   'P 1'
_cell_length_a   8.37987902
_cell_length_b   8.38280834
_cell_length_c   8.37987800
_cell_angle_alpha   109.50217580
_cell_angle_beta   109.45533212
_cell_angle_gamma   109.50218294
_symmetry_Int_Tables_number   1
_chemical_formula_structural   ScTi4Re13Tc11
_chemical_formula_sum   'Sc1 Ti4 Re13 Tc11'
_cell_volume   452.89347936
_cell_formula_units_Z   1
loop_
 _symmetry_equiv_pos_site_id
 _symmetry_equiv_pos_as_xyz
  1  'x, y, z'
loop_
 _atom_site_type_symbol
 _atom_site_label
 _atom_site_symmetry_multiplicity
 _atom_site_fract_x
 _atom_site_fract_y
 _atom_site_fract_z
 _atom_site_occupancy
  Sc  Sc0  1  0.999952  0.999656  0.999952  1
  Ti  Ti1  1  0.628224  0.999599  0.999788  1
  Ti  Ti2  1  0.000223  0.628247  0.000223  1
  Ti  Ti3  1  0.999788  0.999599  0.628224  1
  Ti  Ti4  1  0.370830  0.372305  0.370830  1
  Re  Re5  1  0.599035  0.279737  0.599035  1
  Re  Re6  1  0.376978  0.193857  0.999846  1
  Re  Re7  1  0.182976  0.806121  0.806015  1
  Re  Re8  1  0.377210  0.000999  0.194437  1
  Re  Re9  1  0.194222  0.376780  0.000143  1
  Re  Re10  1  0.000143  0.376780  0.194222  1
  Re  Re11  1  0.806272  0.181609  0.806272  1
  Re  Re12  1  0.806015  0.806121  0.182976  1
  Re  Re13  1  0.999846  0.193857  0.376978  1
  Re  Re14  1  0.194437  0.000999  0.377210  1
  Re  Re15  1  0.622662  0.622901  0.816775  1
  Re  Re16  1  0.816775  0.622901  0.622662  1
  Re  Re17  1  0.622522  0.815741  0.622522  1
  Tc  Tc18  1  0.401289  0.681874  0.000457  1
  Tc  Tc19  1  0.720408  0.318972  0.318165  1
  Tc  Tc20  1  0.401553  0.000399  0.681317  1
  Tc  Tc21  1  0.681907  0.401284  0.000034  1
  Tc  Tc22  1  0.000034  0.401284  0.681907  1
  Tc  Tc23  1  0.317999  0.719730  0.317999  1
  Tc  Tc24  1  0.318165  0.318972  0.720408  1
  Tc  Tc25  1  0.000457  0.681874  0.401289  1
  Tc  Tc26  1  0.681317  0.000399  0.401553  1
  Tc  Tc27  1  0.598830  0.598698  0.279931  1
  Tc  Tc28  1  0.279931  0.598698  0.598830  1
