# generated using pymatgen
data_CaPuFe3Re14C3
_symmetry_space_group_name_H-M   'P 1'
_cell_length_a   6.94378258
_cell_length_b   6.94378286
_cell_length_c   6.94378191
_cell_angle_alpha   82.55039494
_cell_angle_beta   82.55038989
_cell_angle_gamma   82.55039201
_symmetry_Int_Tables_number   1
_chemical_formula_structural   CaPuFe3Re14C3
_chemical_formula_sum   'Ca1 Pu1 Fe3 Re14 C3'
_cell_volume   326.99884068
_cell_formula_units_Z   1
loop_
 _symmetry_equiv_pos_site_id
 _symmetry_equiv_pos_as_xyz
  1  'x, y, z'
loop_
 _atom_site_type_symbol
 _atom_site_label
 _atom_site_symmetry_multiplicity
 _atom_site_fract_x
 _atom_site_fract_y
 _atom_site_fract_z
 _atom_site_occupancy
  Ca  Ca0  1  0.650261  0.650261  0.650261  1
  Pu  Pu1  1  0.353122  0.353122  0.353122  1
  Fe  Fe2  1  0.999235  0.999235  0.500249  1
  Fe  Fe3  1  0.500249  0.999235  0.999235  1
  Fe  Fe4  1  0.999235  0.500249  0.999235  1
  Re  Re5  1  0.719814  0.277771  0.000218  1
  Re  Re6  1  0.000218  0.719814  0.277771  1
  Re  Re7  1  0.277771  0.000218  0.719814  1
  Re  Re8  1  0.000218  0.277771  0.719814  1
  Re  Re9  1  0.719814  0.000218  0.277771  1
  Re  Re10  1  0.277771  0.719814  0.000218  1
  Re  Re11  1  0.344924  0.344924  0.864010  1
  Re  Re12  1  0.864010  0.344924  0.344924  1
  Re  Re13  1  0.344924  0.864010  0.344924  1
  Re  Re14  1  0.653002  0.653002  0.141559  1
  Re  Re15  1  0.141559  0.653002  0.653002  1
  Re  Re16  1  0.653002  0.141559  0.653002  1
  Re  Re17  1  0.898407  0.898407  0.898407  1
  Re  Re18  1  0.101311  0.101311  0.101311  1
  C  C19  1  0.499438  0.499438  0.002278  1
  C  C20  1  0.002278  0.499438  0.499438  1
  C  C21  1  0.499438  0.002278  0.499438  1
