# generated using pymatgen
data_La2Pr4WO12
_symmetry_space_group_name_H-M   'P 1'
_cell_length_a   6.80775006
_cell_length_b   6.80691872
_cell_length_c   6.82127651
_cell_angle_alpha   98.55049137
_cell_angle_beta   98.55335096
_cell_angle_gamma   98.27677629
_symmetry_Int_Tables_number   1
_chemical_formula_structural   La2Pr4WO12
_chemical_formula_sum   'La2 Pr4 W1 O12'
_cell_volume   304.61669465
_cell_formula_units_Z   1
loop_
 _symmetry_equiv_pos_site_id
 _symmetry_equiv_pos_as_xyz
  1  'x, y, z'
loop_
 _atom_site_type_symbol
 _atom_site_label
 _atom_site_symmetry_multiplicity
 _atom_site_fract_x
 _atom_site_fract_y
 _atom_site_fract_z
 _atom_site_occupancy
  La  La0  1  0.606053  0.144299  0.307901  1
  La  La1  1  0.856491  0.692502  0.393791  1
  Pr  Pr2  1  0.144256  0.308484  0.612260  1
  Pr  Pr3  1  0.388750  0.855799  0.692563  1
  Pr  Pr4  1  0.691480  0.389448  0.856143  1
  Pr  Pr5  1  0.307114  0.609623  0.143112  1
  W  W6  1  0.999781  0.999982  0.000239  1
  O  O7  1  0.069601  0.286875  0.968675  1
  O  O8  1  0.034950  0.933862  0.713939  1
  O  O9  1  0.406849  0.559815  0.823175  1
  O  O10  1  0.176600  0.592303  0.440202  1
  O  O11  1  0.714881  0.030864  0.928180  1
  O  O12  1  0.440536  0.177169  0.595891  1
  O  O13  1  0.558403  0.822203  0.406512  1
  O  O14  1  0.285670  0.965030  0.066986  1
  O  O15  1  0.822608  0.406274  0.561269  1
  O  O16  1  0.592237  0.439491  0.178013  1
  O  O17  1  0.973719  0.071429  0.284199  1
  O  O18  1  0.930021  0.714547  0.026949  1
