# generated using pymatgen
data_TbYbMg(Si3Pd10)2
_symmetry_space_group_name_H-M   'P 1'
_cell_length_a   8.68078223
_cell_length_b   8.68078217
_cell_length_c   8.68078200
_cell_angle_alpha   60.00000065
_cell_angle_beta   60.00000087
_cell_angle_gamma   60.00000036
_symmetry_Int_Tables_number   1
_chemical_formula_structural   TbYbMg(Si3Pd10)2
_chemical_formula_sum   'Tb1 Yb1 Mg1 Si6 Pd20'
_cell_volume   462.55308099
_cell_formula_units_Z   1
loop_
 _symmetry_equiv_pos_site_id
 _symmetry_equiv_pos_as_xyz
  1  'x, y, z'
loop_
 _atom_site_type_symbol
 _atom_site_label
 _atom_site_symmetry_multiplicity
 _atom_site_fract_x
 _atom_site_fract_y
 _atom_site_fract_z
 _atom_site_occupancy
  Tb  Tb0  1  0.250000  0.250000  0.250000  1
  Yb  Yb1  1  0.750000  0.750000  0.750000  1
  Mg  Mg2  1  0.000000  0.000000  0.000000  1
  Si  Si3  1  0.732231  0.267769  0.267769  1
  Si  Si4  1  0.267769  0.732231  0.732231  1
  Si  Si5  1  0.267769  0.732231  0.267769  1
  Si  Si6  1  0.732231  0.267769  0.732231  1
  Si  Si7  1  0.267769  0.267769  0.732231  1
  Si  Si8  1  0.732231  0.732231  0.267769  1
  Pd  Pd9  1  0.383464  0.383464  0.383464  1
  Pd  Pd10  1  0.616550  0.616550  0.616550  1
  Pd  Pd11  1  0.383464  0.383464  0.849610  1
  Pd  Pd12  1  0.383464  0.849610  0.383464  1
  Pd  Pd13  1  0.616550  0.616550  0.150347  1
  Pd  Pd14  1  0.616550  0.150347  0.616550  1
  Pd  Pd15  1  0.849610  0.383464  0.383464  1
  Pd  Pd16  1  0.150347  0.616550  0.616550  1
  Pd  Pd17  1  0.342762  0.000400  0.000400  1
  Pd  Pd18  1  0.656438  0.000400  0.000400  1
  Pd  Pd19  1  0.000400  0.342762  0.656438  1
  Pd  Pd20  1  0.000400  0.656438  0.342762  1
  Pd  Pd21  1  0.000400  0.342762  0.000400  1
  Pd  Pd22  1  0.656438  0.000400  0.342762  1
  Pd  Pd23  1  0.000400  0.656438  0.000400  1
  Pd  Pd24  1  0.342762  0.000400  0.656438  1
  Pd  Pd25  1  0.000400  0.000400  0.342762  1
  Pd  Pd26  1  0.000400  0.000400  0.656438  1
  Pd  Pd27  1  0.656438  0.342762  0.000400  1
  Pd  Pd28  1  0.342762  0.656438  0.000400  1
