# generated using pymatgen
data_Er3Co7P6IrW
_symmetry_space_group_name_H-M   'P 1'
_cell_length_a   3.69661900
_cell_length_b   10.65229200
_cell_length_c   12.32774900
_cell_angle_alpha   90.00000000
_cell_angle_beta   90.00000000
_cell_angle_gamma   90.00000000
_symmetry_Int_Tables_number   1
_chemical_formula_structural   Er3Co7P6IrW
_chemical_formula_sum   'Er6 Co14 P12 Ir2 W2'
_cell_volume   485.43550479
_cell_formula_units_Z   2
loop_
 _symmetry_equiv_pos_site_id
 _symmetry_equiv_pos_as_xyz
  1  'x, y, z'
loop_
 _atom_site_type_symbol
 _atom_site_label
 _atom_site_symmetry_multiplicity
 _atom_site_fract_x
 _atom_site_fract_y
 _atom_site_fract_z
 _atom_site_occupancy
  Er  Er0  1  0.750000  0.250000  0.480607  1
  Er  Er1  1  0.250000  0.750000  0.519393  1
  Er  Er2  1  0.250000  0.934132  0.797185  1
  Er  Er3  1  0.250000  0.565868  0.797185  1
  Er  Er4  1  0.750000  0.065868  0.202815  1
  Er  Er5  1  0.750000  0.434132  0.202815  1
  Co  Co6  1  0.750000  0.250000  0.011446  1
  Co  Co7  1  0.250000  0.750000  0.988554  1
  Co  Co8  1  0.250000  0.418278  0.008910  1
  Co  Co9  1  0.250000  0.081722  0.008910  1
  Co  Co10  1  0.750000  0.581722  0.991090  1
  Co  Co11  1  0.750000  0.918278  0.991090  1
  Co  Co12  1  0.250000  0.453064  0.569064  1
  Co  Co13  1  0.250000  0.046936  0.569064  1
  Co  Co14  1  0.750000  0.546936  0.430936  1
  Co  Co15  1  0.750000  0.953064  0.430936  1
  Co  Co16  1  0.250000  0.870443  0.291377  1
  Co  Co17  1  0.250000  0.629557  0.291377  1
  Co  Co18  1  0.750000  0.129557  0.708623  1
  Co  Co19  1  0.750000  0.370443  0.708623  1
  P  P20  1  0.250000  0.250000  0.111722  1
  P  P21  1  0.750000  0.750000  0.888278  1
  P  P22  1  0.250000  0.250000  0.650870  1
  P  P23  1  0.750000  0.750000  0.349130  1
  P  P24  1  0.250000  0.446237  0.385818  1
  P  P25  1  0.250000  0.053763  0.385818  1
  P  P26  1  0.750000  0.553763  0.614182  1
  P  P27  1  0.750000  0.946237  0.614182  1
  P  P28  1  0.250000  0.905792  0.107270  1
  P  P29  1  0.250000  0.594208  0.107270  1
  P  P30  1  0.750000  0.094208  0.892730  1
  P  P31  1  0.750000  0.405792  0.892730  1
  Ir  Ir32  1  0.250000  0.250000  0.299320  1
  Ir  Ir33  1  0.750000  0.750000  0.700680  1
  W  W34  1  0.250000  0.250000  0.843954  1
  W  W35  1  0.750000  0.750000  0.156046  1
