# generated using pymatgen
data_Y13Th3Cd4Ir3Rh
_symmetry_space_group_name_H-M   'P 1'
_cell_length_a   9.74127621
_cell_length_b   9.75459426
_cell_length_c   9.75459474
_cell_angle_alpha   60.08456872
_cell_angle_beta   59.99761719
_cell_angle_gamma   59.99762646
_symmetry_Int_Tables_number   1
_chemical_formula_structural   Y13Th3Cd4Ir3Rh
_chemical_formula_sum   'Y13 Th3 Cd4 Ir3 Rh1'
_cell_volume   655.81367708
_cell_formula_units_Z   1
loop_
 _symmetry_equiv_pos_site_id
 _symmetry_equiv_pos_as_xyz
  1  'x, y, z'
loop_
 _atom_site_type_symbol
 _atom_site_label
 _atom_site_symmetry_multiplicity
 _atom_site_fract_x
 _atom_site_fract_y
 _atom_site_fract_z
 _atom_site_occupancy
  Y  Y0  1  0.946162  0.352455  0.352455  1
  Y  Y1  1  0.809882  0.190122  0.190122  1
  Y  Y2  1  0.186367  0.813200  0.813200  1
  Y  Y3  1  0.187765  0.811082  0.188749  1
  Y  Y4  1  0.811861  0.188031  0.811019  1
  Y  Y5  1  0.187765  0.188749  0.811082  1
  Y  Y6  1  0.811861  0.811019  0.188031  1
  Y  Y7  1  0.938460  0.563996  0.563996  1
  Y  Y8  1  0.565303  0.935910  0.935910  1
  Y  Y9  1  0.564749  0.937150  0.564608  1
  Y  Y10  1  0.937334  0.564118  0.936545  1
  Y  Y11  1  0.564749  0.564608  0.937150  1
  Y  Y12  1  0.937334  0.936545  0.564118  1
  Th  Th13  1  0.346457  0.348215  0.348215  1
  Th  Th14  1  0.348424  0.350555  0.951945  1
  Th  Th15  1  0.348424  0.951945  0.350555  1
  Cd  Cd16  1  0.583022  0.580366  0.580366  1
  Cd  Cd17  1  0.582674  0.580773  0.253330  1
  Cd  Cd18  1  0.582674  0.253330  0.580773  1
  Cd  Cd19  1  0.252407  0.581496  0.581496  1
  Ir  Ir20  1  0.145182  0.140780  0.570389  1
  Ir  Ir21  1  0.145182  0.570389  0.140780  1
  Ir  Ir22  1  0.568661  0.143030  0.143030  1
  Rh  Rh23  1  0.147305  0.142133  0.142133  1
