# generated using pymatgen
data_La3Dy3Y10(CdNi)4
_symmetry_space_group_name_H-M   'P 1'
_cell_length_a   9.67432922
_cell_length_b   9.68863158
_cell_length_c   9.68857074
_cell_angle_alpha   59.74938517
_cell_angle_beta   60.02882662
_cell_angle_gamma   60.02743630
_symmetry_Int_Tables_number   1
_chemical_formula_structural   La3Dy3Y10(CdNi)4
_chemical_formula_sum   'La3 Dy3 Y10 Cd4 Ni4'
_cell_volume   641.18379902
_cell_formula_units_Z   1
loop_
 _symmetry_equiv_pos_site_id
 _symmetry_equiv_pos_as_xyz
  1  'x, y, z'
loop_
 _atom_site_type_symbol
 _atom_site_label
 _atom_site_symmetry_multiplicity
 _atom_site_fract_x
 _atom_site_fract_y
 _atom_site_fract_z
 _atom_site_occupancy
  La  La0  1  0.595970  0.599703  0.599634  1
  La  La1  1  0.596430  0.600749  0.201499  1
  La  La2  1  0.596433  0.201476  0.600724  1
  Dy  Dy3  1  0.195842  0.602366  0.602341  1
  Dy  Dy4  1  0.063880  0.437852  0.437887  1
  Dy  Dy5  1  0.436686  0.064482  0.064446  1
  Y  Y6  1  0.438125  0.063806  0.436437  1
  Y  Y7  1  0.064125  0.436799  0.062260  1
  Y  Y8  1  0.438124  0.436415  0.063802  1
  Y  Y9  1  0.064113  0.062276  0.436815  1
  Y  Y10  1  0.186628  0.815764  0.815791  1
  Y  Y11  1  0.814909  0.184810  0.184832  1
  Y  Y12  1  0.815450  0.185362  0.815333  1
  Y  Y13  1  0.185764  0.814080  0.185219  1
  Y  Y14  1  0.815459  0.815329  0.185383  1
  Y  Y15  1  0.185762  0.185179  0.814111  1
  Cd  Cd16  1  0.837030  0.828801  0.828858  1
  Cd  Cd17  1  0.836177  0.829508  0.502905  1
  Cd  Cd18  1  0.836176  0.502870  0.829551  1
  Cd  Cd19  1  0.503932  0.831322  0.831403  1
  Ni  Ni20  1  0.388658  0.393629  0.393553  1
  Ni  Ni21  1  0.388935  0.391159  0.824839  1
  Ni  Ni22  1  0.388907  0.824942  0.391086  1
  Ni  Ni23  1  0.826485  0.391321  0.391292  1
