# generated using pymatgen
data_Sc4Al2(TcMo)3
_symmetry_space_group_name_H-M   'P 1'
_cell_length_a   5.32439979
_cell_length_b   5.37280990
_cell_length_c   8.60056600
_cell_angle_alpha   90.00000000
_cell_angle_beta   90.00000000
_cell_angle_gamma   120.30122859
_symmetry_Int_Tables_number   1
_chemical_formula_structural   Sc4Al2(TcMo)3
_chemical_formula_sum   'Sc4 Al2 Tc3 Mo3'
_cell_volume   212.42397395
_cell_formula_units_Z   1
loop_
 _symmetry_equiv_pos_site_id
 _symmetry_equiv_pos_as_xyz
  1  'x, y, z'
loop_
 _atom_site_type_symbol
 _atom_site_label
 _atom_site_symmetry_multiplicity
 _atom_site_fract_x
 _atom_site_fract_y
 _atom_site_fract_z
 _atom_site_occupancy
  Sc  Sc0  1  0.330977  0.665490  0.438147  1
  Sc  Sc1  1  0.662058  0.331028  0.560168  1
  Sc  Sc2  1  0.662058  0.331028  0.939832  1
  Sc  Sc3  1  0.330977  0.665490  0.061853  1
  Al  Al4  1  0.191698  0.843314  0.750000  1
  Al  Al5  1  0.191698  0.348381  0.750000  1
  Tc  Tc6  1  0.982875  0.991437  0.506647  1
  Tc  Tc7  1  0.982875  0.991437  0.993353  1
  Tc  Tc8  1  0.683653  0.841826  0.750000  1
  Mo  Mo9  1  0.821968  0.167228  0.250000  1
  Mo  Mo10  1  0.821968  0.654741  0.250000  1
  Mo  Mo11  1  0.337196  0.168598  0.250000  1
