# generated using pymatgen
data_K4Rb8Al3GaTe12
_symmetry_space_group_name_H-M   'P 1'
_cell_length_a   14.26817377
_cell_length_b   8.90918475
_cell_length_c   11.63135092
_cell_angle_alpha   52.84025536
_cell_angle_beta   90.06811625
_cell_angle_gamma   89.97034679
_symmetry_Int_Tables_number   1
_chemical_formula_structural   K4Rb8Al3GaTe12
_chemical_formula_sum   'K4 Rb8 Al3 Ga1 Te12'
_cell_volume   1178.33618717
_cell_formula_units_Z   1
loop_
 _symmetry_equiv_pos_site_id
 _symmetry_equiv_pos_as_xyz
  1  'x, y, z'
loop_
 _atom_site_type_symbol
 _atom_site_label
 _atom_site_symmetry_multiplicity
 _atom_site_fract_x
 _atom_site_fract_y
 _atom_site_fract_z
 _atom_site_occupancy
  K  K0  1  0.614474  0.361332  0.477275  1
  K  K1  1  0.114620  0.637187  0.023261  1
  K  K2  1  0.385710  0.637904  0.523086  1
  K  K3  1  0.885578  0.362745  0.976526  1
  Rb  Rb4  1  0.906917  0.336461  0.397894  1
  Rb  Rb5  1  0.406391  0.663455  0.102043  1
  Rb  Rb6  1  0.093308  0.663480  0.602346  1
  Rb  Rb7  1  0.593164  0.336109  0.898019  1
  Rb  Rb8  1  0.189409  0.126995  0.588570  1
  Rb  Rb9  1  0.689625  0.874017  0.911178  1
  Rb  Rb10  1  0.809656  0.873386  0.411717  1
  Rb  Rb11  1  0.310450  0.127160  0.088225  1
  Al  Al12  1  0.937021  0.062535  0.839898  1
  Al  Al13  1  0.436897  0.936977  0.660836  1
  Al  Al14  1  0.062974  0.937349  0.160141  1
  Ga  Ga15  1  0.563581  0.063765  0.337645  1
  Te  Te16  1  0.392839  0.156687  0.376446  1
  Te  Te17  1  0.893198  0.843184  0.123985  1
  Te  Te18  1  0.606508  0.842030  0.625705  1
  Te  Te19  1  0.106724  0.156738  0.876059  1
  Te  Te20  1  0.682613  0.349246  0.192003  1
  Te  Te21  1  0.181574  0.653326  0.307240  1
  Te  Te22  1  0.318354  0.653383  0.807434  1
  Te  Te23  1  0.818438  0.346638  0.692782  1
  Te  Te24  1  0.555602  0.862299  0.241573  1
  Te  Te25  1  0.055424  0.135623  0.257702  1
  Te  Te26  1  0.444418  0.135831  0.757988  1
  Te  Te27  1  0.944529  0.864159  0.742425  1
