# generated using pymatgen
data_Tb3Lu17(CoSb2)4
_symmetry_space_group_name_H-M   'P 1'
_cell_length_a   7.71712507
_cell_length_b   8.72602700
_cell_length_c   11.99216641
_cell_angle_alpha   90.00000000
_cell_angle_beta   90.06597285
_cell_angle_gamma   90.00000000
_symmetry_Int_Tables_number   1
_chemical_formula_structural   Tb3Lu17(CoSb2)4
_chemical_formula_sum   'Tb3 Lu17 Co4 Sb8'
_cell_volume   807.55005197
_cell_formula_units_Z   1
loop_
 _symmetry_equiv_pos_site_id
 _symmetry_equiv_pos_as_xyz
  1  'x, y, z'
loop_
 _atom_site_type_symbol
 _atom_site_label
 _atom_site_symmetry_multiplicity
 _atom_site_fract_x
 _atom_site_fract_y
 _atom_site_fract_z
 _atom_site_occupancy
  Tb  Tb0  1  0.123475  0.250000  0.192038  1
  Tb  Tb1  1  0.376755  0.250000  0.691691  1
  Tb  Tb2  1  0.876587  0.750000  0.808003  1
  Lu  Lu3  1  0.157460  0.750000  0.204454  1
  Lu  Lu4  1  0.656849  0.250000  0.295825  1
  Lu  Lu5  1  0.843154  0.250000  0.795720  1
  Lu  Lu6  1  0.343154  0.750000  0.704203  1
  Lu  Lu7  1  0.447062  0.750000  0.997869  1
  Lu  Lu8  1  0.946003  0.250000  0.502055  1
  Lu  Lu9  1  0.553131  0.250000  0.002383  1
  Lu  Lu10  1  0.053001  0.750000  0.497792  1
  Lu  Lu11  1  0.621228  0.750000  0.310168  1
  Lu  Lu12  1  0.824117  0.961926  0.065970  1
  Lu  Lu13  1  0.325221  0.036248  0.433659  1
  Lu  Lu14  1  0.175723  0.461646  0.934329  1
  Lu  Lu15  1  0.675818  0.539031  0.564847  1
  Lu  Lu16  1  0.175723  0.038354  0.934329  1
  Lu  Lu17  1  0.675818  0.960969  0.564847  1
  Lu  Lu18  1  0.824117  0.538074  0.065970  1
  Lu  Lu19  1  0.325221  0.463752  0.433659  1
  Co  Co20  1  0.431458  0.750000  0.491306  1
  Co  Co21  1  0.930363  0.250000  0.008138  1
  Co  Co22  1  0.569187  0.250000  0.507625  1
  Co  Co23  1  0.069502  0.750000  0.992057  1
  Sb  Sb24  1  0.930757  0.990308  0.328753  1
  Sb  Sb25  1  0.434112  0.007240  0.171749  1
  Sb  Sb26  1  0.067493  0.491363  0.671182  1
  Sb  Sb27  1  0.567576  0.508452  0.828849  1
  Sb  Sb28  1  0.067493  0.008637  0.671182  1
  Sb  Sb29  1  0.567576  0.991548  0.828849  1
  Sb  Sb30  1  0.930757  0.509692  0.328753  1
  Sb  Sb31  1  0.434112  0.492760  0.171749  1
