# generated using pymatgen
data_Dy(Th3Au5)2
_symmetry_space_group_name_H-M   'P 1'
_cell_length_a   8.92843871
_cell_length_b   8.92843916
_cell_length_c   10.77508600
_cell_angle_alpha   90.00000000
_cell_angle_beta   90.00000000
_cell_angle_gamma   106.40243009
_symmetry_Int_Tables_number   1
_chemical_formula_structural   Dy(Th3Au5)2
_chemical_formula_sum   'Dy2 Th12 Au20'
_cell_volume   823.99990219
_cell_formula_units_Z   2
loop_
 _symmetry_equiv_pos_site_id
 _symmetry_equiv_pos_as_xyz
  1  'x, y, z'
loop_
 _atom_site_type_symbol
 _atom_site_label
 _atom_site_symmetry_multiplicity
 _atom_site_fract_x
 _atom_site_fract_y
 _atom_site_fract_z
 _atom_site_occupancy
  Dy  Dy0  1  0.000000  0.000000  0.000000  1
  Dy  Dy1  1  0.500000  0.500000  0.500000  1
  Th  Th2  1  0.692220  0.307780  0.000000  1
  Th  Th3  1  0.307780  0.692220  0.000000  1
  Th  Th4  1  0.807780  0.192220  0.500000  1
  Th  Th5  1  0.192220  0.807780  0.500000  1
  Th  Th6  1  0.002355  0.502355  0.250000  1
  Th  Th7  1  0.997645  0.497645  0.750000  1
  Th  Th8  1  0.497645  0.997645  0.750000  1
  Th  Th9  1  0.502355  0.002355  0.250000  1
  Th  Th10  1  0.309217  0.309217  0.191573  1
  Th  Th11  1  0.690783  0.690783  0.808427  1
  Th  Th12  1  0.190783  0.190783  0.691573  1
  Th  Th13  1  0.809217  0.809217  0.308427  1
  Au  Au14  1  0.860949  0.149051  0.206379  1
  Au  Au15  1  0.139051  0.850949  0.793621  1
  Au  Au16  1  0.639051  0.350949  0.706379  1
  Au  Au17  1  0.649051  0.360949  0.293621  1
  Au  Au18  1  0.360949  0.649051  0.293621  1
  Au  Au19  1  0.350949  0.639051  0.706379  1
  Au  Au20  1  0.850949  0.139051  0.793621  1
  Au  Au21  1  0.149051  0.860949  0.206379  1
  Au  Au22  1  0.939872  0.649001  0.001802  1
  Au  Au23  1  0.060128  0.350999  0.998198  1
  Au  Au24  1  0.560128  0.850999  0.501802  1
  Au  Au25  1  0.149001  0.439872  0.498198  1
  Au  Au26  1  0.439872  0.149001  0.498198  1
  Au  Au27  1  0.850999  0.560128  0.501802  1
  Au  Au28  1  0.350999  0.060128  0.998198  1
  Au  Au29  1  0.649001  0.939872  0.001802  1
  Au  Au30  1  0.102010  0.102010  0.400457  1
  Au  Au31  1  0.897990  0.897990  0.599543  1
  Au  Au32  1  0.397990  0.397990  0.900457  1
  Au  Au33  1  0.602010  0.602010  0.099543  1
