# generated using pymatgen
data_DyHo3(NbOs3)2
_symmetry_space_group_name_H-M   'P 1'
_cell_length_a   5.54418700
_cell_length_b   5.54418794
_cell_length_c   8.56825200
_cell_angle_alpha   90.00000000
_cell_angle_beta   90.00000000
_cell_angle_gamma   120.00001232
_symmetry_Int_Tables_number   1
_chemical_formula_structural   DyHo3(NbOs3)2
_chemical_formula_sum   'Dy1 Ho3 Nb2 Os6'
_cell_volume   228.08599660
_cell_formula_units_Z   1
loop_
 _symmetry_equiv_pos_site_id
 _symmetry_equiv_pos_as_xyz
  1  'x, y, z'
loop_
 _atom_site_type_symbol
 _atom_site_label
 _atom_site_symmetry_multiplicity
 _atom_site_fract_x
 _atom_site_fract_y
 _atom_site_fract_z
 _atom_site_occupancy
  Dy  Dy0  1  0.333333  0.666667  0.433884  1
  Ho  Ho1  1  0.666667  0.333333  0.565941  1
  Ho  Ho2  1  0.666667  0.333333  0.934164  1
  Ho  Ho3  1  0.333333  0.666667  0.065735  1
  Nb  Nb4  1  0.000000  0.000000  0.499894  1
  Nb  Nb5  1  0.000000  0.000000  0.000025  1
  Os  Os6  1  0.825920  0.174080  0.249828  1
  Os  Os7  1  0.825920  0.651842  0.249828  1
  Os  Os8  1  0.348158  0.174080  0.249828  1
  Os  Os9  1  0.173999  0.826001  0.750290  1
  Os  Os10  1  0.173999  0.347999  0.750290  1
  Os  Os11  1  0.652001  0.826001  0.750290  1
