# generated using pymatgen
data_NaZr8(In2Co)7
_symmetry_space_group_name_H-M   'P 1'
_cell_length_a   9.50223620
_cell_length_b   9.50223576
_cell_length_c   9.50223600
_cell_angle_alpha   59.99999916
_cell_angle_beta   60.00000070
_cell_angle_gamma   60.00000094
_symmetry_Int_Tables_number   1
_chemical_formula_structural   NaZr8(In2Co)7
_chemical_formula_sum   'Na1 Zr8 In14 Co7'
_cell_volume   606.68385861
_cell_formula_units_Z   1
loop_
 _symmetry_equiv_pos_site_id
 _symmetry_equiv_pos_as_xyz
  1  'x, y, z'
loop_
 _atom_site_type_symbol
 _atom_site_label
 _atom_site_symmetry_multiplicity
 _atom_site_fract_x
 _atom_site_fract_y
 _atom_site_fract_z
 _atom_site_occupancy
  Na  Na0  1  0.500000  0.500000  0.500000  1
  Zr  Zr1  1  0.120516  0.638453  0.120516  1
  Zr  Zr2  1  0.361547  0.879484  0.879484  1
  Zr  Zr3  1  0.879484  0.879484  0.879484  1
  Zr  Zr4  1  0.638453  0.120516  0.120516  1
  Zr  Zr5  1  0.879484  0.879484  0.361547  1
  Zr  Zr6  1  0.120516  0.120516  0.120516  1
  Zr  Zr7  1  0.879484  0.361547  0.879484  1
  Zr  Zr8  1  0.120516  0.120516  0.638453  1
  In  In9  1  0.500000  0.842029  0.157971  1
  In  In10  1  0.500000  0.842029  0.500000  1
  In  In11  1  0.500000  0.157971  0.500000  1
  In  In12  1  0.500000  0.500000  0.842029  1
  In  In13  1  0.157971  0.500000  0.500000  1
  In  In14  1  0.842029  0.157971  0.500000  1
  In  In15  1  0.157971  0.842029  0.500000  1
  In  In16  1  0.500000  0.157971  0.842029  1
  In  In17  1  0.157971  0.500000  0.842029  1
  In  In18  1  0.500000  0.500000  0.157971  1
  In  In19  1  0.842029  0.500000  0.500000  1
  In  In20  1  0.842029  0.500000  0.157971  1
  In  In21  1  0.250000  0.250000  0.250000  1
  In  In22  1  0.750000  0.750000  0.750000  1
  Co  Co23  1  0.782579  0.782579  0.217421  1
  Co  Co24  1  0.000000  0.000000  0.000000  1
  Co  Co25  1  0.217421  0.782579  0.217421  1
  Co  Co26  1  0.217421  0.782579  0.782579  1
  Co  Co27  1  0.217421  0.217421  0.782579  1
  Co  Co28  1  0.782579  0.217421  0.782579  1
  Co  Co29  1  0.782579  0.217421  0.217421  1
