# generated using pymatgen
data_Lu2Al9Ni2Os
_symmetry_space_group_name_H-M   'P 1'
_cell_length_a   7.46640148
_cell_length_b   7.46640230
_cell_length_c   9.26462172
_cell_angle_alpha   89.73650444
_cell_angle_beta   89.73649939
_cell_angle_gamma   119.89210973
_symmetry_Int_Tables_number   1
_chemical_formula_structural   Lu2Al9Ni2Os
_chemical_formula_sum   'Lu4 Al18 Ni4 Os2'
_cell_volume   447.74821692
_cell_formula_units_Z   2
loop_
 _symmetry_equiv_pos_site_id
 _symmetry_equiv_pos_as_xyz
  1  'x, y, z'
loop_
 _atom_site_type_symbol
 _atom_site_label
 _atom_site_symmetry_multiplicity
 _atom_site_fract_x
 _atom_site_fract_y
 _atom_site_fract_z
 _atom_site_occupancy
  Lu  Lu0  1  0.995355  0.665752  0.253113  1
  Lu  Lu1  1  0.004645  0.334248  0.746887  1
  Lu  Lu2  1  0.665752  0.995355  0.253113  1
  Lu  Lu3  1  0.334248  0.004645  0.746887  1
  Al  Al4  1  0.118582  0.118582  0.249103  1
  Al  Al5  1  0.881418  0.881418  0.750897  1
  Al  Al6  1  0.996682  0.332685  0.073771  1
  Al  Al7  1  0.003318  0.667315  0.926229  1
  Al  Al8  1  0.998640  0.667129  0.574144  1
  Al  Al9  1  0.332871  0.001360  0.425856  1
  Al  Al10  1  0.001360  0.332871  0.425856  1
  Al  Al11  1  0.667129  0.998640  0.574144  1
  Al  Al12  1  0.667315  0.003318  0.926229  1
  Al  Al13  1  0.332685  0.996682  0.073771  1
  Al  Al14  1  0.332002  0.332002  0.550233  1
  Al  Al15  1  0.667998  0.667998  0.449767  1
  Al  Al16  1  0.669037  0.669037  0.052980  1
  Al  Al17  1  0.330963  0.330963  0.947020  1
  Al  Al18  1  0.338141  0.549154  0.246582  1
  Al  Al19  1  0.661859  0.450846  0.753418  1
  Al  Al20  1  0.549154  0.338141  0.246582  1
  Al  Al21  1  0.450846  0.661859  0.753418  1
  Ni  Ni22  1  0.672316  0.327684  0.000000  1
  Ni  Ni23  1  0.327684  0.672316  0.000000  1
  Ni  Ni24  1  0.000000  0.000000  0.000000  1
  Ni  Ni25  1  0.000000  0.000000  0.500000  1
  Os  Os26  1  0.327495  0.672505  0.500000  1
  Os  Os27  1  0.672505  0.327495  0.500000  1
