# generated using pymatgen
data_TbEr7Tc3B24Rh
_symmetry_space_group_name_H-M   'P 1'
_cell_length_a   3.65843700
_cell_length_b   9.11592833
_cell_length_c   11.49635500
_cell_angle_alpha   90.12337445
_cell_angle_beta   90.00000000
_cell_angle_gamma   90.00000000
_symmetry_Int_Tables_number   1
_chemical_formula_structural   TbEr7Tc3B24Rh
_chemical_formula_sum   'Tb1 Er7 Tc3 B24 Rh1'
_cell_volume   383.40311956
_cell_formula_units_Z   1
loop_
 _symmetry_equiv_pos_site_id
 _symmetry_equiv_pos_as_xyz
  1  'x, y, z'
loop_
 _atom_site_type_symbol
 _atom_site_label
 _atom_site_symmetry_multiplicity
 _atom_site_fract_x
 _atom_site_fract_y
 _atom_site_fract_z
 _atom_site_occupancy
  Tb  Tb0  1  0.500000  0.319048  0.415721  1
  Er  Er1  1  0.500000  0.677993  0.591328  1
  Er  Er2  1  0.500000  0.176979  0.912835  1
  Er  Er3  1  0.500000  0.827400  0.080962  1
  Er  Er4  1  0.500000  0.440581  0.128632  1
  Er  Er5  1  0.500000  0.557147  0.871216  1
  Er  Er6  1  0.500000  0.055986  0.629910  1
  Er  Er7  1  0.500000  0.943616  0.369599  1
  Tc  Tc8  1  0.500000  0.138164  0.179775  1
  Tc  Tc9  1  0.500000  0.861499  0.820768  1
  Tc  Tc10  1  0.500000  0.362520  0.678418  1
  B  B11  1  0.000000  0.100702  0.471572  1
  B  B12  1  0.000000  0.895243  0.528206  1
  B  B13  1  0.000000  0.396989  0.971891  1
  B  B14  1  0.000000  0.604130  0.029285  1
  B  B15  1  0.000000  0.130277  0.314759  1
  B  B16  1  0.000000  0.868331  0.685214  1
  B  B17  1  0.000000  0.369308  0.814652  1
  B  B18  1  0.000000  0.631848  0.183606  1
  B  B19  1  0.000000  0.053415  0.066236  1
  B  B20  1  0.000000  0.947262  0.932805  1
  B  B21  1  0.000000  0.446782  0.567031  1
  B  B22  1  0.000000  0.554576  0.433912  1
  B  B23  1  0.000000  0.483578  0.287454  1
  B  B24  1  0.000000  0.518487  0.712529  1
  B  B25  1  0.000000  0.017677  0.787300  1
  B  B26  1  0.000000  0.982383  0.211684  1
  B  B27  1  0.000000  0.249274  0.080773  1
  B  B28  1  0.000000  0.751615  0.919169  1
  B  B29  1  0.000000  0.250041  0.581542  1
  B  B30  1  0.000000  0.749440  0.420516  1
  B  B31  1  0.000000  0.291670  0.234815  1
  B  B32  1  0.000000  0.707900  0.765659  1
  B  B33  1  0.000000  0.208084  0.734701  1
  B  B34  1  0.000000  0.791590  0.264686  1
  Rh  Rh35  1  0.500000  0.638468  0.320837  1
