# generated using pymatgen
data_La2ErSi5PPd20
_symmetry_space_group_name_H-M   'P 1'
_cell_length_a   8.76249290
_cell_length_b   8.76249213
_cell_length_c   8.76627400
_cell_angle_alpha   59.98572182
_cell_angle_beta   59.98572475
_cell_angle_gamma   60.02855032
_symmetry_Int_Tables_number   1
_chemical_formula_structural   La2ErSi5PPd20
_chemical_formula_sum   'La2 Er1 Si5 P1 Pd20'
_cell_volume   475.94327076
_cell_formula_units_Z   1
loop_
 _symmetry_equiv_pos_site_id
 _symmetry_equiv_pos_as_xyz
  1  'x, y, z'
loop_
 _atom_site_type_symbol
 _atom_site_label
 _atom_site_symmetry_multiplicity
 _atom_site_fract_x
 _atom_site_fract_y
 _atom_site_fract_z
 _atom_site_occupancy
  La  La0  1  0.750513  0.750513  0.749487  1
  La  La1  1  0.250513  0.250513  0.249487  1
  Er  Er2  1  0.999378  0.999378  0.000622  1
  Si  Si3  1  0.735827  0.265644  0.264173  1
  Si  Si4  1  0.734387  0.734387  0.265613  1
  Si  Si5  1  0.735827  0.265644  0.734356  1
  Si  Si6  1  0.265644  0.735827  0.264173  1
  Si  Si7  1  0.265644  0.735827  0.734356  1
  P  P8  1  0.263831  0.263831  0.736169  1
  Pd  Pd9  1  0.345022  0.001761  0.998239  1
  Pd  Pd10  1  0.999822  0.654624  0.345376  1
  Pd  Pd11  1  0.345022  0.001761  0.654978  1
  Pd  Pd12  1  0.999822  0.654624  0.000178  1
  Pd  Pd13  1  0.653429  0.344951  0.000810  1
  Pd  Pd14  1  0.614318  0.614318  0.156947  1
  Pd  Pd15  1  0.385585  0.843053  0.385682  1
  Pd  Pd16  1  0.158184  0.612787  0.614513  1
  Pd  Pd17  1  0.654624  0.999822  0.345376  1
  Pd  Pd18  1  0.001761  0.345022  0.654978  1
  Pd  Pd19  1  0.654624  0.999822  0.000178  1
  Pd  Pd20  1  0.999190  0.999190  0.346571  1
  Pd  Pd21  1  0.612787  0.158184  0.614513  1
  Pd  Pd22  1  0.344951  0.653429  0.000810  1
  Pd  Pd23  1  0.385487  0.385487  0.387213  1
  Pd  Pd24  1  0.614318  0.614318  0.614415  1
  Pd  Pd25  1  0.385487  0.385487  0.841816  1
  Pd  Pd26  1  0.999190  0.999190  0.655049  1
  Pd  Pd27  1  0.843053  0.385585  0.385682  1
  Pd  Pd28  1  0.001761  0.345022  0.998239  1
