# generated using pymatgen
data_Lu5In4NiRu
_symmetry_space_group_name_H-M   'P 1'
_cell_length_a   3.52920100
_cell_length_b   7.88883100
_cell_length_c   17.87599588
_cell_angle_alpha   89.88520730
_cell_angle_beta   90.00000000
_cell_angle_gamma   90.00000000
_symmetry_Int_Tables_number   1
_chemical_formula_structural   Lu5In4NiRu
_chemical_formula_sum   'Lu10 In8 Ni2 Ru2'
_cell_volume   497.68943335
_cell_formula_units_Z   2
loop_
 _symmetry_equiv_pos_site_id
 _symmetry_equiv_pos_as_xyz
  1  'x, y, z'
loop_
 _atom_site_type_symbol
 _atom_site_label
 _atom_site_symmetry_multiplicity
 _atom_site_fract_x
 _atom_site_fract_y
 _atom_site_fract_z
 _atom_site_occupancy
  Lu  Lu0  1  0.000000  0.883245  0.087740  1
  Lu  Lu1  1  0.000000  0.755637  0.279271  1
  Lu  Lu2  1  0.000000  0.746027  0.779359  1
  Lu  Lu3  1  0.000000  0.384011  0.411687  1
  Lu  Lu4  1  0.000000  0.116755  0.912260  1
  Lu  Lu5  1  0.000000  0.244363  0.720729  1
  Lu  Lu6  1  0.000000  0.500000  0.000000  1
  Lu  Lu7  1  0.000000  0.253973  0.220641  1
  Lu  Lu8  1  0.000000  0.615989  0.588313  1
  Lu  Lu9  1  0.000000  0.000000  0.500000  1
  In  In10  1  0.500000  0.206902  0.067617  1
  In  In11  1  0.500000  0.425321  0.848452  1
  In  In12  1  0.500000  0.574679  0.151548  1
  In  In13  1  0.500000  0.074371  0.349166  1
  In  In14  1  0.500000  0.925629  0.650834  1
  In  In15  1  0.500000  0.793098  0.932383  1
  In  In16  1  0.500000  0.706076  0.432642  1
  In  In17  1  0.500000  0.293924  0.567358  1
  Ni  Ni18  1  0.500000  0.524207  0.695932  1
  Ni  Ni19  1  0.500000  0.475793  0.304068  1
  Ru  Ru20  1  0.500000  0.975563  0.196551  1
  Ru  Ru21  1  0.500000  0.024437  0.803449  1
