# generated using pymatgen
data_Sm2LuMg3Sn2Pt
_symmetry_space_group_name_H-M   'P 1'
_cell_length_a   7.44637707
_cell_length_b   7.44637820
_cell_length_c   4.52441800
_cell_angle_alpha   90.00000000
_cell_angle_beta   90.00000000
_cell_angle_gamma   119.51363388
_symmetry_Int_Tables_number   1
_chemical_formula_structural   Sm2LuMg3Sn2Pt
_chemical_formula_sum   'Sm2 Lu1 Mg3 Sn2 Pt1'
_cell_volume   218.31879557
_cell_formula_units_Z   1
loop_
 _symmetry_equiv_pos_site_id
 _symmetry_equiv_pos_as_xyz
  1  'x, y, z'
loop_
 _atom_site_type_symbol
 _atom_site_label
 _atom_site_symmetry_multiplicity
 _atom_site_fract_x
 _atom_site_fract_y
 _atom_site_fract_z
 _atom_site_occupancy
  Sm  Sm0  1  0.401641  0.000498  0.000000  1
  Sm  Sm1  1  0.000498  0.401641  0.000000  1
  Lu  Lu2  1  0.605205  0.605205  0.000000  1
  Mg  Mg3  1  0.998621  0.768782  0.500000  1
  Mg  Mg4  1  0.229813  0.229813  0.500000  1
  Mg  Mg5  1  0.768782  0.998621  0.500000  1
  Sn  Sn6  1  0.337802  0.665126  0.500000  1
  Sn  Sn7  1  0.665126  0.337802  0.500000  1
  Pt  Pt8  1  0.992512  0.992512  0.000000  1
