# generated using pymatgen
data_Pa2Co9Ni3P7
_symmetry_space_group_name_H-M   'P 1'
_cell_length_a   3.64547600
_cell_length_b   9.01948706
_cell_length_c   9.02982938
_cell_angle_alpha   120.01029174
_cell_angle_beta   90.00000000
_cell_angle_gamma   90.00000000
_symmetry_Int_Tables_number   1
_chemical_formula_structural   Pa2Co9Ni3P7
_chemical_formula_sum   'Pa2 Co9 Ni3 P7'
_cell_volume   257.09948746
_cell_formula_units_Z   1
loop_
 _symmetry_equiv_pos_site_id
 _symmetry_equiv_pos_as_xyz
  1  'x, y, z'
loop_
 _atom_site_type_symbol
 _atom_site_label
 _atom_site_symmetry_multiplicity
 _atom_site_fract_x
 _atom_site_fract_y
 _atom_site_fract_z
 _atom_site_occupancy
  Pa  Pa0  1  0.000000  0.666669  0.333369  1
  Pa  Pa1  1  0.500000  0.333372  0.666557  1
  Co  Co2  1  0.000000  0.374361  0.932715  1
  Co  Co3  1  0.000000  0.067106  0.441604  1
  Co  Co4  1  0.000000  0.558275  0.625565  1
  Co  Co5  1  0.000000  0.879258  0.727493  1
  Co  Co6  1  0.000000  0.272448  0.151822  1
  Co  Co7  1  0.000000  0.848205  0.120733  1
  Co  Co8  1  0.500000  0.942519  0.562113  1
  Co  Co9  1  0.500000  0.437847  0.380407  1
  Co  Co10  1  0.500000  0.619645  0.057456  1
  Ni  Ni11  1  0.500000  0.123266  0.903048  1
  Ni  Ni12  1  0.500000  0.096989  0.220230  1
  Ni  Ni13  1  0.500000  0.780200  0.877070  1
  P  P14  1  0.000000  0.107457  0.705792  1
  P  P15  1  0.000000  0.294090  0.401564  1
  P  P16  1  0.000000  0.598427  0.892576  1
  P  P17  1  0.500000  0.707947  0.601871  1
  P  P18  1  0.500000  0.398075  0.106082  1
  P  P19  1  0.500000  0.893900  0.292002  1
  P  P20  1  0.000000  0.999942  0.999931  1
