# generated using pymatgen
data_BeNb3TcTe4
_symmetry_space_group_name_H-M   'P 1'
_cell_length_a   4.72728800
_cell_length_b   10.65774100
_cell_length_c   18.76406200
_cell_angle_alpha   90.00000000
_cell_angle_beta   90.00000000
_cell_angle_gamma   90.00000000
_symmetry_Int_Tables_number   1
_chemical_formula_structural   BeNb3TcTe4
_chemical_formula_sum   'Be4 Nb12 Tc4 Te16'
_cell_volume   945.37493346
_cell_formula_units_Z   4
loop_
 _symmetry_equiv_pos_site_id
 _symmetry_equiv_pos_as_xyz
  1  'x, y, z'
loop_
 _atom_site_type_symbol
 _atom_site_label
 _atom_site_symmetry_multiplicity
 _atom_site_fract_x
 _atom_site_fract_y
 _atom_site_fract_z
 _atom_site_occupancy
  Be  Be0  1  0.255373  0.500000  0.500000  1
  Be  Be1  1  0.744627  0.000000  0.000000  1
  Be  Be2  1  0.744627  0.500000  0.500000  1
  Be  Be3  1  0.255373  0.000000  0.000000  1
  Nb  Nb4  1  0.500000  0.702749  0.535845  1
  Nb  Nb5  1  0.500000  0.297251  0.464155  1
  Nb  Nb6  1  0.500000  0.202749  0.964155  1
  Nb  Nb7  1  0.500000  0.797251  0.035845  1
  Nb  Nb8  1  0.000000  0.685413  0.444113  1
  Nb  Nb9  1  0.000000  0.314587  0.555887  1
  Nb  Nb10  1  0.000000  0.185413  0.055887  1
  Nb  Nb11  1  0.000000  0.814587  0.944113  1
  Nb  Nb12  1  0.000000  0.403323  0.394539  1
  Nb  Nb13  1  0.000000  0.596677  0.605461  1
  Nb  Nb14  1  0.000000  0.903323  0.105461  1
  Nb  Nb15  1  0.000000  0.096677  0.894539  1
  Tc  Tc16  1  0.500000  0.560018  0.390624  1
  Tc  Tc17  1  0.500000  0.439982  0.609376  1
  Tc  Tc18  1  0.500000  0.060018  0.109376  1
  Tc  Tc19  1  0.500000  0.939982  0.890624  1
  Te  Te20  1  0.000000  0.855894  0.561760  1
  Te  Te21  1  0.000000  0.144106  0.438240  1
  Te  Te22  1  0.000000  0.355894  0.938240  1
  Te  Te23  1  0.000000  0.644106  0.061760  1
  Te  Te24  1  0.500000  0.341069  0.313756  1
  Te  Te25  1  0.500000  0.658931  0.686244  1
  Te  Te26  1  0.500000  0.841069  0.186244  1
  Te  Te27  1  0.500000  0.158931  0.813756  1
  Te  Te28  1  0.500000  0.817426  0.397622  1
  Te  Te29  1  0.500000  0.182574  0.602378  1
  Te  Te30  1  0.500000  0.317426  0.102378  1
  Te  Te31  1  0.500000  0.682574  0.897622  1
  Te  Te32  1  0.000000  0.610165  0.300019  1
  Te  Te33  1  0.000000  0.389835  0.699981  1
  Te  Te34  1  0.000000  0.110165  0.199981  1
  Te  Te35  1  0.000000  0.889835  0.800019  1
