# generated using pymatgen
data_DyY11Co6Pb
_symmetry_space_group_name_H-M   'P 1'
_cell_length_a   8.43045561
_cell_length_b   8.43045675
_cell_length_c   8.43202501
_cell_angle_alpha   109.47027728
_cell_angle_beta   109.47649544
_cell_angle_gamma   109.45935701
_symmetry_Int_Tables_number   1
_chemical_formula_structural   DyY11Co6Pb
_chemical_formula_sum   'Dy1 Y11 Co6 Pb1'
_cell_volume   461.37334776
_cell_formula_units_Z   1
loop_
 _symmetry_equiv_pos_site_id
 _symmetry_equiv_pos_as_xyz
  1  'x, y, z'
loop_
 _atom_site_type_symbol
 _atom_site_label
 _atom_site_symmetry_multiplicity
 _atom_site_fract_x
 _atom_site_fract_y
 _atom_site_fract_z
 _atom_site_occupancy
  Dy  Dy0  1  0.805792  0.694759  0.500550  1
  Y  Y1  1  0.194185  0.304533  0.498718  1
  Y  Y2  1  0.194119  0.695550  0.889669  1
  Y  Y3  1  0.805807  0.304513  0.110320  1
  Y  Y4  1  0.695478  0.501339  0.805704  1
  Y  Y5  1  0.304587  0.498652  0.194213  1
  Y  Y6  1  0.695560  0.889626  0.194213  1
  Y  Y7  1  0.304365  0.110226  0.805704  1
  Y  Y8  1  0.501419  0.805779  0.695461  1
  Y  Y9  1  0.498645  0.194280  0.304513  1
  Y  Y10  1  0.110233  0.805868  0.304513  1
  Y  Y11  1  0.889683  0.194043  0.695461  1
  Co  Co12  1  0.887811  0.388223  0.500033  1
  Co  Co13  1  0.111810  0.612222  0.500033  1
  Co  Co14  1  0.388018  0.499983  0.888002  1
  Co  Co15  1  0.612411  0.500408  0.112819  1
  Co  Co16  1  0.499967  0.887939  0.387906  1
  Co  Co17  1  0.500002  0.112060  0.612062  1
  Pb  Pb18  1  0.000109  0.999997  0.000107  1
