# generated using pymatgen
data_Dy3Lu7(GaSb)4
_symmetry_space_group_name_H-M   'P 1'
_cell_length_a   8.39504422
_cell_length_b   8.62825246
_cell_length_c   7.80792290
_cell_angle_alpha   89.96938133
_cell_angle_beta   89.83054642
_cell_angle_gamma   125.49948093
_symmetry_Int_Tables_number   1
_chemical_formula_structural   Dy3Lu7(GaSb)4
_chemical_formula_sum   'Dy3 Lu7 Ga4 Sb4'
_cell_volume   460.43319560
_cell_formula_units_Z   1
loop_
 _symmetry_equiv_pos_site_id
 _symmetry_equiv_pos_as_xyz
  1  'x, y, z'
loop_
 _atom_site_type_symbol
 _atom_site_label
 _atom_site_symmetry_multiplicity
 _atom_site_fract_x
 _atom_site_fract_y
 _atom_site_fract_z
 _atom_site_occupancy
  Dy  Dy0  1  0.187419  0.454139  0.828794  1
  Dy  Dy1  1  0.688837  0.955539  0.671829  1
  Dy  Dy2  1  0.314919  0.045935  0.327548  1
  Lu  Lu3  1  0.034059  0.285047  0.336438  1
  Lu  Lu4  1  0.968318  0.716902  0.663055  1
  Lu  Lu5  1  0.466725  0.214982  0.836338  1
  Lu  Lu6  1  0.805575  0.544579  0.168770  1
  Lu  Lu7  1  0.532553  0.783209  0.163501  1
  Lu  Lu8  1  0.998947  0.998819  0.001005  1
  Lu  Lu9  1  0.501600  0.500788  0.499921  1
  Ga  Ga10  1  0.372405  0.370841  0.127728  1
  Ga  Ga11  1  0.628179  0.628596  0.871803  1
  Ga  Ga12  1  0.129121  0.129332  0.628293  1
  Ga  Ga13  1  0.872557  0.869974  0.369936  1
  Sb  Sb14  1  0.780570  0.195766  0.018045  1
  Sb  Sb15  1  0.213006  0.801445  0.987372  1
  Sb  Sb16  1  0.720152  0.308561  0.513505  1
  Sb  Sb17  1  0.285058  0.695546  0.486121  1
