# generated using pymatgen
data_TmScP7Ru12
_symmetry_space_group_name_H-M   'P 1'
_cell_length_a   9.37480500
_cell_length_b   9.37480400
_cell_length_c   3.93258000
_cell_angle_alpha   90.00000000
_cell_angle_beta   90.00000000
_cell_angle_gamma   119.99999293
_symmetry_Int_Tables_number   1
_chemical_formula_structural   TmScP7Ru12
_chemical_formula_sum   'Tm1 Sc1 P7 Ru12'
_cell_volume   299.31788552
_cell_formula_units_Z   1
loop_
 _symmetry_equiv_pos_site_id
 _symmetry_equiv_pos_as_xyz
  1  'x, y, z'
loop_
 _atom_site_type_symbol
 _atom_site_label
 _atom_site_symmetry_multiplicity
 _atom_site_fract_x
 _atom_site_fract_y
 _atom_site_fract_z
 _atom_site_occupancy
  Tm  Tm0  1  0.333333  0.666667  0.000000  1
  Sc  Sc1  1  0.666667  0.333333  0.500000  1
  P  P2  1  0.599224  0.718385  0.500000  1
  P  P3  1  0.000000  0.000000  0.000000  1
  P  P4  1  0.281615  0.880839  0.500000  1
  P  P5  1  0.119161  0.400776  0.500000  1
  P  P6  1  0.882611  0.572512  0.000000  1
  P  P7  1  0.427488  0.310100  0.000000  1
  P  P8  1  0.689900  0.117389  0.000000  1
  Ru  Ru9  1  0.555931  0.950077  0.500000  1
  Ru  Ru10  1  0.394147  0.444069  0.500000  1
  Ru  Ru11  1  0.914247  0.122331  0.500000  1
  Ru  Ru12  1  0.208084  0.085753  0.500000  1
  Ru  Ru13  1  0.877669  0.791916  0.500000  1
  Ru  Ru14  1  0.726791  0.891467  0.000000  1
  Ru  Ru15  1  0.108533  0.835324  0.000000  1
  Ru  Ru16  1  0.164676  0.273209  0.000000  1
  Ru  Ru17  1  0.426565  0.068937  0.000000  1
  Ru  Ru18  1  0.931063  0.357629  0.000000  1
  Ru  Ru19  1  0.642371  0.573435  0.000000  1
  Ru  Ru20  1  0.049923  0.605853  0.500000  1
