# generated using pymatgen
data_Cs6Lu(IrBr6)3
_symmetry_space_group_name_H-M   'P 1'
_cell_length_a   7.84872200
_cell_length_b   7.84872131
_cell_length_c   19.77779900
_cell_angle_alpha   90.00000000
_cell_angle_beta   90.00000000
_cell_angle_gamma   119.99998604
_symmetry_Int_Tables_number   1
_chemical_formula_structural   Cs6Lu(IrBr6)3
_chemical_formula_sum   'Cs6 Lu1 Ir3 Br18'
_cell_volume   1055.13130177
_cell_formula_units_Z   1
loop_
 _symmetry_equiv_pos_site_id
 _symmetry_equiv_pos_as_xyz
  1  'x, y, z'
loop_
 _atom_site_type_symbol
 _atom_site_label
 _atom_site_symmetry_multiplicity
 _atom_site_fract_x
 _atom_site_fract_y
 _atom_site_fract_z
 _atom_site_occupancy
  Cs  Cs0  1  0.333333  0.666667  0.068483  1
  Cs  Cs1  1  0.666667  0.333333  0.935493  1
  Cs  Cs2  1  0.666667  0.333333  0.569882  1
  Cs  Cs3  1  0.333333  0.666667  0.434085  1
  Cs  Cs4  1  0.000000  0.000000  0.250450  1
  Cs  Cs5  1  0.000000  0.000000  0.746203  1
  Lu  Lu6  1  0.333333  0.666667  0.837558  1
  Ir  Ir7  1  0.333333  0.666667  0.667983  1
  Ir  Ir8  1  0.666667  0.333333  0.333777  1
  Ir  Ir9  1  0.666667  0.333333  0.166088  1
  Br  Br10  1  0.182763  0.365526  0.595733  1
  Br  Br11  1  0.817950  0.635900  0.404977  1
  Br  Br12  1  0.634474  0.817237  0.595733  1
  Br  Br13  1  0.817887  0.635775  0.094902  1
  Br  Br14  1  0.364100  0.182050  0.404977  1
  Br  Br15  1  0.167344  0.334688  0.909421  1
  Br  Br16  1  0.182763  0.817237  0.595733  1
  Br  Br17  1  0.364225  0.182113  0.094902  1
  Br  Br18  1  0.817950  0.182050  0.404977  1
  Br  Br19  1  0.665312  0.832656  0.909421  1
  Br  Br20  1  0.817887  0.182113  0.094902  1
  Br  Br21  1  0.167344  0.832656  0.909421  1
  Br  Br22  1  0.523436  0.046872  0.249949  1
  Br  Br23  1  0.488598  0.977196  0.741685  1
  Br  Br24  1  0.953128  0.476564  0.249949  1
  Br  Br25  1  0.022804  0.511402  0.741685  1
  Br  Br26  1  0.523436  0.476564  0.249949  1
  Br  Br27  1  0.488598  0.511402  0.741685  1
