# generated using pymatgen
data_Tb18Y2CdIn5Ru2
_symmetry_space_group_name_H-M   'P 1'
_cell_length_a   9.77334930
_cell_length_b   9.84217273
_cell_length_c   9.74879400
_cell_angle_alpha   90.00000000
_cell_angle_beta   90.00000000
_cell_angle_gamma   120.25988640
_symmetry_Int_Tables_number   1
_chemical_formula_structural   Tb18Y2CdIn5Ru2
_chemical_formula_sum   'Tb18 Y2 Cd1 In5 Ru2'
_cell_volume   809.97690607
_cell_formula_units_Z   1
loop_
 _symmetry_equiv_pos_site_id
 _symmetry_equiv_pos_as_xyz
  1  'x, y, z'
loop_
 _atom_site_type_symbol
 _atom_site_label
 _atom_site_symmetry_multiplicity
 _atom_site_fract_x
 _atom_site_fract_y
 _atom_site_fract_z
 _atom_site_occupancy
  Tb  Tb0  1  0.995878  0.997871  0.502304  1
  Tb  Tb1  1  0.995878  0.997871  0.997696  1
  Tb  Tb2  1  0.210470  0.790809  0.440393  1
  Tb  Tb3  1  0.210526  0.419731  0.440320  1
  Tb  Tb4  1  0.579160  0.789598  0.437164  1
  Tb  Tb5  1  0.790304  0.211330  0.559700  1
  Tb  Tb6  1  0.790090  0.578718  0.559607  1
  Tb  Tb7  1  0.419471  0.209718  0.561781  1
  Tb  Tb8  1  0.790304  0.211330  0.940300  1
  Tb  Tb9  1  0.790090  0.578718  0.940393  1
  Tb  Tb10  1  0.419471  0.209718  0.938219  1
  Tb  Tb11  1  0.210470  0.790809  0.059607  1
  Tb  Tb12  1  0.210526  0.419731  0.059680  1
  Tb  Tb13  1  0.579160  0.789598  0.062836  1
  Tb  Tb14  1  0.541831  0.459357  0.250000  1
  Tb  Tb15  1  0.461507  0.542951  0.750000  1
  Tb  Tb16  1  0.461559  0.918716  0.750000  1
  Tb  Tb17  1  0.082611  0.541384  0.750000  1
  Y  Y18  1  0.542041  0.082483  0.250000  1
  Y  Y19  1  0.922759  0.461196  0.250000  1
  Cd  Cd20  1  0.766991  0.883627  0.750000  1
  In  In21  1  0.884750  0.117994  0.250000  1
  In  In22  1  0.885218  0.767161  0.250000  1
  In  In23  1  0.230200  0.114612  0.250000  1
  In  In24  1  0.115626  0.882472  0.750000  1
  In  In25  1  0.115565  0.233431  0.750000  1
  Ru  Ru26  1  0.329634  0.665017  0.250000  1
  Ru  Ru27  1  0.667913  0.334046  0.750000  1
