# generated using pymatgen
data_Pr2B4Ir2OsRu
_symmetry_space_group_name_H-M   'P 1'
_cell_length_a   6.96511036
_cell_length_b   6.08353627
_cell_length_c   5.66523063
_cell_angle_alpha   72.61843340
_cell_angle_beta   56.46475562
_cell_angle_gamma   50.24315522
_symmetry_Int_Tables_number   1
_chemical_formula_structural   Pr2B4Ir2OsRu
_chemical_formula_sum   'Pr2 B4 Ir2 Os1 Ru1'
_cell_volume   153.26550163
_cell_formula_units_Z   1
loop_
 _symmetry_equiv_pos_site_id
 _symmetry_equiv_pos_as_xyz
  1  'x, y, z'
loop_
 _atom_site_type_symbol
 _atom_site_label
 _atom_site_symmetry_multiplicity
 _atom_site_fract_x
 _atom_site_fract_y
 _atom_site_fract_z
 _atom_site_occupancy
  Pr  Pr0  1  0.500635  0.500635  0.499365  1
  Pr  Pr1  1  0.747463  0.747463  0.752537  1
  B  B2  1  0.165536  0.829222  0.184587  1
  B  B3  1  0.073116  0.431718  0.059223  1
  B  B4  1  0.829222  0.165536  0.820655  1
  B  B5  1  0.431718  0.073116  0.435943  1
  Ir  Ir6  1  0.385690  0.385690  0.114310  1
  Ir  Ir7  1  0.118198  0.118198  0.381802  1
  Os  Os8  1  0.864501  0.864501  0.135499  1
  Ru  Ru9  1  0.133922  0.133922  0.866078  1
