# generated using pymatgen
data_Dy2MgAl3SiAu2
_symmetry_space_group_name_H-M   'P 1'
_cell_length_a   6.93003562
_cell_length_b   6.85694222
_cell_length_c   4.21910100
_cell_angle_alpha   90.00000000
_cell_angle_beta   90.00000000
_cell_angle_gamma   118.32802932
_symmetry_Int_Tables_number   1
_chemical_formula_structural   Dy2MgAl3SiAu2
_chemical_formula_sum   'Dy2 Mg1 Al3 Si1 Au2'
_cell_volume   176.47760628
_cell_formula_units_Z   1
loop_
 _symmetry_equiv_pos_site_id
 _symmetry_equiv_pos_as_xyz
  1  'x, y, z'
loop_
 _atom_site_type_symbol
 _atom_site_label
 _atom_site_symmetry_multiplicity
 _atom_site_fract_x
 _atom_site_fract_y
 _atom_site_fract_z
 _atom_site_occupancy
  Dy  Dy0  1  0.576705  0.004115  0.500000  1
  Dy  Dy1  1  0.992185  0.572864  0.500000  1
  Mg  Mg2  1  0.411796  0.417208  0.500000  1
  Al  Al3  1  0.756225  0.759991  0.000000  1
  Al  Al4  1  0.242721  0.994763  0.000000  1
  Al  Al5  1  0.000576  0.245066  0.000000  1
  Si  Si6  1  0.665477  0.335371  0.000000  1
  Au  Au7  1  0.337211  0.654636  0.000000  1
  Au  Au8  1  0.017105  0.015985  0.500000  1
