# generated using pymatgen
data_Eu4Mn3RhO14
_symmetry_space_group_name_H-M   'P 1'
_cell_length_a   7.26026668
_cell_length_b   7.26151326
_cell_length_c   7.26026700
_cell_angle_alpha   60.00567259
_cell_angle_beta   59.99999398
_cell_angle_gamma   60.00566934
_symmetry_Int_Tables_number   1
_chemical_formula_structural   Eu4Mn3RhO14
_chemical_formula_sum   'Eu4 Mn3 Rh1 O14'
_cell_volume   270.67896267
_cell_formula_units_Z   1
loop_
 _symmetry_equiv_pos_site_id
 _symmetry_equiv_pos_as_xyz
  1  'x, y, z'
loop_
 _atom_site_type_symbol
 _atom_site_label
 _atom_site_symmetry_multiplicity
 _atom_site_fract_x
 _atom_site_fract_y
 _atom_site_fract_z
 _atom_site_occupancy
  Eu  Eu0  1  0.125000  0.625000  0.125000  1
  Eu  Eu1  1  0.125000  0.125000  0.625000  1
  Eu  Eu2  1  0.625000  0.125000  0.125000  1
  Eu  Eu3  1  0.125000  0.125000  0.125000  1
  Mn  Mn4  1  0.625000  0.625000  0.625000  1
  Mn  Mn5  1  0.125000  0.625000  0.625000  1
  Mn  Mn6  1  0.625000  0.625000  0.125000  1
  Rh  Rh7  1  0.625000  0.125000  0.625000  1
  O  O8  1  0.298845  0.700714  0.701595  1
  O  O9  1  0.545535  0.951182  0.957748  1
  O  O10  1  0.701595  0.700714  0.298845  1
  O  O11  1  0.292252  0.298818  0.704465  1
  O  O12  1  0.000363  0.998911  0.000363  1
  O  O13  1  0.298845  0.700714  0.298845  1
  O  O14  1  0.704465  0.298818  0.704465  1
  O  O15  1  0.951155  0.549286  0.951155  1
  O  O16  1  0.548405  0.549286  0.951155  1
  O  O17  1  0.957748  0.951182  0.545535  1
  O  O18  1  0.249637  0.251089  0.249637  1
  O  O19  1  0.545535  0.951182  0.545535  1
  O  O20  1  0.704465  0.298818  0.292252  1
  O  O21  1  0.951155  0.549286  0.548405  1
