# generated using pymatgen
data_Ce3LuBi5
_symmetry_space_group_name_H-M   'P 1'
_cell_length_a   9.74077125
_cell_length_b   9.74170101
_cell_length_c   6.62848209
_cell_angle_alpha   89.99545036
_cell_angle_beta   90.01771311
_cell_angle_gamma   120.08632651
_symmetry_Int_Tables_number   1
_chemical_formula_structural   Ce3LuBi5
_chemical_formula_sum   'Ce6 Lu2 Bi10'
_cell_volume   544.24493229
_cell_formula_units_Z   2
loop_
 _symmetry_equiv_pos_site_id
 _symmetry_equiv_pos_as_xyz
  1  'x, y, z'
loop_
 _atom_site_type_symbol
 _atom_site_label
 _atom_site_symmetry_multiplicity
 _atom_site_fract_x
 _atom_site_fract_y
 _atom_site_fract_z
 _atom_site_occupancy
  Ce  Ce0  1  0.615865  0.998234  0.249901  1
  Ce  Ce1  1  0.997762  0.615493  0.249591  1
  Ce  Ce2  1  0.386480  0.386455  0.249935  1
  Ce  Ce3  1  0.383566  0.999597  0.750258  1
  Ce  Ce4  1  0.999687  0.384118  0.749839  1
  Ce  Ce5  1  0.616081  0.615908  0.750466  1
  Lu  Lu6  1  0.000595  0.000495  0.000146  1
  Lu  Lu7  1  0.000753  0.000583  0.499870  1
  Bi  Bi8  1  0.666558  0.332087  0.999800  1
  Bi  Bi9  1  0.331873  0.666268  0.999901  1
  Bi  Bi10  1  0.270671  0.000832  0.250032  1
  Bi  Bi11  1  0.001092  0.270750  0.249872  1
  Bi  Bi12  1  0.730473  0.730434  0.250314  1
  Bi  Bi13  1  0.666475  0.332202  0.500187  1
  Bi  Bi14  1  0.331925  0.666219  0.500067  1
  Bi  Bi15  1  0.730132  0.999852  0.749935  1
  Bi  Bi16  1  0.999568  0.729764  0.749938  1
  Bi  Bi17  1  0.270441  0.270707  0.749948  1
