# generated using pymatgen
data_Y7Er3(Bi2Te)2
_symmetry_space_group_name_H-M   'P 1'
_cell_length_a   8.17712700
_cell_length_b   9.45720818
_cell_length_c   12.01096700
_cell_angle_alpha   90.01127473
_cell_angle_beta   90.00000000
_cell_angle_gamma   90.00000000
_symmetry_Int_Tables_number   1
_chemical_formula_structural   Y7Er3(Bi2Te)2
_chemical_formula_sum   'Y14 Er6 Bi8 Te4'
_cell_volume   928.84159929
_cell_formula_units_Z   2
loop_
 _symmetry_equiv_pos_site_id
 _symmetry_equiv_pos_as_xyz
  1  'x, y, z'
loop_
 _atom_site_type_symbol
 _atom_site_label
 _atom_site_symmetry_multiplicity
 _atom_site_fract_x
 _atom_site_fract_y
 _atom_site_fract_z
 _atom_site_occupancy
  Y  Y0  1  0.180465  0.749903  0.717446  1
  Y  Y1  1  0.680465  0.750097  0.782554  1
  Y  Y2  1  0.819720  0.249761  0.282854  1
  Y  Y3  1  0.319720  0.250239  0.217146  1
  Y  Y4  1  0.689923  0.938242  0.058193  1
  Y  Y5  1  0.189923  0.561758  0.441807  1
  Y  Y6  1  0.690080  0.561224  0.058261  1
  Y  Y7  1  0.190080  0.938776  0.441739  1
  Y  Y8  1  0.309902  0.061402  0.941595  1
  Y  Y9  1  0.809902  0.438598  0.558405  1
  Y  Y10  1  0.354824  0.750034  0.212951  1
  Y  Y11  1  0.854824  0.749966  0.287049  1
  Y  Y12  1  0.645380  0.249642  0.786809  1
  Y  Y13  1  0.145380  0.250358  0.713191  1
  Er  Er14  1  0.024817  0.750000  0.989129  1
  Er  Er15  1  0.524817  0.750000  0.510871  1
  Er  Er16  1  0.975659  0.250353  0.010731  1
  Er  Er17  1  0.475659  0.249647  0.489269  1
  Er  Er18  1  0.309445  0.436336  0.941705  1
  Er  Er19  1  0.809445  0.063664  0.558295  1
  Bi  Bi20  1  0.431813  0.003651  0.672926  1
  Bi  Bi21  1  0.931813  0.496349  0.827074  1
  Bi  Bi22  1  0.568610  0.503818  0.327028  1
  Bi  Bi23  1  0.068610  0.996182  0.172972  1
  Bi  Bi24  1  0.568778  0.996081  0.327288  1
  Bi  Bi25  1  0.068778  0.503919  0.172712  1
  Bi  Bi26  1  0.431270  0.496141  0.673135  1
  Bi  Bi27  1  0.931270  0.003859  0.826865  1
  Te  Te28  1  0.406600  0.748152  0.958214  1
  Te  Te29  1  0.906600  0.751848  0.541786  1
  Te  Te30  1  0.592715  0.250045  0.041199  1
  Te  Te31  1  0.092715  0.249955  0.458801  1
