# generated using pymatgen
data_Tm12Tc3P
_symmetry_space_group_name_H-M   'P 1'
_cell_length_a   6.19342507
_cell_length_b   7.37430309
_cell_length_c   8.96662400
_cell_angle_alpha   90.00000000
_cell_angle_beta   90.00000000
_cell_angle_gamma   90.03768217
_symmetry_Int_Tables_number   1
_chemical_formula_structural   Tm12Tc3P
_chemical_formula_sum   'Tm12 Tc3 P1'
_cell_volume   409.52529937
_cell_formula_units_Z   1
loop_
 _symmetry_equiv_pos_site_id
 _symmetry_equiv_pos_as_xyz
  1  'x, y, z'
loop_
 _atom_site_type_symbol
 _atom_site_label
 _atom_site_symmetry_multiplicity
 _atom_site_fract_x
 _atom_site_fract_y
 _atom_site_fract_z
 _atom_site_occupancy
  Tm  Tm0  1  0.336789  0.676684  0.063769  1
  Tm  Tm1  1  0.157599  0.179093  0.435896  1
  Tm  Tm2  1  0.654550  0.315228  0.561706  1
  Tm  Tm3  1  0.850374  0.831352  0.938801  1
  Tm  Tm4  1  0.654550  0.315228  0.938294  1
  Tm  Tm5  1  0.850374  0.831352  0.561199  1
  Tm  Tm6  1  0.336789  0.676684  0.436231  1
  Tm  Tm7  1  0.157599  0.179093  0.064104  1
  Tm  Tm8  1  0.867806  0.539672  0.250000  1
  Tm  Tm9  1  0.618287  0.030589  0.250000  1
  Tm  Tm10  1  0.130258  0.459022  0.750000  1
  Tm  Tm11  1  0.367436  0.965567  0.750000  1
  Tc  Tc12  1  0.040402  0.878983  0.250000  1
  Tc  Tc13  1  0.460172  0.380909  0.250000  1
  Tc  Tc14  1  0.952835  0.120998  0.750000  1
  P  P15  1  0.564182  0.619549  0.750000  1
