# generated using pymatgen
data_HoEr2Zn2In3Ir
_symmetry_space_group_name_H-M   'P 1'
_cell_length_a   7.73458419
_cell_length_b   7.75276631
_cell_length_c   3.80914900
_cell_angle_alpha   90.00000000
_cell_angle_beta   90.00000000
_cell_angle_gamma   120.06722347
_symmetry_Int_Tables_number   1
_chemical_formula_structural   HoEr2Zn2In3Ir
_chemical_formula_sum   'Ho1 Er2 Zn2 In3 Ir1'
_cell_volume   197.67769678
_cell_formula_units_Z   1
loop_
 _symmetry_equiv_pos_site_id
 _symmetry_equiv_pos_as_xyz
  1  'x, y, z'
loop_
 _atom_site_type_symbol
 _atom_site_label
 _atom_site_symmetry_multiplicity
 _atom_site_fract_x
 _atom_site_fract_y
 _atom_site_fract_z
 _atom_site_occupancy
  Ho  Ho0  1  0.388948  0.974420  0.500000  1
  Er  Er1  1  0.027090  0.415377  0.500000  1
  Er  Er2  1  0.584456  0.611440  0.500000  1
  Zn  Zn3  1  0.666907  0.333594  0.000000  1
  Zn  Zn4  1  0.999886  0.999903  0.500000  1
  In  In5  1  0.739703  0.007845  0.000000  1
  In  In6  1  0.991865  0.731281  0.000000  1
  In  In7  1  0.268318  0.260818  0.000000  1
  Ir  Ir8  1  0.332828  0.665322  0.000000  1
