# generated using pymatgen
data_Er2B(IrRh)3
_symmetry_space_group_name_H-M   'P 1'
_cell_length_a   5.81267221
_cell_length_b   5.81267216
_cell_length_c   5.81374598
_cell_angle_alpha   60.00610595
_cell_angle_beta   60.00609915
_cell_angle_gamma   60.00000084
_symmetry_Int_Tables_number   1
_chemical_formula_structural   Er2B(IrRh)3
_chemical_formula_sum   'Er2 B1 Ir3 Rh3'
_cell_volume   138.90976385
_cell_formula_units_Z   1
loop_
 _symmetry_equiv_pos_site_id
 _symmetry_equiv_pos_as_xyz
  1  'x, y, z'
loop_
 _atom_site_type_symbol
 _atom_site_label
 _atom_site_symmetry_multiplicity
 _atom_site_fract_x
 _atom_site_fract_y
 _atom_site_fract_z
 _atom_site_occupancy
  Er  Er0  1  0.749831  0.749831  0.750505  1
  Er  Er1  1  0.250116  0.250116  0.249651  1
  B  B2  1  0.500394  0.500394  0.498818  1
  Ir  Ir3  1  0.758463  0.758463  0.242274  1
  Ir  Ir4  1  0.758463  0.240800  0.242274  1
  Ir  Ir5  1  0.240800  0.758463  0.242274  1
  Rh  Rh6  1  0.242177  0.242177  0.758068  1
  Rh  Rh7  1  0.757579  0.242177  0.758068  1
  Rh  Rh8  1  0.242177  0.757579  0.758068  1
