# generated using pymatgen
data_Pr5InIrO12
_symmetry_space_group_name_H-M   'P 1'
_cell_length_a   7.19744387
_cell_length_b   7.19744196
_cell_length_c   7.67416908
_cell_angle_alpha   74.48490231
_cell_angle_beta   74.48491032
_cell_angle_gamma   51.41204805
_symmetry_Int_Tables_number   1
_chemical_formula_structural   Pr5InIrO12
_chemical_formula_sum   'Pr5 In1 Ir1 O12'
_cell_volume   296.73353396
_cell_formula_units_Z   1
loop_
 _symmetry_equiv_pos_site_id
 _symmetry_equiv_pos_as_xyz
  1  'x, y, z'
loop_
 _atom_site_type_symbol
 _atom_site_label
 _atom_site_symmetry_multiplicity
 _atom_site_fract_x
 _atom_site_fract_y
 _atom_site_fract_z
 _atom_site_occupancy
  Pr  Pr0  1  0.303158  0.301472  0.359817  1
  Pr  Pr1  1  0.698528  0.696842  0.640183  1
  Pr  Pr2  1  0.689668  0.699322  0.167007  1
  Pr  Pr3  1  0.300678  0.310332  0.832993  1
  Pr  Pr4  1  0.010817  0.989183  0.500000  1
  In  In5  1  0.760943  0.239057  0.000000  1
  Ir  Ir6  1  0.248021  0.751979  0.000000  1
  O  O7  1  0.095667  0.596797  0.573804  1
  O  O8  1  0.030408  0.968809  0.181870  1
  O  O9  1  0.403203  0.904333  0.426196  1
  O  O10  1  0.475381  0.526042  0.180681  1
  O  O11  1  0.101259  0.583620  0.080617  1
  O  O12  1  0.905076  0.402879  0.422271  1
  O  O13  1  0.031191  0.969592  0.818130  1
  O  O14  1  0.597121  0.094923  0.577729  1
  O  O15  1  0.473958  0.524619  0.819319  1
  O  O16  1  0.560477  0.101934  0.082741  1
  O  O17  1  0.416380  0.898741  0.919383  1
  O  O18  1  0.898066  0.439523  0.917259  1
