# generated using pymatgen
data_Y2Tm8(AlSb)3
_symmetry_space_group_name_H-M   'P 1'
_cell_length_a   8.73301828
_cell_length_b   8.76067551
_cell_length_c   6.38449800
_cell_angle_alpha   90.00000000
_cell_angle_beta   90.00000000
_cell_angle_gamma   119.75726463
_symmetry_Int_Tables_number   1
_chemical_formula_structural   Y2Tm8(AlSb)3
_chemical_formula_sum   'Y2 Tm8 Al3 Sb3'
_cell_volume   424.04937818
_cell_formula_units_Z   1
loop_
 _symmetry_equiv_pos_site_id
 _symmetry_equiv_pos_as_xyz
  1  'x, y, z'
loop_
 _atom_site_type_symbol
 _atom_site_label
 _atom_site_symmetry_multiplicity
 _atom_site_fract_x
 _atom_site_fract_y
 _atom_site_fract_z
 _atom_site_occupancy
  Y  Y0  1  0.759531  0.001901  0.750000  1
  Y  Y1  1  0.243613  0.232689  0.750000  1
  Tm  Tm2  1  0.332659  0.679034  0.003000  1
  Tm  Tm3  1  0.666761  0.326043  0.497065  1
  Tm  Tm4  1  0.666761  0.326043  0.002935  1
  Tm  Tm5  1  0.332659  0.679034  0.497000  1
  Tm  Tm6  1  0.233295  0.988731  0.250000  1
  Tm  Tm7  1  0.987570  0.233810  0.250000  1
  Tm  Tm8  1  0.764217  0.764677  0.250000  1
  Tm  Tm9  1  0.012762  0.769646  0.750000  1
  Al  Al10  1  0.599872  0.999188  0.250000  1
  Al  Al11  1  0.403566  0.003193  0.750000  1
  Al  Al12  1  0.994869  0.600192  0.250000  1
  Sb  Sb13  1  0.387706  0.391560  0.250000  1
  Sb  Sb14  1  0.609357  0.606683  0.750000  1
  Sb  Sb15  1  0.004801  0.397574  0.750000  1
