# generated using pymatgen
data_Sm7ThTiPd24
_symmetry_space_group_name_H-M   'P 1'
_cell_length_a   8.46547823
_cell_length_b   8.46547823
_cell_length_c   8.46547823
_cell_angle_alpha   89.98110172
_cell_angle_beta   89.98110172
_cell_angle_gamma   89.98110172
_symmetry_Int_Tables_number   1
_chemical_formula_structural   Sm7ThTiPd24
_chemical_formula_sum   'Sm7 Th1 Ti1 Pd24'
_cell_volume   606.67265597
_cell_formula_units_Z   1
loop_
 _symmetry_equiv_pos_site_id
 _symmetry_equiv_pos_as_xyz
  1  'x, y, z'
loop_
 _atom_site_type_symbol
 _atom_site_label
 _atom_site_symmetry_multiplicity
 _atom_site_fract_x
 _atom_site_fract_y
 _atom_site_fract_z
 _atom_site_occupancy
  Sm  Sm0  1  0.747920  0.747920  0.747920  1
  Sm  Sm1  1  0.748226  0.748226  0.251961  1
  Sm  Sm2  1  0.748226  0.251961  0.748226  1
  Sm  Sm3  1  0.251806  0.251806  0.748447  1
  Sm  Sm4  1  0.251806  0.748447  0.251806  1
  Sm  Sm5  1  0.251961  0.748226  0.748226  1
  Sm  Sm6  1  0.748447  0.251806  0.251806  1
  Th  Th7  1  0.252552  0.252552  0.252552  1
  Ti  Ti8  1  0.999330  0.999330  0.999330  1
  Pd  Pd9  1  0.261930  0.499277  0.001037  1
  Pd  Pd10  1  0.738126  0.500049  0.000088  1
  Pd  Pd11  1  0.001037  0.261930  0.499277  1
  Pd  Pd12  1  0.499277  0.261930  0.001037  1
  Pd  Pd13  1  0.000088  0.738126  0.500049  1
  Pd  Pd14  1  0.500049  0.738126  0.000088  1
  Pd  Pd15  1  0.499277  0.001037  0.261930  1
  Pd  Pd16  1  0.261930  0.001037  0.499277  1
  Pd  Pd17  1  0.500049  0.000088  0.738126  1
  Pd  Pd18  1  0.738126  0.000088  0.500049  1
  Pd  Pd19  1  0.001037  0.499277  0.261930  1
  Pd  Pd20  1  0.000088  0.500049  0.738126  1
  Pd  Pd21  1  0.253575  0.499164  0.499164  1
  Pd  Pd22  1  0.746635  0.499954  0.499954  1
  Pd  Pd23  1  0.499164  0.253575  0.499164  1
  Pd  Pd24  1  0.499954  0.746635  0.499954  1
  Pd  Pd25  1  0.499164  0.499164  0.253575  1
  Pd  Pd26  1  0.499954  0.499954  0.746635  1
  Pd  Pd27  1  0.297595  0.000160  0.000160  1
  Pd  Pd28  1  0.702485  0.999933  0.999933  1
  Pd  Pd29  1  0.000160  0.297595  0.000160  1
  Pd  Pd30  1  0.999933  0.702485  0.999933  1
  Pd  Pd31  1  0.000160  0.000160  0.297595  1
  Pd  Pd32  1  0.999933  0.999933  0.702485  1
