# generated using pymatgen
data_VCdBiF12
_symmetry_space_group_name_H-M   'P 1'
_cell_length_a   5.39390281
_cell_length_b   5.70376270
_cell_length_c   9.37856400
_cell_angle_alpha   73.85767206
_cell_angle_beta   88.68627528
_cell_angle_gamma   62.34458148
_symmetry_Int_Tables_number   1
_chemical_formula_structural   VCdBiF12
_chemical_formula_sum   'V1 Cd1 Bi1 F12'
_cell_volume   243.57959090
_cell_formula_units_Z   1
loop_
 _symmetry_equiv_pos_site_id
 _symmetry_equiv_pos_as_xyz
  1  'x, y, z'
loop_
 _atom_site_type_symbol
 _atom_site_label
 _atom_site_symmetry_multiplicity
 _atom_site_fract_x
 _atom_site_fract_y
 _atom_site_fract_z
 _atom_site_occupancy
  V  V0  1  0.769349  0.006882  0.235693  1
  Cd  Cd1  1  0.491958  0.507144  0.487604  1
  Bi  Bi2  1  0.230281  0.989990  0.768111  1
  F  F3  1  0.932344  0.218759  0.202834  1
  F  F4  1  0.044142  0.747447  0.797696  1
  F  F5  1  0.002273  0.779613  0.142395  1
  F  F6  1  0.488751  0.770919  0.629951  1
  F  F7  1  0.539121  0.213946  0.358129  1
  F  F8  1  0.961280  0.240856  0.566030  1
  F  F9  1  0.028081  0.778918  0.414321  1
  F  F10  1  0.419526  0.243121  0.697530  1
  F  F11  1  0.600845  0.777731  0.299570  1
  F  F12  1  0.528467  0.757681  0.945831  1
  F  F13  1  0.506349  0.213875  0.082913  1
  F  F14  1  0.957235  0.253118  0.871392  1
