# generated using pymatgen
data_GdHo7(Se2O)4
_symmetry_space_group_name_H-M   'P 1'
_cell_length_a   3.91542300
_cell_length_b   7.00401400
_cell_length_c   16.15601602
_cell_angle_alpha   89.99615947
_cell_angle_beta   90.00000000
_cell_angle_gamma   90.00000000
_symmetry_Int_Tables_number   1
_chemical_formula_structural   GdHo7(Se2O)4
_chemical_formula_sum   'Gd1 Ho7 Se8 O4'
_cell_volume   443.05737218
_cell_formula_units_Z   1
loop_
 _symmetry_equiv_pos_site_id
 _symmetry_equiv_pos_as_xyz
  1  'x, y, z'
loop_
 _atom_site_type_symbol
 _atom_site_label
 _atom_site_symmetry_multiplicity
 _atom_site_fract_x
 _atom_site_fract_y
 _atom_site_fract_z
 _atom_site_occupancy
  Gd  Gd0  1  0.750000  0.200179  0.460416  1
  Ho  Ho1  1  0.250000  0.696354  0.037263  1
  Ho  Ho2  1  0.750000  0.739757  0.841138  1
  Ho  Ho3  1  0.250000  0.239197  0.659542  1
  Ho  Ho4  1  0.250000  0.260670  0.158334  1
  Ho  Ho5  1  0.250000  0.803115  0.537938  1
  Ho  Ho6  1  0.750000  0.760444  0.340718  1
  Ho  Ho7  1  0.750000  0.304031  0.962410  1
  Se  Se8  1  0.750000  0.552488  0.181673  1
  Se  Se9  1  0.750000  0.490724  0.599602  1
  Se  Se10  1  0.250000  0.447400  0.818878  1
  Se  Se11  1  0.750000  0.010700  0.098238  1
  Se  Se12  1  0.250000  0.051637  0.317245  1
  Se  Se13  1  0.250000  0.989321  0.901978  1
  Se  Se14  1  0.750000  0.947219  0.682415  1
  Se  Se15  1  0.250000  0.512284  0.400852  1
  O  O16  1  0.250000  0.125466  0.531604  1
  O  O17  1  0.750000  0.868801  0.469558  1
  O  O18  1  0.750000  0.627243  0.970112  1
  O  O19  1  0.250000  0.372972  0.030087  1
