# generated using pymatgen
data_Cs12In2BiSb5
_symmetry_space_group_name_H-M   'P 1'
_cell_length_a   6.63195600
_cell_length_b   11.44400327
_cell_length_c   13.52116125
_cell_angle_alpha   78.52175175
_cell_angle_beta   90.00000000
_cell_angle_gamma   90.00000000
_symmetry_Int_Tables_number   1
_chemical_formula_structural   Cs12In2BiSb5
_chemical_formula_sum   'Cs12 In2 Bi1 Sb5'
_cell_volume   1005.68001462
_cell_formula_units_Z   1
loop_
 _symmetry_equiv_pos_site_id
 _symmetry_equiv_pos_as_xyz
  1  'x, y, z'
loop_
 _atom_site_type_symbol
 _atom_site_label
 _atom_site_symmetry_multiplicity
 _atom_site_fract_x
 _atom_site_fract_y
 _atom_site_fract_z
 _atom_site_occupancy
  Cs  Cs0  1  0.750000  0.460236  0.077916  1
  Cs  Cs1  1  0.250000  0.540822  0.921493  1
  Cs  Cs2  1  0.750000  0.739620  0.229908  1
  Cs  Cs3  1  0.250000  0.261283  0.769802  1
  Cs  Cs4  1  0.250000  0.566988  0.535464  1
  Cs  Cs5  1  0.750000  0.433093  0.464815  1
  Cs  Cs6  1  0.250000  0.865655  0.017640  1
  Cs  Cs7  1  0.750000  0.132557  0.980084  1
  Cs  Cs8  1  0.250000  0.877510  0.673614  1
  Cs  Cs9  1  0.750000  0.122226  0.327390  1
  Cs  Cs10  1  0.250000  0.918856  0.370118  1
  Cs  Cs11  1  0.750000  0.079950  0.631058  1
  In  In12  1  0.250000  0.325198  0.280812  1
  In  In13  1  0.750000  0.676911  0.721498  1
  Bi  Bi14  1  0.250000  0.174973  0.124396  1
  Sb  Sb15  1  0.750000  0.823275  0.872917  1
  Sb  Sb16  1  0.250000  0.211760  0.488600  1
  Sb  Sb17  1  0.750000  0.787908  0.512471  1
  Sb  Sb18  1  0.250000  0.575523  0.224166  1
  Sb  Sb19  1  0.750000  0.425657  0.775836  1
