# generated using pymatgen
data_Dy2Mg2AlGa3Pt4
_symmetry_space_group_name_H-M   'P 1'
_cell_length_a   4.23927600
_cell_length_b   6.73051506
_cell_length_c   7.82123232
_cell_angle_alpha   84.19950495
_cell_angle_beta   90.00000000
_cell_angle_gamma   90.00000000
_symmetry_Int_Tables_number   1
_chemical_formula_structural   Dy2Mg2AlGa3Pt4
_chemical_formula_sum   'Dy2 Mg2 Al1 Ga3 Pt4'
_cell_volume   222.01678413
_cell_formula_units_Z   1
loop_
 _symmetry_equiv_pos_site_id
 _symmetry_equiv_pos_as_xyz
  1  'x, y, z'
loop_
 _atom_site_type_symbol
 _atom_site_label
 _atom_site_symmetry_multiplicity
 _atom_site_fract_x
 _atom_site_fract_y
 _atom_site_fract_z
 _atom_site_occupancy
  Dy  Dy0  1  0.750000  0.029266  0.688085  1
  Dy  Dy1  1  0.250000  0.965558  0.313675  1
  Mg  Mg2  1  0.250000  0.469403  0.164906  1
  Mg  Mg3  1  0.750000  0.529142  0.832495  1
  Al  Al4  1  0.250000  0.365330  0.553099  1
  Ga  Ga5  1  0.250000  0.842783  0.938811  1
  Ga  Ga6  1  0.750000  0.157574  0.062564  1
  Ga  Ga7  1  0.750000  0.640821  0.446340  1
  Pt  Pt8  1  0.250000  0.719346  0.636599  1
  Pt  Pt9  1  0.750000  0.280564  0.368559  1
  Pt  Pt10  1  0.750000  0.756935  0.118453  1
  Pt  Pt11  1  0.250000  0.243280  0.876413  1
