# generated using pymatgen
data_LaTb3(ScPt)4
_symmetry_space_group_name_H-M   'P 1'
_cell_length_a   4.66565500
_cell_length_b   7.03979261
_cell_length_c   8.49070666
_cell_angle_alpha   90.16197935
_cell_angle_beta   90.00000000
_cell_angle_gamma   90.00000000
_symmetry_Int_Tables_number   1
_chemical_formula_structural   LaTb3(ScPt)4
_chemical_formula_sum   'La1 Tb3 Sc4 Pt4'
_cell_volume   278.87821385
_cell_formula_units_Z   1
loop_
 _symmetry_equiv_pos_site_id
 _symmetry_equiv_pos_as_xyz
  1  'x, y, z'
loop_
 _atom_site_type_symbol
 _atom_site_label
 _atom_site_symmetry_multiplicity
 _atom_site_fract_x
 _atom_site_fract_y
 _atom_site_fract_z
 _atom_site_occupancy
  La  La0  1  0.750000  0.514731  0.822930  1
  Tb  Tb1  1  0.250000  0.983998  0.322867  1
  Tb  Tb2  1  0.750000  0.016966  0.674478  1
  Tb  Tb3  1  0.250000  0.483174  0.180493  1
  Sc  Sc4  1  0.750000  0.640970  0.423713  1
  Sc  Sc5  1  0.250000  0.359468  0.568053  1
  Sc  Sc6  1  0.750000  0.138568  0.075860  1
  Sc  Sc7  1  0.250000  0.862884  0.926873  1
  Pt  Pt8  1  0.250000  0.238422  0.907552  1
  Pt  Pt9  1  0.750000  0.758195  0.100254  1
  Pt  Pt10  1  0.250000  0.746104  0.592750  1
  Pt  Pt11  1  0.750000  0.256521  0.404177  1
