# generated using pymatgen
data_Dy2ScCu12
_symmetry_space_group_name_H-M   'P 1'
_cell_length_a   4.95873178
_cell_length_b   4.95873135
_cell_length_c   10.53719433
_cell_angle_alpha   94.86785340
_cell_angle_beta   94.86786207
_cell_angle_gamma   119.93426085
_symmetry_Int_Tables_number   1
_chemical_formula_structural   Dy2ScCu12
_chemical_formula_sum   'Dy2 Sc1 Cu12'
_cell_volume   221.28422745
_cell_formula_units_Z   1
loop_
 _symmetry_equiv_pos_site_id
 _symmetry_equiv_pos_as_xyz
  1  'x, y, z'
loop_
 _atom_site_type_symbol
 _atom_site_label
 _atom_site_symmetry_multiplicity
 _atom_site_fract_x
 _atom_site_fract_y
 _atom_site_fract_z
 _atom_site_occupancy
  Dy  Dy0  1  0.997455  0.997455  0.992154  1
  Dy  Dy1  1  0.133920  0.133920  0.361735  1
  Sc  Sc2  1  0.858566  0.858566  0.640367  1
  Cu  Cu3  1  0.663420  0.337511  0.999554  1
  Cu  Cu4  1  0.337511  0.663420  0.999554  1
  Cu  Cu5  1  0.570053  0.069502  0.197286  1
  Cu  Cu6  1  0.069502  0.570053  0.197286  1
  Cu  Cu7  1  0.572200  0.572200  0.202719  1
  Cu  Cu8  1  0.810412  0.480787  0.409850  1
  Cu  Cu9  1  0.480787  0.810412  0.409850  1
  Cu  Cu10  1  0.528298  0.189406  0.595769  1
  Cu  Cu11  1  0.189406  0.528298  0.595769  1
  Cu  Cu12  1  0.426330  0.426330  0.794788  1
  Cu  Cu13  1  0.931214  0.430927  0.801660  1
  Cu  Cu14  1  0.430927  0.931214  0.801660  1
