# generated using pymatgen
data_PuAgN3O11
_symmetry_space_group_name_H-M   'P 1'
_cell_length_a   8.19236129
_cell_length_b   8.19236092
_cell_length_c   8.19236100
_cell_angle_alpha   69.53033599
_cell_angle_beta   110.46966305
_cell_angle_gamma   110.46966016
_symmetry_Int_Tables_number   1
_chemical_formula_structural   PuAgN3O11
_chemical_formula_sum   'Pu2 Ag2 N6 O22'
_cell_volume   466.10539288
_cell_formula_units_Z   2
loop_
 _symmetry_equiv_pos_site_id
 _symmetry_equiv_pos_as_xyz
  1  'x, y, z'
loop_
 _atom_site_type_symbol
 _atom_site_label
 _atom_site_symmetry_multiplicity
 _atom_site_fract_x
 _atom_site_fract_y
 _atom_site_fract_z
 _atom_site_occupancy
  Pu  Pu0  1  0.750000  0.249999  0.250001  1
  Pu  Pu1  1  0.250000  0.749999  0.750001  1
  Ag  Ag2  1  0.000000  0.000000  0.000000  1
  Ag  Ag3  1  0.500000  0.499999  0.500001  1
  N  N4  1  0.562033  0.750000  0.062034  1
  N  N5  1  0.062033  0.562033  0.250000  1
  N  N6  1  0.250000  0.062034  0.437967  1
  N  N7  1  0.750000  0.937966  0.562035  1
  N  N8  1  0.937966  0.437966  0.750000  1
  N  N9  1  0.437967  0.250001  0.937966  1
  O  O10  1  0.412386  0.626219  0.064013  1
  O  O11  1  0.435987  0.126219  0.087614  1
  O  O12  1  0.912386  0.564013  0.126219  1
  O  O13  1  0.846255  0.153744  0.153746  1
  O  O14  1  0.693601  0.750001  0.193601  1
  O  O15  1  0.193600  0.693601  0.250000  1
  O  O16  1  0.250000  0.193601  0.306400  1
  O  O17  1  0.653745  0.346254  0.346256  1
  O  O18  1  0.064013  0.412385  0.373781  1
  O  O19  1  0.626219  0.935987  0.412385  1
  O  O20  1  0.126219  0.912386  0.435987  1
  O  O21  1  0.873782  0.087616  0.564013  1
  O  O22  1  0.373781  0.064013  0.587614  1
  O  O23  1  0.935987  0.587615  0.626219  1
  O  O24  1  0.346255  0.653744  0.653746  1
  O  O25  1  0.750000  0.806400  0.693600  1
  O  O26  1  0.806400  0.306400  0.750000  1
  O  O27  1  0.306400  0.250001  0.806400  1
  O  O28  1  0.153745  0.846254  0.846256  1
  O  O29  1  0.087615  0.435986  0.873782  1
  O  O30  1  0.564013  0.873781  0.912385  1
  O  O31  1  0.587616  0.373781  0.935988  1
