# generated using pymatgen
data_Dy2Sc3In4IrRh
_symmetry_space_group_name_H-M   'P 1'
_cell_length_a   3.53319300
_cell_length_b   7.83339167
_cell_length_c   17.74769612
_cell_angle_alpha   89.94396857
_cell_angle_beta   90.00000000
_cell_angle_gamma   90.00000000
_symmetry_Int_Tables_number   1
_chemical_formula_structural   Dy2Sc3In4IrRh
_chemical_formula_sum   'Dy4 Sc6 In8 Ir2 Rh2'
_cell_volume   491.20070259
_cell_formula_units_Z   2
loop_
 _symmetry_equiv_pos_site_id
 _symmetry_equiv_pos_as_xyz
  1  'x, y, z'
loop_
 _atom_site_type_symbol
 _atom_site_label
 _atom_site_symmetry_multiplicity
 _atom_site_fract_x
 _atom_site_fract_y
 _atom_site_fract_z
 _atom_site_occupancy
  Dy  Dy0  1  0.000000  0.753680  0.782021  1
  Dy  Dy1  1  0.000000  0.246320  0.217979  1
  Dy  Dy2  1  0.000000  0.251642  0.717931  1
  Dy  Dy3  1  0.000000  0.748358  0.282069  1
  Sc  Sc4  1  0.000000  0.000000  0.000000  1
  Sc  Sc5  1  0.000000  0.500000  0.500000  1
  Sc  Sc6  1  0.000000  0.881639  0.587277  1
  Sc  Sc7  1  0.000000  0.118361  0.412723  1
  Sc  Sc8  1  0.000000  0.381675  0.912630  1
  Sc  Sc9  1  0.000000  0.618325  0.087370  1
  In  In10  1  0.500000  0.798844  0.440644  1
  In  In11  1  0.500000  0.201156  0.559356  1
  In  In12  1  0.500000  0.299522  0.059236  1
  In  In13  1  0.500000  0.700478  0.940764  1
  In  In14  1  0.500000  0.922488  0.145197  1
  In  In15  1  0.500000  0.077512  0.854803  1
  In  In16  1  0.500000  0.423311  0.354424  1
  In  In17  1  0.500000  0.576689  0.645576  1
  Ir  Ir18  1  0.500000  0.966730  0.692677  1
  Ir  Ir19  1  0.500000  0.033270  0.307323  1
  Rh  Rh20  1  0.500000  0.466695  0.808510  1
  Rh  Rh21  1  0.500000  0.533305  0.191490  1
