# generated using pymatgen
data_Pr7Nd(Si3Ir)4
_symmetry_space_group_name_H-M   'P 1'
_cell_length_a   8.27934200
_cell_length_b   8.27968798
_cell_length_c   8.54990700
_cell_angle_alpha   90.00000000
_cell_angle_beta   90.00000000
_cell_angle_gamma   119.99861772
_symmetry_Int_Tables_number   1
_chemical_formula_structural   Pr7Nd(Si3Ir)4
_chemical_formula_sum   'Pr7 Nd1 Si12 Ir4'
_cell_volume   507.58393110
_cell_formula_units_Z   1
loop_
 _symmetry_equiv_pos_site_id
 _symmetry_equiv_pos_as_xyz
  1  'x, y, z'
loop_
 _atom_site_type_symbol
 _atom_site_label
 _atom_site_symmetry_multiplicity
 _atom_site_fract_x
 _atom_site_fract_y
 _atom_site_fract_z
 _atom_site_occupancy
  Pr  Pr0  1  0.000009  0.000018  0.750000  1
  Pr  Pr1  1  0.000012  0.000024  0.250000  1
  Pr  Pr2  1  0.499182  0.500830  0.750000  1
  Pr  Pr3  1  0.499196  0.998395  0.750000  1
  Pr  Pr4  1  0.001647  0.500830  0.750000  1
  Pr  Pr5  1  0.500839  0.499139  0.250000  1
  Pr  Pr6  1  0.998302  0.499139  0.250000  1
  Nd  Nd7  1  0.500798  0.001593  0.250000  1
  Si  Si8  1  0.832844  0.166711  0.000246  1
  Si  Si9  1  0.833179  0.666359  0.999512  1
  Si  Si10  1  0.333867  0.166711  0.000246  1
  Si  Si11  1  0.832844  0.166711  0.499754  1
  Si  Si12  1  0.833179  0.666359  0.500488  1
  Si  Si13  1  0.333867  0.166711  0.499754  1
  Si  Si14  1  0.167140  0.833288  0.498995  1
  Si  Si15  1  0.666149  0.833288  0.498995  1
  Si  Si16  1  0.166820  0.333640  0.499669  1
  Si  Si17  1  0.167140  0.833288  0.001005  1
  Si  Si18  1  0.666149  0.833288  0.001005  1
  Si  Si19  1  0.166820  0.333640  0.000331  1
  Ir  Ir20  1  0.666570  0.333140  0.998579  1
  Ir  Ir21  1  0.666570  0.333140  0.501421  1
  Ir  Ir22  1  0.333439  0.666879  0.497114  1
  Ir  Ir23  1  0.333439  0.666879  0.002886  1
