# generated using pymatgen
data_NdFe3As12Ir
_symmetry_space_group_name_H-M   'P 1'
_cell_length_a   7.30670394
_cell_length_b   7.30670326
_cell_length_c   7.30670372
_cell_angle_alpha   109.54283689
_cell_angle_beta   109.54283956
_cell_angle_gamma   109.54284585
_symmetry_Int_Tables_number   1
_chemical_formula_structural   NdFe3As12Ir
_chemical_formula_sum   'Nd1 Fe3 As12 Ir1'
_cell_volume   299.49226976
_cell_formula_units_Z   1
loop_
 _symmetry_equiv_pos_site_id
 _symmetry_equiv_pos_as_xyz
  1  'x, y, z'
loop_
 _atom_site_type_symbol
 _atom_site_label
 _atom_site_symmetry_multiplicity
 _atom_site_fract_x
 _atom_site_fract_y
 _atom_site_fract_z
 _atom_site_occupancy
  Nd  Nd0  1  0.000000  0.000000  0.000000  1
  Fe  Fe1  1  0.500000  0.000000  0.000000  1
  Fe  Fe2  1  0.000000  0.500000  0.000000  1
  Fe  Fe3  1  0.000000  0.000000  0.500000  1
  As  As4  1  0.858224  0.662494  0.502484  1
  As  As5  1  0.141776  0.337506  0.497516  1
  As  As6  1  0.156228  0.659761  0.815054  1
  As  As7  1  0.843772  0.340239  0.184946  1
  As  As8  1  0.662494  0.502484  0.858224  1
  As  As9  1  0.337506  0.497516  0.141776  1
  As  As10  1  0.659761  0.815054  0.156228  1
  As  As11  1  0.340239  0.184946  0.843772  1
  As  As12  1  0.502484  0.858224  0.662494  1
  As  As13  1  0.497516  0.141776  0.337506  1
  As  As14  1  0.184946  0.843772  0.340239  1
  As  As15  1  0.815054  0.156228  0.659761  1
  Ir  Ir16  1  0.500000  0.500000  0.500000  1
