# generated using pymatgen
data_Tm3Lu2(ReN4)3
_symmetry_space_group_name_H-M   'P 1'
_cell_length_a   10.97719529
_cell_length_b   10.97719468
_cell_length_c   10.97719500
_cell_angle_alpha   109.47122122
_cell_angle_beta   109.47122011
_cell_angle_gamma   109.47121966
_symmetry_Int_Tables_number   1
_chemical_formula_structural   Tm3Lu2(ReN4)3
_chemical_formula_sum   'Tm12 Lu8 Re12 N48'
_cell_volume   1018.24491591
_cell_formula_units_Z   4
loop_
 _symmetry_equiv_pos_site_id
 _symmetry_equiv_pos_as_xyz
  1  'x, y, z'
loop_
 _atom_site_type_symbol
 _atom_site_label
 _atom_site_symmetry_multiplicity
 _atom_site_fract_x
 _atom_site_fract_y
 _atom_site_fract_z
 _atom_site_occupancy
  Tm  Tm0  1  0.250000  0.375000  0.125000  1
  Tm  Tm1  1  0.375000  0.750000  0.125000  1
  Tm  Tm2  1  0.375000  0.125000  0.250000  1
  Tm  Tm3  1  0.875000  0.625000  0.250000  1
  Tm  Tm4  1  0.750000  0.125000  0.375000  1
  Tm  Tm5  1  0.125000  0.250000  0.375000  1
  Tm  Tm6  1  0.875000  0.750000  0.624999  1
  Tm  Tm7  1  0.250000  0.875000  0.625000  1
  Tm  Tm8  1  0.125000  0.375000  0.750000  1
  Tm  Tm9  1  0.624999  0.875000  0.750000  1
  Tm  Tm10  1  0.625000  0.250000  0.875000  1
  Tm  Tm11  1  0.750000  0.624999  0.875000  1
  Lu  Lu12  1  0.000000  0.000000  0.000000  1
  Lu  Lu13  1  0.499999  0.000000  0.000000  1
  Lu  Lu14  1  0.000000  0.499999  0.000000  1
  Lu  Lu15  1  0.500000  0.500000  0.000000  1
  Lu  Lu16  1  0.000000  0.000000  0.499999  1
  Lu  Lu17  1  0.500000  0.000000  0.500000  1
  Lu  Lu18  1  0.000000  0.500000  0.500000  1
  Lu  Lu19  1  0.499999  0.499999  0.499999  1
  Re  Re20  1  0.875000  0.250001  0.125000  1
  Re  Re21  1  0.750000  0.875000  0.125000  1
  Re  Re22  1  0.624999  0.375000  0.250000  1
  Re  Re23  1  0.125000  0.875000  0.250001  1
  Re  Re24  1  0.250000  0.624999  0.375000  1
  Re  Re25  1  0.625000  0.750000  0.375000  1
  Re  Re26  1  0.375000  0.250000  0.624999  1
  Re  Re27  1  0.750000  0.375000  0.625000  1
  Re  Re28  1  0.875000  0.125000  0.750000  1
  Re  Re29  1  0.375000  0.625000  0.750000  1
  Re  Re30  1  0.250001  0.125000  0.875000  1
  Re  Re31  1  0.125000  0.750000  0.875000  1
  N  N32  1  0.224038  0.127306  0.030874  1
  N  N33  1  0.306836  0.903568  0.030874  1
  N  N34  1  0.724037  0.693163  0.096732  1
  N  N35  1  0.872695  0.403569  0.096732  1
  N  N36  1  0.627306  0.403268  0.096432  1
  N  N37  1  0.969125  0.693163  0.096431  1
  N  N38  1  0.030874  0.224038  0.127306  1
  N  N39  1  0.596431  0.903268  0.127305  1
  N  N40  1  0.469126  0.596432  0.193163  1
  N  N41  1  0.224037  0.596732  0.193163  1
  N  N42  1  0.127306  0.030874  0.224038  1
  N  N43  1  0.596732  0.193163  0.224037  1
  N  N44  1  0.469126  0.372695  0.275963  1
  N  N45  1  0.306836  0.903268  0.275963  1
  N  N46  1  0.903268  0.275963  0.306836  1
  N  N47  1  0.903568  0.030874  0.306836  1
  N  N48  1  0.275963  0.469126  0.372695  1
  N  N49  1  0.596732  0.903569  0.372694  1
  N  N50  1  0.806837  0.530874  0.403569  1
  N  N51  1  0.096732  0.872695  0.403569  1
  N  N52  1  0.806837  0.775962  0.403268  1
  N  N53  1  0.096432  0.627306  0.403268  1
  N  N54  1  0.596432  0.193163  0.469126  1
  N  N55  1  0.372695  0.275963  0.469126  1
  N  N56  1  0.403569  0.806837  0.530874  1
  N  N57  1  0.627306  0.724037  0.530874  1
  N  N58  1  0.193163  0.224037  0.596732  1
  N  N59  1  0.903569  0.372694  0.596732  1
  N  N60  1  0.193163  0.469126  0.596432  1
  N  N61  1  0.903268  0.127305  0.596431  1
  N  N62  1  0.403268  0.096432  0.627306  1
  N  N63  1  0.724037  0.530874  0.627306  1
  N  N64  1  0.096732  0.724037  0.693163  1
  N  N65  1  0.096431  0.969125  0.693163  1
  N  N66  1  0.693163  0.096732  0.724037  1
  N  N67  1  0.530874  0.627306  0.724037  1
  N  N68  1  0.872695  0.969126  0.775963  1
  N  N69  1  0.403268  0.806837  0.775962  1
  N  N70  1  0.530874  0.403569  0.806837  1
  N  N71  1  0.775962  0.403268  0.806837  1
  N  N72  1  0.403569  0.096732  0.872695  1
  N  N73  1  0.969126  0.775963  0.872695  1
  N  N74  1  0.372694  0.596732  0.903569  1
  N  N75  1  0.030874  0.306836  0.903568  1
  N  N76  1  0.275963  0.306836  0.903268  1
  N  N77  1  0.127305  0.596431  0.903268  1
  N  N78  1  0.693163  0.096431  0.969125  1
  N  N79  1  0.775963  0.872695  0.969126  1
