# generated using pymatgen
data_SrLa2Pr4CoI12
_symmetry_space_group_name_H-M   'P 1'
_cell_length_a   10.17265108
_cell_length_b   10.14246701
_cell_length_c   10.03271993
_cell_angle_alpha   106.62467999
_cell_angle_beta   106.01389560
_cell_angle_gamma   106.18904714
_symmetry_Int_Tables_number   1
_chemical_formula_structural   SrLa2Pr4CoI12
_chemical_formula_sum   'Sr1 La2 Pr4 Co1 I12'
_cell_volume   878.52130496
_cell_formula_units_Z   1
loop_
 _symmetry_equiv_pos_site_id
 _symmetry_equiv_pos_as_xyz
  1  'x, y, z'
loop_
 _atom_site_type_symbol
 _atom_site_label
 _atom_site_symmetry_multiplicity
 _atom_site_fract_x
 _atom_site_fract_y
 _atom_site_fract_z
 _atom_site_occupancy
  Sr  Sr0  1  0.500000  0.500000  0.500000  1
  La  La1  1  0.980417  0.908425  0.715473  1
  La  La2  1  0.019583  0.091575  0.284527  1
  Pr  Pr3  1  0.096434  0.301874  0.020656  1
  Pr  Pr4  1  0.301012  0.020285  0.096980  1
  Pr  Pr5  1  0.903566  0.698126  0.979344  1
  Pr  Pr6  1  0.698988  0.979715  0.903020  1
  Co  Co7  1  0.000000  0.000000  0.000000  1
  I  I8  1  0.549093  0.630412  0.857967  1
  I  I9  1  0.450907  0.369588  0.142033  1
  I  I10  1  0.322876  0.926091  0.773144  1
  I  I11  1  0.372861  0.145715  0.454512  1
  I  I12  1  0.926258  0.773786  0.322952  1
  I  I13  1  0.677124  0.073909  0.226856  1
  I  I14  1  0.073742  0.226214  0.677048  1
  I  I15  1  0.775464  0.320835  0.926680  1
  I  I16  1  0.224536  0.679165  0.073320  1
  I  I17  1  0.854452  0.545826  0.626769  1
  I  I18  1  0.145548  0.454174  0.373231  1
  I  I19  1  0.627139  0.854285  0.545488  1
