# generated using pymatgen
data_Hf2GeB2Ir2Ru3
_symmetry_space_group_name_H-M   'P 1'
_cell_length_a   9.35888002
_cell_length_b   9.37378578
_cell_length_c   3.09949800
_cell_angle_alpha   90.00000000
_cell_angle_beta   90.00000000
_cell_angle_gamma   90.00345942
_symmetry_Int_Tables_number   1
_chemical_formula_structural   Hf2GeB2Ir2Ru3
_chemical_formula_sum   'Hf4 Ge2 B4 Ir4 Ru6'
_cell_volume   271.91318303
_cell_formula_units_Z   2
loop_
 _symmetry_equiv_pos_site_id
 _symmetry_equiv_pos_as_xyz
  1  'x, y, z'
loop_
 _atom_site_type_symbol
 _atom_site_label
 _atom_site_symmetry_multiplicity
 _atom_site_fract_x
 _atom_site_fract_y
 _atom_site_fract_z
 _atom_site_occupancy
  Hf  Hf0  1  0.673624  0.174819  0.000000  1
  Hf  Hf1  1  0.329235  0.821633  0.000000  1
  Hf  Hf2  1  0.175558  0.328075  0.000000  1
  Hf  Hf3  1  0.822974  0.673177  0.000000  1
  Ge  Ge4  1  0.999065  0.005202  0.000000  1
  Ge  Ge5  1  0.495136  0.500716  0.000000  1
  B  B6  1  0.124521  0.622423  0.000000  1
  B  B7  1  0.877991  0.375565  0.000000  1
  B  B8  1  0.620793  0.872931  0.000000  1
  B  B9  1  0.380540  0.126033  0.000000  1
  Ir  Ir10  1  0.217087  0.070280  0.500000  1
  Ir  Ir11  1  0.784283  0.927812  0.500000  1
  Ir  Ir12  1  0.069791  0.786967  0.500000  1
  Ir  Ir13  1  0.714727  0.428108  0.500000  1
  Ru  Ru14  1  0.929545  0.214767  0.500000  1
  Ru  Ru15  1  0.283663  0.572362  0.500000  1
  Ru  Ru16  1  0.572087  0.712299  0.500000  1
  Ru  Ru17  1  0.430192  0.286024  0.500000  1
  Ru  Ru18  1  0.500827  0.999001  0.500000  1
  Ru  Ru19  1  0.998362  0.501808  0.500000  1
