# generated using pymatgen
data_Yb2Y3Pb3Cl
_symmetry_space_group_name_H-M   'P 1'
_cell_length_a   9.15324800
_cell_length_b   9.15324666
_cell_length_c   6.98477200
_cell_angle_alpha   90.00000000
_cell_angle_beta   90.00000000
_cell_angle_gamma   120.02767016
_symmetry_Int_Tables_number   1
_chemical_formula_structural   Yb2Y3Pb3Cl
_chemical_formula_sum   'Yb4 Y6 Pb6 Cl2'
_cell_volume   506.65473124
_cell_formula_units_Z   2
loop_
 _symmetry_equiv_pos_site_id
 _symmetry_equiv_pos_as_xyz
  1  'x, y, z'
loop_
 _atom_site_type_symbol
 _atom_site_label
 _atom_site_symmetry_multiplicity
 _atom_site_fract_x
 _atom_site_fract_y
 _atom_site_fract_z
 _atom_site_occupancy
  Yb  Yb0  1  0.748434  0.748095  0.250000  1
  Yb  Yb1  1  0.252706  0.998632  0.250000  1
  Yb  Yb2  1  0.251905  0.251567  0.750000  1
  Yb  Yb3  1  0.001367  0.747292  0.750000  1
  Y  Y4  1  0.746589  0.002018  0.750000  1
  Y  Y5  1  0.997982  0.253410  0.250000  1
  Y  Y6  1  0.333533  0.666470  0.500000  1
  Y  Y7  1  0.333533  0.666470  0.000000  1
  Y  Y8  1  0.663844  0.336154  0.500000  1
  Y  Y9  1  0.663844  0.336154  0.000000  1
  Pb  Pb10  1  0.399635  0.000857  0.750000  1
  Pb  Pb11  1  0.608213  0.002108  0.250000  1
  Pb  Pb12  1  0.999145  0.600365  0.250000  1
  Pb  Pb13  1  0.605561  0.608278  0.750000  1
  Pb  Pb14  1  0.997892  0.391788  0.750000  1
  Pb  Pb15  1  0.391721  0.394439  0.250000  1
  Cl  Cl16  1  0.002048  0.997951  0.500000  1
  Cl  Cl17  1  0.002048  0.997951  0.000000  1
