# generated using pymatgen
data_Rb2Zr(SiO3)3
_symmetry_space_group_name_H-M   'P 1'
_cell_length_a   7.14758600
_cell_length_b   7.14758459
_cell_length_c   10.38710800
_cell_angle_alpha   90.00000000
_cell_angle_beta   90.00000000
_cell_angle_gamma   119.99999727
_symmetry_Int_Tables_number   1
_chemical_formula_structural   Rb2Zr(SiO3)3
_chemical_formula_sum   'Rb4 Zr2 Si6 O18'
_cell_volume   459.56186597
_cell_formula_units_Z   2
loop_
 _symmetry_equiv_pos_site_id
 _symmetry_equiv_pos_as_xyz
  1  'x, y, z'
loop_
 _atom_site_type_symbol
 _atom_site_label
 _atom_site_symmetry_multiplicity
 _atom_site_fract_x
 _atom_site_fract_y
 _atom_site_fract_z
 _atom_site_occupancy
  Rb  Rb0  1  0.333333  0.666667  0.058582  1
  Rb  Rb1  1  0.666667  0.333333  0.558582  1
  Rb  Rb2  1  0.333333  0.666667  0.441418  1
  Rb  Rb3  1  0.666667  0.333333  0.941418  1
  Zr  Zr4  1  0.000000  0.000000  0.000000  1
  Zr  Zr5  1  0.000000  0.000000  0.500000  1
  Si  Si6  1  0.612032  0.748375  0.750000  1
  Si  Si7  1  0.863658  0.612032  0.250000  1
  Si  Si8  1  0.748375  0.136342  0.250000  1
  Si  Si9  1  0.251625  0.863658  0.750000  1
  Si  Si10  1  0.136342  0.387968  0.750000  1
  Si  Si11  1  0.387968  0.251625  0.250000  1
  O  O12  1  0.257757  0.222955  0.382708  1
  O  O13  1  0.034802  0.257757  0.882708  1
  O  O14  1  0.222955  0.965198  0.882708  1
  O  O15  1  0.777045  0.034802  0.382708  1
  O  O16  1  0.965198  0.742243  0.382708  1
  O  O17  1  0.742243  0.777045  0.882708  1
  O  O18  1  0.742243  0.777045  0.617292  1
  O  O19  1  0.965198  0.742243  0.117292  1
  O  O20  1  0.777045  0.034802  0.117292  1
  O  O21  1  0.222955  0.965198  0.617292  1
  O  O22  1  0.034802  0.257757  0.617292  1
  O  O23  1  0.257757  0.222955  0.117292  1
  O  O24  1  0.494891  0.091368  0.250000  1
  O  O25  1  0.403523  0.494891  0.750000  1
  O  O26  1  0.091368  0.596477  0.750000  1
  O  O27  1  0.908632  0.403523  0.250000  1
  O  O28  1  0.596477  0.505109  0.250000  1
  O  O29  1  0.505109  0.908632  0.750000  1
