# generated using pymatgen
data_Y5Ti8Ga9Ir8
_symmetry_space_group_name_H-M   'P 1'
_cell_length_a   8.98839388
_cell_length_b   8.98360132
_cell_length_c   8.98839500
_cell_angle_alpha   60.05956556
_cell_angle_beta   59.90034659
_cell_angle_gamma   60.05958359
_symmetry_Int_Tables_number   1
_chemical_formula_structural   Y5Ti8Ga9Ir8
_chemical_formula_sum   'Y5 Ti8 Ga9 Ir8'
_cell_volume   513.28841840
_cell_formula_units_Z   1
loop_
 _symmetry_equiv_pos_site_id
 _symmetry_equiv_pos_as_xyz
  1  'x, y, z'
loop_
 _atom_site_type_symbol
 _atom_site_label
 _atom_site_symmetry_multiplicity
 _atom_site_fract_x
 _atom_site_fract_y
 _atom_site_fract_z
 _atom_site_occupancy
  Y  Y0  1  0.216047  0.213668  0.791033  1
  Y  Y1  1  0.791033  0.213668  0.216047  1
  Y  Y2  1  0.204298  0.796853  0.204298  1
  Y  Y3  1  0.793129  0.788683  0.199456  1
  Y  Y4  1  0.199456  0.788683  0.793129  1
  Ti  Ti5  1  0.787957  0.199802  0.787957  1
  Ti  Ti6  1  0.376319  0.377115  0.376319  1
  Ti  Ti7  1  0.378719  0.869033  0.378719  1
  Ti  Ti8  1  0.865109  0.374847  0.391095  1
  Ti  Ti9  1  0.391095  0.374847  0.865109  1
  Ti  Ti10  1  0.833676  0.495030  0.833676  1
  Ti  Ti11  1  0.508836  0.831486  0.830287  1
  Ti  Ti12  1  0.830287  0.831486  0.508836  1
  Ga  Ga13  1  0.170743  0.169965  0.170743  1
  Ga  Ga14  1  0.168068  0.493860  0.168068  1
  Ga  Ga15  1  0.518534  0.163922  0.157047  1
  Ga  Ga16  1  0.157047  0.163922  0.518534  1
  Ga  Ga17  1  0.621623  0.614162  0.621623  1
  Ga  Ga18  1  0.619889  0.146445  0.619889  1
  Ga  Ga19  1  0.145606  0.616999  0.613252  1
  Ga  Ga20  1  0.613252  0.616999  0.145606  1
  Ga  Ga21  1  0.827671  0.827373  0.827671  1
  Ir  Ir22  1  0.998462  0.003079  0.497853  1
  Ir  Ir23  1  0.497853  0.003079  0.998462  1
  Ir  Ir24  1  0.001076  0.492538  0.001076  1
  Ir  Ir25  1  0.502989  0.502445  0.996619  1
  Ir  Ir26  1  0.996619  0.502445  0.502989  1
  Ir  Ir27  1  0.501787  0.999472  0.501787  1
  Ir  Ir28  1  0.500780  0.501466  0.500780  1
  Ir  Ir29  1  0.982038  0.026622  0.982038  1
