# generated using pymatgen
data_Nd3Th5Zn8Ir5Rh3
_symmetry_space_group_name_H-M   'P 1'
_cell_length_a   3.97233100
_cell_length_b   7.49673779
_cell_length_c   16.62864900
_cell_angle_alpha   90.39533970
_cell_angle_beta   90.00000000
_cell_angle_gamma   90.00000000
_symmetry_Int_Tables_number   1
_chemical_formula_structural   Nd3Th5Zn8Ir5Rh3
_chemical_formula_sum   'Nd3 Th5 Zn8 Ir5 Rh3'
_cell_volume   495.18146276
_cell_formula_units_Z   1
loop_
 _symmetry_equiv_pos_site_id
 _symmetry_equiv_pos_as_xyz
  1  'x, y, z'
loop_
 _atom_site_type_symbol
 _atom_site_label
 _atom_site_symmetry_multiplicity
 _atom_site_fract_x
 _atom_site_fract_y
 _atom_site_fract_z
 _atom_site_occupancy
  Nd  Nd0  1  0.750000  0.445410  0.214446  1
  Nd  Nd1  1  0.250000  0.053603  0.714204  1
  Nd  Nd2  1  0.250000  0.552299  0.786068  1
  Th  Th3  1  0.250000  0.173492  0.938390  1
  Th  Th4  1  0.250000  0.671253  0.561180  1
  Th  Th5  1  0.750000  0.327507  0.439146  1
  Th  Th6  1  0.750000  0.947142  0.284739  1
  Th  Th7  1  0.750000  0.828834  0.060764  1
  Zn  Zn8  1  0.750000  0.007180  0.561068  1
  Zn  Zn9  1  0.250000  0.615450  0.345594  1
  Zn  Zn10  1  0.750000  0.381025  0.654461  1
  Zn  Zn11  1  0.250000  0.496133  0.061677  1
  Zn  Zn12  1  0.750000  0.507035  0.938782  1
  Zn  Zn13  1  0.250000  0.992616  0.441405  1
  Zn  Zn14  1  0.250000  0.122979  0.151996  1
  Zn  Zn15  1  0.750000  0.882010  0.845256  1
  Ir  Ir16  1  0.750000  0.742906  0.438284  1
  Ir  Ir17  1  0.250000  0.232321  0.317819  1
  Ir  Ir18  1  0.750000  0.249013  0.819760  1
  Ir  Ir19  1  0.250000  0.259674  0.560719  1
  Ir  Ir20  1  0.250000  0.759958  0.184929  1
  Rh  Rh21  1  0.750000  0.748295  0.679471  1
  Rh  Rh22  1  0.750000  0.244826  0.059046  1
  Rh  Rh23  1  0.250000  0.759037  0.940797  1
