# generated using pymatgen
data_Gd3Y(ErSb5)4
_symmetry_space_group_name_H-M   'P 1'
_cell_length_a   4.24018500
_cell_length_b   13.14746502
_cell_length_c   14.63681900
_cell_angle_alpha   77.70197392
_cell_angle_beta   90.00000000
_cell_angle_gamma   90.00000000
_symmetry_Int_Tables_number   1
_chemical_formula_structural   Gd3Y(ErSb5)4
_chemical_formula_sum   'Gd3 Y1 Er4 Sb20'
_cell_volume   797.24465398
_cell_formula_units_Z   1
loop_
 _symmetry_equiv_pos_site_id
 _symmetry_equiv_pos_as_xyz
  1  'x, y, z'
loop_
 _atom_site_type_symbol
 _atom_site_label
 _atom_site_symmetry_multiplicity
 _atom_site_fract_x
 _atom_site_fract_y
 _atom_site_fract_z
 _atom_site_occupancy
  Gd  Gd0  1  0.750000  0.331687  0.422603  1
  Gd  Gd1  1  0.250000  0.952079  0.360031  1
  Gd  Gd2  1  0.750000  0.047311  0.639903  1
  Y  Y3  1  0.250000  0.668818  0.577239  1
  Er  Er4  1  0.250000  0.395776  0.772784  1
  Er  Er5  1  0.750000  0.604694  0.227124  1
  Er  Er6  1  0.250000  0.662202  0.856133  1
  Er  Er7  1  0.750000  0.337803  0.143707  1
  Sb  Sb8  1  0.250000  0.144670  0.782086  1
  Sb  Sb9  1  0.750000  0.855106  0.217882  1
  Sb  Sb10  1  0.250000  0.143812  0.481210  1
  Sb  Sb11  1  0.750000  0.855623  0.519193  1
  Sb  Sb12  1  0.250000  0.154276  0.171557  1
  Sb  Sb13  1  0.750000  0.845466  0.828578  1
  Sb  Sb14  1  0.250000  0.420392  0.976260  1
  Sb  Sb15  1  0.750000  0.579570  0.023733  1
  Sb  Sb16  1  0.750000  0.030166  0.905292  1
  Sb  Sb17  1  0.250000  0.969655  0.094639  1
  Sb  Sb18  1  0.750000  0.139708  0.321287  1
  Sb  Sb19  1  0.250000  0.859409  0.678697  1
  Sb  Sb20  1  0.750000  0.280085  0.938870  1
  Sb  Sb21  1  0.250000  0.719870  0.061254  1
  Sb  Sb22  1  0.750000  0.289541  0.654398  1
  Sb  Sb23  1  0.250000  0.710859  0.345856  1
  Sb  Sb24  1  0.750000  0.575696  0.736577  1
  Sb  Sb25  1  0.250000  0.424792  0.262810  1
  Sb  Sb26  1  0.750000  0.574388  0.445192  1
  Sb  Sb27  1  0.250000  0.426546  0.555105  1
