# generated using pymatgen
data_Tm20CoBi8Os3
_symmetry_space_group_name_H-M   'P 1'
_cell_length_a   7.86084179
_cell_length_b   8.94511900
_cell_length_c   12.33045467
_cell_angle_alpha   90.00000000
_cell_angle_beta   89.77900386
_cell_angle_gamma   90.00000000
_symmetry_Int_Tables_number   1
_chemical_formula_structural   Tm20CoBi8Os3
_chemical_formula_sum   'Tm20 Co1 Bi8 Os3'
_cell_volume   867.02383819
_cell_formula_units_Z   1
loop_
 _symmetry_equiv_pos_site_id
 _symmetry_equiv_pos_as_xyz
  1  'x, y, z'
loop_
 _atom_site_type_symbol
 _atom_site_label
 _atom_site_symmetry_multiplicity
 _atom_site_fract_x
 _atom_site_fract_y
 _atom_site_fract_z
 _atom_site_occupancy
  Tm  Tm0  1  0.343998  0.750000  0.701336  1
  Tm  Tm1  1  0.658839  0.250000  0.292234  1
  Tm  Tm2  1  0.841656  0.250000  0.791028  1
  Tm  Tm3  1  0.157205  0.750000  0.206983  1
  Tm  Tm4  1  0.880424  0.750000  0.807530  1
  Tm  Tm5  1  0.119480  0.250000  0.192042  1
  Tm  Tm6  1  0.379387  0.250000  0.691548  1
  Tm  Tm7  1  0.615132  0.750000  0.314632  1
  Tm  Tm8  1  0.673801  0.542639  0.563571  1
  Tm  Tm9  1  0.326440  0.460815  0.436789  1
  Tm  Tm10  1  0.173615  0.457611  0.935693  1
  Tm  Tm11  1  0.326440  0.039185  0.436789  1
  Tm  Tm12  1  0.825536  0.543310  0.064476  1
  Tm  Tm13  1  0.673801  0.957361  0.563571  1
  Tm  Tm14  1  0.825536  0.956690  0.064476  1
  Tm  Tm15  1  0.173615  0.042389  0.935693  1
  Tm  Tm16  1  0.058402  0.750000  0.497151  1
  Tm  Tm17  1  0.942847  0.250000  0.503186  1
  Tm  Tm18  1  0.559223  0.250000  0.003592  1
  Tm  Tm19  1  0.441313  0.750000  0.995750  1
  Co  Co20  1  0.429459  0.750000  0.492200  1
  Bi  Bi21  1  0.568770  0.508642  0.827394  1
  Bi  Bi22  1  0.430992  0.492420  0.172815  1
  Bi  Bi23  1  0.069729  0.492085  0.671860  1
  Bi  Bi24  1  0.430992  0.007580  0.172815  1
  Bi  Bi25  1  0.931068  0.508917  0.328624  1
  Bi  Bi26  1  0.568770  0.991358  0.827394  1
  Bi  Bi27  1  0.931068  0.991083  0.328624  1
  Bi  Bi28  1  0.069729  0.007915  0.671860  1
  Os  Os29  1  0.075089  0.750000  0.990275  1
  Os  Os30  1  0.924499  0.250000  0.009167  1
  Os  Os31  1  0.573142  0.250000  0.508903  1
