# generated using pymatgen
data_Ca4NpNbCd2O12
_symmetry_space_group_name_H-M   'P 1'
_cell_length_a   5.93287873
_cell_length_b   5.66738189
_cell_length_c   9.94360797
_cell_angle_alpha   55.59869227
_cell_angle_beta   90.82590395
_cell_angle_gamma   90.31331095
_symmetry_Int_Tables_number   1
_chemical_formula_structural   Ca4NpNbCd2O12
_chemical_formula_sum   'Ca4 Np1 Nb1 Cd2 O12'
_cell_volume   275.83631467
_cell_formula_units_Z   1
loop_
 _symmetry_equiv_pos_site_id
 _symmetry_equiv_pos_as_xyz
  1  'x, y, z'
loop_
 _atom_site_type_symbol
 _atom_site_label
 _atom_site_symmetry_multiplicity
 _atom_site_fract_x
 _atom_site_fract_y
 _atom_site_fract_z
 _atom_site_occupancy
  Ca  Ca0  1  0.051924  0.715527  0.779546  1
  Ca  Ca1  1  0.948076  0.284473  0.220454  1
  Ca  Ca2  1  0.562379  0.254782  0.767260  1
  Ca  Ca3  1  0.437621  0.745218  0.232740  1
  Np  Np4  1  0.500000  0.000000  0.500000  1
  Nb  Nb5  1  0.000000  0.000000  0.000000  1
  Cd  Cd6  1  0.500000  0.500000  0.000000  1
  Cd  Cd7  1  0.000000  0.500000  0.500000  1
  O  O8  1  0.435200  0.905754  0.725744  1
  O  O9  1  0.564800  0.094246  0.274256  1
  O  O10  1  0.940019  0.121071  0.766262  1
  O  O11  1  0.059981  0.878929  0.233738  1
  O  O12  1  0.781787  0.752483  0.584565  1
  O  O13  1  0.218213  0.247517  0.415435  1
  O  O14  1  0.282203  0.241722  0.934437  1
  O  O15  1  0.717797  0.758278  0.065563  1
  O  O16  1  0.327376  0.646251  0.562448  1
  O  O17  1  0.672624  0.353749  0.437552  1
  O  O18  1  0.818295  0.338167  0.954089  1
  O  O19  1  0.181705  0.661833  0.045911  1
