# generated using pymatgen
data_LiSm(BH4)4
_symmetry_space_group_name_H-M   'P 1'
_cell_length_a   6.32014500
_cell_length_b   6.32014500
_cell_length_c   6.42995800
_cell_angle_alpha   90.00000000
_cell_angle_beta   90.00000000
_cell_angle_gamma   90.00000000
_symmetry_Int_Tables_number   1
_chemical_formula_structural   LiSm(BH4)4
_chemical_formula_sum   'Li1 Sm1 B4 H16'
_cell_volume   256.83973938
_cell_formula_units_Z   1
loop_
 _symmetry_equiv_pos_site_id
 _symmetry_equiv_pos_as_xyz
  1  'x, y, z'
loop_
 _atom_site_type_symbol
 _atom_site_label
 _atom_site_symmetry_multiplicity
 _atom_site_fract_x
 _atom_site_fract_y
 _atom_site_fract_z
 _atom_site_occupancy
  Li  Li0  1  0.000000  0.000000  0.500000  1
  Sm  Sm1  1  0.500000  0.500000  0.500000  1
  B  B2  1  0.750003  0.750003  0.309340  1
  B  B3  1  0.249997  0.249997  0.309340  1
  B  B4  1  0.750003  0.249997  0.690660  1
  B  B5  1  0.249997  0.750003  0.690660  1
  H  H6  1  0.767234  0.767234  0.501745  1
  H  H7  1  0.232766  0.232766  0.501745  1
  H  H8  1  0.767234  0.232766  0.498255  1
  H  H9  1  0.232766  0.767234  0.498255  1
  H  H10  1  0.867992  0.867992  0.217089  1
  H  H11  1  0.132008  0.132008  0.217089  1
  H  H12  1  0.867992  0.132008  0.782911  1
  H  H13  1  0.132008  0.867992  0.782911  1
  H  H14  1  0.787998  0.562844  0.266949  1
  H  H15  1  0.212002  0.437156  0.266949  1
  H  H16  1  0.787998  0.437156  0.733051  1
  H  H17  1  0.212002  0.562844  0.733051  1
  H  H18  1  0.562844  0.212002  0.733051  1
  H  H19  1  0.437156  0.787998  0.733051  1
  H  H20  1  0.437156  0.212002  0.266949  1
  H  H21  1  0.562844  0.787998  0.266949  1
