# generated using pymatgen
data_Li4NdDy3Si8
_symmetry_space_group_name_H-M   'P 1'
_cell_length_a   3.81758500
_cell_length_b   7.62147676
_cell_length_c   10.25407021
_cell_angle_alpha   89.90942391
_cell_angle_beta   90.00000000
_cell_angle_gamma   90.00000000
_symmetry_Int_Tables_number   1
_chemical_formula_structural   Li4NdDy3Si8
_chemical_formula_sum   'Li4 Nd1 Dy3 Si8'
_cell_volume   298.34831488
_cell_formula_units_Z   1
loop_
 _symmetry_equiv_pos_site_id
 _symmetry_equiv_pos_as_xyz
  1  'x, y, z'
loop_
 _atom_site_type_symbol
 _atom_site_label
 _atom_site_symmetry_multiplicity
 _atom_site_fract_x
 _atom_site_fract_y
 _atom_site_fract_z
 _atom_site_occupancy
  Li  Li0  1  0.250000  0.994242  0.392334  1
  Li  Li1  1  0.750000  0.011082  0.609568  1
  Li  Li2  1  0.250000  0.488799  0.107348  1
  Li  Li3  1  0.750000  0.509787  0.893737  1
  Nd  Nd4  1  0.750000  0.359983  0.363575  1
  Dy  Dy5  1  0.250000  0.134576  0.863465  1
  Dy  Dy6  1  0.750000  0.861108  0.134884  1
  Dy  Dy7  1  0.250000  0.638725  0.636252  1
  Si  Si8  1  0.750000  0.262728  0.063835  1
  Si  Si9  1  0.250000  0.731412  0.931462  1
  Si  Si10  1  0.750000  0.773584  0.431676  1
  Si  Si11  1  0.250000  0.231776  0.573955  1
  Si  Si12  1  0.750000  0.840271  0.819382  1
  Si  Si13  1  0.250000  0.154073  0.175199  1
  Si  Si14  1  0.750000  0.342600  0.683913  1
  Si  Si15  1  0.250000  0.665258  0.319418  1
