# generated using pymatgen
data_Y4Mn3GeF28
_symmetry_space_group_name_H-M   'P 1'
_cell_length_a   5.43420819
_cell_length_b   8.74419073
_cell_length_c   11.73672578
_cell_angle_alpha   62.29295614
_cell_angle_beta   90.02527906
_cell_angle_gamma   89.99704174
_symmetry_Int_Tables_number   1
_chemical_formula_structural   Y4Mn3GeF28
_chemical_formula_sum   'Y4 Mn3 Ge1 F28'
_cell_volume   493.75459149
_cell_formula_units_Z   1
loop_
 _symmetry_equiv_pos_site_id
 _symmetry_equiv_pos_as_xyz
  1  'x, y, z'
loop_
 _atom_site_type_symbol
 _atom_site_label
 _atom_site_symmetry_multiplicity
 _atom_site_fract_x
 _atom_site_fract_y
 _atom_site_fract_z
 _atom_site_occupancy
  Y  Y0  1  0.261274  0.810645  0.263533  1
  Y  Y1  1  0.738410  0.188237  0.736884  1
  Y  Y2  1  0.761860  0.189146  0.236126  1
  Y  Y3  1  0.238896  0.810221  0.764833  1
  Mn  Mn4  1  0.240912  0.274517  0.956886  1
  Mn  Mn5  1  0.259131  0.274340  0.456984  1
  Mn  Mn6  1  0.740958  0.725487  0.543142  1
  Ge  Ge7  1  0.758243  0.725531  0.042899  1
  F  F8  1  0.929636  0.706220  0.420826  1
  F  F9  1  0.070387  0.293825  0.579068  1
  F  F10  1  0.429700  0.293870  0.079120  1
  F  F11  1  0.570247  0.706236  0.921660  1
  F  F12  1  0.481985  0.727518  0.131429  1
  F  F13  1  0.520856  0.272788  0.868804  1
  F  F14  1  0.978900  0.272742  0.368607  1
  F  F15  1  0.021099  0.727399  0.631304  1
  F  F16  1  0.944679  0.740037  0.168730  1
  F  F17  1  0.054458  0.259766  0.829842  1
  F  F18  1  0.445926  0.259731  0.329775  1
  F  F19  1  0.554085  0.740411  0.670095  1
  F  F20  1  0.771958  0.490633  0.136277  1
  F  F21  1  0.228271  0.512164  0.862571  1
  F  F22  1  0.271385  0.512453  0.362521  1
  F  F23  1  0.728542  0.487471  0.637472  1
  F  F24  1  0.954099  0.281459  0.039557  1
  F  F25  1  0.043902  0.718420  0.961104  1
  F  F26  1  0.454055  0.718713  0.460335  1
  F  F27  1  0.545906  0.281323  0.539600  1
  F  F28  1  0.739802  0.961799  0.453351  1
  F  F29  1  0.260210  0.038295  0.546589  1
  F  F30  1  0.239787  0.038206  0.046600  1
  F  F31  1  0.760712  0.960550  0.953591  1
  F  F32  1  0.596695  0.968015  0.227479  1
  F  F33  1  0.402760  0.032129  0.772543  1
  F  F34  1  0.096753  0.031844  0.272504  1
  F  F35  1  0.903522  0.967858  0.727361  1
