# generated using pymatgen
data_Dy3Lu2ZrFeTe2
_symmetry_space_group_name_H-M   'P 1'
_cell_length_a   8.14400264
_cell_length_b   8.21547093
_cell_length_c   3.93870100
_cell_angle_alpha   90.00000000
_cell_angle_beta   90.00000000
_cell_angle_gamma   120.29072421
_symmetry_Int_Tables_number   1
_chemical_formula_structural   Dy3Lu2ZrFeTe2
_chemical_formula_sum   'Dy3 Lu2 Zr1 Fe1 Te2'
_cell_volume   227.54865161
_cell_formula_units_Z   1
loop_
 _symmetry_equiv_pos_site_id
 _symmetry_equiv_pos_as_xyz
  1  'x, y, z'
loop_
 _atom_site_type_symbol
 _atom_site_label
 _atom_site_symmetry_multiplicity
 _atom_site_fract_x
 _atom_site_fract_y
 _atom_site_fract_z
 _atom_site_occupancy
  Dy  Dy0  1  0.000000  0.589976  0.000000  1
  Dy  Dy1  1  0.617128  0.003403  0.000000  1
  Dy  Dy2  1  0.382872  0.386273  0.000000  1
  Lu  Lu3  1  0.774354  0.768681  0.500000  1
  Lu  Lu4  1  0.225646  0.994327  0.500000  1
  Zr  Zr5  1  0.000000  0.230016  0.500000  1
  Fe  Fe6  1  0.000000  0.031582  0.000000  1
  Te  Te7  1  0.666067  0.330905  0.500000  1
  Te  Te8  1  0.333933  0.664839  0.500000  1
