# generated using pymatgen
data_Y5Al2HgC4
_symmetry_space_group_name_H-M   'P 1'
_cell_length_a   11.00304100
_cell_length_b   11.00304100
_cell_length_c   3.52049700
_cell_angle_alpha   90.00000000
_cell_angle_beta   90.00000000
_cell_angle_gamma   90.00000000
_symmetry_Int_Tables_number   1
_chemical_formula_structural   Y5Al2HgC4
_chemical_formula_sum   'Y10 Al4 Hg2 C8'
_cell_volume   426.21569785
_cell_formula_units_Z   2
loop_
 _symmetry_equiv_pos_site_id
 _symmetry_equiv_pos_as_xyz
  1  'x, y, z'
loop_
 _atom_site_type_symbol
 _atom_site_label
 _atom_site_symmetry_multiplicity
 _atom_site_fract_x
 _atom_site_fract_y
 _atom_site_fract_z
 _atom_site_occupancy
  Y  Y0  1  0.550087  0.731854  0.500000  1
  Y  Y1  1  0.449913  0.268146  0.500000  1
  Y  Y2  1  0.050087  0.768146  0.500000  1
  Y  Y3  1  0.949913  0.231854  0.500000  1
  Y  Y4  1  0.268146  0.550087  0.500000  1
  Y  Y5  1  0.731854  0.449913  0.500000  1
  Y  Y6  1  0.231854  0.050087  0.500000  1
  Y  Y7  1  0.768146  0.949913  0.500000  1
  Y  Y8  1  0.500000  0.000000  0.000000  1
  Y  Y9  1  0.000000  0.500000  0.000000  1
  Al  Al10  1  0.703490  0.203490  0.000000  1
  Al  Al11  1  0.296510  0.796510  0.000000  1
  Al  Al12  1  0.203490  0.296510  0.000000  1
  Al  Al13  1  0.796510  0.703490  0.000000  1
  Hg  Hg14  1  0.500000  0.500000  0.000000  1
  Hg  Hg15  1  0.000000  0.000000  0.000000  1
  C  C16  1  0.632790  0.132790  0.500000  1
  C  C17  1  0.367210  0.867210  0.500000  1
  C  C18  1  0.132790  0.367210  0.500000  1
  C  C19  1  0.867210  0.632790  0.500000  1
  C  C20  1  0.162278  0.662278  0.000000  1
  C  C21  1  0.837722  0.337722  0.000000  1
  C  C22  1  0.662278  0.837722  0.000000  1
  C  C23  1  0.337722  0.162278  0.000000  1
