# generated using pymatgen
data_Ba6Mn2(NiO5)3
_symmetry_space_group_name_H-M   'P 1'
_cell_length_a   7.26897326
_cell_length_b   7.26897688
_cell_length_c   7.26896700
_cell_angle_alpha   88.53528979
_cell_angle_beta   88.53523387
_cell_angle_gamma   88.53516069
_symmetry_Int_Tables_number   1
_chemical_formula_structural   Ba6Mn2(NiO5)3
_chemical_formula_sum   'Ba6 Mn2 Ni3 O15'
_cell_volume   383.70745228
_cell_formula_units_Z   1
loop_
 _symmetry_equiv_pos_site_id
 _symmetry_equiv_pos_as_xyz
  1  'x, y, z'
loop_
 _atom_site_type_symbol
 _atom_site_label
 _atom_site_symmetry_multiplicity
 _atom_site_fract_x
 _atom_site_fract_y
 _atom_site_fract_z
 _atom_site_occupancy
  Ba  Ba0  1  0.328474  0.671526  0.999996  1
  Ba  Ba1  1  0.999996  0.328470  0.671527  1
  Ba  Ba2  1  0.671531  0.999994  0.328474  1
  Ba  Ba3  1  0.147468  0.852528  0.500003  1
  Ba  Ba4  1  0.500006  0.147480  0.852527  1
  Ba  Ba5  1  0.852517  0.500000  0.147470  1
  Mn  Mn6  1  0.293174  0.293157  0.293166  1
  Mn  Mn7  1  0.706833  0.706817  0.706825  1
  Ni  Ni8  1  0.499948  0.500008  0.499982  1
  Ni  Ni9  1  0.094974  0.094981  0.094979  1
  Ni  Ni10  1  0.905033  0.905038  0.905033  1
  O  O11  1  0.141947  0.000002  0.858055  1
  O  O12  1  0.858050  0.141946  0.000000  1
  O  O13  1  0.000000  0.858054  0.141944  1
  O  O14  1  0.034651  0.194027  0.327701  1
  O  O15  1  0.327698  0.034654  0.194031  1
  O  O16  1  0.194024  0.327702  0.034660  1
  O  O17  1  0.805978  0.965345  0.672311  1
  O  O18  1  0.672313  0.805981  0.965339  1
  O  O19  1  0.965347  0.672317  0.805976  1
  O  O20  1  0.356546  0.239178  0.537772  1
  O  O21  1  0.537762  0.356540  0.239168  1
  O  O22  1  0.239188  0.537756  0.356551  1
  O  O23  1  0.760841  0.643458  0.462223  1
  O  O24  1  0.462230  0.760816  0.643446  1
  O  O25  1  0.643470  0.462231  0.760842  1
