# generated using pymatgen
data_LiCaPr3Al17Pd6
_symmetry_space_group_name_H-M   'P 1'
_cell_length_a   7.68928505
_cell_length_b   7.68550283
_cell_length_c   9.63072300
_cell_angle_alpha   90.00000000
_cell_angle_beta   90.00000000
_cell_angle_gamma   119.23938858
_symmetry_Int_Tables_number   1
_chemical_formula_structural   LiCaPr3Al17Pd6
_chemical_formula_sum   'Li1 Ca1 Pr3 Al17 Pd6'
_cell_volume   496.62162008
_cell_formula_units_Z   1
loop_
 _symmetry_equiv_pos_site_id
 _symmetry_equiv_pos_as_xyz
  1  'x, y, z'
loop_
 _atom_site_type_symbol
 _atom_site_label
 _atom_site_symmetry_multiplicity
 _atom_site_fract_x
 _atom_site_fract_y
 _atom_site_fract_z
 _atom_site_occupancy
  Li  Li0  1  0.129909  0.130006  0.250000  1
  Ca  Ca1  1  0.995312  0.667524  0.250000  1
  Pr  Pr2  1  0.006417  0.331857  0.750000  1
  Pr  Pr3  1  0.666484  0.995945  0.250000  1
  Pr  Pr4  1  0.329387  0.005360  0.750000  1
  Al  Al5  1  0.864705  0.864091  0.750000  1
  Al  Al6  1  0.005276  0.332313  0.081424  1
  Al  Al7  1  0.997286  0.665154  0.929141  1
  Al  Al8  1  0.997286  0.665154  0.570859  1
  Al  Al9  1  0.326359  0.001302  0.420143  1
  Al  Al10  1  0.005276  0.332313  0.418576  1
  Al  Al11  1  0.665167  0.997562  0.574079  1
  Al  Al12  1  0.665167  0.997562  0.925921  1
  Al  Al13  1  0.326359  0.001302  0.079857  1
  Al  Al14  1  0.335986  0.335938  0.541247  1
  Al  Al15  1  0.670839  0.668950  0.444654  1
  Al  Al16  1  0.670839  0.668950  0.055346  1
  Al  Al17  1  0.335986  0.335938  0.958753  1
  Al  Al18  1  0.343213  0.541481  0.250000  1
  Al  Al19  1  0.659031  0.454816  0.750000  1
  Al  Al20  1  0.540529  0.339350  0.250000  1
  Al  Al21  1  0.456059  0.658313  0.750000  1
  Pd  Pd22  1  0.673897  0.330067  0.000221  1
  Pd  Pd23  1  0.330269  0.673914  0.999921  1
  Pd  Pd24  1  0.330269  0.673914  0.500079  1
  Pd  Pd25  1  0.673897  0.330067  0.499779  1
  Pd  Pd26  1  0.999399  0.000427  0.992396  1
  Pd  Pd27  1  0.999399  0.000427  0.507604  1
