# generated using pymatgen
data_Dy6Al23Co2SiOs6
_symmetry_space_group_name_H-M   'P 1'
_cell_length_a   8.74664400
_cell_length_b   8.74664495
_cell_length_c   9.51056100
_cell_angle_alpha   90.00000000
_cell_angle_beta   90.00000000
_cell_angle_gamma   119.99999640
_symmetry_Int_Tables_number   1
_chemical_formula_structural   Dy6Al23Co2SiOs6
_chemical_formula_sum   'Dy6 Al23 Co2 Si1 Os6'
_cell_volume   630.11487371
_cell_formula_units_Z   1
loop_
 _symmetry_equiv_pos_site_id
 _symmetry_equiv_pos_as_xyz
  1  'x, y, z'
loop_
 _atom_site_type_symbol
 _atom_site_label
 _atom_site_symmetry_multiplicity
 _atom_site_fract_x
 _atom_site_fract_y
 _atom_site_fract_z
 _atom_site_occupancy
  Dy  Dy0  1  0.195118  0.390238  0.248265  1
  Dy  Dy1  1  0.806310  0.612619  0.752490  1
  Dy  Dy2  1  0.609762  0.804882  0.248265  1
  Dy  Dy3  1  0.387381  0.193690  0.752490  1
  Dy  Dy4  1  0.195118  0.804882  0.248265  1
  Dy  Dy5  1  0.806310  0.193690  0.752490  1
  Al  Al6  1  0.666667  0.333333  0.985544  1
  Al  Al7  1  0.666667  0.333333  0.515867  1
  Al  Al8  1  0.333333  0.666667  0.483113  1
  Al  Al9  1  0.159385  0.318772  0.575237  1
  Al  Al10  1  0.840637  0.681272  0.423994  1
  Al  Al11  1  0.681228  0.840615  0.575237  1
  Al  Al12  1  0.839968  0.679934  0.075347  1
  Al  Al13  1  0.318728  0.159363  0.423994  1
  Al  Al14  1  0.161363  0.322727  0.922911  1
  Al  Al15  1  0.159385  0.840615  0.575237  1
  Al  Al16  1  0.320066  0.160032  0.075347  1
  Al  Al17  1  0.840637  0.159363  0.423994  1
  Al  Al18  1  0.677273  0.838637  0.922911  1
  Al  Al19  1  0.839968  0.160032  0.075347  1
  Al  Al20  1  0.161363  0.838637  0.922911  1
  Al  Al21  1  0.561558  0.123116  0.247849  1
  Al  Al22  1  0.437798  0.875595  0.748842  1
  Al  Al23  1  0.876884  0.438442  0.247849  1
  Al  Al24  1  0.124405  0.562202  0.748842  1
  Al  Al25  1  0.561558  0.438442  0.247849  1
  Al  Al26  1  0.437798  0.562202  0.748842  1
  Al  Al27  1  0.000000  0.000000  0.249333  1
  Al  Al28  1  0.000000  0.000000  0.749782  1
  Co  Co29  1  0.000000  0.000000  0.999196  1
  Co  Co30  1  0.000000  0.000000  0.499536  1
  Si  Si31  1  0.333333  0.666667  0.036652  1
  Os  Os32  1  0.496300  0.992600  0.999857  1
  Os  Os33  1  0.007400  0.503700  0.999857  1
  Os  Os34  1  0.500565  0.001131  0.498866  1
  Os  Os35  1  0.496300  0.503700  0.999857  1
  Os  Os36  1  0.998869  0.499435  0.498866  1
  Os  Os37  1  0.500565  0.499435  0.498866  1
