# generated using pymatgen
data_DyY3TmSi3
_symmetry_space_group_name_H-M   'P 1'
_cell_length_a   8.43049500
_cell_length_b   8.43049453
_cell_length_c   6.33360500
_cell_angle_alpha   90.00000000
_cell_angle_beta   90.00000000
_cell_angle_gamma   120.00000579
_symmetry_Int_Tables_number   1
_chemical_formula_structural   DyY3TmSi3
_chemical_formula_sum   'Dy2 Y6 Tm2 Si6'
_cell_volume   389.84117470
_cell_formula_units_Z   2
loop_
 _symmetry_equiv_pos_site_id
 _symmetry_equiv_pos_as_xyz
  1  'x, y, z'
loop_
 _atom_site_type_symbol
 _atom_site_label
 _atom_site_symmetry_multiplicity
 _atom_site_fract_x
 _atom_site_fract_y
 _atom_site_fract_z
 _atom_site_occupancy
  Dy  Dy0  1  0.666667  0.333333  0.500000  1
  Dy  Dy1  1  0.333333  0.666667  0.500000  1
  Y  Y2  1  0.755842  0.755842  0.248236  1
  Y  Y3  1  0.244158  0.000000  0.248236  1
  Y  Y4  1  0.000000  0.244158  0.248236  1
  Y  Y5  1  0.244158  0.244158  0.751764  1
  Y  Y6  1  0.755842  0.000000  0.751764  1
  Y  Y7  1  0.000000  0.755842  0.751764  1
  Tm  Tm8  1  0.333333  0.666667  0.000000  1
  Tm  Tm9  1  0.666667  0.333333  0.000000  1
  Si  Si10  1  0.394846  0.394846  0.244926  1
  Si  Si11  1  0.605154  0.000000  0.244926  1
  Si  Si12  1  0.000000  0.605154  0.244926  1
  Si  Si13  1  0.605154  0.605154  0.755074  1
  Si  Si14  1  0.394846  0.000000  0.755074  1
  Si  Si15  1  0.000000  0.394846  0.755074  1
