# generated using pymatgen
data_RbReF8
_symmetry_space_group_name_H-M   'P 1'
_cell_length_a   7.77033300
_cell_length_b   7.77033300
_cell_length_c   5.24448700
_cell_angle_alpha   90.00000000
_cell_angle_beta   90.00000000
_cell_angle_gamma   90.00000000
_symmetry_Int_Tables_number   1
_chemical_formula_structural   RbReF8
_chemical_formula_sum   'Rb2 Re2 F16'
_cell_volume   316.65202906
_cell_formula_units_Z   2
loop_
 _symmetry_equiv_pos_site_id
 _symmetry_equiv_pos_as_xyz
  1  'x, y, z'
loop_
 _atom_site_type_symbol
 _atom_site_label
 _atom_site_symmetry_multiplicity
 _atom_site_fract_x
 _atom_site_fract_y
 _atom_site_fract_z
 _atom_site_occupancy
  Rb  Rb0  1  0.000000  0.000000  0.500000  1
  Rb  Rb1  1  0.500000  0.500000  0.500000  1
  Re  Re2  1  0.000000  0.500000  0.106993  1
  Re  Re3  1  0.500000  0.000000  0.893007  1
  F  F4  1  0.709338  0.000000  0.088594  1
  F  F5  1  0.290662  0.000000  0.088594  1
  F  F6  1  0.500000  0.209338  0.088594  1
  F  F7  1  0.500000  0.790662  0.088594  1
  F  F8  1  0.852547  0.352547  0.310691  1
  F  F9  1  0.852547  0.647453  0.310691  1
  F  F10  1  0.147453  0.352547  0.310691  1
  F  F11  1  0.147453  0.647453  0.310691  1
  F  F12  1  0.647453  0.852547  0.689309  1
  F  F13  1  0.352547  0.147453  0.689309  1
  F  F14  1  0.352547  0.852547  0.689309  1
  F  F15  1  0.647453  0.147453  0.689309  1
  F  F16  1  0.000000  0.290662  0.911406  1
  F  F17  1  0.790662  0.500000  0.911406  1
  F  F18  1  0.209338  0.500000  0.911406  1
  F  F19  1  0.000000  0.709338  0.911406  1
