# generated using pymatgen
data_Dy5Y2Pa(ReB6)4
_symmetry_space_group_name_H-M   'P 1'
_cell_length_a   3.69761000
_cell_length_b   9.18323928
_cell_length_c   11.55530402
_cell_angle_alpha   90.17018677
_cell_angle_beta   90.00000000
_cell_angle_gamma   90.00000000
_symmetry_Int_Tables_number   1
_chemical_formula_structural   Dy5Y2Pa(ReB6)4
_chemical_formula_sum   'Dy5 Y2 Pa1 Re4 B24'
_cell_volume   392.37060458
_cell_formula_units_Z   1
loop_
 _symmetry_equiv_pos_site_id
 _symmetry_equiv_pos_as_xyz
  1  'x, y, z'
loop_
 _atom_site_type_symbol
 _atom_site_label
 _atom_site_symmetry_multiplicity
 _atom_site_fract_x
 _atom_site_fract_y
 _atom_site_fract_z
 _atom_site_occupancy
  Dy  Dy0  1  0.000000  0.175595  0.913476  1
  Dy  Dy1  1  0.000000  0.942612  0.371740  1
  Dy  Dy2  1  0.000000  0.055344  0.629096  1
  Dy  Dy3  1  0.000000  0.443348  0.127722  1
  Dy  Dy4  1  0.000000  0.557135  0.870090  1
  Y  Y5  1  0.000000  0.678998  0.586894  1
  Y  Y6  1  0.000000  0.823573  0.085502  1
  Pa  Pa7  1  0.000000  0.323528  0.414043  1
  Re  Re8  1  0.000000  0.635264  0.322185  1
  Re  Re9  1  0.000000  0.362153  0.675905  1
  Re  Re10  1  0.000000  0.141006  0.181803  1
  Re  Re11  1  0.000000  0.861977  0.821228  1
  B  B12  1  0.500000  0.552415  0.431950  1
  B  B13  1  0.500000  0.445560  0.566912  1
  B  B14  1  0.500000  0.054024  0.067716  1
  B  B15  1  0.500000  0.947162  0.933422  1
  B  B16  1  0.500000  0.748100  0.418503  1
  B  B17  1  0.500000  0.251434  0.580850  1
  B  B18  1  0.500000  0.248285  0.080894  1
  B  B19  1  0.500000  0.751564  0.918812  1
  B  B20  1  0.500000  0.791146  0.266373  1
  B  B21  1  0.500000  0.208386  0.734209  1
  B  B22  1  0.500000  0.291667  0.234503  1
  B  B23  1  0.500000  0.708510  0.766014  1
  B  B24  1  0.500000  0.631177  0.185380  1
  B  B25  1  0.500000  0.369206  0.813582  1
  B  B26  1  0.500000  0.132430  0.314724  1
  B  B27  1  0.500000  0.868566  0.686382  1
  B  B28  1  0.500000  0.983227  0.212522  1
  B  B29  1  0.500000  0.017285  0.788112  1
  B  B30  1  0.500000  0.482896  0.287597  1
  B  B31  1  0.500000  0.517173  0.712604  1
  B  B32  1  0.500000  0.602438  0.028086  1
  B  B33  1  0.500000  0.397491  0.970600  1
  B  B34  1  0.500000  0.106474  0.470577  1
  B  B35  1  0.500000  0.892853  0.529991  1
