# generated using pymatgen
data_Tb2VPdF14
_symmetry_space_group_name_H-M   'P 1'
_cell_length_a   5.54814870
_cell_length_b   8.90257072
_cell_length_c   11.88978088
_cell_angle_alpha   62.70409705
_cell_angle_beta   89.76286611
_cell_angle_gamma   89.92275133
_symmetry_Int_Tables_number   1
_chemical_formula_structural   Tb2VPdF14
_chemical_formula_sum   'Tb4 V2 Pd2 F28'
_cell_volume   521.87240211
_cell_formula_units_Z   2
loop_
 _symmetry_equiv_pos_site_id
 _symmetry_equiv_pos_as_xyz
  1  'x, y, z'
loop_
 _atom_site_type_symbol
 _atom_site_label
 _atom_site_symmetry_multiplicity
 _atom_site_fract_x
 _atom_site_fract_y
 _atom_site_fract_z
 _atom_site_occupancy
  Tb  Tb0  1  0.260682  0.813879  0.267540  1
  Tb  Tb1  1  0.739318  0.186121  0.732460  1
  Tb  Tb2  1  0.759368  0.191353  0.233802  1
  Tb  Tb3  1  0.240632  0.808647  0.766198  1
  V  V4  1  0.253423  0.274107  0.456379  1
  V  V5  1  0.746577  0.725893  0.543621  1
  Pd  Pd6  1  0.757391  0.726166  0.045413  1
  Pd  Pd7  1  0.242609  0.273834  0.954587  1
  F  F8  1  0.955489  0.709926  0.422836  1
  F  F9  1  0.044511  0.290074  0.577164  1
  F  F10  1  0.436743  0.300880  0.079938  1
  F  F11  1  0.563257  0.699120  0.920062  1
  F  F12  1  0.467162  0.726035  0.138408  1
  F  F13  1  0.532838  0.273965  0.861592  1
  F  F14  1  0.982889  0.263947  0.363465  1
  F  F15  1  0.017111  0.736053  0.636535  1
  F  F16  1  0.948055  0.743528  0.176820  1
  F  F17  1  0.051945  0.256472  0.823180  1
  F  F18  1  0.458212  0.250130  0.335841  1
  F  F19  1  0.541788  0.749870  0.664159  1
  F  F20  1  0.767433  0.481073  0.146238  1
  F  F21  1  0.232567  0.518927  0.853762  1
  F  F22  1  0.263999  0.505149  0.363750  1
  F  F23  1  0.736001  0.494851  0.636250  1
  F  F24  1  0.946657  0.286420  0.039096  1
  F  F25  1  0.053343  0.713580  0.960904  1
  F  F26  1  0.468200  0.714883  0.452277  1
  F  F27  1  0.531800  0.285117  0.547723  1
  F  F28  1  0.741947  0.957199  0.451100  1
  F  F29  1  0.258053  0.042801  0.548900  1
  F  F30  1  0.243099  0.028864  0.047870  1
  F  F31  1  0.756901  0.971136  0.952130  1
  F  F32  1  0.582003  0.975281  0.230146  1
  F  F33  1  0.417997  0.024719  0.769854  1
  F  F34  1  0.084479  0.032708  0.267231  1
  F  F35  1  0.915521  0.967292  0.732769  1
