# generated using pymatgen
data_Ho4Al18Os2Pt3Rh
_symmetry_space_group_name_H-M   'P 1'
_cell_length_a   7.57045101
_cell_length_b   7.57045047
_cell_length_c   9.45964300
_cell_angle_alpha   90.00091457
_cell_angle_beta   90.00091265
_cell_angle_gamma   119.22000347
_symmetry_Int_Tables_number   1
_chemical_formula_structural   Ho4Al18Os2Pt3Rh
_chemical_formula_sum   'Ho4 Al18 Os2 Pt3 Rh1'
_cell_volume   473.16098297
_cell_formula_units_Z   1
loop_
 _symmetry_equiv_pos_site_id
 _symmetry_equiv_pos_as_xyz
  1  'x, y, z'
loop_
 _atom_site_type_symbol
 _atom_site_label
 _atom_site_symmetry_multiplicity
 _atom_site_fract_x
 _atom_site_fract_y
 _atom_site_fract_z
 _atom_site_occupancy
  Ho  Ho0  1  0.994871  0.676352  0.750437  1
  Ho  Ho1  1  0.007236  0.325480  0.249823  1
  Ho  Ho2  1  0.674520  0.992764  0.750177  1
  Ho  Ho3  1  0.323648  0.005129  0.249563  1
  Al  Al4  1  0.128426  0.129378  0.750330  1
  Al  Al5  1  0.870622  0.871574  0.249670  1
  Al  Al6  1  0.999923  0.332294  0.576857  1
  Al  Al7  1  0.998559  0.668062  0.423035  1
  Al  Al8  1  0.996530  0.664309  0.075831  1
  Al  Al9  1  0.335691  0.003470  0.924169  1
  Al  Al10  1  0.995953  0.331596  0.924218  1
  Al  Al11  1  0.668404  0.004047  0.075782  1
  Al  Al12  1  0.667706  0.000077  0.423143  1
  Al  Al13  1  0.331938  0.001441  0.576965  1
  Al  Al14  1  0.331619  0.328227  0.050194  1
  Al  Al15  1  0.671773  0.668381  0.949806  1
  Al  Al16  1  0.671054  0.671215  0.553660  1
  Al  Al17  1  0.328785  0.328946  0.446340  1
  Al  Al18  1  0.342703  0.547492  0.750400  1
  Al  Al19  1  0.657153  0.447854  0.246657  1
  Al  Al20  1  0.552146  0.342847  0.753343  1
  Al  Al21  1  0.452508  0.657297  0.249600  1
  Os  Os22  1  0.999593  0.000407  0.500000  1
  Os  Os23  1  0.000016  0.999984  0.000000  1
  Pt  Pt24  1  0.671470  0.328530  0.500000  1
  Pt  Pt25  1  0.327672  0.672328  0.500000  1
  Pt  Pt26  1  0.328128  0.671872  0.000000  1
  Rh  Rh27  1  0.671350  0.328650  0.000000  1
