# generated using pymatgen
data_Pr2NdTeP2
_symmetry_space_group_name_H-M   'P 1'
_cell_length_a   4.24732500
_cell_length_b   10.57451477
_cell_length_c   7.34075300
_cell_angle_alpha   89.74252745
_cell_angle_beta   90.00000000
_cell_angle_gamma   90.00000000
_symmetry_Int_Tables_number   1
_chemical_formula_structural   Pr2NdTeP2
_chemical_formula_sum   'Pr4 Nd2 Te2 P4'
_cell_volume   329.69485380
_cell_formula_units_Z   2
loop_
 _symmetry_equiv_pos_site_id
 _symmetry_equiv_pos_as_xyz
  1  'x, y, z'
loop_
 _atom_site_type_symbol
 _atom_site_label
 _atom_site_symmetry_multiplicity
 _atom_site_fract_x
 _atom_site_fract_y
 _atom_site_fract_z
 _atom_site_occupancy
  Pr  Pr0  1  0.250000  0.801223  0.915747  1
  Pr  Pr1  1  0.750000  0.198777  0.084253  1
  Pr  Pr2  1  0.750000  0.800778  0.415893  1
  Pr  Pr3  1  0.250000  0.199222  0.584107  1
  Nd  Nd4  1  0.250000  0.500071  0.249850  1
  Nd  Nd5  1  0.750000  0.499929  0.750150  1
  Te  Te6  1  0.750000  0.000197  0.749628  1
  Te  Te7  1  0.250000  0.999803  0.250372  1
  P  P8  1  0.250000  0.656831  0.583550  1
  P  P9  1  0.750000  0.343169  0.416450  1
  P  P10  1  0.750000  0.657151  0.083211  1
  P  P11  1  0.250000  0.342849  0.916789  1
