# generated using pymatgen
data_Sm4Tm4Re3B24Os
_symmetry_space_group_name_H-M   'P 1'
_cell_length_a   3.68230400
_cell_length_b   9.17072426
_cell_length_c   11.60056703
_cell_angle_alpha   90.06797287
_cell_angle_beta   90.00000000
_cell_angle_gamma   90.00000000
_symmetry_Int_Tables_number   1
_chemical_formula_structural   Sm4Tm4Re3B24Os
_chemical_formula_sum   'Sm4 Tm4 Re3 B24 Os1'
_cell_volume   391.74385022
_cell_formula_units_Z   1
loop_
 _symmetry_equiv_pos_site_id
 _symmetry_equiv_pos_as_xyz
  1  'x, y, z'
loop_
 _atom_site_type_symbol
 _atom_site_label
 _atom_site_symmetry_multiplicity
 _atom_site_fract_x
 _atom_site_fract_y
 _atom_site_fract_z
 _atom_site_occupancy
  Sm  Sm0  1  0.000000  0.321316  0.414499  1
  Sm  Sm1  1  0.000000  0.677834  0.587125  1
  Sm  Sm2  1  0.000000  0.823566  0.084585  1
  Sm  Sm3  1  0.000000  0.177647  0.913888  1
  Tm  Tm4  1  0.000000  0.942597  0.369708  1
  Tm  Tm5  1  0.000000  0.056658  0.629727  1
  Tm  Tm6  1  0.000000  0.442529  0.130084  1
  Tm  Tm7  1  0.000000  0.557051  0.870499  1
  Re  Re8  1  0.000000  0.361588  0.679523  1
  Re  Re9  1  0.000000  0.138980  0.180915  1
  Re  Re10  1  0.000000  0.861103  0.819557  1
  B  B11  1  0.500000  0.554663  0.431314  1
  B  B12  1  0.500000  0.446045  0.568378  1
  B  B13  1  0.500000  0.054146  0.068324  1
  B  B14  1  0.500000  0.946112  0.931421  1
  B  B15  1  0.500000  0.749768  0.416751  1
  B  B16  1  0.500000  0.249391  0.582869  1
  B  B17  1  0.500000  0.250444  0.083012  1
  B  B18  1  0.500000  0.750130  0.917152  1
  B  B19  1  0.500000  0.790887  0.265749  1
  B  B20  1  0.500000  0.208267  0.734040  1
  B  B21  1  0.500000  0.291601  0.234494  1
  B  B22  1  0.500000  0.708128  0.766079  1
  B  B23  1  0.500000  0.629781  0.185756  1
  B  B24  1  0.500000  0.370773  0.814159  1
  B  B25  1  0.500000  0.129550  0.314935  1
  B  B26  1  0.500000  0.870307  0.685489  1
  B  B27  1  0.500000  0.982804  0.213060  1
  B  B28  1  0.500000  0.017350  0.786544  1
  B  B29  1  0.500000  0.483622  0.287065  1
  B  B30  1  0.500000  0.517769  0.713196  1
  B  B31  1  0.500000  0.597882  0.027585  1
  B  B32  1  0.500000  0.402311  0.973285  1
  B  B33  1  0.500000  0.096980  0.472733  1
  B  B34  1  0.500000  0.901495  0.526877  1
  Os  Os35  1  0.000000  0.638927  0.319619  1
