# generated using pymatgen
data_FeCo(BW)6
_symmetry_space_group_name_H-M   'P 1'
_cell_length_a   4.54152251
_cell_length_b   4.54152262
_cell_length_c   10.80309083
_cell_angle_alpha   89.89873209
_cell_angle_beta   90.10126932
_cell_angle_gamma   138.86656499
_symmetry_Int_Tables_number   1
_chemical_formula_structural   FeCo(BW)6
_chemical_formula_sum   'Fe1 Co1 B6 W6'
_cell_volume   146.57297304
_cell_formula_units_Z   1
loop_
 _symmetry_equiv_pos_site_id
 _symmetry_equiv_pos_as_xyz
  1  'x, y, z'
loop_
 _atom_site_type_symbol
 _atom_site_label
 _atom_site_symmetry_multiplicity
 _atom_site_fract_x
 _atom_site_fract_y
 _atom_site_fract_z
 _atom_site_occupancy
  Fe  Fe0  1  0.500000  0.500000  0.000000  1
  Co  Co1  1  0.500000  0.500000  0.500000  1
  B  B2  1  0.790701  0.209299  0.250299  1
  B  B3  1  0.209299  0.790701  0.749701  1
  B  B4  1  0.085929  0.914071  0.602398  1
  B  B5  1  0.914071  0.085929  0.397602  1
  B  B6  1  0.914655  0.085345  0.102478  1
  B  B7  1  0.085345  0.914655  0.897522  1
  W  W8  1  0.496722  0.503278  0.250199  1
  W  W9  1  0.503278  0.496722  0.749801  1
  W  W10  1  0.788499  0.211501  0.606817  1
  W  W11  1  0.211501  0.788499  0.393183  1
  W  W12  1  0.210734  0.789266  0.105047  1
  W  W13  1  0.789266  0.210734  0.894953  1
