# generated using pymatgen
data_Sn5B2Ir5Rh
_symmetry_space_group_name_H-M   'P 1'
_cell_length_a   6.70355026
_cell_length_b   6.70808017
_cell_length_c   5.65458360
_cell_angle_alpha   90.10914009
_cell_angle_beta   89.94539362
_cell_angle_gamma   120.02235728
_symmetry_Int_Tables_number   1
_chemical_formula_structural   Sn5B2Ir5Rh
_chemical_formula_sum   'Sn5 B2 Ir5 Rh1'
_cell_volume   220.15862413
_cell_formula_units_Z   1
loop_
 _symmetry_equiv_pos_site_id
 _symmetry_equiv_pos_as_xyz
  1  'x, y, z'
loop_
 _atom_site_type_symbol
 _atom_site_label
 _atom_site_symmetry_multiplicity
 _atom_site_fract_x
 _atom_site_fract_y
 _atom_site_fract_z
 _atom_site_occupancy
  Sn  Sn0  1  0.667452  0.333324  0.498367  1
  Sn  Sn1  1  0.000000  0.594985  0.999762  1
  Sn  Sn2  1  0.403105  0.404033  0.999930  1
  Sn  Sn3  1  0.596895  0.000928  0.999930  1
  Sn  Sn4  1  0.332548  0.665873  0.498367  1
  B  B5  1  0.000000  0.000127  0.499978  1
  B  B6  1  0.000000  0.999407  0.001065  1
  Ir  Ir7  1  0.000000  0.252026  0.253560  1
  Ir  Ir8  1  0.747040  0.746227  0.254863  1
  Ir  Ir9  1  0.252328  0.000963  0.746525  1
  Ir  Ir10  1  0.252960  0.999186  0.254863  1
  Ir  Ir11  1  0.747672  0.748635  0.746525  1
  Rh  Rh12  1  0.000000  0.254287  0.746264  1
