# generated using pymatgen
data_Sr6Ag16P
_symmetry_space_group_name_H-M   'P 1'
_cell_length_a   8.97498827
_cell_length_b   8.97498732
_cell_length_c   8.97498800
_cell_angle_alpha   109.47122442
_cell_angle_beta   109.47122229
_cell_angle_gamma   109.47122112
_symmetry_Int_Tables_number   1
_chemical_formula_structural   Sr6Ag16P
_chemical_formula_sum   'Sr6 Ag16 P1'
_cell_volume   556.51860428
_cell_formula_units_Z   1
loop_
 _symmetry_equiv_pos_site_id
 _symmetry_equiv_pos_as_xyz
  1  'x, y, z'
loop_
 _atom_site_type_symbol
 _atom_site_label
 _atom_site_symmetry_multiplicity
 _atom_site_fract_x
 _atom_site_fract_y
 _atom_site_fract_z
 _atom_site_occupancy
  Sr  Sr0  1  0.000000  0.285762  0.285762  1
  Sr  Sr1  1  0.285762  0.000000  0.285762  1
  Sr  Sr2  1  0.714238  0.000000  0.714238  1
  Sr  Sr3  1  0.714238  0.714238  0.000000  1
  Sr  Sr4  1  0.285762  0.285762  0.000000  1
  Sr  Sr5  1  0.000000  0.714238  0.714238  1
  Ag  Ag6  1  0.500000  0.500000  0.500000  1
  Ag  Ag7  1  0.500000  0.000000  0.000000  1
  Ag  Ag8  1  0.000000  0.500000  0.000000  1
  Ag  Ag9  1  0.000000  0.000000  0.500000  1
  Ag  Ag10  1  0.666192  0.333096  0.333096  1
  Ag  Ag11  1  0.333096  0.000000  0.666904  1
  Ag  Ag12  1  0.333096  0.666192  0.333096  1
  Ag  Ag13  1  0.333096  0.333096  0.666192  1
  Ag  Ag14  1  0.333096  0.666904  0.000000  1
  Ag  Ag15  1  0.000000  0.333096  0.666904  1
  Ag  Ag16  1  0.000000  0.666904  0.333096  1
  Ag  Ag17  1  0.666904  0.666904  0.333808  1
  Ag  Ag18  1  0.666904  0.000000  0.333096  1
  Ag  Ag19  1  0.666904  0.333096  0.000000  1
  Ag  Ag20  1  0.666904  0.333808  0.666904  1
  Ag  Ag21  1  0.333808  0.666904  0.666904  1
  P  P22  1  0.000000  0.000000  0.000000  1
