# generated using pymatgen
data_HoTm2Sc(Co4P3)2
_symmetry_space_group_name_H-M   'P 1'
_cell_length_a   3.69385400
_cell_length_b   10.60274100
_cell_length_c   12.27209600
_cell_angle_alpha   90.00000000
_cell_angle_beta   90.00000000
_cell_angle_gamma   90.00000000
_symmetry_Int_Tables_number   1
_chemical_formula_structural   HoTm2Sc(Co4P3)2
_chemical_formula_sum   'Ho2 Tm4 Sc2 Co16 P12'
_cell_volume   480.63636070
_cell_formula_units_Z   2
loop_
 _symmetry_equiv_pos_site_id
 _symmetry_equiv_pos_as_xyz
  1  'x, y, z'
loop_
 _atom_site_type_symbol
 _atom_site_label
 _atom_site_symmetry_multiplicity
 _atom_site_fract_x
 _atom_site_fract_y
 _atom_site_fract_z
 _atom_site_occupancy
  Ho  Ho0  1  0.000000  0.500000  0.528353  1
  Ho  Ho1  1  0.500000  0.000000  0.471647  1
  Tm  Tm2  1  0.500000  0.822841  0.205596  1
  Tm  Tm3  1  0.500000  0.177159  0.205596  1
  Tm  Tm4  1  0.000000  0.677159  0.794404  1
  Tm  Tm5  1  0.000000  0.322841  0.794404  1
  Sc  Sc6  1  0.500000  0.500000  0.157570  1
  Sc  Sc7  1  0.000000  0.000000  0.842430  1
  Co  Co8  1  0.500000  0.500000  0.705770  1
  Co  Co9  1  0.000000  0.000000  0.294230  1
  Co  Co10  1  0.000000  0.500000  0.987517  1
  Co  Co11  1  0.500000  0.000000  0.012483  1
  Co  Co12  1  0.500000  0.331179  0.994682  1
  Co  Co13  1  0.500000  0.668821  0.994682  1
  Co  Co14  1  0.000000  0.168821  0.005318  1
  Co  Co15  1  0.000000  0.831179  0.005318  1
  Co  Co16  1  0.500000  0.295343  0.432918  1
  Co  Co17  1  0.500000  0.704657  0.432918  1
  Co  Co18  1  0.000000  0.204657  0.567082  1
  Co  Co19  1  0.000000  0.795343  0.567082  1
  Co  Co20  1  0.500000  0.877235  0.702966  1
  Co  Co21  1  0.500000  0.122765  0.702966  1
  Co  Co22  1  0.000000  0.622765  0.297034  1
  Co  Co23  1  0.000000  0.377235  0.297034  1
  P  P24  1  0.500000  0.500000  0.885191  1
  P  P25  1  0.000000  0.000000  0.114809  1
  P  P26  1  0.500000  0.500000  0.360951  1
  P  P27  1  0.000000  0.000000  0.639049  1
  P  P28  1  0.500000  0.310465  0.616314  1
  P  P29  1  0.500000  0.689535  0.616314  1
  P  P30  1  0.000000  0.189535  0.383686  1
  P  P31  1  0.000000  0.810465  0.383686  1
  P  P32  1  0.500000  0.838738  0.891534  1
  P  P33  1  0.500000  0.161262  0.891534  1
  P  P34  1  0.000000  0.661262  0.108466  1
  P  P35  1  0.000000  0.338738  0.108466  1
