# generated using pymatgen
data_Dy7Y11Ho2(CoBi2)4
_symmetry_space_group_name_H-M   'P 1'
_cell_length_a   8.02688167
_cell_length_b   8.85591259
_cell_length_c   12.45157983
_cell_angle_alpha   89.96719059
_cell_angle_beta   90.06106122
_cell_angle_gamma   89.97409619
_symmetry_Int_Tables_number   1
_chemical_formula_structural   Dy7Y11Ho2(CoBi2)4
_chemical_formula_sum   'Dy7 Y11 Ho2 Co4 Bi8'
_cell_volume   885.12432726
_cell_formula_units_Z   1
loop_
 _symmetry_equiv_pos_site_id
 _symmetry_equiv_pos_as_xyz
  1  'x, y, z'
loop_
 _atom_site_type_symbol
 _atom_site_label
 _atom_site_symmetry_multiplicity
 _atom_site_fract_x
 _atom_site_fract_y
 _atom_site_fract_z
 _atom_site_occupancy
  Dy  Dy0  1  0.547878  0.750003  0.002227  1
  Dy  Dy1  1  0.175348  0.964704  0.936704  1
  Dy  Dy2  1  0.324999  0.535083  0.436564  1
  Dy  Dy3  1  0.824749  0.035009  0.063400  1
  Dy  Dy4  1  0.674998  0.464904  0.563417  1
  Dy  Dy5  1  0.824737  0.464993  0.063387  1
  Dy  Dy6  1  0.175367  0.535296  0.936718  1
  Y  Y7  1  0.846348  0.750061  0.800567  1
  Y  Y8  1  0.153551  0.249944  0.199492  1
  Y  Y9  1  0.346834  0.249871  0.699256  1
  Y  Y10  1  0.653233  0.750128  0.300676  1
  Y  Y11  1  0.378266  0.750270  0.689536  1
  Y  Y12  1  0.621568  0.249738  0.310434  1
  Y  Y13  1  0.878263  0.249998  0.810009  1
  Y  Y14  1  0.121901  0.750010  0.189898  1
  Y  Y15  1  0.952914  0.750209  0.502274  1
  Y  Y16  1  0.047065  0.249790  0.497713  1
  Y  Y17  1  0.453046  0.250000  0.997734  1
  Ho  Ho18  1  0.673950  0.035155  0.563300  1
  Ho  Ho19  1  0.326070  0.964826  0.436717  1
  Co  Co20  1  0.560483  0.750524  0.507935  1
  Co  Co21  1  0.439529  0.249473  0.492008  1
  Co  Co22  1  0.060654  0.250005  0.991786  1
  Co  Co23  1  0.938235  0.749994  0.008401  1
  Bi  Bi24  1  0.569352  0.492308  0.825973  1
  Bi  Bi25  1  0.430604  0.507727  0.173967  1
  Bi  Bi26  1  0.069390  0.507753  0.674065  1
  Bi  Bi27  1  0.430514  0.992280  0.174073  1
  Bi  Bi28  1  0.930659  0.492270  0.325920  1
  Bi  Bi29  1  0.569445  0.007695  0.825869  1
  Bi  Bi30  1  0.931046  0.007691  0.326020  1
  Bi  Bi31  1  0.069002  0.992286  0.673963  1
