# generated using pymatgen
data_La4Mg2HgAu10
_symmetry_space_group_name_H-M   'P 1'
_cell_length_a   8.80314144
_cell_length_b   8.80314109
_cell_length_c   10.47455357
_cell_angle_alpha   90.23830681
_cell_angle_beta   89.76169045
_cell_angle_gamma   108.23868402
_symmetry_Int_Tables_number   1
_chemical_formula_structural   La4Mg2HgAu10
_chemical_formula_sum   'La8 Mg4 Hg2 Au20'
_cell_volume   770.93800350
_cell_formula_units_Z   2
loop_
 _symmetry_equiv_pos_site_id
 _symmetry_equiv_pos_as_xyz
  1  'x, y, z'
loop_
 _atom_site_type_symbol
 _atom_site_label
 _atom_site_symmetry_multiplicity
 _atom_site_fract_x
 _atom_site_fract_y
 _atom_site_fract_z
 _atom_site_occupancy
  La  La0  1  0.706400  0.302672  0.998586  1
  La  La1  1  0.293600  0.697328  0.001414  1
  La  La2  1  0.802672  0.206400  0.501414  1
  La  La3  1  0.197328  0.793600  0.498586  1
  La  La4  1  0.297830  0.302524  0.205251  1
  La  La5  1  0.702170  0.697476  0.794749  1
  La  La6  1  0.197476  0.202170  0.705251  1
  La  La7  1  0.802524  0.797830  0.294749  1
  Mg  Mg8  1  0.487896  0.987896  0.750000  1
  Mg  Mg9  1  0.512104  0.012104  0.250000  1
  Mg  Mg10  1  0.000000  0.000000  0.000000  1
  Mg  Mg11  1  0.500000  0.500000  0.500000  1
  Hg  Hg12  1  0.016562  0.516562  0.250000  1
  Hg  Hg13  1  0.983438  0.483438  0.750000  1
  Au  Au14  1  0.097008  0.095788  0.405356  1
  Au  Au15  1  0.902992  0.904212  0.594644  1
  Au  Au16  1  0.404212  0.402992  0.905356  1
  Au  Au17  1  0.595788  0.597008  0.094644  1
  Au  Au18  1  0.880954  0.155571  0.205389  1
  Au  Au19  1  0.119046  0.844429  0.794611  1
  Au  Au20  1  0.601753  0.328193  0.704220  1
  Au  Au21  1  0.655571  0.380954  0.294611  1
  Au  Au22  1  0.398247  0.671807  0.295780  1
  Au  Au23  1  0.344429  0.619046  0.705389  1
  Au  Au24  1  0.828193  0.101753  0.795780  1
  Au  Au25  1  0.171807  0.898247  0.204220  1
  Au  Au26  1  0.931062  0.669395  0.021877  1
  Au  Au27  1  0.068938  0.330605  0.978123  1
  Au  Au28  1  0.566229  0.845017  0.522979  1
  Au  Au29  1  0.169395  0.431062  0.478123  1
  Au  Au30  1  0.433771  0.154983  0.477021  1
  Au  Au31  1  0.830605  0.568938  0.521877  1
  Au  Au32  1  0.345017  0.066229  0.977021  1
  Au  Au33  1  0.654983  0.933771  0.022979  1
