# generated using pymatgen
data_Tm3Sn3HgPtRh
_symmetry_space_group_name_H-M   'P 1'
_cell_length_a   7.52432100
_cell_length_b   7.52432200
_cell_length_c   4.08183900
_cell_angle_alpha   90.00000000
_cell_angle_beta   90.00000000
_cell_angle_gamma   119.99999238
_symmetry_Int_Tables_number   1
_chemical_formula_structural   Tm3Sn3HgPtRh
_chemical_formula_sum   'Tm3 Sn3 Hg1 Pt1 Rh1'
_cell_volume   200.13416044
_cell_formula_units_Z   1
loop_
 _symmetry_equiv_pos_site_id
 _symmetry_equiv_pos_as_xyz
  1  'x, y, z'
loop_
 _atom_site_type_symbol
 _atom_site_label
 _atom_site_symmetry_multiplicity
 _atom_site_fract_x
 _atom_site_fract_y
 _atom_site_fract_z
 _atom_site_occupancy
  Tm  Tm0  1  0.020611  0.411024  0.000000  1
  Tm  Tm1  1  0.588976  0.609587  0.000000  1
  Tm  Tm2  1  0.390413  0.979389  0.000000  1
  Sn  Sn3  1  0.247457  0.251602  0.500000  1
  Sn  Sn4  1  0.004145  0.752543  0.500000  1
  Sn  Sn5  1  0.748398  0.995855  0.500000  1
  Hg  Hg6  1  0.666667  0.333333  0.500000  1
  Pt  Pt7  1  0.333333  0.666667  0.500000  1
  Rh  Rh8  1  0.000000  0.000000  0.000000  1
