# generated using pymatgen
data_Ce2GaRu2Rh
_symmetry_space_group_name_H-M   'P 1'
_cell_length_a   5.16823592
_cell_length_b   5.70749037
_cell_length_c   5.70749090
_cell_angle_alpha   120.26628780
_cell_angle_beta   125.93878003
_cell_angle_gamma   87.75403376
_symmetry_Int_Tables_number   1
_chemical_formula_structural   Ce2GaRu2Rh
_chemical_formula_sum   'Ce2 Ga1 Ru2 Rh1'
_cell_volume   109.51514847
_cell_formula_units_Z   1
loop_
 _symmetry_equiv_pos_site_id
 _symmetry_equiv_pos_as_xyz
  1  'x, y, z'
loop_
 _atom_site_type_symbol
 _atom_site_label
 _atom_site_symmetry_multiplicity
 _atom_site_fract_x
 _atom_site_fract_y
 _atom_site_fract_z
 _atom_site_occupancy
  Ce  Ce0  1  0.400154  0.131236  0.268918  1
  Ce  Ce1  1  0.599846  0.868764  0.731082  1
  Ga  Ga2  1  0.500000  0.500000  0.000000  1
  Ru  Ru3  1  0.000000  0.500000  0.000000  1
  Ru  Ru4  1  0.000000  0.000000  0.500000  1
  Rh  Rh5  1  0.000000  0.500000  0.500000  1
