# generated using pymatgen
data_KZrMnF7
_symmetry_space_group_name_H-M   'P 1'
_cell_length_a   6.46659257
_cell_length_b   6.46659292
_cell_length_c   8.35199400
_cell_angle_alpha   90.00000000
_cell_angle_beta   90.00000000
_cell_angle_gamma   116.81714066
_symmetry_Int_Tables_number   1
_chemical_formula_structural   KZrMnF7
_chemical_formula_sum   'K2 Zr2 Mn2 F14'
_cell_volume   311.69190575
_cell_formula_units_Z   2
loop_
 _symmetry_equiv_pos_site_id
 _symmetry_equiv_pos_as_xyz
  1  'x, y, z'
loop_
 _atom_site_type_symbol
 _atom_site_label
 _atom_site_symmetry_multiplicity
 _atom_site_fract_x
 _atom_site_fract_y
 _atom_site_fract_z
 _atom_site_occupancy
  K  K0  1  0.500000  0.500000  0.500000  1
  K  K1  1  0.500000  0.500000  0.000000  1
  Zr  Zr2  1  0.807499  0.192501  0.250000  1
  Zr  Zr3  1  0.192501  0.807499  0.750000  1
  Mn  Mn4  1  0.191094  0.808906  0.250000  1
  Mn  Mn5  1  0.808906  0.191094  0.750000  1
  F  F6  1  0.839576  0.556220  0.750000  1
  F  F7  1  0.160424  0.443780  0.250000  1
  F  F8  1  0.170045  0.468250  0.750000  1
  F  F9  1  0.799176  0.200824  0.495516  1
  F  F10  1  0.443780  0.160424  0.750000  1
  F  F11  1  0.799176  0.200824  0.004484  1
  F  F12  1  0.200824  0.799176  0.995516  1
  F  F13  1  0.829955  0.531750  0.250000  1
  F  F14  1  0.556220  0.839576  0.250000  1
  F  F15  1  0.995052  0.004948  0.250000  1
  F  F16  1  0.004948  0.995052  0.750000  1
  F  F17  1  0.200824  0.799176  0.504484  1
  F  F18  1  0.531750  0.829955  0.750000  1
  F  F19  1  0.468250  0.170045  0.250000  1
