# generated using pymatgen
data_Tb18DyHoPb16
_symmetry_space_group_name_H-M   'P 1'
_cell_length_a   8.23341900
_cell_length_b   8.31993027
_cell_length_c   15.71504000
_cell_angle_alpha   90.00000000
_cell_angle_beta   90.00000000
_cell_angle_gamma   90.01454444
_symmetry_Int_Tables_number   1
_chemical_formula_structural   Tb18DyHoPb16
_chemical_formula_sum   'Tb18 Dy1 Ho1 Pb16'
_cell_volume   1076.50333703
_cell_formula_units_Z   1
loop_
 _symmetry_equiv_pos_site_id
 _symmetry_equiv_pos_as_xyz
  1  'x, y, z'
loop_
 _atom_site_type_symbol
 _atom_site_label
 _atom_site_symmetry_multiplicity
 _atom_site_fract_x
 _atom_site_fract_y
 _atom_site_fract_z
 _atom_site_occupancy
  Tb  Tb0  1  0.377315  0.840645  0.879590  1
  Tb  Tb1  1  0.877649  0.659132  0.620560  1
  Tb  Tb2  1  0.622352  0.159122  0.379529  1
  Tb  Tb3  1  0.122710  0.340665  0.120416  1
  Tb  Tb4  1  0.622352  0.159122  0.120471  1
  Tb  Tb5  1  0.122710  0.340665  0.379584  1
  Tb  Tb6  1  0.377315  0.840645  0.620410  1
  Tb  Tb7  1  0.877649  0.659132  0.879440  1
  Tb  Tb8  1  0.534442  0.323514  0.899735  1
  Tb  Tb9  1  0.034628  0.176701  0.600157  1
  Tb  Tb10  1  0.465357  0.676774  0.399870  1
  Tb  Tb11  1  0.965534  0.823527  0.100191  1
  Tb  Tb12  1  0.465357  0.676774  0.100130  1
  Tb  Tb13  1  0.965534  0.823527  0.399809  1
  Tb  Tb14  1  0.534442  0.323514  0.600265  1
  Tb  Tb15  1  0.034628  0.176701  0.899843  1
  Tb  Tb16  1  0.709057  0.996377  0.750000  1
  Tb  Tb17  1  0.790913  0.496370  0.250000  1
  Dy  Dy18  1  0.290780  0.003867  0.250000  1
  Ho  Ho19  1  0.209069  0.503750  0.750000  1
  Pb  Pb20  1  0.280965  0.032846  0.042902  1
  Pb  Pb21  1  0.780892  0.466920  0.457447  1
  Pb  Pb22  1  0.719078  0.966873  0.542823  1
  Pb  Pb23  1  0.219008  0.532962  0.956933  1
  Pb  Pb24  1  0.719078  0.966873  0.957177  1
  Pb  Pb25  1  0.219008  0.532962  0.543067  1
  Pb  Pb26  1  0.280965  0.032846  0.457098  1
  Pb  Pb27  1  0.780892  0.466920  0.042553  1
  Pb  Pb28  1  0.572643  0.625654  0.750000  1
  Pb  Pb29  1  0.073531  0.873808  0.750000  1
  Pb  Pb30  1  0.426606  0.373933  0.250000  1
  Pb  Pb31  1  0.927209  0.125406  0.250000  1
  Pb  Pb32  1  0.345899  0.152802  0.750000  1
  Pb  Pb33  1  0.846520  0.347979  0.750000  1
  Pb  Pb34  1  0.653807  0.847862  0.250000  1
  Pb  Pb35  1  0.154103  0.652832  0.250000  1
