# generated using pymatgen
data_Tb3Ga6Ni8Ir
_symmetry_space_group_name_H-M   'P 1'
_cell_length_a   4.11356900
_cell_length_b   8.88038481
_cell_length_c   8.88038314
_cell_angle_alpha   58.81542515
_cell_angle_beta   90.00000000
_cell_angle_gamma   90.00000000
_symmetry_Int_Tables_number   1
_chemical_formula_structural   Tb3Ga6Ni8Ir
_chemical_formula_sum   'Tb3 Ga6 Ni8 Ir1'
_cell_volume   277.52631133
_cell_formula_units_Z   1
loop_
 _symmetry_equiv_pos_site_id
 _symmetry_equiv_pos_as_xyz
  1  'x, y, z'
loop_
 _atom_site_type_symbol
 _atom_site_label
 _atom_site_symmetry_multiplicity
 _atom_site_fract_x
 _atom_site_fract_y
 _atom_site_fract_z
 _atom_site_occupancy
  Tb  Tb0  1  0.500000  0.333986  0.334502  1
  Tb  Tb1  1  0.500000  0.665498  0.666014  1
  Tb  Tb2  1  0.000000  0.010223  0.989777  1
  Ga  Ga3  1  0.500000  0.732002  0.267998  1
  Ga  Ga4  1  0.500000  0.273625  0.005884  1
  Ga  Ga5  1  0.500000  0.994116  0.726375  1
  Ga  Ga6  1  0.000000  0.478308  0.521692  1
  Ga  Ga7  1  0.000000  0.519033  0.008336  1
  Ga  Ga8  1  0.000000  0.991664  0.480967  1
  Ni  Ni9  1  0.000000  0.196797  0.176343  1
  Ni  Ni10  1  0.000000  0.167195  0.615368  1
  Ni  Ni11  1  0.000000  0.632289  0.197755  1
  Ni  Ni12  1  0.000000  0.823656  0.803203  1
  Ni  Ni13  1  0.000000  0.384632  0.832805  1
  Ni  Ni14  1  0.000000  0.802245  0.367711  1
  Ni  Ni15  1  0.500000  0.707521  0.003142  1
  Ni  Ni16  1  0.500000  0.996858  0.292479  1
  Ir  Ir17  1  0.500000  0.290253  0.709747  1
