# generated using pymatgen
data_Ba6Er2(IrO6)3
_symmetry_space_group_name_H-M   'P 1'
_cell_length_a   10.29822931
_cell_length_b   10.29822768
_cell_length_c   10.29822863
_cell_angle_alpha   146.38808020
_cell_angle_beta   131.85201541
_cell_angle_gamma   59.99900747
_symmetry_Int_Tables_number   1
_chemical_formula_structural   Ba6Er2(IrO6)3
_chemical_formula_sum   'Ba6 Er2 Ir3 O18'
_cell_volume   446.21729908
_cell_formula_units_Z   1
loop_
 _symmetry_equiv_pos_site_id
 _symmetry_equiv_pos_as_xyz
  1  'x, y, z'
loop_
 _atom_site_type_symbol
 _atom_site_label
 _atom_site_symmetry_multiplicity
 _atom_site_fract_x
 _atom_site_fract_y
 _atom_site_fract_z
 _atom_site_occupancy
  Ba  Ba0  1  0.772846  0.500000  0.272846  1
  Ba  Ba1  1  0.395815  0.157987  0.237829  1
  Ba  Ba2  1  0.079842  0.842013  0.237829  1
  Ba  Ba3  1  0.227154  0.500000  0.727154  1
  Ba  Ba4  1  0.920158  0.157987  0.762171  1
  Ba  Ba5  1  0.604185  0.842013  0.762171  1
  Er  Er6  1  0.665661  0.665661  0.000000  1
  Er  Er7  1  0.334339  0.334339  0.000000  1
  Ir  Ir8  1  0.500000  0.000000  0.500000  1
  Ir  Ir9  1  0.170026  0.670026  0.500000  1
  Ir  Ir10  1  0.829974  0.329974  0.500000  1
  O  O11  1  0.727446  0.000000  0.727446  1
  O  O12  1  0.405781  0.669575  0.736206  1
  O  O13  1  0.066633  0.330425  0.736206  1
  O  O14  1  0.578412  0.843041  0.264628  1
  O  O15  1  0.248304  0.513098  0.264794  1
  O  O16  1  0.905884  0.179853  0.273969  1
  O  O17  1  0.421588  0.686216  0.264628  1
  O  O18  1  0.094116  0.368085  0.273969  1
  O  O19  1  0.751696  0.016490  0.264794  1
  O  O20  1  0.272554  0.000000  0.272554  1
  O  O21  1  0.933367  0.669575  0.263794  1
  O  O22  1  0.594219  0.330425  0.263794  1
  O  O23  1  0.421588  0.156959  0.735372  1
  O  O24  1  0.094116  0.820147  0.726031  1
  O  O25  1  0.751696  0.486902  0.735206  1
  O  O26  1  0.578412  0.313784  0.735372  1
  O  O27  1  0.248304  0.983510  0.735206  1
  O  O28  1  0.905884  0.631916  0.726031  1
