# generated using pymatgen
data_Zr6Mo(PO4)9
_symmetry_space_group_name_H-M   'P 1'
_cell_length_a   8.99054800
_cell_length_b   8.99054803
_cell_length_c   22.81548100
_cell_angle_alpha   90.00000000
_cell_angle_beta   90.00000000
_cell_angle_gamma   119.99999988
_symmetry_Int_Tables_number   1
_chemical_formula_structural   Zr6Mo(PO4)9
_chemical_formula_sum   'Zr12 Mo2 P18 O72'
_cell_volume   1597.10177001
_cell_formula_units_Z   2
loop_
 _symmetry_equiv_pos_site_id
 _symmetry_equiv_pos_as_xyz
  1  'x, y, z'
loop_
 _atom_site_type_symbol
 _atom_site_label
 _atom_site_symmetry_multiplicity
 _atom_site_fract_x
 _atom_site_fract_y
 _atom_site_fract_z
 _atom_site_occupancy
  Zr  Zr0  1  0.333333  0.666666  0.814500  1
  Zr  Zr1  1  0.666665  0.333334  0.966413  1
  Zr  Zr2  1  0.333335  0.666666  0.033587  1
  Zr  Zr3  1  0.666667  0.333334  0.185500  1
  Zr  Zr4  1  0.666666  0.333335  0.466413  1
  Zr  Zr5  1  0.000000  0.000000  0.647493  1
  Zr  Zr6  1  0.333334  0.666667  0.314500  1
  Zr  Zr7  1  0.000000  0.000000  0.352507  1
  Zr  Zr8  1  0.666666  0.333333  0.685500  1
  Zr  Zr9  1  0.333334  0.666665  0.533587  1
  Zr  Zr10  1  0.000000  0.000000  0.147493  1
  Zr  Zr11  1  0.000000  0.000000  0.852507  1
  Mo  Mo12  1  0.000000  0.000000  0.500000  1
  Mo  Mo13  1  0.000000  0.000000  0.000000  1
  P  P14  1  0.943282  0.315554  0.575943  1
  P  P15  1  0.315554  0.372271  0.424057  1
  P  P16  1  0.315554  0.943282  0.924057  1
  P  P17  1  0.372272  0.056718  0.575943  1
  P  P18  1  0.000000  0.709386  0.750000  1
  P  P19  1  0.056718  0.372272  0.924057  1
  P  P20  1  0.627728  0.943282  0.424057  1
  P  P21  1  0.290614  0.000000  0.250000  1
  P  P22  1  0.290614  0.290614  0.750000  1
  P  P23  1  0.709386  0.000000  0.750000  1
  P  P24  1  0.684446  0.627729  0.575943  1
  P  P25  1  0.372271  0.315554  0.075943  1
  P  P26  1  0.709386  0.709386  0.250000  1
  P  P27  1  0.684446  0.056718  0.075943  1
  P  P28  1  0.056718  0.684446  0.424057  1
  P  P29  1  0.000000  0.290614  0.250000  1
  P  P30  1  0.943282  0.627728  0.075943  1
  P  P31  1  0.627729  0.684446  0.924057  1
  O  O32  1  0.302880  0.842570  0.868243  1
  O  O33  1  0.150106  0.966688  0.927192  1
  O  O34  1  0.966688  0.150106  0.572808  1
  O  O35  1  0.123460  0.647750  0.079384  1
  O  O36  1  0.183417  0.150104  0.072808  1
  O  O37  1  0.842570  0.302880  0.631757  1
  O  O38  1  0.475709  0.123458  0.920616  1
  O  O39  1  0.312231  0.846101  0.979434  1
  O  O40  1  0.796305  0.829140  0.195722  1
  O  O41  1  0.849894  0.033312  0.072808  1
  O  O42  1  0.183418  0.033313  0.572809  1
  O  O43  1  0.842214  0.533668  0.738832  1
  O  O44  1  0.123458  0.475709  0.579384  1
  O  O45  1  0.842570  0.539689  0.131757  1
  O  O46  1  0.203695  0.170860  0.804278  1
  O  O47  1  0.153899  0.466130  0.979434  1
  O  O48  1  0.157786  0.691454  0.761168  1
  O  O49  1  0.302880  0.460311  0.368243  1
  O  O50  1  0.157786  0.466332  0.261168  1
  O  O51  1  0.533668  0.691454  0.261168  1
  O  O52  1  0.539689  0.842570  0.368243  1
  O  O53  1  0.846101  0.533870  0.020566  1
  O  O54  1  0.967164  0.796305  0.804278  1
  O  O55  1  0.539689  0.697120  0.868243  1
  O  O56  1  0.647750  0.524291  0.920616  1
  O  O57  1  0.157430  0.697120  0.368243  1
  O  O58  1  0.533668  0.842214  0.761168  1
  O  O59  1  0.203695  0.032836  0.304278  1
  O  O60  1  0.524291  0.876542  0.079384  1
  O  O61  1  0.829140  0.796305  0.304278  1
  O  O62  1  0.816582  0.966687  0.427191  1
  O  O63  1  0.876540  0.352250  0.920616  1
  O  O64  1  0.691454  0.157786  0.738832  1
  O  O65  1  0.466130  0.153899  0.520566  1
  O  O66  1  0.876542  0.524291  0.420616  1
  O  O67  1  0.312231  0.466129  0.479434  1
  O  O68  1  0.796305  0.967164  0.695722  1
  O  O69  1  0.460311  0.157430  0.631757  1
  O  O70  1  0.150104  0.183417  0.427192  1
  O  O71  1  0.524291  0.647750  0.579384  1
  O  O72  1  0.352250  0.475709  0.079384  1
  O  O73  1  0.033312  0.849894  0.427192  1
  O  O74  1  0.460311  0.302880  0.131757  1
  O  O75  1  0.466332  0.308546  0.738832  1
  O  O76  1  0.533870  0.846101  0.479434  1
  O  O77  1  0.352250  0.876540  0.579384  1
  O  O78  1  0.170860  0.967165  0.195722  1
  O  O79  1  0.849896  0.816583  0.572808  1
  O  O80  1  0.816583  0.849896  0.927192  1
  O  O81  1  0.032836  0.203695  0.195722  1
  O  O82  1  0.157430  0.460311  0.868243  1
  O  O83  1  0.647750  0.123460  0.420616  1
  O  O84  1  0.967165  0.170860  0.304278  1
  O  O85  1  0.687769  0.153899  0.020566  1
  O  O86  1  0.846101  0.312231  0.520566  1
  O  O87  1  0.697120  0.157430  0.131757  1
  O  O88  1  0.033313  0.183418  0.927191  1
  O  O89  1  0.170860  0.203695  0.695722  1
  O  O90  1  0.308546  0.842214  0.261168  1
  O  O91  1  0.687769  0.533871  0.520566  1
  O  O92  1  0.533871  0.687769  0.979434  1
  O  O93  1  0.466129  0.312231  0.020566  1
  O  O94  1  0.829140  0.032835  0.804278  1
  O  O95  1  0.691454  0.533668  0.238832  1
  O  O96  1  0.032835  0.829140  0.695722  1
  O  O97  1  0.308546  0.466332  0.761168  1
  O  O98  1  0.697120  0.539689  0.631757  1
  O  O99  1  0.966687  0.816582  0.072809  1
  O  O100  1  0.475709  0.352250  0.420616  1
  O  O101  1  0.153899  0.687769  0.479434  1
  O  O102  1  0.466332  0.157786  0.238832  1
  O  O103  1  0.842214  0.308546  0.238832  1
