# generated using pymatgen
data_ScCdGaNi3
_symmetry_space_group_name_H-M   'P 1'
_cell_length_a   5.05829031
_cell_length_b   5.05829055
_cell_length_c   4.91208555
_cell_angle_alpha   59.01042341
_cell_angle_beta   59.01042497
_cell_angle_gamma   59.99999912
_symmetry_Int_Tables_number   1
_chemical_formula_structural   ScCdGaNi3
_chemical_formula_sum   'Sc1 Cd1 Ga1 Ni3'
_cell_volume   87.51810881
_cell_formula_units_Z   1
loop_
 _symmetry_equiv_pos_site_id
 _symmetry_equiv_pos_as_xyz
  1  'x, y, z'
loop_
 _atom_site_type_symbol
 _atom_site_label
 _atom_site_symmetry_multiplicity
 _atom_site_fract_x
 _atom_site_fract_y
 _atom_site_fract_z
 _atom_site_occupancy
  Sc  Sc0  1  0.247547  0.247547  0.257359  1
  Cd  Cd1  1  0.000233  0.000233  0.999300  1
  Ga  Ga2  1  0.625838  0.625838  0.122485  1
  Ni  Ni3  1  0.625589  0.125203  0.623618  1
  Ni  Ni4  1  0.125203  0.625589  0.623618  1
  Ni  Ni5  1  0.625589  0.625589  0.623618  1
