# generated using pymatgen
data_CaYb3(GaAg6)2
_symmetry_space_group_name_H-M   'P 1'
_cell_length_a   5.48551939
_cell_length_b   5.48551934
_cell_length_c   13.78791386
_cell_angle_alpha   89.95001565
_cell_angle_beta   89.95001692
_cell_angle_gamma   116.89837615
_symmetry_Int_Tables_number   1
_chemical_formula_structural   CaYb3(GaAg6)2
_chemical_formula_sum   'Ca1 Yb3 Ga2 Ag12'
_cell_volume   370.00361948
_cell_formula_units_Z   1
loop_
 _symmetry_equiv_pos_site_id
 _symmetry_equiv_pos_as_xyz
  1  'x, y, z'
loop_
 _atom_site_type_symbol
 _atom_site_label
 _atom_site_symmetry_multiplicity
 _atom_site_fract_x
 _atom_site_fract_y
 _atom_site_fract_z
 _atom_site_occupancy
  Ca  Ca0  1  0.677233  0.677233  0.882444  1
  Yb  Yb1  1  0.320705  0.320705  0.117196  1
  Yb  Yb2  1  0.679390  0.679390  0.616778  1
  Yb  Yb3  1  0.320618  0.320618  0.382977  1
  Ga  Ga4  1  0.833240  0.833240  0.250211  1
  Ga  Ga5  1  0.167222  0.167222  0.749660  1
  Ag  Ag6  1  0.829821  0.334340  0.250242  1
  Ag  Ag7  1  0.170447  0.665809  0.749140  1
  Ag  Ag8  1  0.334340  0.829821  0.250242  1
  Ag  Ag9  1  0.665809  0.170447  0.749140  1
  Ag  Ag10  1  0.991834  0.668736  0.077085  1
  Ag  Ag11  1  0.009586  0.331313  0.575854  1
  Ag  Ag12  1  0.668528  0.990319  0.423885  1
  Ag  Ag13  1  0.331179  0.009680  0.924160  1
  Ag  Ag14  1  0.009680  0.331179  0.924160  1
  Ag  Ag15  1  0.990319  0.668528  0.423885  1
  Ag  Ag16  1  0.331313  0.009586  0.575854  1
  Ag  Ag17  1  0.668736  0.991834  0.077085  1
