# generated using pymatgen
data_Tb6Y4AlBi5
_symmetry_space_group_name_H-M   'P 1'
_cell_length_a   9.14228152
_cell_length_b   9.14228081
_cell_length_c   6.43738300
_cell_angle_alpha   90.00000000
_cell_angle_beta   90.00000000
_cell_angle_gamma   119.77926512
_symmetry_Int_Tables_number   1
_chemical_formula_structural   Tb6Y4AlBi5
_chemical_formula_sum   'Tb6 Y4 Al1 Bi5'
_cell_volume   466.99348884
_cell_formula_units_Z   1
loop_
 _symmetry_equiv_pos_site_id
 _symmetry_equiv_pos_as_xyz
  1  'x, y, z'
loop_
 _atom_site_type_symbol
 _atom_site_label
 _atom_site_symmetry_multiplicity
 _atom_site_fract_x
 _atom_site_fract_y
 _atom_site_fract_z
 _atom_site_occupancy
  Tb  Tb0  1  0.659839  0.335463  0.996887  1
  Tb  Tb1  1  0.335463  0.659839  0.996887  1
  Tb  Tb2  1  0.335463  0.659839  0.503113  1
  Tb  Tb3  1  0.659839  0.335463  0.503113  1
  Tb  Tb4  1  0.758257  0.000339  0.250000  1
  Tb  Tb5  1  0.000339  0.758257  0.250000  1
  Y  Y6  1  0.750085  0.750085  0.750000  1
  Y  Y7  1  0.243758  0.012552  0.750000  1
  Y  Y8  1  0.012552  0.243758  0.750000  1
  Y  Y9  1  0.240483  0.240483  0.250000  1
  Al  Al10  1  0.395415  0.395415  0.750000  1
  Bi  Bi11  1  0.611677  0.002587  0.750000  1
  Bi  Bi12  1  0.002587  0.611677  0.750000  1
  Bi  Bi13  1  0.607863  0.607863  0.250000  1
  Bi  Bi14  1  0.390242  0.996139  0.250000  1
  Bi  Bi15  1  0.996139  0.390242  0.250000  1
