# generated using pymatgen
data_Tb4EuHoErPtI12
_symmetry_space_group_name_H-M   'P 1'
_cell_length_a   9.81614610
_cell_length_b   9.83116984
_cell_length_c   9.81182659
_cell_angle_alpha   106.58190262
_cell_angle_beta   106.47306182
_cell_angle_gamma   106.48209112
_symmetry_Int_Tables_number   1
_chemical_formula_structural   Tb4EuHoErPtI12
_chemical_formula_sum   'Tb4 Eu1 Ho1 Er1 Pt1 I12'
_cell_volume   798.82998564
_cell_formula_units_Z   1
loop_
 _symmetry_equiv_pos_site_id
 _symmetry_equiv_pos_as_xyz
  1  'x, y, z'
loop_
 _atom_site_type_symbol
 _atom_site_label
 _atom_site_symmetry_multiplicity
 _atom_site_fract_x
 _atom_site_fract_y
 _atom_site_fract_z
 _atom_site_occupancy
  Tb  Tb0  1  0.022948  0.300310  0.097161  1
  Tb  Tb1  1  0.904602  0.976772  0.699425  1
  Tb  Tb2  1  0.699462  0.903688  0.976806  1
  Tb  Tb3  1  0.977343  0.700409  0.904314  1
  Eu  Eu4  1  0.500298  0.499846  0.500034  1
  Ho  Ho5  1  0.096511  0.023790  0.297739  1
  Er  Er6  1  0.296165  0.095394  0.022861  1
  Pt  Pt7  1  0.999828  0.000455  0.000162  1
  I  I8  1  0.075226  0.678817  0.226349  1
  I  I9  1  0.225467  0.074002  0.676678  1
  I  I10  1  0.673020  0.222995  0.073503  1
  I  I11  1  0.926094  0.324085  0.776488  1
  I  I12  1  0.779699  0.927039  0.324836  1
  I  I13  1  0.324843  0.779980  0.927152  1
  I  I14  1  0.451045  0.139492  0.371213  1
  I  I15  1  0.374027  0.450419  0.139524  1
  I  I16  1  0.141179  0.371682  0.454578  1
  I  I17  1  0.546641  0.858863  0.625809  1
  I  I18  1  0.626207  0.546255  0.859205  1
  I  I19  1  0.859398  0.625708  0.546160  1
