# generated using pymatgen
data_Tb4Al18(OsPd)3
_symmetry_space_group_name_H-M   'P 1'
_cell_length_a   7.58976846
_cell_length_b   7.58976809
_cell_length_c   9.51931625
_cell_angle_alpha   90.06734563
_cell_angle_beta   90.06733247
_cell_angle_gamma   119.12600696
_symmetry_Int_Tables_number   1
_chemical_formula_structural   Tb4Al18(OsPd)3
_chemical_formula_sum   'Tb4 Al18 Os3 Pd3'
_cell_volume   479.01606080
_cell_formula_units_Z   1
loop_
 _symmetry_equiv_pos_site_id
 _symmetry_equiv_pos_as_xyz
  1  'x, y, z'
loop_
 _atom_site_type_symbol
 _atom_site_label
 _atom_site_symmetry_multiplicity
 _atom_site_fract_x
 _atom_site_fract_y
 _atom_site_fract_z
 _atom_site_occupancy
  Tb  Tb0  1  0.993523  0.674160  0.247683  1
  Tb  Tb1  1  0.005435  0.324957  0.751548  1
  Tb  Tb2  1  0.675043  0.994565  0.248452  1
  Tb  Tb3  1  0.325840  0.006477  0.752317  1
  Al  Al4  1  0.128700  0.130089  0.249861  1
  Al  Al5  1  0.869911  0.871300  0.750139  1
  Al  Al6  1  0.997026  0.330611  0.074346  1
  Al  Al7  1  0.993159  0.661579  0.924518  1
  Al  Al8  1  0.997672  0.668326  0.577107  1
  Al  Al9  1  0.331674  0.002328  0.422893  1
  Al  Al10  1  0.001632  0.332975  0.424548  1
  Al  Al11  1  0.667025  0.998368  0.575452  1
  Al  Al12  1  0.669389  0.002974  0.925654  1
  Al  Al13  1  0.338421  0.006841  0.075482  1
  Al  Al14  1  0.329060  0.329811  0.553257  1
  Al  Al15  1  0.670189  0.670940  0.446743  1
  Al  Al16  1  0.672580  0.666343  0.046647  1
  Al  Al17  1  0.333657  0.327420  0.953353  1
  Al  Al18  1  0.341556  0.548944  0.249470  1
  Al  Al19  1  0.657357  0.449995  0.753429  1
  Al  Al20  1  0.550005  0.342643  0.246571  1
  Al  Al21  1  0.451056  0.658444  0.750530  1
  Os  Os22  1  0.671893  0.328107  0.000000  1
  Os  Os23  1  0.001327  0.998673  0.000000  1
  Os  Os24  1  0.999600  0.000400  0.500000  1
  Pd  Pd25  1  0.328390  0.671610  0.000000  1
  Pd  Pd26  1  0.327785  0.672215  0.500000  1
  Pd  Pd27  1  0.671095  0.328905  0.500000  1
