# generated using pymatgen
data_Er6NpO12
_symmetry_space_group_name_H-M   'P 1'
_cell_length_a   6.51193143
_cell_length_b   6.51193078
_cell_length_c   6.51193171
_cell_angle_alpha   98.96572908
_cell_angle_beta   98.96573924
_cell_angle_gamma   98.96573718
_symmetry_Int_Tables_number   1
_chemical_formula_structural   Er6NpO12
_chemical_formula_sum   'Er6 Np1 O12'
_cell_volume   264.80207578
_cell_formula_units_Z   1
loop_
 _symmetry_equiv_pos_site_id
 _symmetry_equiv_pos_as_xyz
  1  'x, y, z'
loop_
 _atom_site_type_symbol
 _atom_site_label
 _atom_site_symmetry_multiplicity
 _atom_site_fract_x
 _atom_site_fract_y
 _atom_site_fract_z
 _atom_site_occupancy
  Er  Er0  1  0.390074  0.677722  0.854472  1
  Er  Er1  1  0.854472  0.390074  0.677722  1
  Er  Er2  1  0.677722  0.854472  0.390074  1
  Er  Er3  1  0.609926  0.322278  0.145528  1
  Er  Er4  1  0.145528  0.609926  0.322278  1
  Er  Er5  1  0.322278  0.145528  0.609926  1
  Np  Np6  1  0.000000  0.000000  0.000000  1
  O  O7  1  0.177595  0.427730  0.588226  1
  O  O8  1  0.588226  0.177595  0.427730  1
  O  O9  1  0.427730  0.588226  0.177595  1
  O  O10  1  0.822405  0.572270  0.411774  1
  O  O11  1  0.411774  0.822405  0.572270  1
  O  O12  1  0.572270  0.411774  0.822405  1
  O  O13  1  0.919462  0.046261  0.690995  1
  O  O14  1  0.953739  0.309005  0.080538  1
  O  O15  1  0.309005  0.080538  0.953739  1
  O  O16  1  0.080538  0.953739  0.309005  1
  O  O17  1  0.046261  0.690995  0.919462  1
  O  O18  1  0.690995  0.919462  0.046261  1
