# generated using pymatgen
data_Er3Tm5Be3Si12Pt
_symmetry_space_group_name_H-M   'P 1'
_cell_length_a   7.91083800
_cell_length_b   7.91385245
_cell_length_c   7.93759304
_cell_angle_alpha   89.99034516
_cell_angle_beta   89.99979635
_cell_angle_gamma   119.98644750
_symmetry_Int_Tables_number   1
_chemical_formula_structural   Er3Tm5Be3Si12Pt
_chemical_formula_sum   'Er3 Tm5 Be3 Si12 Pt1'
_cell_volume   430.41677107
_cell_formula_units_Z   1
loop_
 _symmetry_equiv_pos_site_id
 _symmetry_equiv_pos_as_xyz
  1  'x, y, z'
loop_
 _atom_site_type_symbol
 _atom_site_label
 _atom_site_symmetry_multiplicity
 _atom_site_fract_x
 _atom_site_fract_y
 _atom_site_fract_z
 _atom_site_occupancy
  Er  Er0  1  0.502057  0.004119  0.252395  1
  Er  Er1  1  0.000003  0.000021  0.747887  1
  Er  Er2  1  0.000046  0.000093  0.252481  1
  Tm  Tm3  1  0.996066  0.498081  0.252286  1
  Tm  Tm4  1  0.502016  0.498082  0.252284  1
  Tm  Tm5  1  0.500339  0.000675  0.747717  1
  Tm  Tm6  1  0.999276  0.499677  0.747715  1
  Tm  Tm7  1  0.500403  0.499677  0.747715  1
  Be  Be8  1  0.666778  0.333549  0.997281  1
  Be  Be9  1  0.666738  0.333476  0.503228  1
  Be  Be10  1  0.333275  0.666547  0.496691  1
  Si  Si11  1  0.172319  0.827453  0.499944  1
  Si  Si12  1  0.172593  0.345183  0.499712  1
  Si  Si13  1  0.655133  0.827454  0.499941  1
  Si  Si14  1  0.345261  0.172641  0.999059  1
  Si  Si15  1  0.826470  0.652939  0.500887  1
  Si  Si16  1  0.827384  0.172638  0.999060  1
  Si  Si17  1  0.827323  0.654641  0.999476  1
  Si  Si18  1  0.165058  0.330120  0.000759  1
  Si  Si19  1  0.669645  0.834728  0.000435  1
  Si  Si20  1  0.346911  0.173654  0.501194  1
  Si  Si21  1  0.826748  0.173658  0.501191  1
  Si  Si22  1  0.165077  0.834732  0.000426  1
  Pt  Pt23  1  0.333081  0.666160  0.000238  1
