# generated using pymatgen
data_K2ZnFeF7
_symmetry_space_group_name_H-M   'P 1'
_cell_length_a   7.74566498
_cell_length_b   7.74566527
_cell_length_c   7.74566491
_cell_angle_alpha   120.99376742
_cell_angle_beta   117.05046862
_cell_angle_gamma   91.73518502
_symmetry_Int_Tables_number   1
_chemical_formula_structural   K2ZnFeF7
_chemical_formula_sum   'K4 Zn2 Fe2 F14'
_cell_volume   332.81100906
_cell_formula_units_Z   2
loop_
 _symmetry_equiv_pos_site_id
 _symmetry_equiv_pos_as_xyz
  1  'x, y, z'
loop_
 _atom_site_type_symbol
 _atom_site_label
 _atom_site_symmetry_multiplicity
 _atom_site_fract_x
 _atom_site_fract_y
 _atom_site_fract_z
 _atom_site_occupancy
  K  K0  1  0.500000  0.500000  0.000000  1
  K  K1  1  0.000000  0.000000  0.000000  1
  K  K2  1  0.000000  0.500000  0.000000  1
  K  K3  1  0.000000  0.000000  0.500000  1
  Zn  Zn4  1  0.500000  0.500000  0.500000  1
  Zn  Zn5  1  0.500000  0.000000  0.000000  1
  Fe  Fe6  1  0.000000  0.500000  0.500000  1
  Fe  Fe7  1  0.500000  0.000000  0.500000  1
  F  F8  1  0.876290  0.586130  0.290160  1
  F  F9  1  0.204029  0.913870  0.290160  1
  F  F10  1  0.188632  0.801906  0.760365  1
  F  F11  1  0.458459  0.698094  0.386726  1
  F  F12  1  0.458459  0.071733  0.760365  1
  F  F13  1  0.188632  0.428267  0.386726  1
  F  F14  1  0.811368  0.571733  0.613274  1
  F  F15  1  0.541541  0.928267  0.239635  1
  F  F16  1  0.541541  0.301906  0.613274  1
  F  F17  1  0.811368  0.198094  0.239635  1
  F  F18  1  0.400860  0.250000  0.150860  1
  F  F19  1  0.123710  0.413870  0.709840  1
  F  F20  1  0.795971  0.086130  0.709840  1
  F  F21  1  0.599140  0.750000  0.849140  1
