# generated using pymatgen
data_Na6Er(NpBr9)2
_symmetry_space_group_name_H-M   'P 1'
_cell_length_a   12.42507900
_cell_length_b   12.42514015
_cell_length_c   6.52156900
_cell_angle_alpha   89.99992622
_cell_angle_beta   90.00025823
_cell_angle_gamma   120.00069181
_symmetry_Int_Tables_number   1
_chemical_formula_structural   Na6Er(NpBr9)2
_chemical_formula_sum   'Na6 Er1 Np2 Br18'
_cell_volume   871.92705269
_cell_formula_units_Z   1
loop_
 _symmetry_equiv_pos_site_id
 _symmetry_equiv_pos_as_xyz
  1  'x, y, z'
loop_
 _atom_site_type_symbol
 _atom_site_label
 _atom_site_symmetry_multiplicity
 _atom_site_fract_x
 _atom_site_fract_y
 _atom_site_fract_z
 _atom_site_occupancy
  Na  Na0  1  0.650304  0.984310  0.997845  1
  Na  Na1  1  0.333989  0.984323  0.997830  1
  Na  Na2  1  0.015649  0.666139  0.998065  1
  Na  Na3  1  0.650417  0.665882  0.998158  1
  Na  Na4  1  0.333892  0.349575  0.998160  1
  Na  Na5  1  0.015803  0.349661  0.997863  1
  Er  Er6  1  0.333287  0.666628  0.495769  1
  Np  Np7  1  0.666642  0.333318  0.495637  1
  Np  Np8  1  0.999949  0.999997  0.006110  1
  Br  Br9  1  0.563499  0.126840  0.736571  1
  Br  Br10  1  0.771458  0.228576  0.260423  1
  Br  Br11  1  0.793119  0.896353  0.250228  1
  Br  Br12  1  0.441849  0.558062  0.263714  1
  Br  Br13  1  0.771494  0.543190  0.260776  1
  Br  Br14  1  0.103241  0.206873  0.250196  1
  Br  Br15  1  0.224217  0.775744  0.725341  1
  Br  Br16  1  0.563540  0.436822  0.736755  1
  Br  Br17  1  0.224261  0.448438  0.725224  1
  Br  Br18  1  0.116236  0.558191  0.263685  1
  Br  Br19  1  0.210397  0.105431  0.768161  1
  Br  Br20  1  0.103732  0.896899  0.250459  1
  Br  Br21  1  0.551439  0.775550  0.725528  1
  Br  Br22  1  0.441912  0.883765  0.263701  1
  Br  Br23  1  0.894426  0.104843  0.767981  1
  Br  Br24  1  0.872915  0.436541  0.737151  1
  Br  Br25  1  0.457551  0.228655  0.260411  1
  Br  Br26  1  0.894783  0.789390  0.768259  1
