# generated using pymatgen
data_Dy16Sc4Si15As
_symmetry_space_group_name_H-M   'P 1'
_cell_length_a   7.39365936
_cell_length_b   7.56868176
_cell_length_c   14.49073122
_cell_angle_alpha   89.88869658
_cell_angle_beta   85.86275503
_cell_angle_gamma   89.95810483
_symmetry_Int_Tables_number   1
_chemical_formula_structural   Dy16Sc4Si15As
_chemical_formula_sum   'Dy16 Sc4 Si15 As1'
_cell_volume   808.79020200
_cell_formula_units_Z   1
loop_
 _symmetry_equiv_pos_site_id
 _symmetry_equiv_pos_as_xyz
  1  'x, y, z'
loop_
 _atom_site_type_symbol
 _atom_site_label
 _atom_site_symmetry_multiplicity
 _atom_site_fract_x
 _atom_site_fract_y
 _atom_site_fract_z
 _atom_site_occupancy
  Dy  Dy0  1  0.011069  0.821688  0.102813  1
  Dy  Dy1  1  0.476030  0.684244  0.397663  1
  Dy  Dy2  1  0.487595  0.318093  0.897853  1
  Dy  Dy3  1  0.024182  0.184665  0.602734  1
  Dy  Dy4  1  0.991780  0.179671  0.898151  1
  Dy  Dy5  1  0.523086  0.315473  0.602040  1
  Dy  Dy6  1  0.507384  0.683036  0.102659  1
  Dy  Dy7  1  0.975606  0.814088  0.397588  1
  Dy  Dy8  1  0.639162  0.837481  0.879815  1
  Dy  Dy9  1  0.173592  0.675716  0.623895  1
  Dy  Dy10  1  0.861277  0.335453  0.119019  1
  Dy  Dy11  1  0.326380  0.175075  0.376464  1
  Dy  Dy12  1  0.360182  0.164076  0.120151  1
  Dy  Dy13  1  0.826447  0.324354  0.376648  1
  Dy  Dy14  1  0.140525  0.665131  0.881008  1
  Dy  Dy15  1  0.673980  0.825154  0.624015  1
  Sc  Sc16  1  0.674091  0.994391  0.245587  1
  Sc  Sc17  1  0.173094  0.504618  0.245178  1
  Sc  Sc18  1  0.826937  0.494300  0.751261  1
  Sc  Sc19  1  0.325951  0.005705  0.754122  1
  Si  Si20  1  0.788888  0.633452  0.250828  1
  Si  Si21  1  0.288413  0.865429  0.251431  1
  Si  Si22  1  0.710351  0.135615  0.749122  1
  Si  Si23  1  0.209885  0.366238  0.749342  1
  Si  Si24  1  0.041024  0.106717  0.251072  1
  Si  Si25  1  0.541980  0.393285  0.250246  1
  Si  Si26  1  0.458783  0.606794  0.750044  1
  Si  Si27  1  0.959039  0.893671  0.749881  1
  Si  Si28  1  0.354937  0.973321  0.543889  1
  Si  Si29  1  0.708933  0.030078  0.045460  1
  Si  Si30  1  0.146204  0.472491  0.457098  1
  Si  Si31  1  0.212455  0.470267  0.046370  1
  Si  Si32  1  0.645610  0.025824  0.456179  1
  Si  Si33  1  0.292546  0.969703  0.953954  1
  Si  Si34  1  0.854401  0.526158  0.544001  1
  As  As35  1  0.788201  0.528548  0.952420  1
