# generated using pymatgen
data_Tb4Er3Tm(ReB6)4
_symmetry_space_group_name_H-M   'P 1'
_cell_length_a   3.67362800
_cell_length_b   9.15381900
_cell_length_c   11.55068100
_cell_angle_alpha   90.00297155
_cell_angle_beta   90.00000000
_cell_angle_gamma   90.00000000
_symmetry_Int_Tables_number   1
_chemical_formula_structural   Tb4Er3Tm(ReB6)4
_chemical_formula_sum   'Tb4 Er3 Tm1 Re4 B24'
_cell_volume   388.42313304
_cell_formula_units_Z   1
loop_
 _symmetry_equiv_pos_site_id
 _symmetry_equiv_pos_as_xyz
  1  'x, y, z'
loop_
 _atom_site_type_symbol
 _atom_site_label
 _atom_site_symmetry_multiplicity
 _atom_site_fract_x
 _atom_site_fract_y
 _atom_site_fract_z
 _atom_site_occupancy
  Tb  Tb0  1  0.000000  0.323351  0.413993  1
  Tb  Tb1  1  0.000000  0.676625  0.586107  1
  Tb  Tb2  1  0.000000  0.823319  0.085988  1
  Tb  Tb3  1  0.000000  0.176680  0.913952  1
  Er  Er4  1  0.000000  0.943332  0.370128  1
  Er  Er5  1  0.000000  0.056663  0.629933  1
  Er  Er6  1  0.000000  0.443389  0.129739  1
  Tm  Tm7  1  0.000000  0.556719  0.869965  1
  Re  Re8  1  0.000000  0.639162  0.320219  1
  Re  Re9  1  0.000000  0.361030  0.679940  1
  Re  Re10  1  0.000000  0.139160  0.179730  1
  Re  Re11  1  0.000000  0.860551  0.820280  1
  B  B12  1  0.500000  0.553728  0.432433  1
  B  B13  1  0.500000  0.446270  0.567646  1
  B  B14  1  0.500000  0.053722  0.067579  1
  B  B15  1  0.500000  0.946203  0.932403  1
  B  B16  1  0.500000  0.749956  0.418135  1
  B  B17  1  0.500000  0.250077  0.581903  1
  B  B18  1  0.500000  0.249965  0.081864  1
  B  B19  1  0.500000  0.749741  0.918118  1
  B  B20  1  0.500000  0.792439  0.265596  1
  B  B21  1  0.500000  0.207645  0.734418  1
  B  B22  1  0.500000  0.292435  0.234387  1
  B  B23  1  0.500000  0.707318  0.765685  1
  B  B24  1  0.500000  0.630596  0.185479  1
  B  B25  1  0.500000  0.369632  0.814635  1
  B  B26  1  0.500000  0.130611  0.314498  1
  B  B27  1  0.500000  0.869335  0.685535  1
  B  B28  1  0.500000  0.982463  0.212431  1
  B  B29  1  0.500000  0.017519  0.787584  1
  B  B30  1  0.500000  0.482444  0.287561  1
  B  B31  1  0.500000  0.517676  0.712619  1
  B  B32  1  0.500000  0.598687  0.027192  1
  B  B33  1  0.500000  0.401552  0.972307  1
  B  B34  1  0.500000  0.098760  0.472524  1
  B  B35  1  0.500000  0.901246  0.527494  1
