# generated using pymatgen
data_Mg3GeRh4
_symmetry_space_group_name_H-M   'P 1'
_cell_length_a   7.54351957
_cell_length_b   7.54351967
_cell_length_c   7.54351994
_cell_angle_alpha   33.74589487
_cell_angle_beta   33.74589544
_cell_angle_gamma   33.74589496
_symmetry_Int_Tables_number   1
_chemical_formula_structural   Mg3GeRh4
_chemical_formula_sum   'Mg3 Ge1 Rh4'
_cell_volume   118.02794648
_cell_formula_units_Z   1
loop_
 _symmetry_equiv_pos_site_id
 _symmetry_equiv_pos_as_xyz
  1  'x, y, z'
loop_
 _atom_site_type_symbol
 _atom_site_label
 _atom_site_symmetry_multiplicity
 _atom_site_fract_x
 _atom_site_fract_y
 _atom_site_fract_z
 _atom_site_occupancy
  Mg  Mg0  1  0.246679  0.246679  0.246679  1
  Mg  Mg1  1  0.753321  0.753321  0.753321  1
  Mg  Mg2  1  0.500000  0.500000  0.500000  1
  Ge  Ge3  1  0.000000  0.000000  0.000000  1
  Rh  Rh4  1  0.629213  0.629213  0.629213  1
  Rh  Rh5  1  0.119718  0.119718  0.119718  1
  Rh  Rh6  1  0.880282  0.880282  0.880282  1
  Rh  Rh7  1  0.370787  0.370787  0.370787  1
