# generated using pymatgen
data_Tb3Pr16CdIr12
_symmetry_space_group_name_H-M   'P 1'
_cell_length_a   11.31413000
_cell_length_b   11.31413000
_cell_length_c   6.47217400
_cell_angle_alpha   90.00000000
_cell_angle_beta   90.00000000
_cell_angle_gamma   90.00000000
_symmetry_Int_Tables_number   1
_chemical_formula_structural   Tb3Pr16CdIr12
_chemical_formula_sum   'Tb3 Pr16 Cd1 Ir12'
_cell_volume   828.50000138
_cell_formula_units_Z   1
loop_
 _symmetry_equiv_pos_site_id
 _symmetry_equiv_pos_as_xyz
  1  'x, y, z'
loop_
 _atom_site_type_symbol
 _atom_site_label
 _atom_site_symmetry_multiplicity
 _atom_site_fract_x
 _atom_site_fract_y
 _atom_site_fract_z
 _atom_site_occupancy
  Tb  Tb0  1  0.000000  0.000000  0.000000  1
  Tb  Tb1  1  0.500000  0.500000  0.000000  1
  Tb  Tb2  1  0.500000  0.500000  0.500000  1
  Pr  Pr3  1  0.279318  0.084385  0.382758  1
  Pr  Pr4  1  0.289591  0.912137  0.881662  1
  Pr  Pr5  1  0.710409  0.087863  0.881662  1
  Pr  Pr6  1  0.720682  0.915615  0.382758  1
  Pr  Pr7  1  0.588919  0.789880  0.884091  1
  Pr  Pr8  1  0.586521  0.209995  0.380289  1
  Pr  Pr9  1  0.413479  0.790005  0.380289  1
  Pr  Pr10  1  0.411081  0.210120  0.884091  1
  Pr  Pr11  1  0.209995  0.413479  0.619711  1
  Pr  Pr12  1  0.210120  0.588919  0.115909  1
  Pr  Pr13  1  0.789880  0.411081  0.115909  1
  Pr  Pr14  1  0.790005  0.586521  0.619711  1
  Pr  Pr15  1  0.912137  0.710409  0.118338  1
  Pr  Pr16  1  0.915615  0.279318  0.617242  1
  Pr  Pr17  1  0.084385  0.720682  0.617242  1
  Pr  Pr18  1  0.087863  0.289591  0.118338  1
  Cd  Cd19  1  0.000000  0.000000  0.500000  1
  Ir  Ir20  1  0.848971  0.153855  0.239820  1
  Ir  Ir21  1  0.846145  0.848971  0.760180  1
  Ir  Ir22  1  0.153855  0.151029  0.760180  1
  Ir  Ir23  1  0.151029  0.846145  0.239820  1
  Ir  Ir24  1  0.649541  0.351767  0.746644  1
  Ir  Ir25  1  0.648233  0.649541  0.253356  1
  Ir  Ir26  1  0.351767  0.350459  0.253356  1
  Ir  Ir27  1  0.350459  0.648233  0.746644  1
  Ir  Ir28  1  0.500000  0.000000  0.120970  1
  Ir  Ir29  1  0.500000  0.000000  0.613952  1
  Ir  Ir30  1  0.000000  0.500000  0.879030  1
  Ir  Ir31  1  0.000000  0.500000  0.386048  1
