# generated using pymatgen
data_Y4Er8Fe2I17
_symmetry_space_group_name_H-M   'P 1'
_cell_length_a   9.71112230
_cell_length_b   11.63379806
_cell_length_c   11.66909600
_cell_angle_alpha   93.63066844
_cell_angle_beta   104.79360472
_cell_angle_gamma   114.04011878
_symmetry_Int_Tables_number   1
_chemical_formula_structural   Y4Er8Fe2I17
_chemical_formula_sum   'Y4 Er8 Fe2 I17'
_cell_volume   1142.98315344
_cell_formula_units_Z   1
loop_
 _symmetry_equiv_pos_site_id
 _symmetry_equiv_pos_as_xyz
  1  'x, y, z'
loop_
 _atom_site_type_symbol
 _atom_site_label
 _atom_site_symmetry_multiplicity
 _atom_site_fract_x
 _atom_site_fract_y
 _atom_site_fract_z
 _atom_site_occupancy
  Y  Y0  1  0.053063  0.504463  0.319734  1
  Y  Y1  1  0.991978  0.807710  0.590027  1
  Y  Y2  1  0.656259  0.241300  0.279311  1
  Y  Y3  1  0.009109  0.190785  0.412547  1
  Er  Er4  1  0.216996  0.672707  0.979096  1
  Er  Er5  1  0.252769  0.974802  0.888192  1
  Er  Er6  1  0.343087  0.757965  0.720299  1
  Er  Er7  1  0.950842  0.500562  0.682559  1
  Er  Er8  1  0.746617  0.023334  0.110898  1
  Er  Er9  1  0.135678  0.285484  0.153355  1
  Er  Er10  1  0.781429  0.327287  0.017827  1
  Er  Er11  1  0.860645  0.713902  0.846738  1
  Fe  Fe12  1  0.104049  0.737983  0.786217  1
  Fe  Fe13  1  0.895479  0.261609  0.213656  1
  I  I14  1  0.784097  0.527781  0.417888  1
  I  I15  1  0.647450  0.420064  0.764207  1
  I  I16  1  0.843323  0.895930  0.326384  1
  I  I17  1  0.327032  0.214910  0.366154  1
  I  I18  1  0.156582  0.103672  0.673581  1
  I  I19  1  0.584611  0.052889  0.843442  1
  I  I20  1  0.760565  0.191359  0.539378  1
  I  I21  1  0.552562  0.713334  0.954404  1
  I  I22  1  0.352750  0.578674  0.234652  1
  I  I23  1  0.216023  0.471555  0.582758  1
  I  I24  1  0.056046  0.367918  0.897748  1
  I  I25  1  0.447699  0.286982  0.044652  1
  I  I26  1  0.000805  0.000997  0.000449  1
  I  I27  1  0.241991  0.810329  0.461909  1
  I  I28  1  0.415997  0.946891  0.156107  1
  I  I29  1  0.671322  0.785051  0.633526  1
  I  I30  1  0.943146  0.631771  0.102305  1
