# generated using pymatgen
data_Li8Ac8PPb7
_symmetry_space_group_name_H-M   'P 1'
_cell_length_a   9.95453200
_cell_length_b   9.95453372
_cell_length_c   7.87458700
_cell_angle_alpha   90.00000000
_cell_angle_beta   90.00000000
_cell_angle_gamma   120.00000094
_symmetry_Int_Tables_number   1
_chemical_formula_structural   Li8Ac8PPb7
_chemical_formula_sum   'Li8 Ac8 P1 Pb7'
_cell_volume   675.77198266
_cell_formula_units_Z   1
loop_
 _symmetry_equiv_pos_site_id
 _symmetry_equiv_pos_as_xyz
  1  'x, y, z'
loop_
 _atom_site_type_symbol
 _atom_site_label
 _atom_site_symmetry_multiplicity
 _atom_site_fract_x
 _atom_site_fract_y
 _atom_site_fract_z
 _atom_site_occupancy
  Li  Li0  1  0.831098  0.168902  0.708145  1
  Li  Li1  1  0.831098  0.662198  0.708145  1
  Li  Li2  1  0.337802  0.168902  0.708145  1
  Li  Li3  1  0.175322  0.824678  0.210136  1
  Li  Li4  1  0.175322  0.350643  0.210136  1
  Li  Li5  1  0.649357  0.824678  0.210136  1
  Li  Li6  1  0.666667  0.333333  0.331542  1
  Li  Li7  1  0.333333  0.666667  0.843023  1
  Ac  Ac8  1  0.484003  0.515997  0.498904  1
  Ac  Ac9  1  0.484003  0.968007  0.498904  1
  Ac  Ac10  1  0.031993  0.515997  0.498904  1
  Ac  Ac11  1  0.511724  0.488276  0.004012  1
  Ac  Ac12  1  0.511724  0.023447  0.004012  1
  Ac  Ac13  1  0.976553  0.488276  0.004012  1
  Ac  Ac14  1  0.000000  0.000000  0.503320  1
  Ac  Ac15  1  0.000000  0.000000  0.006304  1
  P  P16  1  0.333333  0.666667  0.243675  1
  Pb  Pb17  1  0.832885  0.167115  0.272926  1
  Pb  Pb18  1  0.832885  0.665768  0.272926  1
  Pb  Pb19  1  0.334232  0.167115  0.272926  1
  Pb  Pb20  1  0.167195  0.832805  0.772899  1
  Pb  Pb21  1  0.167195  0.334391  0.772899  1
  Pb  Pb22  1  0.665609  0.832805  0.772899  1
  Pb  Pb23  1  0.666667  0.333333  0.729088  1
