# generated using pymatgen
data_Yb4Si8Tc5Mo
_symmetry_space_group_name_H-M   'P 1'
_cell_length_a   6.72339400
_cell_length_b   6.84004564
_cell_length_c   12.68575675
_cell_angle_alpha   90.15884878
_cell_angle_beta   90.00000000
_cell_angle_gamma   90.00000000
_symmetry_Int_Tables_number   1
_chemical_formula_structural   Yb4Si8Tc5Mo
_chemical_formula_sum   'Yb8 Si16 Tc10 Mo2'
_cell_volume   583.39442194
_cell_formula_units_Z   2
loop_
 _symmetry_equiv_pos_site_id
 _symmetry_equiv_pos_as_xyz
  1  'x, y, z'
loop_
 _atom_site_type_symbol
 _atom_site_label
 _atom_site_symmetry_multiplicity
 _atom_site_fract_x
 _atom_site_fract_y
 _atom_site_fract_z
 _atom_site_occupancy
  Yb  Yb0  1  0.492664  0.341931  0.090388  1
  Yb  Yb1  1  0.992664  0.158069  0.409612  1
  Yb  Yb2  1  0.506585  0.659978  0.589531  1
  Yb  Yb3  1  0.006585  0.840022  0.910469  1
  Yb  Yb4  1  0.508240  0.662287  0.910598  1
  Yb  Yb5  1  0.008240  0.837713  0.589402  1
  Yb  Yb6  1  0.490765  0.340597  0.409489  1
  Yb  Yb7  1  0.990765  0.159403  0.090511  1
  Si  Si8  1  0.656406  0.045396  0.549299  1
  Si  Si9  1  0.156406  0.454604  0.950701  1
  Si  Si10  1  0.347140  0.955174  0.051838  1
  Si  Si11  1  0.847140  0.544826  0.448162  1
  Si  Si12  1  0.349340  0.953017  0.447312  1
  Si  Si13  1  0.849340  0.546983  0.052688  1
  Si  Si14  1  0.651197  0.044757  0.950418  1
  Si  Si15  1  0.151197  0.455243  0.549582  1
  Si  Si16  1  0.531103  0.359252  0.752438  1
  Si  Si17  1  0.031103  0.140748  0.747562  1
  Si  Si18  1  0.469374  0.644848  0.250874  1
  Si  Si19  1  0.969374  0.855152  0.249126  1
  Si  Si20  1  0.810244  0.637183  0.749243  1
  Si  Si21  1  0.310244  0.862817  0.750757  1
  Si  Si22  1  0.185915  0.363401  0.249855  1
  Si  Si23  1  0.685915  0.136599  0.250145  1
  Tc  Tc24  1  0.825153  0.342077  0.623096  1
  Tc  Tc25  1  0.325153  0.157923  0.876904  1
  Tc  Tc26  1  0.177094  0.656596  0.127220  1
  Tc  Tc27  1  0.677094  0.843404  0.372780  1
  Tc  Tc28  1  0.171719  0.655608  0.372656  1
  Tc  Tc29  1  0.671719  0.844392  0.127344  1
  Tc  Tc30  1  0.668033  0.997998  0.749900  1
  Tc  Tc31  1  0.168033  0.502002  0.750100  1
  Tc  Tc32  1  0.328394  0.002779  0.250059  1
  Tc  Tc33  1  0.828394  0.497221  0.249941  1
  Mo  Mo34  1  0.830634  0.339513  0.872587  1
  Mo  Mo35  1  0.330634  0.160487  0.627413  1
