# generated using pymatgen
data_Zr5PaCoCl15
_symmetry_space_group_name_H-M   'P 1'
_cell_length_a   9.12017676
_cell_length_b   9.12017522
_cell_length_c   9.12017602
_cell_angle_alpha   110.37860812
_cell_angle_beta   110.37860280
_cell_angle_gamma   107.67130529
_symmetry_Int_Tables_number   1
_chemical_formula_structural   Zr5PaCoCl15
_chemical_formula_sum   'Zr5 Pa1 Co1 Cl15'
_cell_volume   583.53573372
_cell_formula_units_Z   1
loop_
 _symmetry_equiv_pos_site_id
 _symmetry_equiv_pos_as_xyz
  1  'x, y, z'
loop_
 _atom_site_type_symbol
 _atom_site_label
 _atom_site_symmetry_multiplicity
 _atom_site_fract_x
 _atom_site_fract_y
 _atom_site_fract_z
 _atom_site_occupancy
  Zr  Zr0  1  0.773030  0.773030  0.000000  1
  Zr  Zr1  1  0.759131  0.997680  0.761451  1
  Zr  Zr2  1  0.997680  0.759131  0.761451  1
  Zr  Zr3  1  0.997680  0.236230  0.238549  1
  Zr  Zr4  1  0.236230  0.997680  0.238549  1
  Pa  Pa5  1  0.255565  0.255565  0.000000  1
  Co  Co6  1  0.001327  0.001327  0.000000  1
  Cl  Cl7  1  0.759999  0.515520  0.755521  1
  Cl  Cl8  1  0.511227  0.511227  0.000000  1
  Cl  Cl9  1  0.996557  0.496557  0.500000  1
  Cl  Cl10  1  0.496557  0.996557  0.500000  1
  Cl  Cl11  1  0.236008  0.977239  0.741230  1
  Cl  Cl12  1  0.977239  0.236008  0.741230  1
  Cl  Cl13  1  0.759999  0.004477  0.244479  1
  Cl  Cl14  1  0.515520  0.759999  0.755521  1
  Cl  Cl15  1  0.004477  0.759999  0.244479  1
  Cl  Cl16  1  0.244058  0.244058  0.492622  1
  Cl  Cl17  1  0.751436  0.244058  0.000000  1
  Cl  Cl18  1  0.494778  0.236008  0.258770  1
  Cl  Cl19  1  0.236008  0.494778  0.258770  1
  Cl  Cl20  1  0.751436  0.751436  0.507378  1
  Cl  Cl21  1  0.244058  0.751436  0.000000  1
