# generated using pymatgen
data_La16Cd4Co2IrPd
_symmetry_space_group_name_H-M   'P 1'
_cell_length_a   10.09948828
_cell_length_b   10.06477065
_cell_length_c   10.06476969
_cell_angle_alpha   59.99358000
_cell_angle_beta   60.07345012
_cell_angle_gamma   60.07345576
_symmetry_Int_Tables_number   1
_chemical_formula_structural   La16Cd4Co2IrPd
_chemical_formula_sum   'La16 Cd4 Co2 Ir1 Pd1'
_cell_volume   724.18954925
_cell_formula_units_Z   1
loop_
 _symmetry_equiv_pos_site_id
 _symmetry_equiv_pos_as_xyz
  1  'x, y, z'
loop_
 _atom_site_type_symbol
 _atom_site_label
 _atom_site_symmetry_multiplicity
 _atom_site_fract_x
 _atom_site_fract_y
 _atom_site_fract_z
 _atom_site_occupancy
  La  La0  1  0.589344  0.597348  0.597348  1
  La  La1  1  0.598106  0.606374  0.204311  1
  La  La2  1  0.598106  0.204311  0.606374  1
  La  La3  1  0.207511  0.602716  0.602716  1
  La  La4  1  0.053990  0.441168  0.441168  1
  La  La5  1  0.439055  0.060397  0.060397  1
  La  La6  1  0.440528  0.047801  0.439378  1
  La  La7  1  0.065252  0.438662  0.054082  1
  La  La8  1  0.440528  0.439378  0.047801  1
  La  La9  1  0.065252  0.054082  0.438662  1
  La  La10  1  0.190593  0.812266  0.812266  1
  La  La11  1  0.809724  0.190825  0.190825  1
  La  La12  1  0.812061  0.191573  0.810539  1
  La  La13  1  0.189697  0.810516  0.189588  1
  La  La14  1  0.812061  0.810539  0.191573  1
  La  La15  1  0.189697  0.189588  0.810516  1
  Cd  Cd16  1  0.829438  0.829322  0.829322  1
  Cd  Cd17  1  0.829406  0.829624  0.511929  1
  Cd  Cd18  1  0.829406  0.511929  0.829624  1
  Cd  Cd19  1  0.511483  0.829682  0.829682  1
  Co  Co20  1  0.390565  0.391574  0.827815  1
  Co  Co21  1  0.390565  0.827815  0.391574  1
  Ir  Ir22  1  0.826027  0.390809  0.390809  1
  Pd  Pd23  1  0.391605  0.391701  0.391701  1
