# generated using pymatgen
data_Tm2Be(B3Ir)2
_symmetry_space_group_name_H-M   'P 1'
_cell_length_a   3.61369700
_cell_length_b   5.82036861
_cell_length_c   5.82036971
_cell_angle_alpha   100.18009582
_cell_angle_beta   90.00000000
_cell_angle_gamma   90.00000000
_symmetry_Int_Tables_number   1
_chemical_formula_structural   Tm2Be(B3Ir)2
_chemical_formula_sum   'Tm2 Be1 B6 Ir2'
_cell_volume   120.49286706
_cell_formula_units_Z   1
loop_
 _symmetry_equiv_pos_site_id
 _symmetry_equiv_pos_as_xyz
  1  'x, y, z'
loop_
 _atom_site_type_symbol
 _atom_site_label
 _atom_site_symmetry_multiplicity
 _atom_site_fract_x
 _atom_site_fract_y
 _atom_site_fract_z
 _atom_site_occupancy
  Tm  Tm0  1  0.000000  0.285875  0.714125  1
  Tm  Tm1  1  0.000000  0.714125  0.285875  1
  Be  Be2  1  0.500000  0.000000  0.000000  1
  B  B3  1  0.500000  0.921561  0.609294  1
  B  B4  1  0.500000  0.078439  0.390706  1
  B  B5  1  0.500000  0.609294  0.921561  1
  B  B6  1  0.500000  0.390706  0.078439  1
  B  B7  1  0.500000  0.617043  0.617043  1
  B  B8  1  0.500000  0.382957  0.382957  1
  Ir  Ir9  1  0.000000  0.798086  0.798086  1
  Ir  Ir10  1  0.000000  0.201914  0.201914  1
