# generated using pymatgen
data_Li8Ho4Er4Sn7Sb
_symmetry_space_group_name_H-M   'P 1'
_cell_length_a   9.35830600
_cell_length_b   9.35830623
_cell_length_c   7.18032900
_cell_angle_alpha   90.00000000
_cell_angle_beta   90.00000000
_cell_angle_gamma   119.99999918
_symmetry_Int_Tables_number   1
_chemical_formula_structural   Li8Ho4Er4Sn7Sb
_chemical_formula_sum   'Li8 Ho4 Er4 Sn7 Sb1'
_cell_volume   544.58976309
_cell_formula_units_Z   1
loop_
 _symmetry_equiv_pos_site_id
 _symmetry_equiv_pos_as_xyz
  1  'x, y, z'
loop_
 _atom_site_type_symbol
 _atom_site_label
 _atom_site_symmetry_multiplicity
 _atom_site_fract_x
 _atom_site_fract_y
 _atom_site_fract_z
 _atom_site_occupancy
  Li  Li0  1  0.166465  0.332932  0.217570  1
  Li  Li1  1  0.166465  0.833535  0.217570  1
  Li  Li2  1  0.667068  0.833535  0.217570  1
  Li  Li3  1  0.666667  0.333333  0.316022  1
  Li  Li4  1  0.833377  0.666753  0.714924  1
  Li  Li5  1  0.333247  0.166623  0.714924  1
  Li  Li6  1  0.833377  0.166623  0.714924  1
  Li  Li7  1  0.333333  0.666667  0.817870  1
  Ho  Ho8  1  0.000000  0.000000  0.000155  1
  Ho  Ho9  1  0.511055  0.022109  0.004475  1
  Ho  Ho10  1  0.511055  0.488945  0.004475  1
  Ho  Ho11  1  0.977891  0.488945  0.004475  1
  Er  Er12  1  0.000000  0.000000  0.500813  1
  Er  Er13  1  0.491412  0.982822  0.507908  1
  Er  Er14  1  0.017178  0.508588  0.507908  1
  Er  Er15  1  0.491412  0.508588  0.507908  1
  Sn  Sn16  1  0.832967  0.665935  0.269161  1
  Sn  Sn17  1  0.334065  0.167033  0.269161  1
  Sn  Sn18  1  0.832967  0.167033  0.269161  1
  Sn  Sn19  1  0.666667  0.333333  0.738641  1
  Sn  Sn20  1  0.167355  0.334709  0.766463  1
  Sn  Sn21  1  0.167355  0.832645  0.766463  1
  Sn  Sn22  1  0.665291  0.832645  0.766463  1
  Sb  Sb23  1  0.333333  0.666667  0.242978  1
