# generated using pymatgen
data_La4Al24Pt8Rh
_symmetry_space_group_name_H-M   'P 1'
_cell_length_a   7.57044798
_cell_length_b   7.64119229
_cell_length_c   13.43041659
_cell_angle_alpha   84.62854994
_cell_angle_beta   79.24304892
_cell_angle_gamma   60.01894227
_symmetry_Int_Tables_number   1
_chemical_formula_structural   La4Al24Pt8Rh
_chemical_formula_sum   'La4 Al24 Pt8 Rh1'
_cell_volume   661.12910904
_cell_formula_units_Z   1
loop_
 _symmetry_equiv_pos_site_id
 _symmetry_equiv_pos_as_xyz
  1  'x, y, z'
loop_
 _atom_site_type_symbol
 _atom_site_label
 _atom_site_symmetry_multiplicity
 _atom_site_fract_x
 _atom_site_fract_y
 _atom_site_fract_z
 _atom_site_occupancy
  La  La0  1  0.394762  0.167837  0.807461  1
  La  La1  1  0.605238  0.832163  0.192539  1
  La  La2  1  0.733887  0.497736  0.807774  1
  La  La3  1  0.266113  0.502264  0.192226  1
  Al  Al4  1  0.689865  0.830323  0.947502  1
  Al  Al5  1  0.310135  0.169677  0.052498  1
  Al  Al6  1  0.147063  0.831183  0.558560  1
  Al  Al7  1  0.852937  0.168817  0.441440  1
  Al  Al8  1  0.479523  0.165740  0.557008  1
  Al  Al9  1  0.520477  0.834260  0.442992  1
  Al  Al10  1  0.212503  0.165898  0.332605  1
  Al  Al11  1  0.787497  0.834102  0.667395  1
  Al  Al12  1  0.436115  0.508824  0.665948  1
  Al  Al13  1  0.563885  0.491176  0.334052  1
  Al  Al14  1  0.110930  0.157705  0.663498  1
  Al  Al15  1  0.889070  0.842295  0.336502  1
  Al  Al16  1  0.346286  0.501682  0.948472  1
  Al  Al17  1  0.653714  0.498318  0.051528  1
  Al  Al18  1  0.013979  0.169171  0.959634  1
  Al  Al19  1  0.986021  0.830829  0.040366  1
  Al  Al20  1  0.186616  0.498671  0.442526  1
  Al  Al21  1  0.813384  0.501329  0.557474  1
  Al  Al22  1  0.736737  0.164645  0.183362  1
  Al  Al23  1  0.263263  0.835355  0.816638  1
  Al  Al24  1  0.062338  0.631888  0.817640  1
  Al  Al25  1  0.937662  0.368112  0.182360  1
  Al  Al26  1  0.861837  0.036086  0.816144  1
  Al  Al27  1  0.138163  0.963914  0.183857  1
  Pt  Pt28  1  0.120657  0.494998  0.635688  1
  Pt  Pt29  1  0.879343  0.505002  0.364312  1
  Pt  Pt30  1  0.658589  0.170298  0.999638  1
  Pt  Pt31  1  0.341411  0.829702  0.000362  1
  Pt  Pt32  1  0.539432  0.167013  0.363927  1
  Pt  Pt33  1  0.460568  0.832987  0.636073  1
  Pt  Pt34  1  0.781259  0.171569  0.634768  1
  Pt  Pt35  1  0.218741  0.828431  0.365232  1
  Rh  Rh36  1  0.000000  0.500000  0.000000  1
