# generated using pymatgen
data_La5Tl3Cl
_symmetry_space_group_name_H-M   'P 1'
_cell_length_a   9.77809611
_cell_length_b   9.77388053
_cell_length_c   6.86188200
_cell_angle_alpha   90.00000000
_cell_angle_beta   90.00000000
_cell_angle_gamma   119.99689441
_symmetry_Int_Tables_number   1
_chemical_formula_structural   La5Tl3Cl
_chemical_formula_sum   'La10 Tl6 Cl2'
_cell_volume   567.94828856
_cell_formula_units_Z   2
loop_
 _symmetry_equiv_pos_site_id
 _symmetry_equiv_pos_as_xyz
  1  'x, y, z'
loop_
 _atom_site_type_symbol
 _atom_site_label
 _atom_site_symmetry_multiplicity
 _atom_site_fract_x
 _atom_site_fract_y
 _atom_site_fract_z
 _atom_site_occupancy
  La  La0  1  0.666695  0.333391  0.999998  1
  La  La1  1  0.333239  0.666544  0.000002  1
  La  La2  1  0.740343  0.740140  0.249996  1
  La  La3  1  0.259640  0.999893  0.250001  1
  La  La4  1  0.000097  0.259905  0.250001  1
  La  La5  1  0.666762  0.333456  0.500002  1
  La  La6  1  0.333305  0.666608  0.499998  1
  La  La7  1  0.259657  0.259860  0.749995  1
  La  La8  1  0.740360  0.000107  0.750002  1
  La  La9  1  0.999904  0.740095  0.750002  1
  Tl  Tl10  1  0.611072  0.999992  0.249998  1
  Tl  Tl11  1  0.000007  0.611142  0.249998  1
  Tl  Tl12  1  0.388879  0.388864  0.250004  1
  Tl  Tl13  1  0.388928  0.000009  0.749998  1
  Tl  Tl14  1  0.999993  0.388859  0.749998  1
  Tl  Tl15  1  0.611121  0.611135  0.750005  1
  Cl  Cl16  1  0.000000  0.000000  0.000000  1
  Cl  Cl17  1  0.000000  0.000000  0.500000  1
