# generated using pymatgen
data_Tb(BeP)3
_symmetry_space_group_name_H-M   'P 1'
_cell_length_a   3.65407900
_cell_length_b   10.34775400
_cell_length_c   11.30065100
_cell_angle_alpha   90.00000000
_cell_angle_beta   90.00000000
_cell_angle_gamma   90.00000000
_symmetry_Int_Tables_number   1
_chemical_formula_structural   Tb(BeP)3
_chemical_formula_sum   'Tb4 Be12 P12'
_cell_volume   427.29468494
_cell_formula_units_Z   4
loop_
 _symmetry_equiv_pos_site_id
 _symmetry_equiv_pos_as_xyz
  1  'x, y, z'
loop_
 _atom_site_type_symbol
 _atom_site_label
 _atom_site_symmetry_multiplicity
 _atom_site_fract_x
 _atom_site_fract_y
 _atom_site_fract_z
 _atom_site_occupancy
  Tb  Tb0  1  0.750000  0.943064  0.339637  1
  Tb  Tb1  1  0.250000  0.443064  0.160363  1
  Tb  Tb2  1  0.750000  0.556936  0.839637  1
  Tb  Tb3  1  0.250000  0.056936  0.660363  1
  Be  Be4  1  0.750000  0.241135  0.453714  1
  Be  Be5  1  0.250000  0.741135  0.046286  1
  Be  Be6  1  0.750000  0.258865  0.953714  1
  Be  Be7  1  0.250000  0.758865  0.546286  1
  Be  Be8  1  0.750000  0.646232  0.286791  1
  Be  Be9  1  0.250000  0.146232  0.213209  1
  Be  Be10  1  0.750000  0.853768  0.786791  1
  Be  Be11  1  0.250000  0.353768  0.713209  1
  Be  Be12  1  0.750000  0.039752  0.065172  1
  Be  Be13  1  0.250000  0.539752  0.434828  1
  Be  Be14  1  0.750000  0.460248  0.565172  1
  Be  Be15  1  0.250000  0.960248  0.934828  1
  P  P16  1  0.750000  0.439831  0.369911  1
  P  P17  1  0.250000  0.939831  0.130089  1
  P  P18  1  0.750000  0.060169  0.869911  1
  P  P19  1  0.250000  0.560169  0.630089  1
  P  P20  1  0.750000  0.231357  0.144962  1
  P  P21  1  0.250000  0.731357  0.355038  1
  P  P22  1  0.750000  0.268643  0.644962  1
  P  P23  1  0.250000  0.768643  0.855038  1
  P  P24  1  0.750000  0.636573  0.092334  1
  P  P25  1  0.250000  0.136573  0.407666  1
  P  P26  1  0.750000  0.863427  0.592334  1
  P  P27  1  0.250000  0.363427  0.907666  1
