# generated using pymatgen
data_ErTm7Ti11Si16Ag
_symmetry_space_group_name_H-M   'P 1'
_cell_length_a   7.02226173
_cell_length_b   7.02246169
_cell_length_c   12.82307308
_cell_angle_alpha   90.06377228
_cell_angle_beta   89.93899712
_cell_angle_gamma   89.67567754
_symmetry_Int_Tables_number   1
_chemical_formula_structural   ErTm7Ti11Si16Ag
_chemical_formula_sum   'Er1 Tm7 Ti11 Si16 Ag1'
_cell_volume   632.34054935
_cell_formula_units_Z   1
loop_
 _symmetry_equiv_pos_site_id
 _symmetry_equiv_pos_as_xyz
  1  'x, y, z'
loop_
 _atom_site_type_symbol
 _atom_site_label
 _atom_site_symmetry_multiplicity
 _atom_site_fract_x
 _atom_site_fract_y
 _atom_site_fract_z
 _atom_site_occupancy
  Er  Er0  1  0.000787  0.656460  0.031679  1
  Tm  Tm1  1  0.341027  0.001884  0.466623  1
  Tm  Tm2  1  0.497790  0.840891  0.716761  1
  Tm  Tm3  1  0.501351  0.157649  0.214758  1
  Tm  Tm4  1  0.840911  0.497780  0.283264  1
  Tm  Tm5  1  0.157701  0.501330  0.785213  1
  Tm  Tm6  1  0.656392  0.001011  0.968325  1
  Tm  Tm7  1  0.001895  0.341018  0.533353  1
  Ti  Ti8  1  0.173987  0.826421  0.250104  1
  Ti  Ti9  1  0.826366  0.173958  0.749949  1
  Ti  Ti10  1  0.672725  0.672747  0.499983  1
  Ti  Ti11  1  0.147641  0.007525  0.876629  1
  Ti  Ti12  1  0.495785  0.650488  0.123215  1
  Ti  Ti13  1  0.507115  0.350505  0.625025  1
  Ti  Ti14  1  0.650387  0.495762  0.876779  1
  Ti  Ti15  1  0.350493  0.507167  0.374958  1
  Ti  Ti16  1  0.850188  0.992615  0.374234  1
  Ti  Ti17  1  0.007495  0.147640  0.123379  1
  Ti  Ti18  1  0.992628  0.850179  0.625728  1
  Si  Si19  1  0.202363  0.133283  0.683646  1
  Si  Si20  1  0.373391  0.719299  0.928409  1
  Si  Si21  1  0.631934  0.294080  0.431907  1
  Si  Si22  1  0.719023  0.372973  0.071590  1
  Si  Si23  1  0.294082  0.631939  0.568042  1
  Si  Si24  1  0.797133  0.866825  0.182227  1
  Si  Si25  1  0.133286  0.202309  0.316334  1
  Si  Si26  1  0.866610  0.797279  0.817834  1
  Si  Si27  1  0.287179  0.938864  0.066180  1
  Si  Si28  1  0.546565  0.791765  0.314437  1
  Si  Si29  1  0.455208  0.207173  0.809048  1
  Si  Si30  1  0.791787  0.546637  0.685538  1
  Si  Si31  1  0.207330  0.455114  0.191089  1
  Si  Si32  1  0.708067  0.047186  0.564162  1
  Si  Si33  1  0.938583  0.286748  0.933830  1
  Si  Si34  1  0.047228  0.708082  0.435778  1
  Ag  Ag35  1  0.327566  0.327417  0.999991  1
