# generated using pymatgen
data_Na2GaPt3
_symmetry_space_group_name_H-M   'P 1'
_cell_length_a   5.55232300
_cell_length_b   5.55232295
_cell_length_c   8.02890000
_cell_angle_alpha   90.00000000
_cell_angle_beta   90.00000000
_cell_angle_gamma   119.99999433
_symmetry_Int_Tables_number   1
_chemical_formula_structural   Na2GaPt3
_chemical_formula_sum   'Na4 Ga2 Pt6'
_cell_volume   214.35624812
_cell_formula_units_Z   2
loop_
 _symmetry_equiv_pos_site_id
 _symmetry_equiv_pos_as_xyz
  1  'x, y, z'
loop_
 _atom_site_type_symbol
 _atom_site_label
 _atom_site_symmetry_multiplicity
 _atom_site_fract_x
 _atom_site_fract_y
 _atom_site_fract_z
 _atom_site_occupancy
  Na  Na0  1  0.333333  0.666666  0.072285  1
  Na  Na1  1  0.333333  0.666666  0.427715  1
  Na  Na2  1  0.666667  0.333333  0.572286  1
  Na  Na3  1  0.666667  0.333333  0.927714  1
  Ga  Ga4  1  0.000000  0.000000  0.000000  1
  Ga  Ga5  1  0.000000  0.000000  0.500000  1
  Pt  Pt6  1  0.341904  0.170951  0.250000  1
  Pt  Pt7  1  0.829047  0.170951  0.250000  1
  Pt  Pt8  1  0.829050  0.658097  0.250000  1
  Pt  Pt9  1  0.170952  0.341904  0.750000  1
  Pt  Pt10  1  0.170951  0.829049  0.750000  1
  Pt  Pt11  1  0.658096  0.829049  0.750000  1
