# generated using pymatgen
data_EuHoTiSi3Ir4
_symmetry_space_group_name_H-M   'P 1'
_cell_length_a   4.13576900
_cell_length_b   4.07128300
_cell_length_c   10.47243700
_cell_angle_alpha   90.00000000
_cell_angle_beta   90.00000000
_cell_angle_gamma   90.00000000
_symmetry_Int_Tables_number   1
_chemical_formula_structural   EuHoTiSi3Ir4
_chemical_formula_sum   'Eu1 Ho1 Ti1 Si3 Ir4'
_cell_volume   176.33370057
_cell_formula_units_Z   1
loop_
 _symmetry_equiv_pos_site_id
 _symmetry_equiv_pos_as_xyz
  1  'x, y, z'
loop_
 _atom_site_type_symbol
 _atom_site_label
 _atom_site_symmetry_multiplicity
 _atom_site_fract_x
 _atom_site_fract_y
 _atom_site_fract_z
 _atom_site_occupancy
  Eu  Eu0  1  0.000000  0.500000  0.244262  1
  Ho  Ho1  1  0.500000  0.000000  0.758420  1
  Ti  Ti2  1  0.000000  0.000000  0.502669  1
  Si  Si3  1  0.500000  0.500000  0.505412  1
  Si  Si4  1  0.000000  0.500000  0.872341  1
  Si  Si5  1  0.500000  0.000000  0.120992  1
  Ir  Ir6  1  0.000000  0.000000  0.995901  1
  Ir  Ir7  1  0.500000  0.500000  0.995935  1
  Ir  Ir8  1  0.000000  0.500000  0.643238  1
  Ir  Ir9  1  0.500000  0.000000  0.360830  1
