# generated using pymatgen
data_Mn3Al2ZnGa2(AsO5)4
_symmetry_space_group_name_H-M   'P 1'
_cell_length_a   10.84543388
_cell_length_b   5.66443747
_cell_length_c   7.55229600
_cell_angle_alpha   81.83111380
_cell_angle_beta   89.86327209
_cell_angle_gamma   89.75982234
_symmetry_Int_Tables_number   1
_chemical_formula_structural   Mn3Al2ZnGa2(AsO5)4
_chemical_formula_sum   'Mn3 Al2 Zn1 Ga2 As4 O20'
_cell_volume   459.24996784
_cell_formula_units_Z   1
loop_
 _symmetry_equiv_pos_site_id
 _symmetry_equiv_pos_as_xyz
  1  'x, y, z'
loop_
 _atom_site_type_symbol
 _atom_site_label
 _atom_site_symmetry_multiplicity
 _atom_site_fract_x
 _atom_site_fract_y
 _atom_site_fract_z
 _atom_site_occupancy
  Mn  Mn0  1  0.644535  0.607127  0.477460  1
  Mn  Mn1  1  0.859056  0.109891  0.477165  1
  Mn  Mn2  1  0.355298  0.390935  0.521068  1
  Al  Al3  1  0.176868  0.447237  0.859178  1
  Al  Al4  1  0.822983  0.557762  0.139586  1
  Zn  Zn5  1  0.143227  0.882957  0.521090  1
  Ga  Ga6  1  0.320673  0.945380  0.857230  1
  Ga  Ga7  1  0.675633  0.059162  0.141047  1
  As  As8  1  0.396619  0.934474  0.272687  1
  As  As9  1  0.903122  0.565428  0.729928  1
  As  As10  1  0.100607  0.432409  0.272007  1
  As  As11  1  0.600064  0.062626  0.727032  1
  O  O12  1  0.811244  0.619181  0.903921  1
  O  O13  1  0.540513  0.325071  0.619169  1
  O  O14  1  0.779057  0.267337  0.232768  1
  O  O15  1  0.512366  0.131982  0.198375  1
  O  O16  1  0.278183  0.252719  0.769697  1
  O  O17  1  0.184697  0.572110  0.419791  1
  O  O18  1  0.458821  0.672265  0.376912  1
  O  O19  1  0.047601  0.164353  0.381669  1
  O  O20  1  0.816471  0.432377  0.582049  1
  O  O21  1  0.483797  0.867477  0.802607  1
  O  O22  1  0.694909  0.123171  0.895280  1
  O  O23  1  0.192394  0.390120  0.095170  1
  O  O24  1  0.309672  0.062089  0.425924  1
  O  O25  1  0.977760  0.611956  0.201316  1
  O  O26  1  0.301600  0.878224  0.103297  1
  O  O27  1  0.687584  0.931980  0.576883  1
  O  O28  1  0.216294  0.740615  0.762213  1
  O  O29  1  0.724377  0.755519  0.231661  1
  O  O30  1  0.961679  0.827675  0.620304  1
  O  O31  1  0.022298  0.378392  0.805516  1
