# generated using pymatgen
data_NaZr2HgF11
_symmetry_space_group_name_H-M   'P 1'
_cell_length_a   5.94943255
_cell_length_b   5.96959347
_cell_length_c   8.22815694
_cell_angle_alpha   113.25417160
_cell_angle_beta   96.85150179
_cell_angle_gamma   106.26591047
_symmetry_Int_Tables_number   1
_chemical_formula_structural   NaZr2HgF11
_chemical_formula_sum   'Na1 Zr2 Hg1 F11'
_cell_volume   248.83313188
_cell_formula_units_Z   1
loop_
 _symmetry_equiv_pos_site_id
 _symmetry_equiv_pos_as_xyz
  1  'x, y, z'
loop_
 _atom_site_type_symbol
 _atom_site_label
 _atom_site_symmetry_multiplicity
 _atom_site_fract_x
 _atom_site_fract_y
 _atom_site_fract_z
 _atom_site_occupancy
  Na  Na0  1  0.000000  0.000000  0.000000  1
  Zr  Zr1  1  0.496950  0.733955  0.227604  1
  Zr  Zr2  1  0.503050  0.266045  0.772396  1
  Hg  Hg3  1  0.000000  0.500000  0.500000  1
  F  F4  1  0.262894  0.847148  0.114265  1
  F  F5  1  0.339809  0.337760  0.004072  1
  F  F6  1  0.660191  0.662240  0.995928  1
  F  F7  1  0.773615  0.493980  0.704667  1
  F  F8  1  0.786853  0.070101  0.286518  1
  F  F9  1  0.213147  0.929899  0.713482  1
  F  F10  1  0.737106  0.152852  0.885735  1
  F  F11  1  0.226385  0.506020  0.295333  1
  F  F12  1  0.736759  0.617317  0.341449  1
  F  F13  1  0.263241  0.382683  0.658551  1
  F  F14  1  0.500000  0.000000  0.500000  1
