# generated using pymatgen
data_Na3NiP4Ir3
_symmetry_space_group_name_H-M   'P 1'
_cell_length_a   6.30640062
_cell_length_b   6.11106539
_cell_length_c   6.30639969
_cell_angle_alpha   108.84498901
_cell_angle_beta   110.09015178
_cell_angle_gamma   108.84496008
_symmetry_Int_Tables_number   1
_chemical_formula_structural   Na3NiP4Ir3
_chemical_formula_sum   'Na3 Ni1 P4 Ir3'
_cell_volume   188.51953107
_cell_formula_units_Z   1
loop_
 _symmetry_equiv_pos_site_id
 _symmetry_equiv_pos_as_xyz
  1  'x, y, z'
loop_
 _atom_site_type_symbol
 _atom_site_label
 _atom_site_symmetry_multiplicity
 _atom_site_fract_x
 _atom_site_fract_y
 _atom_site_fract_z
 _atom_site_occupancy
  Na  Na0  1  0.484310  0.977791  0.484310  1
  Na  Na1  1  0.515690  0.493480  0.000000  1
  Na  Na2  1  0.000000  0.493480  0.515690  1
  Ni  Ni3  1  0.000000  0.735769  0.000000  1
  P  P4  1  0.000000  0.376275  0.000000  1
  P  P5  1  0.637260  0.634267  0.637260  1
  P  P6  1  0.000000  0.997007  0.362740  1
  P  P7  1  0.362740  0.997007  0.000000  1
  Ir  Ir8  1  0.000000  0.004170  0.717587  1
  Ir  Ir9  1  0.282413  0.286583  0.282413  1
  Ir  Ir10  1  0.717587  0.004170  0.000000  1
