# generated using pymatgen
data_Sr2AlFe3I16
_symmetry_space_group_name_H-M   'P 1'
_cell_length_a   8.35663069
_cell_length_b   8.59592639
_cell_length_c   15.77967700
_cell_angle_alpha   87.49407571
_cell_angle_beta   89.97672277
_cell_angle_gamma   89.98789094
_symmetry_Int_Tables_number   1
_chemical_formula_structural   Sr2AlFe3I16
_chemical_formula_sum   'Sr2 Al1 Fe3 I16'
_cell_volume   1132.41718364
_cell_formula_units_Z   1
loop_
 _symmetry_equiv_pos_site_id
 _symmetry_equiv_pos_as_xyz
  1  'x, y, z'
loop_
 _atom_site_type_symbol
 _atom_site_label
 _atom_site_symmetry_multiplicity
 _atom_site_fract_x
 _atom_site_fract_y
 _atom_site_fract_z
 _atom_site_occupancy
  Sr  Sr0  1  0.754842  0.077636  0.813724  1
  Sr  Sr1  1  0.243708  0.079635  0.312905  1
  Al  Al2  1  0.429169  0.642578  0.278177  1
  Fe  Fe3  1  0.934124  0.218293  0.580809  1
  Fe  Fe4  1  0.065890  0.218247  0.080650  1
  Fe  Fe5  1  0.571899  0.643335  0.779656  1
  I  I6  1  0.429509  0.615895  0.642651  1
  I  I7  1  0.573050  0.615819  0.140710  1
  I  I8  1  0.867724  0.723348  0.758195  1
  I  I9  1  0.131753  0.722806  0.259612  1
  I  I10  1  0.940439  0.471040  0.497794  1
  I  I11  1  0.059687  0.470936  0.997682  1
  I  I12  1  0.923752  0.997707  0.001835  1
  I  I13  1  0.076911  0.998357  0.501578  1
  I  I14  1  0.642814  0.132117  0.611517  1
  I  I15  1  0.357163  0.132090  0.111819  1
  I  I16  1  0.557409  0.389525  0.874992  1
  I  I17  1  0.442956  0.391528  0.376741  1
  I  I18  1  0.438085  0.859335  0.865370  1
  I  I19  1  0.559495  0.858170  0.366532  1
  I  I20  1  0.922538  0.238211  0.225691  1
  I  I21  1  0.077082  0.238191  0.725760  1
