# generated using pymatgen
data_Dy5As2ClO10
_symmetry_space_group_name_H-M   'P 1'
_cell_length_a   6.61570934
_cell_length_b   6.61570905
_cell_length_c   8.75269719
_cell_angle_alpha   67.86469176
_cell_angle_beta   112.13530755
_cell_angle_gamma   130.18860159
_symmetry_Int_Tables_number   1
_chemical_formula_structural   Dy5As2ClO10
_chemical_formula_sum   'Dy5 As2 Cl1 O10'
_cell_volume   266.19981457
_cell_formula_units_Z   1
loop_
 _symmetry_equiv_pos_site_id
 _symmetry_equiv_pos_as_xyz
  1  'x, y, z'
loop_
 _atom_site_type_symbol
 _atom_site_label
 _atom_site_symmetry_multiplicity
 _atom_site_fract_x
 _atom_site_fract_y
 _atom_site_fract_z
 _atom_site_occupancy
  Dy  Dy0  1  0.000000  0.000000  0.000000  1
  Dy  Dy1  1  0.496353  0.503647  0.289780  1
  Dy  Dy2  1  0.503646  0.496354  0.710219  1
  Dy  Dy3  1  0.259682  0.740318  0.882082  1
  Dy  Dy4  1  0.740318  0.259682  0.117919  1
  As  As5  1  0.212000  0.788000  0.396192  1
  As  As6  1  0.788000  0.212000  0.603808  1
  Cl  Cl7  1  0.000001  0.999999  0.500001  1
  O  O8  1  0.366153  0.633847  0.413278  1
  O  O9  1  0.633848  0.366153  0.586722  1
  O  O10  1  0.621121  0.899628  0.758779  1
  O  O11  1  0.899629  0.621121  0.241222  1
  O  O12  1  0.378879  0.100372  0.241222  1
  O  O13  1  0.100372  0.378879  0.758779  1
  O  O14  1  0.373301  0.131851  0.911673  1
  O  O15  1  0.131852  0.373300  0.088328  1
  O  O16  1  0.626698  0.868146  0.088328  1
  O  O17  1  0.868147  0.626697  0.911673  1
