# generated using pymatgen
data_Hf9Re2W2Se
_symmetry_space_group_name_H-M   'P 1'
_cell_length_a   8.71457628
_cell_length_b   8.71457668
_cell_length_c   8.63726100
_cell_angle_alpha   90.00000000
_cell_angle_beta   90.00000000
_cell_angle_gamma   120.22148479
_symmetry_Int_Tables_number   1
_chemical_formula_structural   Hf9Re2W2Se
_chemical_formula_sum   'Hf18 Re4 W4 Se2'
_cell_volume   566.79452030
_cell_formula_units_Z   2
loop_
 _symmetry_equiv_pos_site_id
 _symmetry_equiv_pos_as_xyz
  1  'x, y, z'
loop_
 _atom_site_type_symbol
 _atom_site_label
 _atom_site_symmetry_multiplicity
 _atom_site_fract_x
 _atom_site_fract_y
 _atom_site_fract_z
 _atom_site_occupancy
  Hf  Hf0  1  0.191711  0.808289  0.451239  1
  Hf  Hf1  1  0.192156  0.383303  0.451975  1
  Hf  Hf2  1  0.616697  0.807844  0.451975  1
  Hf  Hf3  1  0.808394  0.191606  0.550890  1
  Hf  Hf4  1  0.807625  0.616125  0.551009  1
  Hf  Hf5  1  0.383875  0.192375  0.551009  1
  Hf  Hf6  1  0.808394  0.191606  0.949110  1
  Hf  Hf7  1  0.807625  0.616125  0.948991  1
  Hf  Hf8  1  0.383875  0.192375  0.948991  1
  Hf  Hf9  1  0.191711  0.808289  0.048761  1
  Hf  Hf10  1  0.192156  0.383303  0.048025  1
  Hf  Hf11  1  0.616697  0.807844  0.048025  1
  Hf  Hf12  1  0.545410  0.454590  0.250000  1
  Hf  Hf13  1  0.545077  0.089475  0.250000  1
  Hf  Hf14  1  0.910525  0.454923  0.250000  1
  Hf  Hf15  1  0.453702  0.546298  0.750000  1
  Hf  Hf16  1  0.454291  0.908039  0.750000  1
  Hf  Hf17  1  0.091961  0.545709  0.750000  1
  Re  Re18  1  0.110933  0.221535  0.750000  1
  Re  Re19  1  0.778465  0.889067  0.750000  1
  Re  Re20  1  0.999680  0.000320  0.501112  1
  Re  Re21  1  0.999680  0.000320  0.998888  1
  W  W22  1  0.890426  0.109574  0.250000  1
  W  W23  1  0.889931  0.780561  0.250000  1
  W  W24  1  0.219439  0.110069  0.250000  1
  W  W25  1  0.108859  0.891141  0.750000  1
  Se  Se26  1  0.332848  0.667152  0.250000  1
  Se  Se27  1  0.667858  0.332142  0.750000  1
