# generated using pymatgen
data_Pu2ZnF12
_symmetry_space_group_name_H-M   'P 1'
_cell_length_a   5.85145846
_cell_length_b   11.69550252
_cell_length_c   5.88302639
_cell_angle_alpha   56.83610519
_cell_angle_beta   56.99554419
_cell_angle_gamma   56.72477722
_symmetry_Int_Tables_number   1
_chemical_formula_structural   Pu2ZnF12
_chemical_formula_sum   'Pu2 Zn1 F12'
_cell_volume   264.00614309
_cell_formula_units_Z   1
loop_
 _symmetry_equiv_pos_site_id
 _symmetry_equiv_pos_as_xyz
  1  'x, y, z'
loop_
 _atom_site_type_symbol
 _atom_site_label
 _atom_site_symmetry_multiplicity
 _atom_site_fract_x
 _atom_site_fract_y
 _atom_site_fract_z
 _atom_site_occupancy
  Pu  Pu0  1  0.496734  0.248128  0.506276  1
  Pu  Pu1  1  0.503266  0.751872  0.493724  1
  Zn  Zn2  1  0.000000  0.500000  0.000000  1
  F  F3  1  0.144337  0.189645  0.737993  1
  F  F4  1  0.148203  0.671824  0.753522  1
  F  F5  1  0.343121  0.380509  0.144731  1
  F  F6  1  0.377504  0.864989  0.147719  1
  F  F7  1  0.737430  0.078861  0.366919  1
  F  F8  1  0.756288  0.569683  0.346499  1
  F  F9  1  0.243712  0.430317  0.653501  1
  F  F10  1  0.262570  0.921139  0.633081  1
  F  F11  1  0.622496  0.135011  0.852281  1
  F  F12  1  0.656879  0.619491  0.855269  1
  F  F13  1  0.851797  0.328176  0.246478  1
  F  F14  1  0.855663  0.810355  0.262007  1
