# generated using pymatgen
data_La4Pr2Zn4IrPd12
_symmetry_space_group_name_H-M   'P 1'
_cell_length_a   8.44038769
_cell_length_b   8.44074274
_cell_length_c   8.44074363
_cell_angle_alpha   109.81338945
_cell_angle_beta   109.30125037
_cell_angle_gamma   109.30125397
_symmetry_Int_Tables_number   1
_chemical_formula_structural   La4Pr2Zn4IrPd12
_chemical_formula_sum   'La4 Pr2 Zn4 Ir1 Pd12'
_cell_volume   462.89365586
_cell_formula_units_Z   1
loop_
 _symmetry_equiv_pos_site_id
 _symmetry_equiv_pos_as_xyz
  1  'x, y, z'
loop_
 _atom_site_type_symbol
 _atom_site_label
 _atom_site_symmetry_multiplicity
 _atom_site_fract_x
 _atom_site_fract_y
 _atom_site_fract_z
 _atom_site_occupancy
  La  La0  1  0.000000  0.294945  0.295945  1
  La  La1  1  0.299222  0.298775  0.000448  1
  La  La2  1  0.700778  0.999552  0.701225  1
  La  La3  1  0.000000  0.704055  0.705055  1
  Pr  Pr4  1  0.701997  0.701543  0.000454  1
  Pr  Pr5  1  0.298003  0.999546  0.298457  1
  Zn  Zn6  1  0.000000  0.999267  0.497239  1
  Zn  Zn7  1  0.000000  0.502761  0.000733  1
  Zn  Zn8  1  0.500000  0.999237  0.000763  1
  Zn  Zn9  1  0.500000  0.499237  0.500763  1
  Ir  Ir10  1  0.000000  0.001779  0.998221  1
  Pd  Pd11  1  0.331665  0.331496  0.663468  1
  Pd  Pd12  1  0.668335  0.999831  0.331802  1
  Pd  Pd13  1  0.000000  0.668476  0.331524  1
  Pd  Pd14  1  0.668036  0.331873  0.000247  1
  Pd  Pd15  1  0.331964  0.663839  0.332211  1
  Pd  Pd16  1  0.000000  0.331937  0.668063  1
  Pd  Pd17  1  0.331665  0.668198  0.000169  1
  Pd  Pd18  1  0.331964  0.999753  0.668127  1
  Pd  Pd19  1  0.663478  0.331529  0.331948  1
  Pd  Pd20  1  0.668036  0.667789  0.336161  1
  Pd  Pd21  1  0.668335  0.336532  0.668504  1
  Pd  Pd22  1  0.336522  0.668052  0.668471  1
