# generated using pymatgen
data_TbEr3Al16(GaRh3)2
_symmetry_space_group_name_H-M   'P 1'
_cell_length_a   7.51996095
_cell_length_b   7.52177881
_cell_length_c   9.51317900
_cell_angle_alpha   90.00000000
_cell_angle_beta   90.00000000
_cell_angle_gamma   119.30108580
_symmetry_Int_Tables_number   1
_chemical_formula_structural   TbEr3Al16(GaRh3)2
_chemical_formula_sum   'Tb1 Er3 Al16 Ga2 Rh6'
_cell_volume   469.25421020
_cell_formula_units_Z   1
loop_
 _symmetry_equiv_pos_site_id
 _symmetry_equiv_pos_as_xyz
  1  'x, y, z'
loop_
 _atom_site_type_symbol
 _atom_site_label
 _atom_site_symmetry_multiplicity
 _atom_site_fract_x
 _atom_site_fract_y
 _atom_site_fract_z
 _atom_site_occupancy
  Tb  Tb0  1  0.994287  0.673856  0.750000  1
  Er  Er1  1  0.005648  0.326003  0.250000  1
  Er  Er2  1  0.673882  0.994439  0.750000  1
  Er  Er3  1  0.325955  0.005675  0.250000  1
  Al  Al4  1  0.001287  0.335013  0.573064  1
  Al  Al5  1  0.998703  0.664238  0.425568  1
  Al  Al6  1  0.998703  0.664238  0.074432  1
  Al  Al7  1  0.336537  0.002001  0.926946  1
  Al  Al8  1  0.001287  0.335013  0.926936  1
  Al  Al9  1  0.664276  0.998734  0.073637  1
  Al  Al10  1  0.664276  0.998734  0.426363  1
  Al  Al11  1  0.336537  0.002001  0.573054  1
  Al  Al12  1  0.334011  0.334029  0.053211  1
  Al  Al13  1  0.665260  0.665966  0.947610  1
  Al  Al14  1  0.665260  0.665966  0.552390  1
  Al  Al15  1  0.334011  0.334029  0.446789  1
  Al  Al16  1  0.338324  0.549846  0.750000  1
  Al  Al17  1  0.662200  0.449709  0.250000  1
  Al  Al18  1  0.549010  0.336758  0.750000  1
  Al  Al19  1  0.449927  0.662387  0.250000  1
  Ga  Ga20  1  0.132007  0.132510  0.750000  1
  Ga  Ga21  1  0.868521  0.868567  0.250000  1
  Rh  Rh22  1  0.671704  0.327747  0.499714  1
  Rh  Rh23  1  0.328256  0.671959  0.499699  1
  Rh  Rh24  1  0.328256  0.671959  0.000301  1
  Rh  Rh25  1  0.671704  0.327747  0.000286  1
  Rh  Rh26  1  0.000087  0.000437  0.499650  1
  Rh  Rh27  1  0.000087  0.000437  0.000350  1
