# generated using pymatgen
data_Yb2DyY(B4Os)4
_symmetry_space_group_name_H-M   'P 1'
_cell_length_a   3.55499600
_cell_length_b   5.96926758
_cell_length_c   11.53888202
_cell_angle_alpha   89.90557580
_cell_angle_beta   90.00000000
_cell_angle_gamma   90.00000000
_symmetry_Int_Tables_number   1
_chemical_formula_structural   Yb2DyY(B4Os)4
_chemical_formula_sum   'Yb2 Dy1 Y1 B16 Os4'
_cell_volume   244.86307911
_cell_formula_units_Z   1
loop_
 _symmetry_equiv_pos_site_id
 _symmetry_equiv_pos_as_xyz
  1  'x, y, z'
loop_
 _atom_site_type_symbol
 _atom_site_label
 _atom_site_symmetry_multiplicity
 _atom_site_fract_x
 _atom_site_fract_y
 _atom_site_fract_z
 _atom_site_occupancy
  Yb  Yb0  1  0.000000  0.628618  0.850934  1
  Yb  Yb1  1  0.000000  0.371386  0.149064  1
  Dy  Dy2  1  0.000000  0.871536  0.349174  1
  Y  Y3  1  0.000000  0.128475  0.650823  1
  B  B4  1  0.500000  0.474716  0.692112  1
  B  B5  1  0.500000  0.525334  0.307907  1
  B  B6  1  0.500000  0.974933  0.809191  1
  B  B7  1  0.500000  0.025031  0.190828  1
  B  B8  1  0.500000  0.288580  0.815711  1
  B  B9  1  0.500000  0.711458  0.184313  1
  B  B10  1  0.500000  0.786911  0.686233  1
  B  B11  1  0.500000  0.213034  0.313780  1
  B  B12  1  0.500000  0.363858  0.969598  1
  B  B13  1  0.500000  0.636144  0.030406  1
  B  B14  1  0.500000  0.863176  0.530421  1
  B  B15  1  0.500000  0.136769  0.469528  1
  B  B16  1  0.500000  0.388024  0.547348  1
  B  B17  1  0.500000  0.612022  0.452630  1
  B  B18  1  0.500000  0.885954  0.953292  1
  B  B19  1  0.500000  0.114040  0.046712  1
  Os  Os20  1  0.000000  0.137008  0.909500  1
  Os  Os21  1  0.000000  0.862993  0.090530  1
  Os  Os22  1  0.000000  0.640843  0.591682  1
  Os  Os23  1  0.000000  0.359157  0.408285  1
