# generated using pymatgen
data_YbSmY6(Pt2Pb)4
_symmetry_space_group_name_H-M   'P 1'
_cell_length_a   7.94641031
_cell_length_b   7.94640995
_cell_length_c   7.30181700
_cell_angle_alpha   90.00000000
_cell_angle_beta   90.00000000
_cell_angle_gamma   90.32875291
_symmetry_Int_Tables_number   1
_chemical_formula_structural   YbSmY6(Pt2Pb)4
_chemical_formula_sum   'Yb1 Sm1 Y6 Pt8 Pb4'
_cell_volume   461.06881319
_cell_formula_units_Z   1
loop_
 _symmetry_equiv_pos_site_id
 _symmetry_equiv_pos_as_xyz
  1  'x, y, z'
loop_
 _atom_site_type_symbol
 _atom_site_label
 _atom_site_symmetry_multiplicity
 _atom_site_fract_x
 _atom_site_fract_y
 _atom_site_fract_z
 _atom_site_occupancy
  Yb  Yb0  1  0.162394  0.837606  0.000000  1
  Sm  Sm1  1  0.835754  0.164246  0.000000  1
  Y  Y2  1  0.674252  0.673414  0.000000  1
  Y  Y3  1  0.336227  0.338220  0.500000  1
  Y  Y4  1  0.826599  0.173401  0.500000  1
  Y  Y5  1  0.661780  0.663773  0.500000  1
  Y  Y6  1  0.326586  0.325748  0.000000  1
  Y  Y7  1  0.175603  0.824397  0.500000  1
  Pt  Pt8  1  0.872351  0.871058  0.734736  1
  Pt  Pt9  1  0.128942  0.127649  0.734736  1
  Pt  Pt10  1  0.626982  0.373018  0.756634  1
  Pt  Pt11  1  0.626982  0.373018  0.243366  1
  Pt  Pt12  1  0.373433  0.626567  0.238084  1
  Pt  Pt13  1  0.128942  0.127649  0.265264  1
  Pt  Pt14  1  0.872351  0.871058  0.265264  1
  Pt  Pt15  1  0.373433  0.626567  0.761916  1
  Pb  Pb16  1  0.497191  0.998497  0.751012  1
  Pb  Pb17  1  0.497191  0.998497  0.248988  1
  Pb  Pb18  1  0.001503  0.502809  0.751012  1
  Pb  Pb19  1  0.001503  0.502809  0.248988  1
