# generated using pymatgen
data_La3Nd5Cd2OsPt
_symmetry_space_group_name_H-M   'P 1'
_cell_length_a   10.02081130
_cell_length_b   10.05978350
_cell_length_c   10.14319522
_cell_angle_alpha   59.47057719
_cell_angle_beta   59.85057447
_cell_angle_gamma   59.81822223
_symmetry_Int_Tables_number   1
_chemical_formula_structural   La3Nd5Cd2OsPt
_chemical_formula_sum   'La6 Nd10 Cd4 Os2 Pt2'
_cell_volume   718.29103086
_cell_formula_units_Z   2
loop_
 _symmetry_equiv_pos_site_id
 _symmetry_equiv_pos_as_xyz
  1  'x, y, z'
loop_
 _atom_site_type_symbol
 _atom_site_label
 _atom_site_symmetry_multiplicity
 _atom_site_fract_x
 _atom_site_fract_y
 _atom_site_fract_z
 _atom_site_occupancy
  La  La0  1  0.346796  0.347603  0.354617  1
  La  La1  1  0.347603  0.346796  0.950985  1
  La  La2  1  0.344384  0.957807  0.347458  1
  La  La3  1  0.957807  0.344384  0.350351  1
  La  La4  1  0.818460  0.187620  0.189296  1
  La  La5  1  0.187620  0.818460  0.804626  1
  Nd  Nd6  1  0.189877  0.813283  0.192006  1
  Nd  Nd7  1  0.813283  0.189877  0.804836  1
  Nd  Nd8  1  0.189570  0.189570  0.810430  1
  Nd  Nd9  1  0.805564  0.805564  0.194436  1
  Nd  Nd10  1  0.937110  0.557693  0.567069  1
  Nd  Nd11  1  0.557693  0.937110  0.938129  1
  Nd  Nd12  1  0.557886  0.937506  0.566043  1
  Nd  Nd13  1  0.937506  0.557886  0.938565  1
  Nd  Nd14  1  0.563062  0.563062  0.936938  1
  Nd  Nd15  1  0.938078  0.938078  0.561922  1
  Cd  Cd16  1  0.580831  0.579549  0.580048  1
  Cd  Cd17  1  0.579549  0.580831  0.259573  1
  Cd  Cd18  1  0.580135  0.258189  0.581495  1
  Cd  Cd19  1  0.258189  0.580135  0.580183  1
  Os  Os20  1  0.140650  0.145760  0.138106  1
  Os  Os21  1  0.145760  0.140650  0.575482  1
  Pt  Pt22  1  0.146401  0.576189  0.137669  1
  Pt  Pt23  1  0.576189  0.146401  0.139741  1
