# generated using pymatgen
data_Nd4MgAl17Pd6
_symmetry_space_group_name_H-M   'P 1'
_cell_length_a   7.72763010
_cell_length_b   7.73834088
_cell_length_c   9.62005228
_cell_angle_alpha   90.07553290
_cell_angle_beta   89.94498851
_cell_angle_gamma   119.57039764
_symmetry_Int_Tables_number   1
_chemical_formula_structural   Nd4MgAl17Pd6
_chemical_formula_sum   'Nd4 Mg1 Al17 Pd6'
_cell_volume   500.34049410
_cell_formula_units_Z   1
loop_
 _symmetry_equiv_pos_site_id
 _symmetry_equiv_pos_as_xyz
  1  'x, y, z'
loop_
 _atom_site_type_symbol
 _atom_site_label
 _atom_site_symmetry_multiplicity
 _atom_site_fract_x
 _atom_site_fract_y
 _atom_site_fract_z
 _atom_site_occupancy
  Nd  Nd0  1  0.994823  0.673805  0.251822  1
  Nd  Nd1  1  0.005366  0.331120  0.748421  1
  Nd  Nd2  1  0.665948  0.988904  0.251594  1
  Nd  Nd3  1  0.330971  0.005711  0.749599  1
  Mg  Mg4  1  0.997707  0.334350  0.077730  1
  Al  Al5  1  0.132670  0.129909  0.250881  1
  Al  Al6  1  0.867903  0.867099  0.750957  1
  Al  Al7  1  0.998020  0.664218  0.925905  1
  Al  Al8  1  0.997095  0.665472  0.574895  1
  Al  Al9  1  0.335100  0.003542  0.425381  1
  Al  Al10  1  0.003146  0.334612  0.421003  1
  Al  Al11  1  0.665823  0.997188  0.575050  1
  Al  Al12  1  0.667380  0.998981  0.926226  1
  Al  Al13  1  0.334963  0.003306  0.074130  1
  Al  Al14  1  0.334963  0.335101  0.554739  1
  Al  Al15  1  0.664882  0.664473  0.446243  1
  Al  Al16  1  0.665131  0.664566  0.052197  1
  Al  Al17  1  0.332687  0.335025  0.945029  1
  Al  Al18  1  0.341514  0.544956  0.250752  1
  Al  Al19  1  0.660091  0.456490  0.749097  1
  Al  Al20  1  0.548264  0.338051  0.248986  1
  Al  Al21  1  0.455897  0.662806  0.750975  1
  Pd  Pd22  1  0.660614  0.327647  0.995568  1
  Pd  Pd23  1  0.335952  0.678316  0.999916  1
  Pd  Pd24  1  0.329748  0.671714  0.501406  1
  Pd  Pd25  1  0.671229  0.328878  0.500544  1
  Pd  Pd26  1  0.001460  0.993761  0.998590  1
  Pd  Pd27  1  0.000652  0.999997  0.502364  1
