# generated using pymatgen
data_Ta3Be2Fe2Co3
_symmetry_space_group_name_H-M   'P 1'
_cell_length_a   8.76059900
_cell_length_b   8.67761700
_cell_length_c   3.14631600
_cell_angle_alpha   90.00000000
_cell_angle_beta   90.00000000
_cell_angle_gamma   90.00000000
_symmetry_Int_Tables_number   1
_chemical_formula_structural   Ta3Be2Fe2Co3
_chemical_formula_sum   'Ta6 Be4 Fe4 Co6'
_cell_volume   239.18647504
_cell_formula_units_Z   2
loop_
 _symmetry_equiv_pos_site_id
 _symmetry_equiv_pos_as_xyz
  1  'x, y, z'
loop_
 _atom_site_type_symbol
 _atom_site_label
 _atom_site_symmetry_multiplicity
 _atom_site_fract_x
 _atom_site_fract_y
 _atom_site_fract_z
 _atom_site_occupancy
  Ta  Ta0  1  0.500000  0.500000  0.000000  1
  Ta  Ta1  1  0.000000  0.000000  0.000000  1
  Ta  Ta2  1  0.824118  0.324144  0.000000  1
  Ta  Ta3  1  0.175882  0.675856  0.000000  1
  Ta  Ta4  1  0.324118  0.175856  0.000000  1
  Ta  Ta5  1  0.675882  0.824144  0.000000  1
  Be  Be6  1  0.616941  0.118536  0.000000  1
  Be  Be7  1  0.383059  0.881464  0.000000  1
  Be  Be8  1  0.116941  0.381464  0.000000  1
  Be  Be9  1  0.883059  0.618536  0.000000  1
  Fe  Fe10  1  0.716357  0.569099  0.500000  1
  Fe  Fe11  1  0.283643  0.430901  0.500000  1
  Fe  Fe12  1  0.216357  0.930901  0.500000  1
  Fe  Fe13  1  0.783643  0.069099  0.500000  1
  Co  Co14  1  0.500000  0.000000  0.500000  1
  Co  Co15  1  0.000000  0.500000  0.500000  1
  Co  Co16  1  0.430878  0.717082  0.500000  1
  Co  Co17  1  0.569122  0.282918  0.500000  1
  Co  Co18  1  0.069122  0.217082  0.500000  1
  Co  Co19  1  0.930878  0.782918  0.500000  1
