# generated using pymatgen
data_Be2FeH8
_symmetry_space_group_name_H-M   'P 1'
_cell_length_a   3.95467338
_cell_length_b   3.95443600
_cell_length_c   7.70677234
_cell_angle_alpha   69.68195259
_cell_angle_beta   62.69695820
_cell_angle_gamma   60.17756965
_symmetry_Int_Tables_number   1
_chemical_formula_structural   Be2FeH8
_chemical_formula_sum   'Be2 Fe1 H8'
_cell_volume   91.79700590
_cell_formula_units_Z   1
loop_
 _symmetry_equiv_pos_site_id
 _symmetry_equiv_pos_as_xyz
  1  'x, y, z'
loop_
 _atom_site_type_symbol
 _atom_site_label
 _atom_site_symmetry_multiplicity
 _atom_site_fract_x
 _atom_site_fract_y
 _atom_site_fract_z
 _atom_site_occupancy
  Be  Be0  1  0.102962  0.951565  0.106655  1
  Be  Be1  1  0.438120  0.285989  0.104281  1
  Fe  Fe2  1  0.770593  0.618693  0.105426  1
  H  H3  1  0.682003  0.236004  0.598583  1
  H  H4  1  0.969770  0.267717  0.250703  1
  H  H5  1  0.571523  0.969468  0.960065  1
  H  H6  1  0.181215  0.669125  0.955983  1
  H  H7  1  0.877790  0.364303  0.956009  1
  H  H8  1  0.871023  0.057474  0.611385  1
  H  H9  1  0.359921  0.568352  0.255008  1
  H  H10  1  0.663535  0.873096  0.254847  1
