# generated using pymatgen
data_DyThCoSi4Ni
_symmetry_space_group_name_H-M   'P 1'
_cell_length_a   8.42192641
_cell_length_b   8.42192621
_cell_length_c   4.04928800
_cell_angle_alpha   90.00000000
_cell_angle_beta   90.00000000
_cell_angle_gamma   151.92929870
_symmetry_Int_Tables_number   1
_chemical_formula_structural   DyThCoSi4Ni
_chemical_formula_sum   'Dy1 Th1 Co1 Si4 Ni1'
_cell_volume   135.15036638
_cell_formula_units_Z   1
loop_
 _symmetry_equiv_pos_site_id
 _symmetry_equiv_pos_as_xyz
  1  'x, y, z'
loop_
 _atom_site_type_symbol
 _atom_site_label
 _atom_site_symmetry_multiplicity
 _atom_site_fract_x
 _atom_site_fract_y
 _atom_site_fract_z
 _atom_site_occupancy
  Dy  Dy0  1  0.605018  0.394982  0.250000  1
  Th  Th1  1  0.392633  0.607367  0.750000  1
  Co  Co2  1  0.181215  0.818785  0.750000  1
  Si  Si3  1  0.963677  0.036323  0.250000  1
  Si  Si4  1  0.043946  0.956054  0.750000  1
  Si  Si5  1  0.246097  0.753903  0.250000  1
  Si  Si6  1  0.745757  0.254243  0.750000  1
  Ni  Ni7  1  0.821659  0.178341  0.250000  1
