# generated using pymatgen
data_Pr4Ga4SiRh9
_symmetry_space_group_name_H-M   'P 1'
_cell_length_a   12.15834484
_cell_length_b   12.15834431
_cell_length_c   12.15834480
_cell_angle_alpha   26.95200500
_cell_angle_beta   26.95201112
_cell_angle_gamma   26.95201081
_symmetry_Int_Tables_number   1
_chemical_formula_structural   Pr4Ga4SiRh9
_chemical_formula_sum   'Pr4 Ga4 Si1 Rh9'
_cell_volume   325.64629917
_cell_formula_units_Z   1
loop_
 _symmetry_equiv_pos_site_id
 _symmetry_equiv_pos_as_xyz
  1  'x, y, z'
loop_
 _atom_site_type_symbol
 _atom_site_label
 _atom_site_symmetry_multiplicity
 _atom_site_fract_x
 _atom_site_fract_y
 _atom_site_fract_z
 _atom_site_occupancy
  Pr  Pr0  1  0.949253  0.949253  0.949253  1
  Pr  Pr1  1  0.852916  0.852916  0.852916  1
  Pr  Pr2  1  0.147286  0.147286  0.147286  1
  Pr  Pr3  1  0.049810  0.049810  0.049810  1
  Ga  Ga4  1  0.278634  0.278634  0.278634  1
  Ga  Ga5  1  0.500573  0.500573  0.500573  1
  Ga  Ga6  1  0.387683  0.387683  0.387683  1
  Ga  Ga7  1  0.721104  0.721104  0.721104  1
  Si  Si8  1  0.611699  0.611699  0.611699  1
  Rh  Rh9  1  0.610809  0.610809  0.107186  1
  Rh  Rh10  1  0.890089  0.394007  0.394007  1
  Rh  Rh11  1  0.500153  0.993828  0.500153  1
  Rh  Rh12  1  0.394007  0.890089  0.394007  1
  Rh  Rh13  1  0.500153  0.500153  0.993828  1
  Rh  Rh14  1  0.107186  0.610809  0.610809  1
  Rh  Rh15  1  0.993828  0.500153  0.500153  1
  Rh  Rh16  1  0.394007  0.394007  0.890089  1
  Rh  Rh17  1  0.610809  0.107186  0.610809  1
