# generated using pymatgen
data_PaTlF6
_symmetry_space_group_name_H-M   'P 1'
_cell_length_a   6.99420060
_cell_length_b   6.99420111
_cell_length_c   6.99420000
_cell_angle_alpha   59.99999579
_cell_angle_beta   59.99999340
_cell_angle_gamma   59.99999525
_symmetry_Int_Tables_number   1
_chemical_formula_structural   PaTlF6
_chemical_formula_sum   'Pa1 Tl1 F6'
_cell_volume   241.93527692
_cell_formula_units_Z   1
loop_
 _symmetry_equiv_pos_site_id
 _symmetry_equiv_pos_as_xyz
  1  'x, y, z'
loop_
 _atom_site_type_symbol
 _atom_site_label
 _atom_site_symmetry_multiplicity
 _atom_site_fract_x
 _atom_site_fract_y
 _atom_site_fract_z
 _atom_site_occupancy
  Pa  Pa0  1  0.500000  0.500000  0.500000  1
  Tl  Tl1  1  0.000000  0.000000  0.000000  1
  F  F2  1  0.714136  0.285864  0.285864  1
  F  F3  1  0.714136  0.714136  0.285864  1
  F  F4  1  0.285864  0.714136  0.285864  1
  F  F5  1  0.285864  0.714136  0.714136  1
  F  F6  1  0.285864  0.285864  0.714136  1
  F  F7  1  0.714136  0.285864  0.714136  1
