# generated using pymatgen
data_Zr4ReNi
_symmetry_space_group_name_H-M   'P 1'
_cell_length_a   8.75760886
_cell_length_b   8.75760892
_cell_length_c   8.75761000
_cell_angle_alpha   60.00000348
_cell_angle_beta   60.00000326
_cell_angle_gamma   60.00000239
_symmetry_Int_Tables_number   1
_chemical_formula_structural   Zr4ReNi
_chemical_formula_sum   'Zr16 Re4 Ni4'
_cell_volume   474.94325590
_cell_formula_units_Z   4
loop_
 _symmetry_equiv_pos_site_id
 _symmetry_equiv_pos_as_xyz
  1  'x, y, z'
loop_
 _atom_site_type_symbol
 _atom_site_label
 _atom_site_symmetry_multiplicity
 _atom_site_fract_x
 _atom_site_fract_y
 _atom_site_fract_z
 _atom_site_occupancy
  Zr  Zr0  1  0.690202  0.103265  0.103265  1
  Zr  Zr1  1  0.103265  0.690202  0.103265  1
  Zr  Zr2  1  0.103265  0.103265  0.690202  1
  Zr  Zr3  1  0.103265  0.103265  0.103265  1
  Zr  Zr4  1  0.315875  0.315875  0.684125  1
  Zr  Zr5  1  0.684125  0.684125  0.315875  1
  Zr  Zr6  1  0.315875  0.684125  0.315875  1
  Zr  Zr7  1  0.684125  0.315875  0.684125  1
  Zr  Zr8  1  0.684125  0.315875  0.315875  1
  Zr  Zr9  1  0.315875  0.684125  0.684125  1
  Zr  Zr10  1  0.955941  0.955941  0.544059  1
  Zr  Zr11  1  0.544059  0.544059  0.955941  1
  Zr  Zr12  1  0.955941  0.544059  0.955941  1
  Zr  Zr13  1  0.544059  0.955941  0.544059  1
  Zr  Zr14  1  0.544059  0.955941  0.955941  1
  Zr  Zr15  1  0.955941  0.544059  0.544059  1
  Re  Re16  1  0.005074  0.331641  0.331641  1
  Re  Re17  1  0.331641  0.005074  0.331641  1
  Re  Re18  1  0.331641  0.331641  0.005074  1
  Re  Re19  1  0.331641  0.331641  0.331641  1
  Ni  Ni20  1  0.327232  0.890923  0.890923  1
  Ni  Ni21  1  0.890923  0.327232  0.890923  1
  Ni  Ni22  1  0.890923  0.890923  0.327232  1
  Ni  Ni23  1  0.890923  0.890923  0.890923  1
