# generated using pymatgen
data_La12Pd(AuI4)3
_symmetry_space_group_name_H-M   'P 1'
_cell_length_a   11.06769930
_cell_length_b   11.06769930
_cell_length_c   11.06769881
_cell_angle_alpha   109.30952187
_cell_angle_beta   109.30952294
_cell_angle_gamma   109.30951946
_symmetry_Int_Tables_number   1
_chemical_formula_structural   La12Pd(AuI4)3
_chemical_formula_sum   'La12 Pd1 Au3 I12'
_cell_volume   1049.84014863
_cell_formula_units_Z   1
loop_
 _symmetry_equiv_pos_site_id
 _symmetry_equiv_pos_as_xyz
  1  'x, y, z'
loop_
 _atom_site_type_symbol
 _atom_site_label
 _atom_site_symmetry_multiplicity
 _atom_site_fract_x
 _atom_site_fract_y
 _atom_site_fract_z
 _atom_site_occupancy
  La  La0  1  0.468820  0.482461  0.236141  1
  La  La1  1  0.750000  0.236037  0.263963  1
  La  La2  1  0.750000  0.014164  0.485836  1
  La  La3  1  0.236141  0.468820  0.482461  1
  La  La4  1  0.263963  0.750000  0.236037  1
  La  La5  1  0.031180  0.263859  0.017539  1
  La  La6  1  0.017539  0.031180  0.263859  1
  La  La7  1  0.485836  0.750000  0.014164  1
  La  La8  1  0.482461  0.236141  0.468820  1
  La  La9  1  0.014164  0.485836  0.750000  1
  La  La10  1  0.263859  0.017539  0.031180  1
  La  La11  1  0.236037  0.263963  0.750000  1
  Pd  Pd12  1  0.250000  0.250000  0.250000  1
  Au  Au13  1  0.499683  0.000317  0.250000  1
  Au  Au14  1  0.000317  0.250000  0.499683  1
  Au  Au15  1  0.250000  0.499683  0.000317  1
  I  I16  1  0.250000  0.759915  0.740085  1
  I  I17  1  0.519887  0.510216  0.760285  1
  I  I18  1  0.980113  0.739715  0.989784  1
  I  I19  1  0.740085  0.250000  0.759915  1
  I  I20  1  0.989784  0.980113  0.739715  1
  I  I21  1  0.250000  0.990081  0.509919  1
  I  I22  1  0.760285  0.519887  0.510216  1
  I  I23  1  0.509919  0.250000  0.990081  1
  I  I24  1  0.759915  0.740085  0.250000  1
  I  I25  1  0.739715  0.989784  0.980113  1
  I  I26  1  0.990081  0.509919  0.250000  1
  I  I27  1  0.510216  0.760285  0.519887  1
