# generated using pymatgen
data_Dy5Ho3Re2(OsC4)2
_symmetry_space_group_name_H-M   'P 1'
_cell_length_a   5.11155200
_cell_length_b   6.52503509
_cell_length_c   9.80652514
_cell_angle_alpha   90.01920280
_cell_angle_beta   90.00000000
_cell_angle_gamma   90.00000000
_symmetry_Int_Tables_number   1
_chemical_formula_structural   Dy5Ho3Re2(OsC4)2
_chemical_formula_sum   'Dy5 Ho3 Re2 Os2 C8'
_cell_volume   327.07756541
_cell_formula_units_Z   1
loop_
 _symmetry_equiv_pos_site_id
 _symmetry_equiv_pos_as_xyz
  1  'x, y, z'
loop_
 _atom_site_type_symbol
 _atom_site_label
 _atom_site_symmetry_multiplicity
 _atom_site_fract_x
 _atom_site_fract_y
 _atom_site_fract_z
 _atom_site_occupancy
  Dy  Dy0  1  0.250000  0.467474  0.784635  1
  Dy  Dy1  1  0.750000  0.032536  0.284784  1
  Dy  Dy2  1  0.250000  0.969474  0.714341  1
  Dy  Dy3  1  0.750000  0.530520  0.214568  1
  Dy  Dy4  1  0.250000  0.822403  0.054815  1
  Ho  Ho5  1  0.750000  0.676891  0.555132  1
  Ho  Ho6  1  0.250000  0.320239  0.444125  1
  Ho  Ho7  1  0.750000  0.179837  0.944037  1
  Re  Re8  1  0.250000  0.778765  0.365788  1
  Re  Re9  1  0.750000  0.721296  0.865384  1
  Os  Os10  1  0.250000  0.278700  0.134054  1
  Os  Os11  1  0.750000  0.221373  0.633966  1
  C  C12  1  0.250000  0.176190  0.949074  1
  C  C13  1  0.750000  0.823764  0.051604  1
  C  C14  1  0.250000  0.676076  0.551844  1
  C  C15  1  0.750000  0.324449  0.449164  1
  C  C16  1  0.250000  0.045670  0.259821  1
  C  C17  1  0.750000  0.454529  0.759535  1
  C  C18  1  0.250000  0.544394  0.241869  1
  C  C19  1  0.750000  0.955420  0.741459  1
