# generated using pymatgen
data_RbZnPdF5
_symmetry_space_group_name_H-M   'P 1'
_cell_length_a   6.51548300
_cell_length_b   7.45329200
_cell_length_c   10.70830000
_cell_angle_alpha   90.00000000
_cell_angle_beta   90.00000000
_cell_angle_gamma   90.00000000
_symmetry_Int_Tables_number   1
_chemical_formula_structural   RbZnPdF5
_chemical_formula_sum   'Rb4 Zn4 Pd4 F20'
_cell_volume   520.01429424
_cell_formula_units_Z   4
loop_
 _symmetry_equiv_pos_site_id
 _symmetry_equiv_pos_as_xyz
  1  'x, y, z'
loop_
 _atom_site_type_symbol
 _atom_site_label
 _atom_site_symmetry_multiplicity
 _atom_site_fract_x
 _atom_site_fract_y
 _atom_site_fract_z
 _atom_site_occupancy
  Rb  Rb0  1  0.976896  0.250000  0.857864  1
  Rb  Rb1  1  0.523104  0.750000  0.357864  1
  Rb  Rb2  1  0.023104  0.750000  0.142136  1
  Rb  Rb3  1  0.476896  0.250000  0.642136  1
  Zn  Zn4  1  0.500000  0.000000  0.000000  1
  Zn  Zn5  1  0.000000  0.000000  0.500000  1
  Zn  Zn6  1  0.500000  0.500000  0.000000  1
  Zn  Zn7  1  0.000000  0.500000  0.500000  1
  Pd  Pd8  1  0.187687  0.750000  0.788422  1
  Pd  Pd9  1  0.687687  0.750000  0.711578  1
  Pd  Pd10  1  0.312313  0.250000  0.288422  1
  Pd  Pd11  1  0.812313  0.250000  0.211578  1
  F  F12  1  0.163659  0.550308  0.663437  1
  F  F13  1  0.712912  0.937137  0.578142  1
  F  F14  1  0.836341  0.449692  0.336563  1
  F  F15  1  0.212912  0.562863  0.921858  1
  F  F16  1  0.787088  0.062863  0.078142  1
  F  F17  1  0.037083  0.750000  0.431920  1
  F  F18  1  0.287088  0.437137  0.421858  1
  F  F19  1  0.663659  0.550308  0.836563  1
  F  F20  1  0.962917  0.250000  0.568080  1
  F  F21  1  0.163659  0.949692  0.663437  1
  F  F22  1  0.787088  0.437137  0.078142  1
  F  F23  1  0.836341  0.050308  0.336563  1
  F  F24  1  0.663659  0.949692  0.836563  1
  F  F25  1  0.336341  0.449692  0.163437  1
  F  F26  1  0.537083  0.750000  0.068080  1
  F  F27  1  0.287088  0.062863  0.421858  1
  F  F28  1  0.336341  0.050308  0.163437  1
  F  F29  1  0.212912  0.937137  0.921858  1
  F  F30  1  0.462917  0.250000  0.931920  1
  F  F31  1  0.712912  0.562863  0.578142  1
