# generated using pymatgen
data_La8Cd2CoRh
_symmetry_space_group_name_H-M   'P 1'
_cell_length_a   10.04703624
_cell_length_b   10.04395691
_cell_length_c   10.04703611
_cell_angle_alpha   60.01013223
_cell_angle_beta   60.05372951
_cell_angle_gamma   60.01013120
_symmetry_Int_Tables_number   1
_chemical_formula_structural   La8Cd2CoRh
_chemical_formula_sum   'La16 Cd4 Co2 Rh2'
_cell_volume   717.31243506
_cell_formula_units_Z   2
loop_
 _symmetry_equiv_pos_site_id
 _symmetry_equiv_pos_as_xyz
  1  'x, y, z'
loop_
 _atom_site_type_symbol
 _atom_site_label
 _atom_site_symmetry_multiplicity
 _atom_site_fract_x
 _atom_site_fract_y
 _atom_site_fract_z
 _atom_site_occupancy
  La  La0  1  0.939816  0.939199  0.560097  1
  La  La1  1  0.560203  0.939797  0.560203  1
  La  La2  1  0.560097  0.939199  0.939816  1
  La  La3  1  0.684834  0.694762  0.310231  1
  La  La4  1  0.158713  0.151875  0.537535  1
  La  La5  1  0.310231  0.694762  0.684834  1
  La  La6  1  0.156012  0.148655  0.156012  1
  La  La7  1  0.537535  0.151875  0.158713  1
  La  La8  1  0.311412  0.688588  0.311412  1
  La  La9  1  0.310231  0.310172  0.684834  1
  La  La10  1  0.690933  0.309067  0.690933  1
  La  La11  1  0.939816  0.560887  0.560097  1
  La  La12  1  0.560097  0.560887  0.939816  1
  La  La13  1  0.156012  0.539321  0.156012  1
  La  La14  1  0.684834  0.310172  0.310231  1
  La  La15  1  0.939065  0.560935  0.939065  1
  Cd  Cd16  1  0.237392  0.920877  0.920852  1
  Cd  Cd17  1  0.921061  0.921065  0.921061  1
  Cd  Cd18  1  0.920852  0.920877  0.237392  1
  Cd  Cd19  1  0.921061  0.236812  0.921061  1
  Co  Co20  1  0.359436  0.921604  0.359436  1
  Co  Co21  1  0.359436  0.359523  0.359436  1
  Rh  Rh22  1  0.921621  0.359542  0.359294  1
  Rh  Rh23  1  0.359294  0.359542  0.921621  1
