# generated using pymatgen
data_Y5ErNi12(B2Ir)2
_symmetry_space_group_name_H-M   'P 1'
_cell_length_a   5.11019700
_cell_length_b   5.11019775
_cell_length_c   14.60504100
_cell_angle_alpha   90.00000000
_cell_angle_beta   90.00000000
_cell_angle_gamma   120.00000161
_symmetry_Int_Tables_number   1
_chemical_formula_structural   Y5ErNi12(B2Ir)2
_chemical_formula_sum   'Y5 Er1 Ni12 B4 Ir2'
_cell_volume   330.30013744
_cell_formula_units_Z   1
loop_
 _symmetry_equiv_pos_site_id
 _symmetry_equiv_pos_as_xyz
  1  'x, y, z'
loop_
 _atom_site_type_symbol
 _atom_site_label
 _atom_site_symmetry_multiplicity
 _atom_site_fract_x
 _atom_site_fract_y
 _atom_site_fract_z
 _atom_site_occupancy
  Y  Y0  1  0.666667  0.333333  0.030434  1
  Y  Y1  1  0.666667  0.333333  0.469311  1
  Y  Y2  1  0.333333  0.666667  0.530712  1
  Y  Y3  1  0.333333  0.666667  0.750465  1
  Y  Y4  1  0.666667  0.333333  0.249968  1
  Er  Er5  1  0.333333  0.666667  0.969646  1
  Ni  Ni6  1  0.165281  0.834719  0.347614  1
  Ni  Ni7  1  0.165281  0.330562  0.347614  1
  Ni  Ni8  1  0.669438  0.834719  0.347614  1
  Ni  Ni9  1  0.834775  0.165225  0.652386  1
  Ni  Ni10  1  0.834775  0.669551  0.652386  1
  Ni  Ni11  1  0.330449  0.165225  0.652386  1
  Ni  Ni12  1  0.834687  0.165313  0.847966  1
  Ni  Ni13  1  0.834687  0.669376  0.847966  1
  Ni  Ni14  1  0.330624  0.165313  0.847966  1
  Ni  Ni15  1  0.165404  0.834596  0.152077  1
  Ni  Ni16  1  0.165404  0.330808  0.152077  1
  Ni  Ni17  1  0.669192  0.834596  0.152077  1
  B  B18  1  0.333333  0.666667  0.249996  1
  B  B19  1  0.666667  0.333333  0.750000  1
  B  B20  1  0.000000  0.000000  0.249746  1
  B  B21  1  0.000000  0.000000  0.750026  1
  Ir  Ir22  1  0.000000  0.000000  0.499909  1
  Ir  Ir23  1  0.000000  0.000000  0.999661  1
