# generated using pymatgen
data_NaSr2Fe4(CoP3)2
_symmetry_space_group_name_H-M   'P 1'
_cell_length_a   8.32357112
_cell_length_b   8.32357068
_cell_length_c   6.40424819
_cell_angle_alpha   68.24321739
_cell_angle_beta   68.24321956
_cell_angle_gamma   37.23076142
_symmetry_Int_Tables_number   1
_chemical_formula_structural   NaSr2Fe4(CoP3)2
_chemical_formula_sum   'Na1 Sr2 Fe4 Co2 P6'
_cell_volume   247.06324671
_cell_formula_units_Z   1
loop_
 _symmetry_equiv_pos_site_id
 _symmetry_equiv_pos_as_xyz
  1  'x, y, z'
loop_
 _atom_site_type_symbol
 _atom_site_label
 _atom_site_symmetry_multiplicity
 _atom_site_fract_x
 _atom_site_fract_y
 _atom_site_fract_z
 _atom_site_occupancy
  Na  Na0  1  0.999800  0.000200  0.000000  1
  Sr  Sr1  1  0.662612  0.661757  0.676754  1
  Sr  Sr2  1  0.338243  0.337388  0.323246  1
  Fe  Fe3  1  0.081984  0.583443  0.833959  1
  Fe  Fe4  1  0.416557  0.918016  0.166041  1
  Fe  Fe5  1  0.750524  0.249476  0.500000  1
  Fe  Fe6  1  0.249341  0.750659  0.500000  1
  Co  Co7  1  0.583961  0.082574  0.832285  1
  Co  Co8  1  0.917426  0.416039  0.167715  1
  P  P9  1  0.886727  0.882675  0.533465  1
  P  P10  1  0.217140  0.217480  0.868703  1
  P  P11  1  0.548091  0.552252  0.204670  1
  P  P12  1  0.447748  0.451909  0.795330  1
  P  P13  1  0.782520  0.782860  0.131297  1
  P  P14  1  0.117325  0.113273  0.466535  1
