# generated using pymatgen
data_Lu8Ta9Nb3Si16
_symmetry_space_group_name_H-M   'P 1'
_cell_length_a   6.99283099
_cell_length_b   6.99355411
_cell_length_c   12.88339318
_cell_angle_alpha   90.00593302
_cell_angle_beta   89.96602475
_cell_angle_gamma   89.98515297
_symmetry_Int_Tables_number   1
_chemical_formula_structural   Lu8Ta9Nb3Si16
_chemical_formula_sum   'Lu8 Ta9 Nb3 Si16'
_cell_volume   630.05888263
_cell_formula_units_Z   1
loop_
 _symmetry_equiv_pos_site_id
 _symmetry_equiv_pos_as_xyz
  1  'x, y, z'
loop_
 _atom_site_type_symbol
 _atom_site_label
 _atom_site_symmetry_multiplicity
 _atom_site_fract_x
 _atom_site_fract_y
 _atom_site_fract_z
 _atom_site_occupancy
  Lu  Lu0  1  0.998454  0.339937  0.218837  1
  Lu  Lu1  1  0.001407  0.660010  0.718821  1
  Lu  Lu2  1  0.160159  0.498345  0.468920  1
  Lu  Lu3  1  0.500711  0.839702  0.031156  1
  Lu  Lu4  1  0.839763  0.501692  0.968936  1
  Lu  Lu5  1  0.499100  0.160004  0.531188  1
  Lu  Lu6  1  0.340098  0.998942  0.781116  1
  Lu  Lu7  1  0.660041  0.000705  0.281153  1
  Ta  Ta8  1  0.170420  0.170832  0.999739  1
  Ta  Ta9  1  0.830049  0.829674  0.500108  1
  Ta  Ta10  1  0.329785  0.669789  0.249963  1
  Ta  Ta11  1  0.670089  0.330108  0.750253  1
  Ta  Ta12  1  0.153198  0.992956  0.376058  1
  Ta  Ta13  1  0.846701  0.007018  0.876038  1
  Ta  Ta14  1  0.506770  0.653651  0.626275  1
  Ta  Ta15  1  0.346969  0.493872  0.874212  1
  Ta  Ta16  1  0.492770  0.346938  0.125691  1
  Nb  Nb17  1  0.653115  0.505674  0.374264  1
  Nb  Nb18  1  0.994267  0.153366  0.624117  1
  Nb  Nb19  1  0.005582  0.846970  0.123735  1
  Si  Si20  1  0.296906  0.043553  0.185832  1
  Si  Si21  1  0.702926  0.956628  0.685874  1
  Si  Si22  1  0.456139  0.796758  0.435926  1
  Si  Si23  1  0.202161  0.543640  0.064320  1
  Si  Si24  1  0.543999  0.202753  0.935764  1
  Si  Si25  1  0.797748  0.456543  0.564450  1
  Si  Si26  1  0.043781  0.297958  0.814347  1
  Si  Si27  1  0.956538  0.702294  0.314243  1
  Si  Si28  1  0.365108  0.294612  0.319183  1
  Si  Si29  1  0.634848  0.705255  0.819661  1
  Si  Si30  1  0.205368  0.865396  0.569185  1
  Si  Si31  1  0.134482  0.795062  0.930002  1
  Si  Si32  1  0.794823  0.134865  0.069306  1
  Si  Si33  1  0.865555  0.204339  0.430310  1
  Si  Si34  1  0.295909  0.365771  0.680608  1
  Si  Si35  1  0.704262  0.634388  0.180407  1
