# generated using pymatgen
data_SmErTh7Se17
_symmetry_space_group_name_H-M   'P 1'
_cell_length_a   8.47235899
_cell_length_b   8.44584922
_cell_length_c   11.21039300
_cell_angle_alpha   80.61244885
_cell_angle_beta   80.59389366
_cell_angle_gamma   64.84094812
_symmetry_Int_Tables_number   1
_chemical_formula_structural   SmErTh7Se17
_chemical_formula_sum   'Sm1 Er1 Th7 Se17'
_cell_volume   712.36163603
_cell_formula_units_Z   1
loop_
 _symmetry_equiv_pos_site_id
 _symmetry_equiv_pos_as_xyz
  1  'x, y, z'
loop_
 _atom_site_type_symbol
 _atom_site_label
 _atom_site_symmetry_multiplicity
 _atom_site_fract_x
 _atom_site_fract_y
 _atom_site_fract_z
 _atom_site_occupancy
  Sm  Sm0  1  0.812607  0.304924  0.300314  1
  Er  Er1  1  0.997168  0.003565  0.002023  1
  Th  Th2  1  0.303285  0.812461  0.298074  1
  Th  Th3  1  0.186040  0.697368  0.700105  1
  Th  Th4  1  0.697625  0.187697  0.698752  1
  Th  Th5  1  0.206252  0.204693  0.537882  1
  Th  Th6  1  0.793761  0.794111  0.459609  1
  Th  Th7  1  0.682223  0.680482  0.981367  1
  Th  Th8  1  0.316622  0.319095  0.021918  1
  Se  Se9  1  0.824079  0.430777  0.534196  1
  Se  Se10  1  0.432677  0.819533  0.533207  1
  Se  Se11  1  0.178558  0.566527  0.466468  1
  Se  Se12  1  0.569305  0.176908  0.468048  1
  Se  Se13  1  0.943414  0.335449  0.036611  1
  Se  Se14  1  0.333076  0.943589  0.034740  1
  Se  Se15  1  0.057185  0.668114  0.962301  1
  Se  Se16  1  0.665399  0.058534  0.962388  1
  Se  Se17  1  0.211576  0.205761  0.277760  1
  Se  Se18  1  0.790421  0.790343  0.723019  1
  Se  Se19  1  0.065141  0.064476  0.762969  1
  Se  Se20  1  0.938356  0.934206  0.239162  1
  Se  Se21  1  0.304327  0.303378  0.753016  1
  Se  Se22  1  0.692868  0.699901  0.246154  1
  Se  Se23  1  0.519999  0.521741  0.831743  1
  Se  Se24  1  0.476121  0.481957  0.164605  1
  Se  Se25  1  0.001915  0.994412  0.503571  1
