# generated using pymatgen
data_LaCeTm2(ZnRh)4
_symmetry_space_group_name_H-M   'P 1'
_cell_length_a   3.95726400
_cell_length_b   7.07294405
_cell_length_c   8.34188718
_cell_angle_alpha   90.59105326
_cell_angle_beta   90.00000000
_cell_angle_gamma   90.00000000
_symmetry_Int_Tables_number   1
_chemical_formula_structural   LaCeTm2(ZnRh)4
_chemical_formula_sum   'La1 Ce1 Tm2 Zn4 Rh4'
_cell_volume   233.47288531
_cell_formula_units_Z   1
loop_
 _symmetry_equiv_pos_site_id
 _symmetry_equiv_pos_as_xyz
  1  'x, y, z'
loop_
 _atom_site_type_symbol
 _atom_site_label
 _atom_site_symmetry_multiplicity
 _atom_site_fract_x
 _atom_site_fract_y
 _atom_site_fract_z
 _atom_site_occupancy
  La  La0  1  0.250000  0.544206  0.187618  1
  Ce  Ce1  1  0.750000  0.456706  0.809596  1
  Tm  Tm2  1  0.750000  0.953119  0.680849  1
  Tm  Tm3  1  0.250000  0.048305  0.319764  1
  Zn  Zn4  1  0.250000  0.636418  0.558988  1
  Zn  Zn5  1  0.750000  0.362072  0.442354  1
  Zn  Zn6  1  0.750000  0.879178  0.059880  1
  Zn  Zn7  1  0.250000  0.118653  0.937794  1
  Rh  Rh8  1  0.250000  0.742053  0.866332  1
  Rh  Rh9  1  0.750000  0.246214  0.124871  1
  Rh  Rh10  1  0.750000  0.760855  0.376315  1
  Rh  Rh11  1  0.250000  0.252221  0.635640  1
