# generated using pymatgen
data_Tb5Sm2Er3Tl4(InPd)4
_symmetry_space_group_name_H-M   'P 1'
_cell_length_a   3.65326600
_cell_length_b   8.21588151
_cell_length_c   18.38202800
_cell_angle_alpha   89.95644407
_cell_angle_beta   90.00000000
_cell_angle_gamma   90.00000000
_symmetry_Int_Tables_number   1
_chemical_formula_structural   Tb5Sm2Er3Tl4(InPd)4
_chemical_formula_sum   'Tb5 Sm2 Er3 Tl4 In4 Pd4'
_cell_volume   551.73274549
_cell_formula_units_Z   1
loop_
 _symmetry_equiv_pos_site_id
 _symmetry_equiv_pos_as_xyz
  1  'x, y, z'
loop_
 _atom_site_type_symbol
 _atom_site_label
 _atom_site_symmetry_multiplicity
 _atom_site_fract_x
 _atom_site_fract_y
 _atom_site_fract_z
 _atom_site_occupancy
  Tb  Tb0  1  0.000000  0.738423  0.282695  1
  Tb  Tb1  1  0.000000  0.261717  0.717167  1
  Tb  Tb2  1  0.000000  0.761648  0.782158  1
  Tb  Tb3  1  0.000000  0.238922  0.218330  1
  Tb  Tb4  1  0.000000  0.617678  0.084487  1
  Sm  Sm5  1  0.000000  0.500188  0.500228  1
  Sm  Sm6  1  0.000000  0.999572  0.999619  1
  Er  Er7  1  0.000000  0.382449  0.914392  1
  Er  Er8  1  0.000000  0.882921  0.585282  1
  Er  Er9  1  0.000000  0.117121  0.414965  1
  Tl  Tl10  1  0.500000  0.704408  0.933146  1
  Tl  Tl11  1  0.500000  0.293318  0.066037  1
  Tl  Tl12  1  0.500000  0.795975  0.434531  1
  Tl  Tl13  1  0.500000  0.203888  0.565349  1
  In  In14  1  0.500000  0.586568  0.651379  1
  In  In15  1  0.500000  0.413866  0.349221  1
  In  In16  1  0.500000  0.916474  0.151880  1
  In  In17  1  0.500000  0.086070  0.848105  1
  Pd  Pd18  1  0.500000  0.526260  0.197558  1
  Pd  Pd19  1  0.500000  0.472379  0.803311  1
  Pd  Pd20  1  0.500000  0.972958  0.696072  1
  Pd  Pd21  1  0.500000  0.027195  0.304087  1
