# generated using pymatgen
data_TbSm6CoBr12
_symmetry_space_group_name_H-M   'P 1'
_cell_length_a   9.36942335
_cell_length_b   9.36942395
_cell_length_c   9.36942275
_cell_angle_alpha   106.82915914
_cell_angle_beta   106.82916294
_cell_angle_gamma   106.82917038
_symmetry_Int_Tables_number   1
_chemical_formula_structural   TbSm6CoBr12
_chemical_formula_sum   'Tb1 Sm6 Co1 Br12'
_cell_volume   688.15734396
_cell_formula_units_Z   1
loop_
 _symmetry_equiv_pos_site_id
 _symmetry_equiv_pos_as_xyz
  1  'x, y, z'
loop_
 _atom_site_type_symbol
 _atom_site_label
 _atom_site_symmetry_multiplicity
 _atom_site_fract_x
 _atom_site_fract_y
 _atom_site_fract_z
 _atom_site_occupancy
  Tb  Tb0  1  0.500000  0.500000  0.500000  1
  Sm  Sm1  1  0.021817  0.098765  0.305364  1
  Sm  Sm2  1  0.098765  0.305364  0.021817  1
  Sm  Sm3  1  0.305364  0.021817  0.098765  1
  Sm  Sm4  1  0.978183  0.901235  0.694636  1
  Sm  Sm5  1  0.901235  0.694636  0.978183  1
  Sm  Sm6  1  0.694636  0.978183  0.901235  1
  Co  Co7  1  0.000000  0.000000  0.000000  1
  Br  Br8  1  0.171615  0.463100  0.387079  1
  Br  Br9  1  0.463100  0.387079  0.171615  1
  Br  Br10  1  0.387079  0.171615  0.463100  1
  Br  Br11  1  0.828385  0.536900  0.612921  1
  Br  Br12  1  0.536900  0.612921  0.828385  1
  Br  Br13  1  0.612921  0.828385  0.536900  1
  Br  Br14  1  0.680317  0.070890  0.223056  1
  Br  Br15  1  0.070890  0.223056  0.680317  1
  Br  Br16  1  0.223056  0.680317  0.070890  1
  Br  Br17  1  0.319683  0.929110  0.776944  1
  Br  Br18  1  0.929110  0.776944  0.319683  1
  Br  Br19  1  0.776944  0.319683  0.929110  1
