# generated using pymatgen
data_Tm8ZnHg3
_symmetry_space_group_name_H-M   'P 1'
_cell_length_a   5.02756300
_cell_length_b   6.88236956
_cell_length_c   9.04835158
_cell_angle_alpha   90.24067149
_cell_angle_beta   90.00000000
_cell_angle_gamma   90.00000000
_symmetry_Int_Tables_number   1
_chemical_formula_structural   Tm8ZnHg3
_chemical_formula_sum   'Tm8 Zn1 Hg3'
_cell_volume   313.08419623
_cell_formula_units_Z   1
loop_
 _symmetry_equiv_pos_site_id
 _symmetry_equiv_pos_as_xyz
  1  'x, y, z'
loop_
 _atom_site_type_symbol
 _atom_site_label
 _atom_site_symmetry_multiplicity
 _atom_site_fract_x
 _atom_site_fract_y
 _atom_site_fract_z
 _atom_site_occupancy
  Tm  Tm0  1  0.250000  0.835564  0.926040  1
  Tm  Tm1  1  0.250000  0.327559  0.568554  1
  Tm  Tm2  1  0.750000  0.174855  0.082299  1
  Tm  Tm3  1  0.750000  0.658698  0.424424  1
  Tm  Tm4  1  0.250000  0.986091  0.307344  1
  Tm  Tm5  1  0.250000  0.483775  0.194468  1
  Tm  Tm6  1  0.750000  0.018339  0.690755  1
  Tm  Tm7  1  0.750000  0.515826  0.804495  1
  Zn  Zn8  1  0.750000  0.230946  0.401633  1
  Hg  Hg9  1  0.250000  0.266616  0.897337  1
  Hg  Hg10  1  0.250000  0.762302  0.601075  1
  Hg  Hg11  1  0.750000  0.739427  0.101577  1
