# generated using pymatgen
data_KTi8O13
_symmetry_space_group_name_H-M   'P 1'
_cell_length_a   6.52837741
_cell_length_b   6.52837853
_cell_length_c   6.52837852
_cell_angle_alpha   72.93874095
_cell_angle_beta   72.93874150
_cell_angle_gamma   72.93874977
_symmetry_Int_Tables_number   1
_chemical_formula_structural   KTi8O13
_chemical_formula_sum   'K1 Ti8 O13'
_cell_volume   247.65819530
_cell_formula_units_Z   1
loop_
 _symmetry_equiv_pos_site_id
 _symmetry_equiv_pos_as_xyz
  1  'x, y, z'
loop_
 _atom_site_type_symbol
 _atom_site_label
 _atom_site_symmetry_multiplicity
 _atom_site_fract_x
 _atom_site_fract_y
 _atom_site_fract_z
 _atom_site_occupancy
  K  K0  1  0.500000  0.500000  0.500000  1
  Ti  Ti1  1  0.683497  0.124250  0.950342  1
  Ti  Ti2  1  0.950342  0.683497  0.124250  1
  Ti  Ti3  1  0.124250  0.950342  0.683497  1
  Ti  Ti4  1  0.316503  0.875750  0.049658  1
  Ti  Ti5  1  0.049658  0.316503  0.875750  1
  Ti  Ti6  1  0.875750  0.049658  0.316503  1
  Ti  Ti7  1  0.268734  0.268734  0.268734  1
  Ti  Ti8  1  0.731266  0.731266  0.731266  1
  O  O9  1  0.000000  0.000000  0.000000  1
  O  O10  1  0.167678  0.265783  0.576535  1
  O  O11  1  0.576535  0.167678  0.265783  1
  O  O12  1  0.265783  0.576535  0.167678  1
  O  O13  1  0.832322  0.734217  0.423465  1
  O  O14  1  0.423465  0.832322  0.734217  1
  O  O15  1  0.734217  0.423465  0.832322  1
  O  O16  1  0.356470  0.205521  0.950370  1
  O  O17  1  0.950370  0.356470  0.205521  1
  O  O18  1  0.205521  0.950370  0.356470  1
  O  O19  1  0.643530  0.794479  0.049630  1
  O  O20  1  0.049630  0.643530  0.794479  1
  O  O21  1  0.794479  0.049630  0.643530  1
