# generated using pymatgen
data_TiNb4B4Ru10W
_symmetry_space_group_name_H-M   'P 1'
_cell_length_a   9.44406600
_cell_length_b   9.44406600
_cell_length_c   2.98628000
_cell_angle_alpha   90.00000000
_cell_angle_beta   90.00000000
_cell_angle_gamma   90.00000000
_symmetry_Int_Tables_number   1
_chemical_formula_structural   TiNb4B4Ru10W
_chemical_formula_sum   'Ti1 Nb4 B4 Ru10 W1'
_cell_volume   266.34745579
_cell_formula_units_Z   1
loop_
 _symmetry_equiv_pos_site_id
 _symmetry_equiv_pos_as_xyz
  1  'x, y, z'
loop_
 _atom_site_type_symbol
 _atom_site_label
 _atom_site_symmetry_multiplicity
 _atom_site_fract_x
 _atom_site_fract_y
 _atom_site_fract_z
 _atom_site_occupancy
  Ti  Ti0  1  0.500000  0.500000  0.000000  1
  Nb  Nb1  1  0.821134  0.674803  0.000000  1
  Nb  Nb2  1  0.178866  0.325197  0.000000  1
  Nb  Nb3  1  0.325197  0.821134  0.000000  1
  Nb  Nb4  1  0.674803  0.178866  0.000000  1
  B  B5  1  0.618066  0.873942  0.000000  1
  B  B6  1  0.381934  0.126058  0.000000  1
  B  B7  1  0.126058  0.618066  0.000000  1
  B  B8  1  0.873942  0.381934  0.000000  1
  Ru  Ru9  1  0.570066  0.716140  0.500000  1
  Ru  Ru10  1  0.429934  0.283860  0.500000  1
  Ru  Ru11  1  0.071151  0.782191  0.500000  1
  Ru  Ru12  1  0.928849  0.217809  0.500000  1
  Ru  Ru13  1  0.283860  0.570066  0.500000  1
  Ru  Ru14  1  0.716140  0.429934  0.500000  1
  Ru  Ru15  1  0.217809  0.071151  0.500000  1
  Ru  Ru16  1  0.782191  0.928849  0.500000  1
  Ru  Ru17  1  0.500000  0.000000  0.500000  1
  Ru  Ru18  1  0.000000  0.500000  0.500000  1
  W  W19  1  0.000000  0.000000  0.000000  1
