# generated using pymatgen
data_Dy12CdSi4Pb
_symmetry_space_group_name_H-M   'P 1'
_cell_length_a   8.52392638
_cell_length_b   8.52392689
_cell_length_c   8.52392700
_cell_angle_alpha   112.06450601
_cell_angle_beta   111.15887293
_cell_angle_gamma   105.27158150
_symmetry_Int_Tables_number   1
_chemical_formula_structural   Dy12CdSi4Pb
_chemical_formula_sum   'Dy12 Cd1 Si4 Pb1'
_cell_volume   474.82239242
_cell_formula_units_Z   1
loop_
 _symmetry_equiv_pos_site_id
 _symmetry_equiv_pos_as_xyz
  1  'x, y, z'
loop_
 _atom_site_type_symbol
 _atom_site_label
 _atom_site_symmetry_multiplicity
 _atom_site_fract_x
 _atom_site_fract_y
 _atom_site_fract_z
 _atom_site_occupancy
  Dy  Dy0  1  0.442848  0.238382  0.204466  1
  Dy  Dy1  1  0.557152  0.761618  0.795534  1
  Dy  Dy2  1  0.033915  0.238382  0.795534  1
  Dy  Dy3  1  0.966085  0.761618  0.204466  1
  Dy  Dy4  1  0.183343  0.275775  0.459118  1
  Dy  Dy5  1  0.816657  0.724225  0.540882  1
  Dy  Dy6  1  0.183343  0.724225  0.907569  1
  Dy  Dy7  1  0.816657  0.275775  0.092431  1
  Dy  Dy8  1  0.319668  0.617681  0.298013  1
  Dy  Dy9  1  0.680332  0.382319  0.701987  1
  Dy  Dy10  1  0.319668  0.021656  0.701987  1
  Dy  Dy11  1  0.680332  0.978344  0.298013  1
  Cd  Cd12  1  0.000000  0.000000  0.000000  1
  Si  Si13  1  0.365242  0.000000  0.365242  1
  Si  Si14  1  0.634758  0.000000  0.634758  1
  Si  Si15  1  0.115636  0.615636  0.500000  1
  Si  Si16  1  0.884364  0.384364  0.500000  1
  Pb  Pb17  1  0.500000  0.500000  0.000000  1
