# generated using pymatgen
data_Cs2BaPuO6
_symmetry_space_group_name_H-M   'P 1'
_cell_length_a   6.61820036
_cell_length_b   6.61811849
_cell_length_c   6.61800300
_cell_angle_alpha   119.99882890
_cell_angle_beta   119.99962145
_cell_angle_gamma   59.99847064
_symmetry_Int_Tables_number   1
_chemical_formula_structural   Cs2BaPuO6
_chemical_formula_sum   'Cs2 Ba1 Pu1 O6'
_cell_volume   204.96819529
_cell_formula_units_Z   1
loop_
 _symmetry_equiv_pos_site_id
 _symmetry_equiv_pos_as_xyz
  1  'x, y, z'
loop_
 _atom_site_type_symbol
 _atom_site_label
 _atom_site_symmetry_multiplicity
 _atom_site_fract_x
 _atom_site_fract_y
 _atom_site_fract_z
 _atom_site_occupancy
  Cs  Cs0  1  0.750001  0.750000  0.250002  1
  Cs  Cs1  1  0.249998  0.249999  0.750000  1
  Ba  Ba2  1  0.500000  0.500001  0.500002  1
  Pu  Pu3  1  0.999999  0.000001  0.000000  1
  O  O4  1  0.212476  0.212476  0.212477  1
  O  O5  1  0.787516  0.212485  0.212485  1
  O  O6  1  0.212490  0.787511  0.212490  1
  O  O7  1  0.787510  0.212491  0.787511  1
  O  O8  1  0.212487  0.787514  0.787515  1
  O  O9  1  0.787524  0.787523  0.787523  1
