# generated using pymatgen
data_Dy2Er2Al18CuRh5
_symmetry_space_group_name_H-M   'P 1'
_cell_length_a   7.55366436
_cell_length_b   7.55726755
_cell_length_c   9.42396433
_cell_angle_alpha   90.05035503
_cell_angle_beta   90.07879446
_cell_angle_gamma   119.55421764
_symmetry_Int_Tables_number   1
_chemical_formula_structural   Dy2Er2Al18CuRh5
_chemical_formula_sum   'Dy2 Er2 Al18 Cu1 Rh5'
_cell_volume   467.97108098
_cell_formula_units_Z   1
loop_
 _symmetry_equiv_pos_site_id
 _symmetry_equiv_pos_as_xyz
  1  'x, y, z'
loop_
 _atom_site_type_symbol
 _atom_site_label
 _atom_site_symmetry_multiplicity
 _atom_site_fract_x
 _atom_site_fract_y
 _atom_site_fract_z
 _atom_site_occupancy
  Dy  Dy0  1  0.995199  0.673281  0.749627  1
  Dy  Dy1  1  0.004801  0.326719  0.250373  1
  Er  Er2  1  0.672978  0.994742  0.749796  1
  Er  Er3  1  0.327022  0.005258  0.250204  1
  Al  Al4  1  0.129683  0.129720  0.751495  1
  Al  Al5  1  0.870317  0.870280  0.248505  1
  Al  Al6  1  0.000374  0.338463  0.577808  1
  Al  Al7  1  0.999626  0.661537  0.422192  1
  Al  Al8  1  0.000600  0.665188  0.074810  1
  Al  Al9  1  0.335658  0.999884  0.925696  1
  Al  Al10  1  0.999400  0.334812  0.925190  1
  Al  Al11  1  0.664342  0.000116  0.074304  1
  Al  Al12  1  0.660633  0.999127  0.422692  1
  Al  Al13  1  0.339367  0.000873  0.577308  1
  Al  Al14  1  0.332762  0.332601  0.050262  1
  Al  Al15  1  0.667238  0.667399  0.949738  1
  Al  Al16  1  0.664261  0.664476  0.552054  1
  Al  Al17  1  0.335739  0.335524  0.447946  1
  Al  Al18  1  0.340236  0.550712  0.750519  1
  Al  Al19  1  0.659764  0.449288  0.249481  1
  Al  Al20  1  0.550625  0.339149  0.750459  1
  Al  Al21  1  0.449375  0.660851  0.249541  1
  Cu  Cu22  1  0.000000  0.000000  0.500000  1
  Rh  Rh23  1  0.671978  0.327733  0.499878  1
  Rh  Rh24  1  0.328022  0.672267  0.500122  1
  Rh  Rh25  1  0.328088  0.672105  0.999890  1
  Rh  Rh26  1  0.671912  0.327895  0.000110  1
  Rh  Rh27  1  0.000000  0.000000  0.000000  1
