# generated using pymatgen
data_Pr4TmP12Ir10Ru9
_symmetry_space_group_name_H-M   'P 1'
_cell_length_a   12.73233500
_cell_length_b   12.73233463
_cell_length_c   3.99137100
_cell_angle_alpha   90.00000000
_cell_angle_beta   90.00000000
_cell_angle_gamma   119.99999316
_symmetry_Int_Tables_number   1
_chemical_formula_structural   Pr4TmP12Ir10Ru9
_chemical_formula_sum   'Pr4 Tm1 P12 Ir10 Ru9'
_cell_volume   560.36223683
_cell_formula_units_Z   1
loop_
 _symmetry_equiv_pos_site_id
 _symmetry_equiv_pos_as_xyz
  1  'x, y, z'
loop_
 _atom_site_type_symbol
 _atom_site_label
 _atom_site_symmetry_multiplicity
 _atom_site_fract_x
 _atom_site_fract_y
 _atom_site_fract_z
 _atom_site_occupancy
  Pr  Pr0  1  0.333333  0.666667  0.500000  1
  Pr  Pr1  1  0.188710  0.188762  0.000000  1
  Pr  Pr2  1  0.811238  0.999949  0.000000  1
  Pr  Pr3  1  0.000051  0.811290  0.000000  1
  Tm  Tm4  1  0.666667  0.333333  0.500000  1
  P  P5  1  0.307168  0.828182  0.000000  1
  P  P6  1  0.171818  0.478986  0.000000  1
  P  P7  1  0.521014  0.692832  0.000000  1
  P  P8  1  0.824380  0.306497  0.000000  1
  P  P9  1  0.482117  0.175620  0.000000  1
  P  P10  1  0.693503  0.517883  0.000000  1
  P  P11  1  0.366379  0.367237  0.500000  1
  P  P12  1  0.632763  0.999142  0.500000  1
  P  P13  1  0.000858  0.633621  0.500000  1
  P  P14  1  0.816295  0.815153  0.500000  1
  P  P15  1  0.184847  0.001142  0.500000  1
  P  P16  1  0.998858  0.183705  0.500000  1
  Ir  Ir17  1  0.126080  0.634983  0.000000  1
  Ir  Ir18  1  0.365017  0.491095  0.000000  1
  Ir  Ir19  1  0.508905  0.873920  0.000000  1
  Ir  Ir20  1  0.634734  0.131509  0.000000  1
  Ir  Ir21  1  0.496773  0.365266  0.000000  1
  Ir  Ir22  1  0.868491  0.503227  0.000000  1
  Ir  Ir23  1  0.711762  0.710142  0.000000  1
  Ir  Ir24  1  0.289858  0.001621  0.000000  1
  Ir  Ir25  1  0.998379  0.288238  0.000000  1
  Ir  Ir26  1  0.000000  0.000000  0.500000  1
  Ru  Ru27  1  0.199421  0.819479  0.500000  1
  Ru  Ru28  1  0.180521  0.379942  0.500000  1
  Ru  Ru29  1  0.620058  0.800579  0.500000  1
  Ru  Ru30  1  0.816410  0.199239  0.500000  1
  Ru  Ru31  1  0.382829  0.183590  0.500000  1
  Ru  Ru32  1  0.800761  0.617171  0.500000  1
  Ru  Ru33  1  0.548265  0.547172  0.500000  1
  Ru  Ru34  1  0.452828  0.001094  0.500000  1
  Ru  Ru35  1  0.998906  0.451735  0.500000  1
