# generated using pymatgen
data_Eu3DyAl6(O3F)4
_symmetry_space_group_name_H-M   'P 1'
_cell_length_a   7.81418788
_cell_length_b   7.81418727
_cell_length_c   7.81418849
_cell_angle_alpha   109.51691986
_cell_angle_beta   109.51691997
_cell_angle_gamma   109.51691383
_symmetry_Int_Tables_number   1
_chemical_formula_structural   Eu3DyAl6(O3F)4
_chemical_formula_sum   'Eu3 Dy1 Al6 O12 F4'
_cell_volume   366.68461896
_cell_formula_units_Z   1
loop_
 _symmetry_equiv_pos_site_id
 _symmetry_equiv_pos_as_xyz
  1  'x, y, z'
loop_
 _atom_site_type_symbol
 _atom_site_label
 _atom_site_symmetry_multiplicity
 _atom_site_fract_x
 _atom_site_fract_y
 _atom_site_fract_z
 _atom_site_occupancy
  Eu  Eu0  1  0.693704  0.002021  0.002021  1
  Eu  Eu1  1  0.002021  0.693704  0.002021  1
  Eu  Eu2  1  0.002021  0.002021  0.693704  1
  Dy  Dy3  1  0.309554  0.309554  0.309554  1
  Al  Al4  1  0.246843  0.745432  0.496308  1
  Al  Al5  1  0.745432  0.246843  0.496308  1
  Al  Al6  1  0.745432  0.496308  0.246843  1
  Al  Al7  1  0.246843  0.496308  0.745432  1
  Al  Al8  1  0.496308  0.246843  0.745432  1
  Al  Al9  1  0.496308  0.745432  0.246843  1
  O  O10  1  0.277193  0.546531  0.546531  1
  O  O11  1  0.717185  0.276901  0.276901  1
  O  O12  1  0.996659  0.438982  0.718297  1
  O  O13  1  0.546531  0.546531  0.277193  1
  O  O14  1  0.996659  0.718297  0.438982  1
  O  O15  1  0.276901  0.276901  0.717185  1
  O  O16  1  0.438982  0.718297  0.996659  1
  O  O17  1  0.718297  0.438982  0.996659  1
  O  O18  1  0.546531  0.277193  0.546531  1
  O  O19  1  0.718297  0.996659  0.438982  1
  O  O20  1  0.438982  0.996659  0.718297  1
  O  O21  1  0.276901  0.717185  0.276901  1
  F  F22  1  0.781750  0.781750  0.781750  1
  F  F23  1  0.236232  0.024218  0.024218  1
  F  F24  1  0.024218  0.236232  0.024218  1
  F  F25  1  0.024218  0.024218  0.236232  1
