# generated using pymatgen
data_Nd5B4Pd7Rh8
_symmetry_space_group_name_H-M   'P 1'
_cell_length_a   4.27647900
_cell_length_b   4.27647900
_cell_length_c   21.27879400
_cell_angle_alpha   90.00000000
_cell_angle_beta   90.00000000
_cell_angle_gamma   90.00000000
_symmetry_Int_Tables_number   1
_chemical_formula_structural   Nd5B4Pd7Rh8
_chemical_formula_sum   'Nd5 B4 Pd7 Rh8'
_cell_volume   389.15238607
_cell_formula_units_Z   1
loop_
 _symmetry_equiv_pos_site_id
 _symmetry_equiv_pos_as_xyz
  1  'x, y, z'
loop_
 _atom_site_type_symbol
 _atom_site_label
 _atom_site_symmetry_multiplicity
 _atom_site_fract_x
 _atom_site_fract_y
 _atom_site_fract_z
 _atom_site_occupancy
  Nd  Nd0  1  0.000000  0.000000  0.900685  1
  Nd  Nd1  1  0.000000  0.000000  0.099315  1
  Nd  Nd2  1  0.000000  0.000000  0.298613  1
  Nd  Nd3  1  0.000000  0.000000  0.500000  1
  Nd  Nd4  1  0.000000  0.000000  0.701387  1
  B  B5  1  0.500000  0.500000  0.188358  1
  B  B6  1  0.500000  0.500000  0.396896  1
  B  B7  1  0.500000  0.500000  0.603104  1
  B  B8  1  0.500000  0.500000  0.811642  1
  Pd  Pd9  1  0.500000  0.500000  0.909961  1
  Pd  Pd10  1  0.500000  0.500000  0.090039  1
  Pd  Pd11  1  0.500000  0.500000  0.295691  1
  Pd  Pd12  1  0.500000  0.500000  0.500000  1
  Pd  Pd13  1  0.500000  0.500000  0.704309  1
  Pd  Pd14  1  0.500000  0.000000  0.000000  1
  Pd  Pd15  1  0.000000  0.500000  0.000000  1
  Rh  Rh16  1  0.500000  0.000000  0.199245  1
  Rh  Rh17  1  0.500000  0.000000  0.399528  1
  Rh  Rh18  1  0.500000  0.000000  0.600472  1
  Rh  Rh19  1  0.500000  0.000000  0.800755  1
  Rh  Rh20  1  0.000000  0.500000  0.199245  1
  Rh  Rh21  1  0.000000  0.500000  0.399528  1
  Rh  Rh22  1  0.000000  0.500000  0.600472  1
  Rh  Rh23  1  0.000000  0.500000  0.800755  1
