# generated using pymatgen
data_YGe2(AsRh3)2
_symmetry_space_group_name_H-M   'P 1'
_cell_length_a   7.30099500
_cell_length_b   7.24428648
_cell_length_c   3.82917600
_cell_angle_alpha   90.00000000
_cell_angle_beta   90.00000000
_cell_angle_gamma   120.25927517
_symmetry_Int_Tables_number   1
_chemical_formula_structural   YGe2(AsRh3)2
_chemical_formula_sum   'Y1 Ge2 As2 Rh6'
_cell_volume   174.93352111
_cell_formula_units_Z   1
loop_
 _symmetry_equiv_pos_site_id
 _symmetry_equiv_pos_as_xyz
  1  'x, y, z'
loop_
 _atom_site_type_symbol
 _atom_site_label
 _atom_site_symmetry_multiplicity
 _atom_site_fract_x
 _atom_site_fract_y
 _atom_site_fract_z
 _atom_site_occupancy
  Y  Y0  1  0.998756  0.997511  0.000000  1
  Ge  Ge1  1  0.806903  0.613805  0.500000  1
  Ge  Ge2  1  0.333373  0.666748  0.000000  1
  As  As3  1  0.384278  0.193427  0.500000  1
  As  As4  1  0.809149  0.193427  0.500000  1
  Rh  Rh5  1  0.535040  0.070079  0.000000  1
  Rh  Rh6  1  0.604686  0.802912  0.500000  1
  Rh  Rh7  1  0.197297  0.394595  0.500000  1
  Rh  Rh8  1  0.535176  0.465625  0.000000  1
  Rh  Rh9  1  0.198226  0.802912  0.500000  1
  Rh  Rh10  1  0.930448  0.465625  0.000000  1
