# generated using pymatgen
data_Sm5P4Pt13Rh2
_symmetry_space_group_name_H-M   'P 1'
_cell_length_a   4.09111100
_cell_length_b   4.11460100
_cell_length_c   25.78992800
_cell_angle_alpha   90.00000000
_cell_angle_beta   90.00000000
_cell_angle_gamma   90.00000000
_symmetry_Int_Tables_number   1
_chemical_formula_structural   Sm5P4Pt13Rh2
_chemical_formula_sum   'Sm5 P4 Pt13 Rh2'
_cell_volume   434.12932193
_cell_formula_units_Z   1
loop_
 _symmetry_equiv_pos_site_id
 _symmetry_equiv_pos_as_xyz
  1  'x, y, z'
loop_
 _atom_site_type_symbol
 _atom_site_label
 _atom_site_symmetry_multiplicity
 _atom_site_fract_x
 _atom_site_fract_y
 _atom_site_fract_z
 _atom_site_occupancy
  Sm  Sm0  1  0.000000  0.000000  0.899542  1
  Sm  Sm1  1  0.000000  0.000000  0.098419  1
  Sm  Sm2  1  0.000000  0.000000  0.310304  1
  Sm  Sm3  1  0.000000  0.000000  0.502438  1
  Sm  Sm4  1  0.000000  0.000000  0.693048  1
  P  P5  1  0.500000  0.500000  0.156092  1
  P  P6  1  0.500000  0.500000  0.367278  1
  P  P7  1  0.500000  0.500000  0.632547  1
  P  P8  1  0.500000  0.500000  0.840472  1
  Pt  Pt9  1  0.500000  0.500000  0.927411  1
  Pt  Pt10  1  0.500000  0.500000  0.069543  1
  Pt  Pt11  1  0.500000  0.500000  0.279400  1
  Pt  Pt12  1  0.500000  0.500000  0.501065  1
  Pt  Pt13  1  0.500000  0.500000  0.720450  1
  Pt  Pt14  1  0.500000  0.000000  0.998754  1
  Pt  Pt15  1  0.500000  0.000000  0.203699  1
  Pt  Pt16  1  0.500000  0.000000  0.415077  1
  Pt  Pt17  1  0.500000  0.000000  0.586822  1
  Pt  Pt18  1  0.500000  0.000000  0.795260  1
  Pt  Pt19  1  0.000000  0.500000  0.998677  1
  Pt  Pt20  1  0.000000  0.500000  0.203741  1
  Pt  Pt21  1  0.000000  0.500000  0.415126  1
  Rh  Rh22  1  0.000000  0.500000  0.587805  1
  Rh  Rh23  1  0.000000  0.500000  0.797029  1
