# generated using pymatgen
data_Hf6Al16Fe2CoCu4
_symmetry_space_group_name_H-M   'P 1'
_cell_length_a   8.57037111
_cell_length_b   8.51077328
_cell_length_c   8.57037153
_cell_angle_alpha   60.22976689
_cell_angle_beta   59.54046629
_cell_angle_gamma   60.22976636
_symmetry_Int_Tables_number   1
_chemical_formula_structural   Hf6Al16Fe2CoCu4
_chemical_formula_sum   'Hf6 Al16 Fe2 Co1 Cu4'
_cell_volume   441.98912626
_cell_formula_units_Z   1
loop_
 _symmetry_equiv_pos_site_id
 _symmetry_equiv_pos_as_xyz
  1  'x, y, z'
loop_
 _atom_site_type_symbol
 _atom_site_label
 _atom_site_symmetry_multiplicity
 _atom_site_fract_x
 _atom_site_fract_y
 _atom_site_fract_z
 _atom_site_occupancy
  Hf  Hf0  1  0.686752  0.686752  0.313248  1
  Hf  Hf1  1  0.303838  0.696162  0.303838  1
  Hf  Hf2  1  0.686752  0.313248  0.313248  1
  Hf  Hf3  1  0.313248  0.313248  0.686752  1
  Hf  Hf4  1  0.696162  0.303838  0.696162  1
  Hf  Hf5  1  0.313248  0.686752  0.686752  1
  Al  Al6  1  0.872710  0.887736  0.351818  1
  Al  Al7  1  0.887736  0.351818  0.887736  1
  Al  Al8  1  0.351818  0.887736  0.872710  1
  Al  Al9  1  0.887736  0.872710  0.887736  1
  Al  Al10  1  0.127290  0.112264  0.648182  1
  Al  Al11  1  0.112264  0.648182  0.112264  1
  Al  Al12  1  0.648182  0.112264  0.127290  1
  Al  Al13  1  0.112264  0.127290  0.112264  1
  Al  Al14  1  0.671184  0.663275  0.002267  1
  Al  Al15  1  0.663275  0.002267  0.663275  1
  Al  Al16  1  0.002267  0.663275  0.671184  1
  Al  Al17  1  0.663275  0.671184  0.663275  1
  Al  Al18  1  0.328816  0.336725  0.997733  1
  Al  Al19  1  0.336725  0.997733  0.336725  1
  Al  Al20  1  0.997733  0.336725  0.328816  1
  Al  Al21  1  0.336725  0.328816  0.336725  1
  Fe  Fe22  1  0.500000  0.000000  0.500000  1
  Fe  Fe23  1  0.000000  0.500000  0.000000  1
  Co  Co24  1  0.000000  0.000000  0.000000  1
  Cu  Cu25  1  0.000000  0.000000  0.500000  1
  Cu  Cu26  1  0.000000  0.500000  0.500000  1
  Cu  Cu27  1  0.500000  0.500000  0.000000  1
  Cu  Cu28  1  0.500000  0.000000  0.000000  1
