# generated using pymatgen
data_SrDy2Ho(Al8Pt3)3
_symmetry_space_group_name_H-M   'P 1'
_cell_length_a   7.55102555
_cell_length_b   7.57145377
_cell_length_c   13.26001003
_cell_angle_alpha   84.60344343
_cell_angle_beta   79.12595558
_cell_angle_gamma   59.94067503
_symmetry_Int_Tables_number   1
_chemical_formula_structural   SrDy2Ho(Al8Pt3)3
_chemical_formula_sum   'Sr1 Dy2 Ho1 Al24 Pt9'
_cell_volume   644.36326949
_cell_formula_units_Z   1
loop_
 _symmetry_equiv_pos_site_id
 _symmetry_equiv_pos_as_xyz
  1  'x, y, z'
loop_
 _atom_site_type_symbol
 _atom_site_label
 _atom_site_symmetry_multiplicity
 _atom_site_fract_x
 _atom_site_fract_y
 _atom_site_fract_z
 _atom_site_occupancy
  Sr  Sr0  1  0.393203  0.168008  0.809470  1
  Dy  Dy1  1  0.605126  0.832201  0.192776  1
  Dy  Dy2  1  0.733647  0.498612  0.807641  1
  Ho  Ho3  1  0.266440  0.500984  0.193010  1
  Al  Al4  1  0.686056  0.831613  0.947679  1
  Al  Al5  1  0.315056  0.166406  0.057787  1
  Al  Al6  1  0.147076  0.832359  0.559718  1
  Al  Al7  1  0.853842  0.167767  0.437465  1
  Al  Al8  1  0.480372  0.166663  0.557292  1
  Al  Al9  1  0.520508  0.833422  0.440179  1
  Al  Al10  1  0.217833  0.165505  0.328869  1
  Al  Al11  1  0.784153  0.834472  0.667041  1
  Al  Al12  1  0.438108  0.506778  0.666679  1
  Al  Al13  1  0.563065  0.493304  0.329147  1
  Al  Al14  1  0.110293  0.160039  0.665432  1
  Al  Al15  1  0.890660  0.839819  0.330401  1
  Al  Al16  1  0.351073  0.501913  0.947907  1
  Al  Al17  1  0.645949  0.501311  0.057039  1
  Al  Al18  1  0.012314  0.167325  0.957929  1
  Al  Al19  1  0.983777  0.831462  0.048860  1
  Al  Al20  1  0.186925  0.499312  0.440193  1
  Al  Al21  1  0.813781  0.500445  0.557579  1
  Al  Al22  1  0.733826  0.164703  0.183900  1
  Al  Al23  1  0.268373  0.827204  0.816455  1
  Al  Al24  1  0.053812  0.636669  0.815548  1
  Al  Al25  1  0.938011  0.369730  0.185118  1
  Al  Al26  1  0.861256  0.043758  0.816304  1
  Al  Al27  1  0.144912  0.958061  0.184476  1
  Pt  Pt28  1  0.118864  0.494490  0.636498  1
  Pt  Pt29  1  0.880373  0.508159  0.360995  1
  Pt  Pt30  1  0.657304  0.171087  0.001639  1
  Pt  Pt31  1  0.341620  0.828445  0.002040  1
  Pt  Pt32  1  0.538135  0.166774  0.361021  1
  Pt  Pt33  1  0.462035  0.831395  0.636449  1
  Pt  Pt34  1  0.781458  0.174240  0.635235  1
  Pt  Pt35  1  0.221552  0.824840  0.362132  1
  Pt  Pt36  1  0.999212  0.500722  0.002097  1
