# generated using pymatgen
data_Sr2Ga10Pd
_symmetry_space_group_name_H-M   'P 1'
_cell_length_a   4.48255778
_cell_length_b   4.48259082
_cell_length_c   13.88890005
_cell_angle_alpha   99.22501538
_cell_angle_beta   99.22492192
_cell_angle_gamma   90.46903641
_symmetry_Int_Tables_number   1
_chemical_formula_structural   Sr2Ga10Pd
_chemical_formula_sum   'Sr2 Ga10 Pd1'
_cell_volume   271.73954488
_cell_formula_units_Z   1
loop_
 _symmetry_equiv_pos_site_id
 _symmetry_equiv_pos_as_xyz
  1  'x, y, z'
loop_
 _atom_site_type_symbol
 _atom_site_label
 _atom_site_symmetry_multiplicity
 _atom_site_fract_x
 _atom_site_fract_y
 _atom_site_fract_z
 _atom_site_occupancy
  Sr  Sr0  1  0.647384  0.647400  0.292917  1
  Sr  Sr1  1  0.352608  0.352607  0.707086  1
  Ga  Ga2  1  0.552265  0.048385  0.101307  1
  Ga  Ga3  1  0.048381  0.552261  0.101309  1
  Ga  Ga4  1  0.101508  0.101500  0.207056  1
  Ga  Ga5  1  0.196199  0.196204  0.395038  1
  Ga  Ga6  1  0.748541  0.251460  0.500000  1
  Ga  Ga7  1  0.251463  0.748536  0.500000  1
  Ga  Ga8  1  0.803801  0.803796  0.604962  1
  Ga  Ga9  1  0.898495  0.898496  0.792944  1
  Ga  Ga10  1  0.951617  0.447734  0.898690  1
  Ga  Ga11  1  0.447735  0.951618  0.898690  1
  Pd  Pd12  1  0.500000  0.500000  0.000000  1
