# generated using pymatgen
data_Tb2Lu3Si3Ir
_symmetry_space_group_name_H-M   'P 1'
_cell_length_a   7.10344600
_cell_length_b   7.83775300
_cell_length_c   14.40610600
_cell_angle_alpha   90.00000000
_cell_angle_beta   90.00000000
_cell_angle_gamma   90.00000000
_symmetry_Int_Tables_number   1
_chemical_formula_structural   Tb2Lu3Si3Ir
_chemical_formula_sum   'Tb8 Lu12 Si12 Ir4'
_cell_volume   802.06074672
_cell_formula_units_Z   4
loop_
 _symmetry_equiv_pos_site_id
 _symmetry_equiv_pos_as_xyz
  1  'x, y, z'
loop_
 _atom_site_type_symbol
 _atom_site_label
 _atom_site_symmetry_multiplicity
 _atom_site_fract_x
 _atom_site_fract_y
 _atom_site_fract_z
 _atom_site_occupancy
  Tb  Tb0  1  0.511694  0.682462  0.593574  1
  Tb  Tb1  1  0.011694  0.817538  0.906426  1
  Tb  Tb2  1  0.488306  0.317538  0.093574  1
  Tb  Tb3  1  0.988306  0.182462  0.406426  1
  Tb  Tb4  1  0.488306  0.317538  0.406426  1
  Tb  Tb5  1  0.988306  0.182462  0.093574  1
  Tb  Tb6  1  0.511694  0.682462  0.906426  1
  Tb  Tb7  1  0.011694  0.817538  0.593574  1
  Lu  Lu8  1  0.688299  0.172351  0.628689  1
  Lu  Lu9  1  0.188299  0.327649  0.871311  1
  Lu  Lu10  1  0.311701  0.827649  0.128689  1
  Lu  Lu11  1  0.811701  0.672351  0.371311  1
  Lu  Lu12  1  0.311701  0.827649  0.371311  1
  Lu  Lu13  1  0.811701  0.672351  0.128689  1
  Lu  Lu14  1  0.688299  0.172351  0.871311  1
  Lu  Lu15  1  0.188299  0.327649  0.628689  1
  Lu  Lu16  1  0.835444  0.509116  0.750000  1
  Lu  Lu17  1  0.335444  0.990884  0.750000  1
  Lu  Lu18  1  0.164556  0.490884  0.250000  1
  Lu  Lu19  1  0.664556  0.009116  0.250000  1
  Si  Si20  1  0.654595  0.970146  0.461619  1
  Si  Si21  1  0.154595  0.529854  0.038381  1
  Si  Si22  1  0.345405  0.029854  0.961619  1
  Si  Si23  1  0.845405  0.470146  0.538381  1
  Si  Si24  1  0.345405  0.029854  0.538381  1
  Si  Si25  1  0.845405  0.470146  0.961619  1
  Si  Si26  1  0.654595  0.970146  0.038381  1
  Si  Si27  1  0.154595  0.529854  0.461619  1
  Si  Si28  1  0.731994  0.865431  0.750000  1
  Si  Si29  1  0.231994  0.634569  0.750000  1
  Si  Si30  1  0.268006  0.134569  0.250000  1
  Si  Si31  1  0.768006  0.365431  0.250000  1
  Ir  Ir32  1  0.481910  0.400261  0.750000  1
  Ir  Ir33  1  0.981910  0.099739  0.750000  1
  Ir  Ir34  1  0.518090  0.599739  0.250000  1
  Ir  Ir35  1  0.018090  0.900261  0.250000  1
