# generated using pymatgen
data_YZn3CdIr
_symmetry_space_group_name_H-M   'P 1'
_cell_length_a   5.29259930
_cell_length_b   5.29259910
_cell_length_c   5.29259950
_cell_angle_alpha   60.05283334
_cell_angle_beta   60.05284551
_cell_angle_gamma   60.05282442
_symmetry_Int_Tables_number   1
_chemical_formula_structural   YZn3CdIr
_chemical_formula_sum   'Y1 Zn3 Cd1 Ir1'
_cell_volume   104.95709423
_cell_formula_units_Z   1
loop_
 _symmetry_equiv_pos_site_id
 _symmetry_equiv_pos_as_xyz
  1  'x, y, z'
loop_
 _atom_site_type_symbol
 _atom_site_label
 _atom_site_symmetry_multiplicity
 _atom_site_fract_x
 _atom_site_fract_y
 _atom_site_fract_z
 _atom_site_occupancy
  Y  Y0  1  0.996259  0.996259  0.996259  1
  Zn  Zn1  1  0.623908  0.623908  0.128992  1
  Zn  Zn2  1  0.623908  0.128992  0.623908  1
  Zn  Zn3  1  0.128992  0.623908  0.623908  1
  Cd  Cd4  1  0.250138  0.250138  0.250138  1
  Ir  Ir5  1  0.626796  0.626796  0.626796  1
