# generated using pymatgen
data_Th6TcHg7
_symmetry_space_group_name_H-M   'P 1'
_cell_length_a   8.48352574
_cell_length_b   8.48352515
_cell_length_c   8.48352658
_cell_angle_alpha   113.63429071
_cell_angle_beta   113.63430212
_cell_angle_gamma   113.63427729
_symmetry_Int_Tables_number   1
_chemical_formula_structural   Th6TcHg7
_chemical_formula_sum   'Th6 Tc1 Hg7'
_cell_volume   380.79658712
_cell_formula_units_Z   1
loop_
 _symmetry_equiv_pos_site_id
 _symmetry_equiv_pos_as_xyz
  1  'x, y, z'
loop_
 _atom_site_type_symbol
 _atom_site_label
 _atom_site_symmetry_multiplicity
 _atom_site_fract_x
 _atom_site_fract_y
 _atom_site_fract_z
 _atom_site_occupancy
  Th  Th0  1  0.008553  0.362000  0.250245  1
  Th  Th1  1  0.362000  0.250245  0.008553  1
  Th  Th2  1  0.749755  0.991447  0.638000  1
  Th  Th3  1  0.250245  0.008553  0.362000  1
  Th  Th4  1  0.638000  0.749755  0.991447  1
  Th  Th5  1  0.991447  0.638000  0.749755  1
  Tc  Tc6  1  0.000000  0.000000  0.000000  1
  Hg  Hg7  1  0.500000  0.500000  0.500000  1
  Hg  Hg8  1  0.408841  0.902764  0.740862  1
  Hg  Hg9  1  0.902764  0.740862  0.408841  1
  Hg  Hg10  1  0.259138  0.591159  0.097236  1
  Hg  Hg11  1  0.740862  0.408841  0.902764  1
  Hg  Hg12  1  0.097236  0.259138  0.591159  1
  Hg  Hg13  1  0.591159  0.097236  0.259138  1
