# generated using pymatgen
data_Zr4Nb4GaP3
_symmetry_space_group_name_H-M   'P 1'
_cell_length_a   3.58722200
_cell_length_b   6.99688489
_cell_length_c   8.47092947
_cell_angle_alpha   89.32881021
_cell_angle_beta   90.00000000
_cell_angle_gamma   90.00000000
_symmetry_Int_Tables_number   1
_chemical_formula_structural   Zr4Nb4GaP3
_chemical_formula_sum   'Zr4 Nb4 Ga1 P3'
_cell_volume   212.60048431
_cell_formula_units_Z   1
loop_
 _symmetry_equiv_pos_site_id
 _symmetry_equiv_pos_as_xyz
  1  'x, y, z'
loop_
 _atom_site_type_symbol
 _atom_site_label
 _atom_site_symmetry_multiplicity
 _atom_site_fract_x
 _atom_site_fract_y
 _atom_site_fract_z
 _atom_site_occupancy
  Zr  Zr0  1  0.250000  0.531342  0.839073  1
  Zr  Zr1  1  0.750000  0.961581  0.329703  1
  Zr  Zr2  1  0.250000  0.047001  0.668868  1
  Zr  Zr3  1  0.750000  0.464270  0.170867  1
  Nb  Nb4  1  0.250000  0.141042  0.060495  1
  Nb  Nb5  1  0.750000  0.867374  0.946228  1
  Nb  Nb6  1  0.250000  0.628281  0.432272  1
  Nb  Nb7  1  0.750000  0.360194  0.556599  1
  Ga  Ga8  1  0.750000  0.743612  0.641651  1
  P  P9  1  0.250000  0.762487  0.141124  1
  P  P10  1  0.750000  0.237836  0.855668  1
  P  P11  1  0.250000  0.254980  0.357452  1
