# generated using pymatgen
data_Th4Sc4Re(B8Mo)3
_symmetry_space_group_name_H-M   'P 1'
_cell_length_a   3.70037500
_cell_length_b   9.14558103
_cell_length_c   11.60292704
_cell_angle_alpha   89.99006562
_cell_angle_beta   90.00000000
_cell_angle_gamma   90.00000000
_symmetry_Int_Tables_number   1
_chemical_formula_structural   Th4Sc4Re(B8Mo)3
_chemical_formula_sum   'Th4 Sc4 Re1 B24 Mo3'
_cell_volume   392.66717261
_cell_formula_units_Z   1
loop_
 _symmetry_equiv_pos_site_id
 _symmetry_equiv_pos_as_xyz
  1  'x, y, z'
loop_
 _atom_site_type_symbol
 _atom_site_label
 _atom_site_symmetry_multiplicity
 _atom_site_fract_x
 _atom_site_fract_y
 _atom_site_fract_z
 _atom_site_occupancy
  Th  Th0  1  0.000000  0.320714  0.414553  1
  Th  Th1  1  0.000000  0.679435  0.585420  1
  Th  Th2  1  0.000000  0.820849  0.085189  1
  Th  Th3  1  0.000000  0.178673  0.914952  1
  Sc  Sc4  1  0.000000  0.944723  0.372034  1
  Sc  Sc5  1  0.000000  0.055009  0.628372  1
  Sc  Sc6  1  0.000000  0.445070  0.128166  1
  Sc  Sc7  1  0.000000  0.555807  0.871535  1
  Re  Re8  1  0.000000  0.858375  0.817160  1
  B  B9  1  0.500000  0.555568  0.430575  1
  B  B10  1  0.500000  0.444679  0.569657  1
  B  B11  1  0.500000  0.055481  0.069260  1
  B  B12  1  0.500000  0.942738  0.928777  1
  B  B13  1  0.500000  0.755881  0.416658  1
  B  B14  1  0.500000  0.244011  0.583590  1
  B  B15  1  0.500000  0.256153  0.083366  1
  B  B16  1  0.500000  0.746138  0.915139  1
  B  B17  1  0.500000  0.795579  0.265599  1
  B  B18  1  0.500000  0.203902  0.734623  1
  B  B19  1  0.500000  0.295470  0.234353  1
  B  B20  1  0.500000  0.706626  0.765898  1
  B  B21  1  0.500000  0.627934  0.182647  1
  B  B22  1  0.500000  0.372201  0.817492  1
  B  B23  1  0.500000  0.127564  0.317099  1
  B  B24  1  0.500000  0.871763  0.684578  1
  B  B25  1  0.500000  0.981709  0.215935  1
  B  B26  1  0.500000  0.015789  0.784668  1
  B  B27  1  0.500000  0.481980  0.283738  1
  B  B28  1  0.500000  0.518551  0.716279  1
  B  B29  1  0.500000  0.595348  0.025187  1
  B  B30  1  0.500000  0.405253  0.974239  1
  B  B31  1  0.500000  0.094922  0.474514  1
  B  B32  1  0.500000  0.905158  0.526188  1
  Mo  Mo33  1  0.000000  0.641520  0.317577  1
  Mo  Mo34  1  0.000000  0.358361  0.682941  1
  Mo  Mo35  1  0.000000  0.141066  0.182041  1
