# generated using pymatgen
data_Dy9ErOsRu3
_symmetry_space_group_name_H-M   'P 1'
_cell_length_a   6.35096693
_cell_length_b   7.30428539
_cell_length_c   8.48185459
_cell_angle_alpha   96.70775803
_cell_angle_beta   112.09190411
_cell_angle_gamma   90.00334515
_symmetry_Int_Tables_number   1
_chemical_formula_structural   Dy9ErOsRu3
_chemical_formula_sum   'Dy9 Er1 Os1 Ru3'
_cell_volume   361.66992912
_cell_formula_units_Z   1
loop_
 _symmetry_equiv_pos_site_id
 _symmetry_equiv_pos_as_xyz
  1  'x, y, z'
loop_
 _atom_site_type_symbol
 _atom_site_label
 _atom_site_symmetry_multiplicity
 _atom_site_fract_x
 _atom_site_fract_y
 _atom_site_fract_z
 _atom_site_occupancy
  Dy  Dy0  1  0.792051  0.583236  0.813381  1
  Dy  Dy1  1  0.976155  0.915556  0.183777  1
  Dy  Dy2  1  0.207495  0.415074  0.186081  1
  Dy  Dy3  1  0.023137  0.084715  0.814195  1
  Dy  Dy4  1  0.206903  0.685003  0.566186  1
  Dy  Dy5  1  0.639939  0.816158  0.435869  1
  Dy  Dy6  1  0.794127  0.315178  0.433739  1
  Dy  Dy7  1  0.359361  0.184490  0.565271  1
  Dy  Dy8  1  0.420212  0.749860  0.999246  1
  Er  Er9  1  0.579604  0.250476  0.000460  1
  Os  Os10  1  0.602807  0.924526  0.781389  1
  Ru  Ru11  1  0.823890  0.576052  0.220614  1
  Ru  Ru12  1  0.397136  0.076808  0.220040  1
  Ru  Ru13  1  0.177183  0.422867  0.779752  1
