# generated using pymatgen
data_HfSc7(InAu2)4
_symmetry_space_group_name_H-M   'P 1'
_cell_length_a   7.69253276
_cell_length_b   7.69253279
_cell_length_c   6.98405500
_cell_angle_alpha   90.00000000
_cell_angle_beta   90.00000000
_cell_angle_gamma   90.06115003
_symmetry_Int_Tables_number   1
_chemical_formula_structural   HfSc7(InAu2)4
_chemical_formula_sum   'Hf1 Sc7 In4 Au8'
_cell_volume   413.28164173
_cell_formula_units_Z   1
loop_
 _symmetry_equiv_pos_site_id
 _symmetry_equiv_pos_as_xyz
  1  'x, y, z'
loop_
 _atom_site_type_symbol
 _atom_site_label
 _atom_site_symmetry_multiplicity
 _atom_site_fract_x
 _atom_site_fract_y
 _atom_site_fract_z
 _atom_site_occupancy
  Hf  Hf0  1  0.184663  0.184663  0.500000  1
  Sc  Sc1  1  0.152190  0.152190  0.000000  1
  Sc  Sc2  1  0.847781  0.847781  0.000000  1
  Sc  Sc3  1  0.650202  0.345918  0.500000  1
  Sc  Sc4  1  0.345918  0.650202  0.500000  1
  Sc  Sc5  1  0.686056  0.315183  0.000000  1
  Sc  Sc6  1  0.315183  0.686056  0.000000  1
  Sc  Sc7  1  0.814932  0.814932  0.500000  1
  In  In8  1  0.501700  0.999741  0.250104  1
  In  In9  1  0.501700  0.999741  0.749896  1
  In  In10  1  0.999741  0.501700  0.250104  1
  In  In11  1  0.999741  0.501700  0.749896  1
  Au  Au12  1  0.368828  0.368828  0.218468  1
  Au  Au13  1  0.629661  0.629661  0.780237  1
  Au  Au14  1  0.629661  0.629661  0.219763  1
  Au  Au15  1  0.870554  0.131053  0.717112  1
  Au  Au16  1  0.870554  0.131053  0.282888  1
  Au  Au17  1  0.368828  0.368828  0.781532  1
  Au  Au18  1  0.131053  0.870554  0.282888  1
  Au  Au19  1  0.131053  0.870554  0.717112  1
