# generated using pymatgen
data_Ta9V4Ga
_symmetry_space_group_name_H-M   'P 1'
_cell_length_a   5.11073669
_cell_length_b   9.94683232
_cell_length_c   9.94683222
_cell_angle_alpha   86.15014476
_cell_angle_beta   75.08272366
_cell_angle_gamma   75.08273103
_symmetry_Int_Tables_number   1
_chemical_formula_structural   Ta9V4Ga
_chemical_formula_sum   'Ta18 V8 Ga2'
_cell_volume   472.14514975
_cell_formula_units_Z   2
loop_
 _symmetry_equiv_pos_site_id
 _symmetry_equiv_pos_as_xyz
  1  'x, y, z'
loop_
 _atom_site_type_symbol
 _atom_site_label
 _atom_site_symmetry_multiplicity
 _atom_site_fract_x
 _atom_site_fract_y
 _atom_site_fract_z
 _atom_site_occupancy
  Ta  Ta0  1  0.750000  0.500136  0.499864  1
  Ta  Ta1  1  0.250000  0.499864  0.500136  1
  Ta  Ta2  1  0.793600  0.771700  0.641208  1
  Ta  Ta3  1  0.206400  0.228300  0.358792  1
  Ta  Ta4  1  0.706400  0.358792  0.228300  1
  Ta  Ta5  1  0.293600  0.641208  0.771700  1
  Ta  Ta6  1  0.564845  0.641348  0.228357  1
  Ta  Ta7  1  0.435155  0.358652  0.771643  1
  Ta  Ta8  1  0.064845  0.228357  0.641348  1
  Ta  Ta9  1  0.935155  0.771643  0.358652  1
  Ta  Ta10  1  0.585788  0.074480  0.753437  1
  Ta  Ta11  1  0.414212  0.925520  0.246563  1
  Ta  Ta12  1  0.914212  0.246563  0.925520  1
  Ta  Ta13  1  0.085788  0.753437  0.074480  1
  Ta  Ta14  1  0.660346  0.753233  0.925628  1
  Ta  Ta15  1  0.339654  0.246767  0.074372  1
  Ta  Ta16  1  0.160346  0.925628  0.753233  1
  Ta  Ta17  1  0.839654  0.074372  0.246767  1
  V  V18  1  0.500000  0.000000  0.500000  1
  V  V19  1  0.000000  0.000000  0.500000  1
  V  V20  1  0.500000  0.500000  0.000000  1
  V  V21  1  0.000000  0.500000  0.000000  1
  V  V22  1  0.133395  0.500188  0.233127  1
  V  V23  1  0.866605  0.499812  0.766873  1
  V  V24  1  0.366605  0.766873  0.499812  1
  V  V25  1  0.633395  0.233127  0.500188  1
  Ga  Ga26  1  0.250000  0.000048  0.999952  1
  Ga  Ga27  1  0.750000  0.999952  0.000048  1
