# generated using pymatgen
data_Cs2Al(S2O7)3
_symmetry_space_group_name_H-M   'P 1'
_cell_length_a   9.92077400
_cell_length_b   9.92077410
_cell_length_c   11.42496800
_cell_angle_alpha   90.00000000
_cell_angle_beta   90.00000000
_cell_angle_gamma   119.99999300
_symmetry_Int_Tables_number   1
_chemical_formula_structural   Cs2Al(S2O7)3
_chemical_formula_sum   'Cs4 Al2 S12 O42'
_cell_volume   973.81569897
_cell_formula_units_Z   2
loop_
 _symmetry_equiv_pos_site_id
 _symmetry_equiv_pos_as_xyz
  1  'x, y, z'
loop_
 _atom_site_type_symbol
 _atom_site_label
 _atom_site_symmetry_multiplicity
 _atom_site_fract_x
 _atom_site_fract_y
 _atom_site_fract_z
 _atom_site_occupancy
  Cs  Cs0  1  0.666667  0.333333  0.561616  1
  Cs  Cs1  1  0.333333  0.666667  0.438384  1
  Cs  Cs2  1  0.333333  0.666667  0.880804  1
  Cs  Cs3  1  0.666667  0.333333  0.119196  1
  Al  Al4  1  0.000000  0.000000  0.756345  1
  Al  Al5  1  0.000000  0.000000  0.243655  1
  S  S6  1  0.082074  0.330830  0.660237  1
  S  S7  1  0.248756  0.917926  0.660237  1
  S  S8  1  0.669170  0.751244  0.660237  1
  S  S9  1  0.917926  0.669170  0.339763  1
  S  S10  1  0.751244  0.082074  0.339763  1
  S  S11  1  0.330830  0.248756  0.339763  1
  S  S12  1  0.807159  0.659729  0.845850  1
  S  S13  1  0.852570  0.192841  0.845850  1
  S  S14  1  0.340271  0.147430  0.845850  1
  S  S15  1  0.192841  0.340271  0.154150  1
  S  S16  1  0.147430  0.807159  0.154150  1
  S  S17  1  0.659729  0.852570  0.154150  1
  O  O18  1  0.658874  0.675810  0.791253  1
  O  O19  1  0.016934  0.341126  0.791253  1
  O  O20  1  0.324190  0.983066  0.791253  1
  O  O21  1  0.341126  0.324190  0.208747  1
  O  O22  1  0.983066  0.658874  0.208747  1
  O  O23  1  0.675810  0.016934  0.208747  1
  O  O24  1  0.936511  0.824599  0.852837  1
  O  O25  1  0.888090  0.063489  0.852837  1
  O  O26  1  0.175401  0.111910  0.852837  1
  O  O27  1  0.063489  0.175401  0.147163  1
  O  O28  1  0.111910  0.936511  0.147163  1
  O  O29  1  0.824599  0.888090  0.147163  1
  O  O30  1  0.059327  0.171077  0.654964  1
  O  O31  1  0.111749  0.940673  0.654964  1
  O  O32  1  0.828923  0.888251  0.654964  1
  O  O33  1  0.940673  0.828923  0.345036  1
  O  O34  1  0.888251  0.059327  0.345036  1
  O  O35  1  0.171077  0.111749  0.345036  1
  O  O36  1  0.840176  0.569076  0.764577  1
  O  O37  1  0.728899  0.159824  0.764577  1
  O  O38  1  0.430924  0.271101  0.764577  1
  O  O39  1  0.159824  0.430924  0.235423  1
  O  O40  1  0.271101  0.840176  0.235423  1
  O  O41  1  0.569076  0.728899  0.235423  1
  O  O42  1  0.748841  0.596959  0.959726  1
  O  O43  1  0.848118  0.251159  0.959726  1
  O  O44  1  0.403041  0.151882  0.959726  1
  O  O45  1  0.251159  0.403041  0.040274  1
  O  O46  1  0.151882  0.748841  0.040274  1
  O  O47  1  0.596959  0.848118  0.040274  1
  O  O48  1  0.243807  0.449409  0.667026  1
  O  O49  1  0.205600  0.756193  0.667026  1
  O  O50  1  0.550591  0.794400  0.667026  1
  O  O51  1  0.756193  0.550591  0.332974  1
  O  O52  1  0.794400  0.243807  0.332974  1
  O  O53  1  0.449409  0.205600  0.332974  1
  O  O54  1  0.989302  0.352204  0.573208  1
  O  O55  1  0.362902  0.010698  0.573208  1
  O  O56  1  0.647796  0.637098  0.573208  1
  O  O57  1  0.010698  0.647796  0.426792  1
  O  O58  1  0.637098  0.989302  0.426792  1
  O  O59  1  0.352204  0.362902  0.426792  1
