# generated using pymatgen
data_La8Y11Si16Au
_symmetry_space_group_name_H-M   'P 1'
_cell_length_a   7.49051626
_cell_length_b   7.87021814
_cell_length_c   15.02522200
_cell_angle_alpha   90.00000000
_cell_angle_beta   90.00000000
_cell_angle_gamma   89.82109483
_symmetry_Int_Tables_number   1
_chemical_formula_structural   La8Y11Si16Au
_chemical_formula_sum   'La8 Y11 Si16 Au1'
_cell_volume   885.76252379
_cell_formula_units_Z   1
loop_
 _symmetry_equiv_pos_site_id
 _symmetry_equiv_pos_as_xyz
  1  'x, y, z'
loop_
 _atom_site_type_symbol
 _atom_site_label
 _atom_site_symmetry_multiplicity
 _atom_site_fract_x
 _atom_site_fract_y
 _atom_site_fract_z
 _atom_site_occupancy
  La  La0  1  0.016984  0.174140  0.097699  1
  La  La1  1  0.986166  0.806853  0.896542  1
  La  La2  1  0.469069  0.674402  0.895869  1
  La  La3  1  0.986166  0.806853  0.603458  1
  La  La4  1  0.518020  0.322293  0.097477  1
  La  La5  1  0.016984  0.174140  0.402301  1
  La  La6  1  0.518020  0.322293  0.402523  1
  La  La7  1  0.469069  0.674402  0.604131  1
  Y  Y8  1  0.841797  0.489919  0.250000  1
  Y  Y9  1  0.344324  0.011021  0.250000  1
  Y  Y10  1  0.652895  0.994954  0.750000  1
  Y  Y11  1  0.318819  0.191959  0.626830  1
  Y  Y12  1  0.677825  0.822893  0.378756  1
  Y  Y13  1  0.177331  0.681959  0.375013  1
  Y  Y14  1  0.677825  0.822893  0.121244  1
  Y  Y15  1  0.838758  0.328573  0.626608  1
  Y  Y16  1  0.318819  0.191959  0.873170  1
  Y  Y17  1  0.838758  0.328573  0.873392  1
  Y  Y18  1  0.177331  0.681959  0.124987  1
  Si  Si19  1  0.025304  0.089398  0.750000  1
  Si  Si20  1  0.968726  0.887944  0.250000  1
  Si  Si21  1  0.471285  0.619610  0.250000  1
  Si  Si22  1  0.541312  0.388271  0.750000  1
  Si  Si23  1  0.278141  0.895471  0.750000  1
  Si  Si24  1  0.723219  0.119513  0.250000  1
  Si  Si25  1  0.222292  0.378430  0.250000  1
  Si  Si26  1  0.763353  0.620758  0.750000  1
  Si  Si27  1  0.150974  0.461043  0.526960  1
  Si  Si28  1  0.855097  0.529685  0.460386  1
  Si  Si29  1  0.354208  0.968772  0.466207  1
  Si  Si30  1  0.855097  0.529685  0.039614  1
  Si  Si31  1  0.647505  0.029948  0.542520  1
  Si  Si32  1  0.150974  0.461043  0.973040  1
  Si  Si33  1  0.647505  0.029948  0.957480  1
  Si  Si34  1  0.354208  0.968772  0.033793  1
  Au  Au35  1  0.145843  0.519673  0.750000  1
