# generated using pymatgen
data_Sm5Tc3(Ni4P3)4
_symmetry_space_group_name_H-M   'P 1'
_cell_length_a   12.24917800
_cell_length_b   12.24917822
_cell_length_c   3.77666100
_cell_angle_alpha   90.00000000
_cell_angle_beta   90.00000000
_cell_angle_gamma   120.00000481
_symmetry_Int_Tables_number   1
_chemical_formula_structural   Sm5Tc3(Ni4P3)4
_chemical_formula_sum   'Sm5 Tc3 Ni16 P12'
_cell_volume   490.74119183
_cell_formula_units_Z   1
loop_
 _symmetry_equiv_pos_site_id
 _symmetry_equiv_pos_as_xyz
  1  'x, y, z'
loop_
 _atom_site_type_symbol
 _atom_site_label
 _atom_site_symmetry_multiplicity
 _atom_site_fract_x
 _atom_site_fract_y
 _atom_site_fract_z
 _atom_site_occupancy
  Sm  Sm0  1  0.666667  0.333333  0.000000  1
  Sm  Sm1  1  0.333333  0.666667  0.000000  1
  Sm  Sm2  1  0.814054  0.814054  0.500000  1
  Sm  Sm3  1  0.185946  0.000000  0.500000  1
  Sm  Sm4  1  0.000000  0.185946  0.500000  1
  Tc  Tc5  1  0.442044  0.442044  0.000000  1
  Tc  Tc6  1  0.557956  0.000000  0.000000  1
  Tc  Tc7  1  0.000000  0.557956  0.000000  1
  Ni  Ni8  1  0.874926  0.358757  0.500000  1
  Ni  Ni9  1  0.641243  0.516170  0.500000  1
  Ni  Ni10  1  0.483830  0.125074  0.500000  1
  Ni  Ni11  1  0.358757  0.874926  0.500000  1
  Ni  Ni12  1  0.516170  0.641243  0.500000  1
  Ni  Ni13  1  0.125074  0.483830  0.500000  1
  Ni  Ni14  1  0.805934  0.184321  0.000000  1
  Ni  Ni15  1  0.815679  0.621613  0.000000  1
  Ni  Ni16  1  0.378387  0.194066  0.000000  1
  Ni  Ni17  1  0.184321  0.805934  0.000000  1
  Ni  Ni18  1  0.621613  0.815679  0.000000  1
  Ni  Ni19  1  0.194066  0.378387  0.000000  1
  Ni  Ni20  1  0.281972  0.281972  0.500000  1
  Ni  Ni21  1  0.718028  0.000000  0.500000  1
  Ni  Ni22  1  0.000000  0.718028  0.500000  1
  Ni  Ni23  1  0.000000  0.000000  0.000000  1
  P  P24  1  0.684953  0.162313  0.500000  1
  P  P25  1  0.837687  0.522640  0.500000  1
  P  P26  1  0.477360  0.315047  0.500000  1
  P  P27  1  0.162313  0.684953  0.500000  1
  P  P28  1  0.522640  0.837687  0.500000  1
  P  P29  1  0.315047  0.477360  0.500000  1
  P  P30  1  0.180459  0.180459  0.000000  1
  P  P31  1  0.819541  0.000000  0.000000  1
  P  P32  1  0.000000  0.819541  0.000000  1
  P  P33  1  0.632129  0.632129  0.000000  1
  P  P34  1  0.367871  0.000000  0.000000  1
  P  P35  1  0.000000  0.367871  0.000000  1
