# generated using pymatgen
data_NdHf4Pa3(ReB6)4
_symmetry_space_group_name_H-M   'P 1'
_cell_length_a   3.62704700
_cell_length_b   9.05970390
_cell_length_c   11.45452317
_cell_angle_alpha   89.95137981
_cell_angle_beta   90.00000000
_cell_angle_gamma   90.00000000
_symmetry_Int_Tables_number   1
_chemical_formula_structural   NdHf4Pa3(ReB6)4
_chemical_formula_sum   'Nd1 Hf4 Pa3 Re4 B24'
_cell_volume   376.39517346
_cell_formula_units_Z   1
loop_
 _symmetry_equiv_pos_site_id
 _symmetry_equiv_pos_as_xyz
  1  'x, y, z'
loop_
 _atom_site_type_symbol
 _atom_site_label
 _atom_site_symmetry_multiplicity
 _atom_site_fract_x
 _atom_site_fract_y
 _atom_site_fract_z
 _atom_site_occupancy
  Nd  Nd0  1  0.000000  0.678604  0.587230  1
  Hf  Hf1  1  0.000000  0.445804  0.125253  1
  Hf  Hf2  1  0.000000  0.554620  0.875008  1
  Hf  Hf3  1  0.000000  0.945414  0.375178  1
  Hf  Hf4  1  0.000000  0.054459  0.625250  1
  Pa  Pa5  1  0.000000  0.823449  0.086955  1
  Pa  Pa6  1  0.000000  0.176531  0.913255  1
  Pa  Pa7  1  0.000000  0.323260  0.412647  1
  Re  Re8  1  0.000000  0.141345  0.179833  1
  Re  Re9  1  0.000000  0.860760  0.822159  1
  Re  Re10  1  0.000000  0.642082  0.316020  1
  Re  Re11  1  0.000000  0.355618  0.682029  1
  B  B12  1  0.500000  0.054102  0.067085  1
  B  B13  1  0.500000  0.946679  0.934181  1
  B  B14  1  0.500000  0.552509  0.430089  1
  B  B15  1  0.500000  0.442375  0.566957  1
  B  B16  1  0.500000  0.253007  0.080374  1
  B  B17  1  0.500000  0.747305  0.919514  1
  B  B18  1  0.500000  0.753642  0.416763  1
  B  B19  1  0.500000  0.246081  0.580202  1
  B  B20  1  0.500000  0.295998  0.234582  1
  B  B21  1  0.500000  0.704657  0.767058  1
  B  B22  1  0.500000  0.796668  0.264924  1
  B  B23  1  0.500000  0.203700  0.734772  1
  B  B24  1  0.500000  0.130912  0.317400  1
  B  B25  1  0.500000  0.871269  0.684631  1
  B  B26  1  0.500000  0.631256  0.182397  1
  B  B27  1  0.500000  0.368229  0.817346  1
  B  B28  1  0.500000  0.480725  0.284524  1
  B  B29  1  0.500000  0.516862  0.716588  1
  B  B30  1  0.500000  0.981589  0.215907  1
  B  B31  1  0.500000  0.018384  0.784954  1
  B  B32  1  0.500000  0.099156  0.472893  1
  B  B33  1  0.500000  0.903180  0.526485  1
  B  B34  1  0.500000  0.600326  0.027064  1
  B  B35  1  0.500000  0.399439  0.972488  1
