# generated using pymatgen
data_Eu5Si2SbH
_symmetry_space_group_name_H-M   'P 1'
_cell_length_a   9.34591802
_cell_length_b   9.34591828
_cell_length_c   9.34591733
_cell_angle_alpha   128.92603581
_cell_angle_beta   128.92603946
_cell_angle_gamma   75.12961079
_symmetry_Int_Tables_number   1
_chemical_formula_structural   Eu5Si2SbH
_chemical_formula_sum   'Eu10 Si4 Sb2 H2'
_cell_volume   481.01460368
_cell_formula_units_Z   2
loop_
 _symmetry_equiv_pos_site_id
 _symmetry_equiv_pos_as_xyz
  1  'x, y, z'
loop_
 _atom_site_type_symbol
 _atom_site_label
 _atom_site_symmetry_multiplicity
 _atom_site_fract_x
 _atom_site_fract_y
 _atom_site_fract_z
 _atom_site_occupancy
  Eu  Eu0  1  0.500000  0.500000  0.000000  1
  Eu  Eu1  1  0.000000  0.000000  0.000000  1
  Eu  Eu2  1  0.523101  0.023101  0.832139  1
  Eu  Eu3  1  0.190962  0.690962  0.167861  1
  Eu  Eu4  1  0.023101  0.190962  0.500000  1
  Eu  Eu5  1  0.690962  0.523101  0.500000  1
  Eu  Eu6  1  0.476899  0.976899  0.167861  1
  Eu  Eu7  1  0.809038  0.309038  0.832139  1
  Eu  Eu8  1  0.976899  0.809038  0.500000  1
  Eu  Eu9  1  0.309038  0.476899  0.500000  1
  Si  Si10  1  0.887548  0.387548  0.275096  1
  Si  Si11  1  0.112452  0.612452  0.724904  1
  Si  Si12  1  0.387548  0.112452  0.500000  1
  Si  Si13  1  0.612452  0.887548  0.500000  1
  Sb  Sb14  1  0.250000  0.250000  0.000000  1
  Sb  Sb15  1  0.750000  0.750000  0.000000  1
  H  H16  1  0.250000  0.750000  0.500000  1
  H  H17  1  0.750000  0.250000  0.500000  1
