# generated using pymatgen
data_La10Dy7Y3Sn16
_symmetry_space_group_name_H-M   'P 1'
_cell_length_a   8.25867906
_cell_length_b   8.40917514
_cell_length_c   15.89988800
_cell_angle_alpha   90.00827838
_cell_angle_beta   89.99317336
_cell_angle_gamma   89.99346686
_symmetry_Int_Tables_number   1
_chemical_formula_structural   La10Dy7Y3Sn16
_chemical_formula_sum   'La10 Dy7 Y3 Sn16'
_cell_volume   1104.22618573
_cell_formula_units_Z   1
loop_
 _symmetry_equiv_pos_site_id
 _symmetry_equiv_pos_as_xyz
  1  'x, y, z'
loop_
 _atom_site_type_symbol
 _atom_site_label
 _atom_site_symmetry_multiplicity
 _atom_site_fract_x
 _atom_site_fract_y
 _atom_site_fract_z
 _atom_site_occupancy
  La  La0  1  0.359242  0.836369  0.616951  1
  La  La1  1  0.859141  0.663786  0.883030  1
  La  La2  1  0.514189  0.320077  0.904773  1
  La  La3  1  0.014411  0.179964  0.595362  1
  La  La4  1  0.486713  0.679867  0.401856  1
  La  La5  1  0.986798  0.820231  0.098192  1
  La  La6  1  0.486716  0.677629  0.098453  1
  La  La7  1  0.986738  0.822358  0.401441  1
  La  La8  1  0.511538  0.319597  0.595065  1
  La  La9  1  0.011593  0.180326  0.904934  1
  Dy  Dy10  1  0.355637  0.836927  0.876838  1
  Dy  Dy11  1  0.855709  0.663146  0.623149  1
  Dy  Dy12  1  0.643584  0.160102  0.376896  1
  Dy  Dy13  1  0.143838  0.339747  0.123101  1
  Dy  Dy14  1  0.641375  0.162183  0.126645  1
  Dy  Dy15  1  0.141598  0.337627  0.373404  1
  Dy  Dy16  1  0.308192  0.003576  0.248698  1
  Y  Y17  1  0.191598  0.502052  0.750652  1
  Y  Y18  1  0.691651  0.997917  0.749340  1
  Y  Y19  1  0.808347  0.496552  0.251299  1
  Sn  Sn20  1  0.306544  0.041213  0.042567  1
  Sn  Sn21  1  0.806518  0.458736  0.457536  1
  Sn  Sn22  1  0.707357  0.961436  0.541304  1
  Sn  Sn23  1  0.207130  0.538560  0.958721  1
  Sn  Sn24  1  0.684217  0.966160  0.959796  1
  Sn  Sn25  1  0.184252  0.533917  0.540220  1
  Sn  Sn26  1  0.303201  0.046012  0.450946  1
  Sn  Sn27  1  0.803383  0.453477  0.048833  1
  Sn  Sn28  1  0.556280  0.621638  0.748767  1
  Sn  Sn29  1  0.056358  0.878355  0.751215  1
  Sn  Sn30  1  0.445368  0.374228  0.251123  1
  Sn  Sn31  1  0.945422  0.125649  0.248928  1
  Sn  Sn32  1  0.318926  0.144063  0.751590  1
  Sn  Sn33  1  0.818815  0.356087  0.748426  1
  Sn  Sn34  1  0.678390  0.857918  0.250406  1
  Sn  Sn35  1  0.179230  0.642523  0.249543  1
