# generated using pymatgen
data_Lu3Tc(P3Rh4)2
_symmetry_space_group_name_H-M   'P 1'
_cell_length_a   3.89493900
_cell_length_b   11.12952300
_cell_length_c   12.72606300
_cell_angle_alpha   90.00000000
_cell_angle_beta   90.00000000
_cell_angle_gamma   90.00000000
_symmetry_Int_Tables_number   1
_chemical_formula_structural   Lu3Tc(P3Rh4)2
_chemical_formula_sum   'Lu6 Tc2 P12 Rh16'
_cell_volume   551.65972756
_cell_formula_units_Z   2
loop_
 _symmetry_equiv_pos_site_id
 _symmetry_equiv_pos_as_xyz
  1  'x, y, z'
loop_
 _atom_site_type_symbol
 _atom_site_label
 _atom_site_symmetry_multiplicity
 _atom_site_fract_x
 _atom_site_fract_y
 _atom_site_fract_z
 _atom_site_occupancy
  Lu  Lu0  1  0.000000  0.500000  0.523238  1
  Lu  Lu1  1  0.500000  0.000000  0.476762  1
  Lu  Lu2  1  0.500000  0.815285  0.205495  1
  Lu  Lu3  1  0.500000  0.184715  0.205495  1
  Lu  Lu4  1  0.000000  0.684715  0.794505  1
  Lu  Lu5  1  0.000000  0.315285  0.794505  1
  Tc  Tc6  1  0.500000  0.500000  0.158182  1
  Tc  Tc7  1  0.000000  0.000000  0.841818  1
  P  P8  1  0.500000  0.500000  0.873575  1
  P  P9  1  0.000000  0.000000  0.126425  1
  P  P10  1  0.500000  0.500000  0.347567  1
  P  P11  1  0.000000  0.000000  0.652433  1
  P  P12  1  0.500000  0.315541  0.619182  1
  P  P13  1  0.500000  0.684459  0.619182  1
  P  P14  1  0.000000  0.184459  0.380818  1
  P  P15  1  0.000000  0.815541  0.380818  1
  P  P16  1  0.500000  0.849436  0.888207  1
  P  P17  1  0.500000  0.150564  0.888207  1
  P  P18  1  0.000000  0.650564  0.111793  1
  P  P19  1  0.000000  0.349436  0.111793  1
  Rh  Rh20  1  0.500000  0.500000  0.697404  1
  Rh  Rh21  1  0.000000  0.000000  0.302596  1
  Rh  Rh22  1  0.000000  0.500000  0.985326  1
  Rh  Rh23  1  0.500000  0.000000  0.014674  1
  Rh  Rh24  1  0.500000  0.330993  0.980748  1
  Rh  Rh25  1  0.500000  0.669007  0.980748  1
  Rh  Rh26  1  0.000000  0.169007  0.019252  1
  Rh  Rh27  1  0.000000  0.830993  0.019252  1
  Rh  Rh28  1  0.500000  0.297831  0.432818  1
  Rh  Rh29  1  0.500000  0.702169  0.432818  1
  Rh  Rh30  1  0.000000  0.202169  0.567182  1
  Rh  Rh31  1  0.000000  0.797831  0.567182  1
  Rh  Rh32  1  0.500000  0.874299  0.709060  1
  Rh  Rh33  1  0.500000  0.125701  0.709060  1
  Rh  Rh34  1  0.000000  0.625701  0.290940  1
  Rh  Rh35  1  0.000000  0.374299  0.290940  1
