# generated using pymatgen
data_Ho3Er13Zn3InRh4
_symmetry_space_group_name_H-M   'P 1'
_cell_length_a   9.47472323
_cell_length_b   9.47051928
_cell_length_c   9.47538432
_cell_angle_alpha   59.80088012
_cell_angle_beta   59.85250875
_cell_angle_gamma   59.85439350
_symmetry_Int_Tables_number   1
_chemical_formula_structural   Ho3Er13Zn3InRh4
_chemical_formula_sum   'Ho3 Er13 Zn3 In1 Rh4'
_cell_volume   598.96533824
_cell_formula_units_Z   1
loop_
 _symmetry_equiv_pos_site_id
 _symmetry_equiv_pos_as_xyz
  1  'x, y, z'
loop_
 _atom_site_type_symbol
 _atom_site_label
 _atom_site_symmetry_multiplicity
 _atom_site_fract_x
 _atom_site_fract_y
 _atom_site_fract_z
 _atom_site_occupancy
  Ho  Ho0  1  0.190637  0.190679  0.810115  1
  Ho  Ho1  1  0.436146  0.063279  0.063032  1
  Ho  Ho2  1  0.434192  0.059921  0.434113  1
  Er  Er3  1  0.062927  0.436421  0.063308  1
  Er  Er4  1  0.647480  0.057165  0.647048  1
  Er  Er5  1  0.191672  0.808888  0.809415  1
  Er  Er6  1  0.062679  0.063389  0.436152  1
  Er  Er7  1  0.810061  0.190596  0.190809  1
  Er  Er8  1  0.809571  0.809066  0.191617  1
  Er  Er9  1  0.647328  0.646950  0.057436  1
  Er  Er10  1  0.647816  0.647793  0.647609  1
  Er  Er11  1  0.059540  0.434652  0.434069  1
  Er  Er12  1  0.057326  0.647275  0.647163  1
  Er  Er13  1  0.809133  0.191692  0.809273  1
  Er  Er14  1  0.434208  0.434744  0.059661  1
  Er  Er15  1  0.190622  0.809815  0.190851  1
  Zn  Zn16  1  0.421137  0.743127  0.421339  1
  Zn  Zn17  1  0.421142  0.421274  0.743440  1
  Zn  Zn18  1  0.743637  0.421039  0.421129  1
  In  In19  1  0.422209  0.422156  0.422040  1
  Rh  Rh20  1  0.856645  0.429905  0.856719  1
  Rh  Rh21  1  0.856897  0.856735  0.429741  1
  Rh  Rh22  1  0.429920  0.856414  0.856881  1
  Rh  Rh23  1  0.857076  0.857027  0.857039  1
