# generated using pymatgen
data_Zr2Ni11P7W
_symmetry_space_group_name_H-M   'P 1'
_cell_length_a   9.03194851
_cell_length_b   9.05345919
_cell_length_c   3.62324600
_cell_angle_alpha   90.00000000
_cell_angle_beta   90.00000000
_cell_angle_gamma   120.20955975
_symmetry_Int_Tables_number   1
_chemical_formula_structural   Zr2Ni11P7W
_chemical_formula_sum   'Zr2 Ni11 P7 W1'
_cell_volume   256.03744942
_cell_formula_units_Z   1
loop_
 _symmetry_equiv_pos_site_id
 _symmetry_equiv_pos_as_xyz
  1  'x, y, z'
loop_
 _atom_site_type_symbol
 _atom_site_label
 _atom_site_symmetry_multiplicity
 _atom_site_fract_x
 _atom_site_fract_y
 _atom_site_fract_z
 _atom_site_occupancy
  Zr  Zr0  1  0.002026  0.004741  0.000000  1
  Zr  Zr1  1  0.332214  0.667128  0.500000  1
  Ni  Ni2  1  0.295359  0.396309  0.000000  1
  Ni  Ni3  1  0.102349  0.708378  0.000000  1
  Ni  Ni4  1  0.537661  0.428362  0.500000  1
  Ni  Ni5  1  0.386941  0.173739  0.000000  1
  Ni  Ni6  1  0.786825  0.617689  0.000000  1
  Ni  Ni7  1  0.824718  0.207029  0.000000  1
  Ni  Ni8  1  0.233547  0.945768  0.500000  1
  Ni  Ni9  1  0.055181  0.282651  0.500000  1
  Ni  Ni10  1  0.713114  0.767327  0.500000  1
  Ni  Ni11  1  0.574341  0.112094  0.500000  1
  Ni  Ni12  1  0.605291  0.896539  0.000000  1
  P  P13  1  0.662159  0.330802  0.000000  1
  P  P14  1  0.082171  0.451049  0.000000  1
  P  P15  1  0.257551  0.213168  0.500000  1
  P  P16  1  0.785144  0.041998  0.500000  1
  P  P17  1  0.958778  0.750904  0.500000  1
  P  P18  1  0.546712  0.627648  0.000000  1
  P  P19  1  0.375969  0.921653  0.000000  1
  W  W20  1  0.881949  0.455025  0.500000  1
