# generated using pymatgen
data_Sm4Co4HgBr
_symmetry_space_group_name_H-M   'P 1'
_cell_length_a   3.91056600
_cell_length_b   3.91056693
_cell_length_c   17.13809300
_cell_angle_alpha   90.00000000
_cell_angle_beta   90.00000000
_cell_angle_gamma   120.00000902
_symmetry_Int_Tables_number   1
_chemical_formula_structural   Sm4Co4HgBr
_chemical_formula_sum   'Sm4 Co4 Hg1 Br1'
_cell_volume   226.97207664
_cell_formula_units_Z   1
loop_
 _symmetry_equiv_pos_site_id
 _symmetry_equiv_pos_as_xyz
  1  'x, y, z'
loop_
 _atom_site_type_symbol
 _atom_site_label
 _atom_site_symmetry_multiplicity
 _atom_site_fract_x
 _atom_site_fract_y
 _atom_site_fract_z
 _atom_site_occupancy
  Sm  Sm0  1  0.000000  0.000000  0.108646  1
  Sm  Sm1  1  0.000000  0.000000  0.391354  1
  Sm  Sm2  1  0.000000  0.000000  0.889324  1
  Sm  Sm3  1  0.000000  0.000000  0.610676  1
  Co  Co4  1  0.333333  0.666667  0.003395  1
  Co  Co5  1  0.666667  0.333333  0.002050  1
  Co  Co6  1  0.333333  0.666667  0.496605  1
  Co  Co7  1  0.666667  0.333333  0.497950  1
  Hg  Hg8  1  0.333333  0.666667  0.750000  1
  Br  Br9  1  0.666667  0.333333  0.250000  1
