# generated using pymatgen
data_Zr6AlIn3(GaPt3)2
_symmetry_space_group_name_H-M   'P 1'
_cell_length_a   7.37083050
_cell_length_b   7.37082992
_cell_length_c   7.20159005
_cell_angle_alpha   89.85177417
_cell_angle_beta   90.14822836
_cell_angle_gamma   120.03559981
_symmetry_Int_Tables_number   1
_chemical_formula_structural   Zr6AlIn3(GaPt3)2
_chemical_formula_sum   'Zr6 Al1 In3 Ga2 Pt6'
_cell_volume   338.71466456
_cell_formula_units_Z   1
loop_
 _symmetry_equiv_pos_site_id
 _symmetry_equiv_pos_as_xyz
  1  'x, y, z'
loop_
 _atom_site_type_symbol
 _atom_site_label
 _atom_site_symmetry_multiplicity
 _atom_site_fract_x
 _atom_site_fract_y
 _atom_site_fract_z
 _atom_site_occupancy
  Zr  Zr0  1  0.385283  0.409241  0.744946  1
  Zr  Zr1  1  0.024021  0.613235  0.744460  1
  Zr  Zr2  1  0.588625  0.976485  0.745146  1
  Zr  Zr3  1  0.613235  0.024021  0.255540  1
  Zr  Zr4  1  0.976485  0.588625  0.254854  1
  Zr  Zr5  1  0.409241  0.385283  0.255054  1
  Al  Al6  1  0.718644  0.718644  0.500000  1
  In  In7  1  0.255138  0.999672  0.000073  1
  In  In8  1  0.743818  0.743818  0.000000  1
  In  In9  1  0.999672  0.255138  0.999927  1
  Ga  Ga10  1  0.284937  0.999225  0.500089  1
  Ga  Ga11  1  0.999225  0.284937  0.499911  1
  Pt  Pt12  1  0.666738  0.333359  0.960069  1
  Pt  Pt13  1  0.997497  0.997619  0.709233  1
  Pt  Pt14  1  0.667233  0.339229  0.535939  1
  Pt  Pt15  1  0.339229  0.667233  0.464061  1
  Pt  Pt16  1  0.333359  0.666738  0.039931  1
  Pt  Pt17  1  0.997619  0.997497  0.290767  1
