# generated using pymatgen
data_Sr2Si2Os2C
_symmetry_space_group_name_H-M   'P 1'
_cell_length_a   6.32224655
_cell_length_b   6.32224676
_cell_length_c   7.43144334
_cell_angle_alpha   128.37624417
_cell_angle_beta   128.37624640
_cell_angle_gamma   38.81541789
_symmetry_Int_Tables_number   1
_chemical_formula_structural   Sr2Si2Os2C
_chemical_formula_sum   'Sr2 Si2 Os2 C1'
_cell_volume   140.16724242
_cell_formula_units_Z   1
loop_
 _symmetry_equiv_pos_site_id
 _symmetry_equiv_pos_as_xyz
  1  'x, y, z'
loop_
 _atom_site_type_symbol
 _atom_site_label
 _atom_site_symmetry_multiplicity
 _atom_site_fract_x
 _atom_site_fract_y
 _atom_site_fract_z
 _atom_site_occupancy
  Sr  Sr0  1  0.435261  0.435261  0.181358  1
  Sr  Sr1  1  0.564739  0.564739  0.818642  1
  Si  Si2  1  0.816833  0.816833  0.382134  1
  Si  Si3  1  0.183167  0.183167  0.617866  1
  Os  Os4  1  0.193812  0.193812  0.304802  1
  Os  Os5  1  0.806187  0.806187  0.695198  1
  C  C6  1  0.000000  0.000000  0.000000  1
