# generated using pymatgen
data_Tb8Nb12Si15B
_symmetry_space_group_name_H-M   'P 1'
_cell_length_a   6.87438827
_cell_length_b   7.06896751
_cell_length_c   13.44205300
_cell_angle_alpha   90.00000000
_cell_angle_beta   90.00000000
_cell_angle_gamma   89.63969072
_symmetry_Int_Tables_number   1
_chemical_formula_structural   Tb8Nb12Si15B
_chemical_formula_sum   'Tb8 Nb12 Si15 B1'
_cell_volume   653.20132884
_cell_formula_units_Z   1
loop_
 _symmetry_equiv_pos_site_id
 _symmetry_equiv_pos_as_xyz
  1  'x, y, z'
loop_
 _atom_site_type_symbol
 _atom_site_label
 _atom_site_symmetry_multiplicity
 _atom_site_fract_x
 _atom_site_fract_y
 _atom_site_fract_z
 _atom_site_occupancy
  Tb  Tb0  1  0.503895  0.666108  0.597838  1
  Tb  Tb1  1  0.005151  0.826925  0.901465  1
  Tb  Tb2  1  0.497269  0.329259  0.095760  1
  Tb  Tb3  1  0.996598  0.171647  0.404806  1
  Tb  Tb4  1  0.497269  0.329259  0.404240  1
  Tb  Tb5  1  0.996598  0.171647  0.095194  1
  Tb  Tb6  1  0.503895  0.666108  0.902162  1
  Tb  Tb7  1  0.005151  0.826925  0.598535  1
  Nb  Nb8  1  0.650185  0.187028  0.630892  1
  Nb  Nb9  1  0.171852  0.325415  0.871759  1
  Nb  Nb10  1  0.339301  0.825077  0.125144  1
  Nb  Nb11  1  0.837693  0.675531  0.374871  1
  Nb  Nb12  1  0.339301  0.825077  0.374856  1
  Nb  Nb13  1  0.837693  0.675531  0.125129  1
  Nb  Nb14  1  0.650185  0.187028  0.869108  1
  Nb  Nb15  1  0.171852  0.325415  0.628241  1
  Nb  Nb16  1  0.830556  0.490658  0.750000  1
  Nb  Nb17  1  0.337578  0.013497  0.750000  1
  Nb  Nb18  1  0.163160  0.509436  0.250000  1
  Nb  Nb19  1  0.663431  0.991804  0.250000  1
  Si  Si20  1  0.662007  0.963319  0.462063  1
  Si  Si21  1  0.163085  0.538621  0.039460  1
  Si  Si22  1  0.337724  0.035990  0.959154  1
  Si  Si23  1  0.839830  0.461366  0.542091  1
  Si  Si24  1  0.337724  0.035990  0.540846  1
  Si  Si25  1  0.839830  0.461366  0.957909  1
  Si  Si26  1  0.662007  0.963319  0.037937  1
  Si  Si27  1  0.163085  0.538621  0.460540  1
  Si  Si28  1  0.957132  0.126344  0.750000  1
  Si  Si29  1  0.542581  0.624842  0.250000  1
  Si  Si30  1  0.041932  0.876299  0.250000  1
  Si  Si31  1  0.703436  0.877292  0.750000  1
  Si  Si32  1  0.214783  0.612849  0.750000  1
  Si  Si33  1  0.295164  0.125690  0.250000  1
  Si  Si34  1  0.796048  0.374639  0.250000  1
  B  B35  1  0.445021  0.364081  0.750000  1
