# generated using pymatgen
data_La8Mg(Si4Pt)3
_symmetry_space_group_name_H-M   'P 1'
_cell_length_a   8.36314400
_cell_length_b   8.36314336
_cell_length_c   8.83996500
_cell_angle_alpha   90.00000000
_cell_angle_beta   90.00000000
_cell_angle_gamma   119.99999461
_symmetry_Int_Tables_number   1
_chemical_formula_structural   La8Mg(Si4Pt)3
_chemical_formula_sum   'La8 Mg1 Si12 Pt3'
_cell_volume   535.45171889
_cell_formula_units_Z   1
loop_
 _symmetry_equiv_pos_site_id
 _symmetry_equiv_pos_as_xyz
  1  'x, y, z'
loop_
 _atom_site_type_symbol
 _atom_site_label
 _atom_site_symmetry_multiplicity
 _atom_site_fract_x
 _atom_site_fract_y
 _atom_site_fract_z
 _atom_site_occupancy
  La  La0  1  0.000000  0.000000  0.249210  1
  La  La1  1  0.000000  0.000000  0.750971  1
  La  La2  1  0.503131  0.496869  0.246401  1
  La  La3  1  0.503131  0.006264  0.246401  1
  La  La4  1  0.993736  0.496869  0.246401  1
  La  La5  1  0.501679  0.498321  0.753388  1
  La  La6  1  0.501679  0.003355  0.753388  1
  La  La7  1  0.996645  0.498321  0.753388  1
  Mg  Mg8  1  0.333333  0.666667  0.496088  1
  Si  Si9  1  0.159382  0.840618  0.500791  1
  Si  Si10  1  0.159382  0.318765  0.500791  1
  Si  Si11  1  0.681235  0.840618  0.500791  1
  Si  Si12  1  0.832565  0.167435  0.499544  1
  Si  Si13  1  0.832565  0.665130  0.499544  1
  Si  Si14  1  0.334870  0.167435  0.499544  1
  Si  Si15  1  0.834497  0.165503  0.000459  1
  Si  Si16  1  0.834497  0.668993  0.000459  1
  Si  Si17  1  0.331007  0.165503  0.000459  1
  Si  Si18  1  0.166159  0.833841  0.999402  1
  Si  Si19  1  0.166159  0.332319  0.999402  1
  Si  Si20  1  0.667681  0.833841  0.999402  1
  Pt  Pt21  1  0.666667  0.333333  0.502684  1
  Pt  Pt22  1  0.666667  0.333333  0.997310  1
  Pt  Pt23  1  0.333333  0.666667  0.003780  1
