# generated using pymatgen
data_YbU9O20
_symmetry_space_group_name_H-M   'P 1'
_cell_length_a   6.60608699
_cell_length_b   7.63187043
_cell_length_c   8.53039582
_cell_angle_alpha   102.93287656
_cell_angle_beta   97.37468023
_cell_angle_gamma   106.76238996
_symmetry_Int_Tables_number   1
_chemical_formula_structural   YbU9O20
_chemical_formula_sum   'Yb1 U9 O20'
_cell_volume   392.68650356
_cell_formula_units_Z   1
loop_
 _symmetry_equiv_pos_site_id
 _symmetry_equiv_pos_as_xyz
  1  'x, y, z'
loop_
 _atom_site_type_symbol
 _atom_site_label
 _atom_site_symmetry_multiplicity
 _atom_site_fract_x
 _atom_site_fract_y
 _atom_site_fract_z
 _atom_site_occupancy
  Yb  Yb0  1  0.000000  0.000000  0.000000  1
  U  U1  1  0.801236  0.602237  0.602680  1
  U  U2  1  0.000000  0.500000  0.000000  1
  U  U3  1  0.599189  0.197487  0.196590  1
  U  U4  1  0.799811  0.099417  0.603485  1
  U  U5  1  0.605091  0.702711  0.198686  1
  U  U6  1  0.198764  0.397763  0.397320  1
  U  U7  1  0.394909  0.297289  0.801314  1
  U  U8  1  0.200189  0.900583  0.396515  1
  U  U9  1  0.400811  0.802513  0.803410  1
  O  O10  1  0.849654  0.325001  0.453934  1
  O  O11  1  0.640908  0.922324  0.053396  1
  O  O12  1  0.852257  0.826602  0.451204  1
  O  O13  1  0.949976  0.767835  0.154013  1
  O  O14  1  0.445496  0.521467  0.649348  1
  O  O15  1  0.647003  0.425465  0.048923  1
  O  O16  1  0.744488  0.373708  0.751061  1
  O  O17  1  0.259484  0.128612  0.256305  1
  O  O18  1  0.947179  0.284234  0.155289  1
  O  O19  1  0.553693  0.974454  0.352951  1
  O  O20  1  0.052821  0.715766  0.844711  1
  O  O21  1  0.446307  0.025546  0.647049  1
  O  O22  1  0.740516  0.871388  0.743695  1
  O  O23  1  0.352997  0.574535  0.951077  1
  O  O24  1  0.255512  0.626292  0.248939  1
  O  O25  1  0.050024  0.232165  0.845987  1
  O  O26  1  0.554504  0.478533  0.350652  1
  O  O27  1  0.147743  0.173398  0.548796  1
  O  O28  1  0.359092  0.077676  0.946604  1
  O  O29  1  0.150346  0.674999  0.546066  1
