# generated using pymatgen
data_Ho3Hg5Pt
_symmetry_space_group_name_H-M   'P 1'
_cell_length_a   8.09885800
_cell_length_b   8.09886030
_cell_length_c   3.74815400
_cell_angle_alpha   90.00000000
_cell_angle_beta   90.00000000
_cell_angle_gamma   119.99998245
_symmetry_Int_Tables_number   1
_chemical_formula_structural   Ho3Hg5Pt
_chemical_formula_sum   'Ho3 Hg5 Pt1'
_cell_volume   212.90988576
_cell_formula_units_Z   1
loop_
 _symmetry_equiv_pos_site_id
 _symmetry_equiv_pos_as_xyz
  1  'x, y, z'
loop_
 _atom_site_type_symbol
 _atom_site_label
 _atom_site_symmetry_multiplicity
 _atom_site_fract_x
 _atom_site_fract_y
 _atom_site_fract_z
 _atom_site_occupancy
  Ho  Ho0  1  0.580882  0.616688  0.000000  1
  Ho  Ho1  1  0.383312  0.964194  0.000000  1
  Ho  Ho2  1  0.035806  0.419118  0.000000  1
  Hg  Hg3  1  0.996359  0.716503  0.500000  1
  Hg  Hg4  1  0.283497  0.279857  0.500000  1
  Hg  Hg5  1  0.720143  0.003641  0.500000  1
  Hg  Hg6  1  0.000000  0.000000  0.000000  1
  Hg  Hg7  1  0.666667  0.333333  0.500000  1
  Pt  Pt8  1  0.333333  0.666667  0.500000  1
