# generated using pymatgen
data_Yb3Rh2Pb
_symmetry_space_group_name_H-M   'P 1'
_cell_length_a   5.55817150
_cell_length_b   5.55817142
_cell_length_c   5.67102454
_cell_angle_alpha   106.97128900
_cell_angle_beta   106.97129454
_cell_angle_gamma   113.85114794
_symmetry_Int_Tables_number   1
_chemical_formula_structural   Yb3Rh2Pb
_chemical_formula_sum   'Yb3 Rh2 Pb1'
_cell_volume   135.38786546
_cell_formula_units_Z   1
loop_
 _symmetry_equiv_pos_site_id
 _symmetry_equiv_pos_as_xyz
  1  'x, y, z'
loop_
 _atom_site_type_symbol
 _atom_site_label
 _atom_site_symmetry_multiplicity
 _atom_site_fract_x
 _atom_site_fract_y
 _atom_site_fract_z
 _atom_site_occupancy
  Yb  Yb0  1  0.681920  0.184965  0.866886  1
  Yb  Yb1  1  0.315035  0.818080  0.133114  1
  Yb  Yb2  1  0.822409  0.677591  0.500000  1
  Rh  Rh3  1  0.751458  0.748542  0.000000  1
  Rh  Rh4  1  0.251458  0.248542  0.000000  1
  Pb  Pb5  1  0.177721  0.322279  0.500000  1
