# generated using pymatgen
data_Ho4TmAg5
_symmetry_space_group_name_H-M   'P 1'
_cell_length_a   3.61564100
_cell_length_b   3.61564100
_cell_length_c   18.08631800
_cell_angle_alpha   90.00000000
_cell_angle_beta   90.00000000
_cell_angle_gamma   90.00000000
_symmetry_Int_Tables_number   1
_chemical_formula_structural   Ho4TmAg5
_chemical_formula_sum   'Ho4 Tm1 Ag5'
_cell_volume   236.43990025
_cell_formula_units_Z   1
loop_
 _symmetry_equiv_pos_site_id
 _symmetry_equiv_pos_as_xyz
  1  'x, y, z'
loop_
 _atom_site_type_symbol
 _atom_site_label
 _atom_site_symmetry_multiplicity
 _atom_site_fract_x
 _atom_site_fract_y
 _atom_site_fract_z
 _atom_site_occupancy
  Ho  Ho0  1  0.000000  0.000000  0.198223  1
  Ho  Ho1  1  0.000000  0.000000  0.399482  1
  Ho  Ho2  1  0.000000  0.000000  0.600518  1
  Ho  Ho3  1  0.000000  0.000000  0.801777  1
  Tm  Tm4  1  0.000000  0.000000  0.000000  1
  Ag  Ag5  1  0.500000  0.500000  0.096746  1
  Ag  Ag6  1  0.500000  0.500000  0.298609  1
  Ag  Ag7  1  0.500000  0.500000  0.500000  1
  Ag  Ag8  1  0.500000  0.500000  0.701391  1
  Ag  Ag9  1  0.500000  0.500000  0.903254  1
