# generated using pymatgen
data_Na3LiH6Ru
_symmetry_space_group_name_H-M   'P 1'
_cell_length_a   6.26020790
_cell_length_b   6.26020795
_cell_length_c   6.26020756
_cell_angle_alpha   93.08342035
_cell_angle_beta   93.08341407
_cell_angle_gamma   93.08341063
_symmetry_Int_Tables_number   1
_chemical_formula_structural   Na3LiH6Ru
_chemical_formula_sum   'Na6 Li2 H12 Ru2'
_cell_volume   244.23336058
_cell_formula_units_Z   2
loop_
 _symmetry_equiv_pos_site_id
 _symmetry_equiv_pos_as_xyz
  1  'x, y, z'
loop_
 _atom_site_type_symbol
 _atom_site_label
 _atom_site_symmetry_multiplicity
 _atom_site_fract_x
 _atom_site_fract_y
 _atom_site_fract_z
 _atom_site_occupancy
  Na  Na0  1  0.877891  0.622109  0.250000  1
  Na  Na1  1  0.250000  0.877891  0.622109  1
  Na  Na2  1  0.622109  0.250000  0.877891  1
  Na  Na3  1  0.750000  0.122109  0.377891  1
  Na  Na4  1  0.377891  0.750000  0.122109  1
  Na  Na5  1  0.122109  0.377891  0.750000  1
  Li  Li6  1  0.250000  0.250000  0.250000  1
  Li  Li7  1  0.750000  0.750000  0.750000  1
  H  H8  1  0.232080  0.534143  0.428148  1
  H  H9  1  0.428148  0.232080  0.534143  1
  H  H10  1  0.534143  0.428148  0.232080  1
  H  H11  1  0.928148  0.034143  0.732080  1
  H  H12  1  0.732080  0.928148  0.034143  1
  H  H13  1  0.034143  0.732080  0.928148  1
  H  H14  1  0.767920  0.465857  0.571852  1
  H  H15  1  0.571852  0.767920  0.465857  1
  H  H16  1  0.465857  0.571852  0.767920  1
  H  H17  1  0.071852  0.965857  0.267920  1
  H  H18  1  0.267920  0.071852  0.965857  1
  H  H19  1  0.965857  0.267920  0.071852  1
  Ru  Ru20  1  0.500000  0.500000  0.500000  1
  Ru  Ru21  1  0.000000  0.000000  0.000000  1
