# generated using pymatgen
data_Pr2Ho(ErSn2)2
_symmetry_space_group_name_H-M   'P 1'
_cell_length_a   8.11756500
_cell_length_b   8.27727500
_cell_length_c   15.61649600
_cell_angle_alpha   90.00000000
_cell_angle_beta   90.00000000
_cell_angle_gamma   90.00000000
_symmetry_Int_Tables_number   1
_chemical_formula_structural   Pr2Ho(ErSn2)2
_chemical_formula_sum   'Pr8 Ho4 Er8 Sn16'
_cell_volume   1049.29294621
_cell_formula_units_Z   4
loop_
 _symmetry_equiv_pos_site_id
 _symmetry_equiv_pos_as_xyz
  1  'x, y, z'
loop_
 _atom_site_type_symbol
 _atom_site_label
 _atom_site_symmetry_multiplicity
 _atom_site_fract_x
 _atom_site_fract_y
 _atom_site_fract_z
 _atom_site_occupancy
  Pr  Pr0  1  0.516365  0.321176  0.902869  1
  Pr  Pr1  1  0.016365  0.178824  0.597131  1
  Pr  Pr2  1  0.483635  0.678824  0.402869  1
  Pr  Pr3  1  0.983635  0.821176  0.097131  1
  Pr  Pr4  1  0.483577  0.678868  0.097188  1
  Pr  Pr5  1  0.983577  0.821132  0.402812  1
  Pr  Pr6  1  0.516423  0.321132  0.597188  1
  Pr  Pr7  1  0.016423  0.178868  0.902812  1
  Ho  Ho8  1  0.363315  0.836196  0.877355  1
  Ho  Ho9  1  0.863315  0.663804  0.622645  1
  Ho  Ho10  1  0.636685  0.163804  0.377355  1
  Ho  Ho11  1  0.136685  0.336196  0.122645  1
  Er  Er12  1  0.636942  0.163626  0.122754  1
  Er  Er13  1  0.136942  0.336374  0.377246  1
  Er  Er14  1  0.363058  0.836374  0.622754  1
  Er  Er15  1  0.863058  0.663626  0.877246  1
  Er  Er16  1  0.196670  0.504000  0.749926  1
  Er  Er17  1  0.696670  0.996000  0.750074  1
  Er  Er18  1  0.803330  0.496000  0.249926  1
  Er  Er19  1  0.303330  0.004000  0.250074  1
  Sn  Sn20  1  0.302057  0.040634  0.042583  1
  Sn  Sn21  1  0.802057  0.459366  0.457417  1
  Sn  Sn22  1  0.697943  0.959366  0.542583  1
  Sn  Sn23  1  0.197943  0.540634  0.957417  1
  Sn  Sn24  1  0.698733  0.959313  0.957716  1
  Sn  Sn25  1  0.198733  0.540687  0.542284  1
  Sn  Sn26  1  0.301267  0.040687  0.457716  1
  Sn  Sn27  1  0.801267  0.459313  0.042284  1
  Sn  Sn28  1  0.562491  0.625308  0.749993  1
  Sn  Sn29  1  0.062491  0.874692  0.750007  1
  Sn  Sn30  1  0.437509  0.374692  0.249993  1
  Sn  Sn31  1  0.937509  0.125308  0.250007  1
  Sn  Sn32  1  0.325014  0.141385  0.749892  1
  Sn  Sn33  1  0.825014  0.358615  0.750108  1
  Sn  Sn34  1  0.674986  0.858615  0.249892  1
  Sn  Sn35  1  0.174986  0.641385  0.250108  1
