# generated using pymatgen
data_Ho4Al4OsPt3
_symmetry_space_group_name_H-M   'P 1'
_cell_length_a   4.34523100
_cell_length_b   6.83122622
_cell_length_c   7.87458336
_cell_angle_alpha   89.78609434
_cell_angle_beta   90.00000000
_cell_angle_gamma   90.00000000
_symmetry_Int_Tables_number   1
_chemical_formula_structural   Ho4Al4OsPt3
_chemical_formula_sum   'Ho4 Al4 Os1 Pt3'
_cell_volume   233.74164426
_cell_formula_units_Z   1
loop_
 _symmetry_equiv_pos_site_id
 _symmetry_equiv_pos_as_xyz
  1  'x, y, z'
loop_
 _atom_site_type_symbol
 _atom_site_label
 _atom_site_symmetry_multiplicity
 _atom_site_fract_x
 _atom_site_fract_y
 _atom_site_fract_z
 _atom_site_occupancy
  Ho  Ho0  1  0.250000  0.032922  0.677942  1
  Ho  Ho1  1  0.250000  0.529189  0.819025  1
  Ho  Ho2  1  0.750000  0.978454  0.321437  1
  Ho  Ho3  1  0.750000  0.466784  0.185196  1
  Al  Al4  1  0.250000  0.144011  0.063634  1
  Al  Al5  1  0.250000  0.639687  0.437338  1
  Al  Al6  1  0.750000  0.857590  0.938618  1
  Al  Al7  1  0.750000  0.354650  0.559438  1
  Os  Os8  1  0.250000  0.266701  0.378859  1
  Pt  Pt9  1  0.250000  0.770288  0.117253  1
  Pt  Pt10  1  0.750000  0.729864  0.620983  1
  Pt  Pt11  1  0.750000  0.229860  0.880278  1
