# generated using pymatgen
data_Yb3Dy(Ga3Pt4)2
_symmetry_space_group_name_H-M   'P 1'
_cell_length_a   8.16294970
_cell_length_b   8.16294968
_cell_length_c   7.47745900
_cell_angle_alpha   90.13212586
_cell_angle_beta   89.86788116
_cell_angle_gamma   139.43664641
_symmetry_Int_Tables_number   1
_chemical_formula_structural   Yb3Dy(Ga3Pt4)2
_chemical_formula_sum   'Yb3 Dy1 Ga6 Pt8'
_cell_volume   324.00596896
_cell_formula_units_Z   1
loop_
 _symmetry_equiv_pos_site_id
 _symmetry_equiv_pos_as_xyz
  1  'x, y, z'
loop_
 _atom_site_type_symbol
 _atom_site_label
 _atom_site_symmetry_multiplicity
 _atom_site_fract_x
 _atom_site_fract_y
 _atom_site_fract_z
 _atom_site_occupancy
  Yb  Yb0  1  0.105258  0.894742  0.410385  1
  Yb  Yb1  1  0.894882  0.105118  0.589637  1
  Yb  Yb2  1  0.392443  0.607557  0.911248  1
  Dy  Dy3  1  0.605978  0.394022  0.088994  1
  Ga  Ga4  1  0.998560  0.001440  0.999252  1
  Ga  Ga5  1  0.500619  0.499381  0.500495  1
  Ga  Ga6  1  0.019366  0.482730  0.252337  1
  Ga  Ga7  1  0.483123  0.017344  0.747370  1
  Ga  Ga8  1  0.982656  0.516877  0.747370  1
  Ga  Ga9  1  0.517270  0.980634  0.252337  1
  Pt  Pt10  1  0.188998  0.313625  0.248925  1
  Pt  Pt11  1  0.314457  0.186992  0.751737  1
  Pt  Pt12  1  0.813008  0.685543  0.751737  1
  Pt  Pt13  1  0.686375  0.811002  0.248925  1
  Pt  Pt14  1  0.181079  0.818921  0.026527  1
  Pt  Pt15  1  0.817110  0.182890  0.976048  1
  Pt  Pt16  1  0.320269  0.679731  0.524373  1
  Pt  Pt17  1  0.678551  0.321449  0.472306  1
