# generated using pymatgen
data_Si4Sn7PbSe16
_symmetry_space_group_name_H-M   'P 1'
_cell_length_a   7.47971658
_cell_length_b   8.71927314
_cell_length_c   13.84251826
_cell_angle_alpha   71.79016286
_cell_angle_beta   90.03351820
_cell_angle_gamma   90.29834318
_symmetry_Int_Tables_number   1
_chemical_formula_structural   Si4Sn7PbSe16
_chemical_formula_sum   'Si4 Sn7 Pb1 Se16'
_cell_volume   857.55243942
_cell_formula_units_Z   1
loop_
 _symmetry_equiv_pos_site_id
 _symmetry_equiv_pos_as_xyz
  1  'x, y, z'
loop_
 _atom_site_type_symbol
 _atom_site_label
 _atom_site_symmetry_multiplicity
 _atom_site_fract_x
 _atom_site_fract_y
 _atom_site_fract_z
 _atom_site_occupancy
  Si  Si0  1  0.754979  0.203767  0.350500  1
  Si  Si1  1  0.255568  0.795630  0.147976  1
  Si  Si2  1  0.246133  0.796583  0.647508  1
  Si  Si3  1  0.743978  0.204383  0.853322  1
  Sn  Sn4  1  0.622665  0.556530  0.139832  1
  Sn  Sn5  1  0.120224  0.446089  0.360069  1
  Sn  Sn6  1  0.378897  0.445094  0.860756  1
  Sn  Sn7  1  0.878849  0.554582  0.640130  1
  Sn  Sn8  1  0.631951  0.055518  0.124948  1
  Sn  Sn9  1  0.132111  0.946527  0.377735  1
  Sn  Sn10  1  0.367028  0.944231  0.877319  1
  Pb  Pb11  1  0.861352  0.053949  0.626409  1
  Se  Se12  1  0.773017  0.933899  0.441387  1
  Se  Se13  1  0.276242  0.065037  0.055452  1
  Se  Se14  1  0.231008  0.064502  0.554224  1
  Se  Se15  1  0.724276  0.934672  0.943973  1
  Se  Se16  1  0.512855  0.268236  0.738403  1
  Se  Se17  1  0.015562  0.728116  0.763463  1
  Se  Se18  1  0.487518  0.731284  0.262229  1
  Se  Se19  1  0.989689  0.267942  0.237661  1
  Se  Se20  1  0.511275  0.747324  0.736110  1
  Se  Se21  1  0.010384  0.254784  0.766263  1
  Se  Se22  1  0.489865  0.252027  0.261988  1
  Se  Se23  1  0.989600  0.745677  0.235137  1
  Se  Se24  1  0.713856  0.366323  0.956513  1
  Se  Se25  1  0.214366  0.633652  0.544795  1
  Se  Se26  1  0.286410  0.633953  0.044369  1
  Se  Se27  1  0.780341  0.369689  0.451529  1
