# generated using pymatgen
data_Zn22Co2Ni
_symmetry_space_group_name_H-M   'P 1'
_cell_length_a   7.67423617
_cell_length_b   7.67423703
_cell_length_c   7.68790928
_cell_angle_alpha   71.72329658
_cell_angle_beta   71.72329839
_cell_angle_gamma   57.86849096
_symmetry_Int_Tables_number   1
_chemical_formula_structural   Zn22Co2Ni
_chemical_formula_sum   'Zn22 Co2 Ni1'
_cell_volume   357.95808449
_cell_formula_units_Z   1
loop_
 _symmetry_equiv_pos_site_id
 _symmetry_equiv_pos_as_xyz
  1  'x, y, z'
loop_
 _atom_site_type_symbol
 _atom_site_label
 _atom_site_symmetry_multiplicity
 _atom_site_fract_x
 _atom_site_fract_y
 _atom_site_fract_z
 _atom_site_occupancy
  Zn  Zn0  1  0.345218  0.740455  0.311185  1
  Zn  Zn1  1  0.656136  0.258722  0.687989  1
  Zn  Zn2  1  0.258722  0.656136  0.687989  1
  Zn  Zn3  1  0.740455  0.345218  0.311185  1
  Zn  Zn4  1  0.676543  0.324238  0.000358  1
  Zn  Zn5  1  0.324238  0.676543  0.000358  1
  Zn  Zn6  1  0.830359  0.830359  0.783253  1
  Zn  Zn7  1  0.168690  0.168690  0.216911  1
  Zn  Zn8  1  0.977413  0.977413  0.177040  1
  Zn  Zn9  1  0.022199  0.022199  0.823914  1
  Zn  Zn10  1  0.351608  0.351608  0.272674  1
  Zn  Zn11  1  0.648816  0.648816  0.727554  1
  Zn  Zn12  1  0.685285  0.685285  0.375784  1
  Zn  Zn13  1  0.314356  0.314356  0.623857  1
  Zn  Zn14  1  0.662670  0.024305  0.464344  1
  Zn  Zn15  1  0.336405  0.976820  0.536289  1
  Zn  Zn16  1  0.976820  0.336405  0.536289  1
  Zn  Zn17  1  0.024305  0.662670  0.464344  1
  Zn  Zn18  1  0.617449  0.997845  0.097755  1
  Zn  Zn19  1  0.383415  0.001448  0.901899  1
  Zn  Zn20  1  0.001448  0.383415  0.901899  1
  Zn  Zn21  1  0.997845  0.617449  0.097755  1
  Co  Co22  1  0.658043  0.658043  0.054083  1
  Co  Co23  1  0.999585  0.999585  0.499868  1
  Ni  Ni24  1  0.341978  0.341978  0.945424  1
