# generated using pymatgen
data_YZr3(Al8Pt3)3
_symmetry_space_group_name_H-M   'P 1'
_cell_length_a   7.48187607
_cell_length_b   7.48320379
_cell_length_c   12.99786605
_cell_angle_alpha   84.44281772
_cell_angle_beta   101.01870889
_cell_angle_gamma   119.92637223
_symmetry_Int_Tables_number   1
_chemical_formula_structural   YZr3(Al8Pt3)3
_chemical_formula_sum   'Y1 Zr3 Al24 Pt9'
_cell_volume   619.07152614
_cell_formula_units_Z   1
loop_
 _symmetry_equiv_pos_site_id
 _symmetry_equiv_pos_as_xyz
  1  'x, y, z'
loop_
 _atom_site_type_symbol
 _atom_site_label
 _atom_site_symmetry_multiplicity
 _atom_site_fract_x
 _atom_site_fract_y
 _atom_site_fract_z
 _atom_site_occupancy
  Y  Y0  1  0.938500  0.331959  0.809277  1
  Zr  Zr1  1  0.731714  0.998793  0.189042  1
  Zr  Zr2  1  0.268322  0.000485  0.811523  1
  Zr  Zr3  1  0.060954  0.668200  0.189070  1
  Al  Al4  1  0.811941  0.868422  0.815363  1
  Al  Al5  1  0.187333  0.125000  0.184940  1
  Al  Al6  1  0.984628  0.669135  0.944183  1
  Al  Al7  1  0.016817  0.333614  0.060994  1
  Al  Al8  1  0.398766  0.669896  0.816276  1
  Al  Al9  1  0.607705  0.335648  0.183493  1
  Al  Al10  1  0.885572  0.667291  0.673065  1
  Al  Al11  1  0.113313  0.334837  0.323359  1
  Al  Al12  1  0.597321  0.452974  0.815931  1
  Al  Al13  1  0.397730  0.548246  0.184503  1
  Al  Al14  1  0.230099  0.337412  0.671301  1
  Al  Al15  1  0.770366  0.662176  0.325073  1
  Al  Al16  1  0.852826  0.333358  0.559718  1
  Al  Al17  1  0.187040  0.999815  0.561045  1
  Al  Al18  1  0.812884  0.000312  0.438888  1
  Al  Al19  1  0.353234  0.995771  0.059407  1
  Al  Al20  1  0.645203  0.000812  0.944088  1
  Al  Al21  1  0.554629  0.993796  0.673085  1
  Al  Al22  1  0.442098  0.004505  0.323143  1
  Al  Al23  1  0.521500  0.667448  0.563447  1
  Al  Al24  1  0.478061  0.332563  0.436489  1
  Al  Al25  1  0.687644  0.670458  0.051974  1
  Al  Al26  1  0.317060  0.330286  0.952227  1
  Al  Al27  1  0.146879  0.666775  0.438763  1
  Pt  Pt28  1  0.328083  0.670779  0.000735  1
  Pt  Pt29  1  0.545305  0.324235  0.637276  1
  Pt  Pt30  1  0.454499  0.676617  0.362484  1
  Pt  Pt31  1  0.888231  0.008547  0.638599  1
  Pt  Pt32  1  0.110763  0.990484  0.361076  1
  Pt  Pt33  1  0.672744  0.328706  0.000307  1
  Pt  Pt34  1  0.203457  0.666713  0.638529  1
  Pt  Pt35  1  0.797078  0.333443  0.360693  1
  Pt  Pt36  1  0.999704  0.000488  0.000634  1
