# generated using pymatgen
data_Ta10Al4Pd
_symmetry_space_group_name_H-M   'P 1'
_cell_length_a   9.89613800
_cell_length_b   9.89613800
_cell_length_c   5.23484100
_cell_angle_alpha   90.00000000
_cell_angle_beta   90.00000000
_cell_angle_gamma   90.00000000
_symmetry_Int_Tables_number   1
_chemical_formula_structural   Ta10Al4Pd
_chemical_formula_sum   'Ta20 Al8 Pd2'
_cell_volume   512.66654876
_cell_formula_units_Z   2
loop_
 _symmetry_equiv_pos_site_id
 _symmetry_equiv_pos_as_xyz
  1  'x, y, z'
loop_
 _atom_site_type_symbol
 _atom_site_label
 _atom_site_symmetry_multiplicity
 _atom_site_fract_x
 _atom_site_fract_y
 _atom_site_fract_z
 _atom_site_occupancy
  Ta  Ta0  1  0.399224  0.399224  0.000000  1
  Ta  Ta1  1  0.899224  0.100776  0.500000  1
  Ta  Ta2  1  0.100776  0.899224  0.500000  1
  Ta  Ta3  1  0.600776  0.600776  0.000000  1
  Ta  Ta4  1  0.130999  0.465707  0.000000  1
  Ta  Ta5  1  0.965707  0.369001  0.500000  1
  Ta  Ta6  1  0.034293  0.630999  0.500000  1
  Ta  Ta7  1  0.869001  0.534293  0.000000  1
  Ta  Ta8  1  0.369001  0.965707  0.500000  1
  Ta  Ta9  1  0.630999  0.034293  0.500000  1
  Ta  Ta10  1  0.465707  0.130999  0.000000  1
  Ta  Ta11  1  0.534293  0.869001  0.000000  1
  Ta  Ta12  1  0.184503  0.184503  0.252279  1
  Ta  Ta13  1  0.684503  0.315497  0.752279  1
  Ta  Ta14  1  0.315497  0.684503  0.752279  1
  Ta  Ta15  1  0.815497  0.815497  0.252279  1
  Ta  Ta16  1  0.315497  0.684503  0.247721  1
  Ta  Ta17  1  0.684503  0.315497  0.247721  1
  Ta  Ta18  1  0.184503  0.184503  0.747721  1
  Ta  Ta19  1  0.815497  0.815497  0.747721  1
  Al  Al20  1  0.256914  0.936474  0.000000  1
  Al  Al21  1  0.436474  0.243086  0.500000  1
  Al  Al22  1  0.563526  0.756914  0.500000  1
  Al  Al23  1  0.743086  0.063526  0.000000  1
  Al  Al24  1  0.243086  0.436474  0.500000  1
  Al  Al25  1  0.756914  0.563526  0.500000  1
  Al  Al26  1  0.936474  0.256914  0.000000  1
  Al  Al27  1  0.063526  0.743086  0.000000  1
  Pd  Pd28  1  0.000000  0.000000  0.000000  1
  Pd  Pd29  1  0.500000  0.500000  0.500000  1
