# generated using pymatgen
data_Sc4CuSn3Rh8
_symmetry_space_group_name_H-M   'P 1'
_cell_length_a   6.13468900
_cell_length_b   6.13455300
_cell_length_c   6.95066100
_cell_angle_alpha   90.00000000
_cell_angle_beta   89.99991209
_cell_angle_gamma   90.00000000
_symmetry_Int_Tables_number   1
_chemical_formula_structural   Sc4CuSn3Rh8
_chemical_formula_sum   'Sc4 Cu1 Sn3 Rh8'
_cell_volume   261.57822072
_cell_formula_units_Z   1
loop_
 _symmetry_equiv_pos_site_id
 _symmetry_equiv_pos_as_xyz
  1  'x, y, z'
loop_
 _atom_site_type_symbol
 _atom_site_label
 _atom_site_symmetry_multiplicity
 _atom_site_fract_x
 _atom_site_fract_y
 _atom_site_fract_z
 _atom_site_occupancy
  Sc  Sc0  1  0.750097  0.249999  0.000001  1
  Sc  Sc1  1  0.249942  0.750000  0.999995  1
  Sc  Sc2  1  0.749930  0.249999  0.499984  1
  Sc  Sc3  1  0.250077  0.750000  0.500013  1
  Cu  Cu4  1  0.250048  0.249999  0.999999  1
  Sn  Sn5  1  0.749939  0.750000  0.000004  1
  Sn  Sn6  1  0.750068  0.750000  0.499992  1
  Sn  Sn7  1  0.249929  0.249999  0.500009  1
  Rh  Rh8  1  0.496825  0.003165  0.248219  1
  Rh  Rh9  1  0.496825  0.496835  0.248219  1
  Rh  Rh10  1  0.003161  0.003154  0.248259  1
  Rh  Rh11  1  0.003161  0.496846  0.248259  1
  Rh  Rh12  1  0.003155  0.003153  0.751743  1
  Rh  Rh13  1  0.003155  0.496846  0.751743  1
  Rh  Rh14  1  0.496844  0.003167  0.751781  1
  Rh  Rh15  1  0.496844  0.496833  0.751781  1
