# generated using pymatgen
data_Y6GaTcNi
_symmetry_space_group_name_H-M   'P 1'
_cell_length_a   8.40578595
_cell_length_b   8.40578702
_cell_length_c   8.40578643
_cell_angle_alpha   104.54532113
_cell_angle_beta   110.80628174
_cell_angle_gamma   113.18147844
_symmetry_Int_Tables_number   1
_chemical_formula_structural   Y6GaTcNi
_chemical_formula_sum   'Y12 Ga2 Tc2 Ni2'
_cell_volume   454.48714950
_cell_formula_units_Z   2
loop_
 _symmetry_equiv_pos_site_id
 _symmetry_equiv_pos_as_xyz
  1  'x, y, z'
loop_
 _atom_site_type_symbol
 _atom_site_label
 _atom_site_symmetry_multiplicity
 _atom_site_fract_x
 _atom_site_fract_y
 _atom_site_fract_z
 _atom_site_occupancy
  Y  Y0  1  0.690157  0.257018  0.947175  1
  Y  Y1  1  0.309843  0.742982  0.052825  1
  Y  Y2  1  0.690157  0.742982  0.433141  1
  Y  Y3  1  0.309843  0.257018  0.566859  1
  Y  Y4  1  0.814913  0.147282  0.332369  1
  Y  Y5  1  0.814913  0.482544  0.667631  1
  Y  Y6  1  0.185087  0.852718  0.667631  1
  Y  Y7  1  0.185087  0.517456  0.332369  1
  Y  Y8  1  0.601039  0.780580  0.820458  1
  Y  Y9  1  0.960122  0.780580  0.179542  1
  Y  Y10  1  0.039878  0.219420  0.820458  1
  Y  Y11  1  0.398961  0.219420  0.179542  1
  Ga  Ga12  1  0.500000  0.500000  0.000000  1
  Ga  Ga13  1  0.500000  0.000000  0.500000  1
  Tc  Tc14  1  0.821053  0.500000  0.321053  1
  Tc  Tc15  1  0.178947  0.500000  0.678947  1
  Ni  Ni16  1  0.000000  0.116316  0.116316  1
  Ni  Ni17  1  0.000000  0.883684  0.883684  1
