# generated using pymatgen
data_Th5SnGeBi2
_symmetry_space_group_name_H-M   'P 1'
_cell_length_a   9.64205800
_cell_length_b   9.65004977
_cell_length_c   6.60917600
_cell_angle_alpha   90.00000000
_cell_angle_beta   90.00000000
_cell_angle_gamma   119.97260852
_symmetry_Int_Tables_number   1
_chemical_formula_structural   Th5SnGeBi2
_chemical_formula_sum   'Th10 Sn2 Ge2 Bi4'
_cell_volume   532.71760220
_cell_formula_units_Z   2
loop_
 _symmetry_equiv_pos_site_id
 _symmetry_equiv_pos_as_xyz
  1  'x, y, z'
loop_
 _atom_site_type_symbol
 _atom_site_label
 _atom_site_symmetry_multiplicity
 _atom_site_fract_x
 _atom_site_fract_y
 _atom_site_fract_z
 _atom_site_occupancy
  Th  Th0  1  0.999984  0.739727  0.750000  1
  Th  Th1  1  0.260257  0.260273  0.750000  1
  Th  Th2  1  0.331276  0.664572  0.497234  1
  Th  Th3  1  0.666705  0.335428  0.497234  1
  Th  Th4  1  0.741567  0.737589  0.250000  1
  Th  Th5  1  0.740735  0.000000  0.750000  1
  Th  Th6  1  0.003978  0.262411  0.250000  1
  Th  Th7  1  0.258047  0.000000  0.250000  1
  Th  Th8  1  0.331276  0.664572  0.002766  1
  Th  Th9  1  0.666705  0.335428  0.002766  1
  Sn  Sn10  1  0.389421  0.389233  0.250000  1
  Sn  Sn11  1  0.000189  0.610767  0.250000  1
  Ge  Ge12  1  0.999510  0.000000  0.999258  1
  Ge  Ge13  1  0.999510  0.000000  0.500742  1
  Bi  Bi14  1  0.609935  0.610166  0.750000  1
  Bi  Bi15  1  0.999768  0.389834  0.750000  1
  Bi  Bi16  1  0.388954  0.000000  0.750000  1
  Bi  Bi17  1  0.612183  0.000000  0.250000  1
