# generated using pymatgen
data_NdY2Al12Os3Ru
_symmetry_space_group_name_H-M   'P 1'
_cell_length_a   8.84028432
_cell_length_b   8.84028450
_cell_length_c   9.59670900
_cell_angle_alpha   90.00000000
_cell_angle_beta   90.00000000
_cell_angle_gamma   119.67609924
_symmetry_Int_Tables_number   1
_chemical_formula_structural   NdY2Al12Os3Ru
_chemical_formula_sum   'Nd2 Y4 Al24 Os6 Ru2'
_cell_volume   651.61889161
_cell_formula_units_Z   2
loop_
 _symmetry_equiv_pos_site_id
 _symmetry_equiv_pos_as_xyz
  1  'x, y, z'
loop_
 _atom_site_type_symbol
 _atom_site_label
 _atom_site_symmetry_multiplicity
 _atom_site_fract_x
 _atom_site_fract_y
 _atom_site_fract_z
 _atom_site_occupancy
  Nd  Nd0  1  0.192349  0.807651  0.250000  1
  Nd  Nd1  1  0.807651  0.192349  0.750000  1
  Y  Y2  1  0.193368  0.387219  0.250000  1
  Y  Y3  1  0.806632  0.612781  0.750000  1
  Y  Y4  1  0.612781  0.806632  0.250000  1
  Y  Y5  1  0.387219  0.193368  0.750000  1
  Al  Al6  1  0.333492  0.666508  0.012545  1
  Al  Al7  1  0.666508  0.333492  0.987455  1
  Al  Al8  1  0.666508  0.333492  0.512545  1
  Al  Al9  1  0.333492  0.666508  0.487455  1
  Al  Al10  1  0.163461  0.324207  0.575424  1
  Al  Al11  1  0.836539  0.675793  0.424576  1
  Al  Al12  1  0.675793  0.836539  0.575424  1
  Al  Al13  1  0.836539  0.675793  0.075424  1
  Al  Al14  1  0.324207  0.163461  0.424576  1
  Al  Al15  1  0.163461  0.324207  0.924576  1
  Al  Al16  1  0.162026  0.837974  0.577038  1
  Al  Al17  1  0.324207  0.163461  0.075424  1
  Al  Al18  1  0.837974  0.162026  0.422962  1
  Al  Al19  1  0.675793  0.836539  0.924576  1
  Al  Al20  1  0.837974  0.162026  0.077038  1
  Al  Al21  1  0.162026  0.837974  0.922962  1
  Al  Al22  1  0.562001  0.122814  0.250000  1
  Al  Al23  1  0.437999  0.877186  0.750000  1
  Al  Al24  1  0.877186  0.437999  0.250000  1
  Al  Al25  1  0.122814  0.562001  0.750000  1
  Al  Al26  1  0.559890  0.440110  0.250000  1
  Al  Al27  1  0.440110  0.559890  0.750000  1
  Al  Al28  1  0.998224  0.001776  0.250000  1
  Al  Al29  1  0.001776  0.998224  0.750000  1
  Os  Os30  1  0.500000  0.000000  0.000000  1
  Os  Os31  1  0.000000  0.500000  0.000000  1
  Os  Os32  1  0.500000  0.000000  0.500000  1
  Os  Os33  1  0.500000  0.500000  0.000000  1
  Os  Os34  1  0.000000  0.500000  0.500000  1
  Os  Os35  1  0.500000  0.500000  0.500000  1
  Ru  Ru36  1  0.000000  0.000000  0.000000  1
  Ru  Ru37  1  0.000000  0.000000  0.500000  1
