# generated using pymatgen
data_Zr2AlSnIr3
_symmetry_space_group_name_H-M   'P 1'
_cell_length_a   7.75802006
_cell_length_b   7.75801867
_cell_length_c   7.75801900
_cell_angle_alpha   33.35053309
_cell_angle_beta   33.35054859
_cell_angle_gamma   33.35053490
_symmetry_Int_Tables_number   1
_chemical_formula_structural   Zr2AlSnIr3
_chemical_formula_sum   'Zr2 Al1 Sn1 Ir3'
_cell_volume   125.65919134
_cell_formula_units_Z   1
loop_
 _symmetry_equiv_pos_site_id
 _symmetry_equiv_pos_as_xyz
  1  'x, y, z'
loop_
 _atom_site_type_symbol
 _atom_site_label
 _atom_site_symmetry_multiplicity
 _atom_site_fract_x
 _atom_site_fract_y
 _atom_site_fract_z
 _atom_site_occupancy
  Zr  Zr0  1  0.753778  0.753778  0.753778  1
  Zr  Zr1  1  0.247645  0.247645  0.247645  1
  Al  Al2  1  0.996453  0.996453  0.996453  1
  Sn  Sn3  1  0.504606  0.504606  0.504606  1
  Ir  Ir4  1  0.121055  0.121055  0.121055  1
  Ir  Ir5  1  0.629797  0.629797  0.629797  1
  Ir  Ir6  1  0.371668  0.371668  0.371668  1
