# generated using pymatgen
data_TmLu3(ZnIn)4
_symmetry_space_group_name_H-M   'P 1'
_cell_length_a   4.62568900
_cell_length_b   7.14158306
_cell_length_c   7.98774037
_cell_angle_alpha   89.99176636
_cell_angle_beta   90.00000000
_cell_angle_gamma   90.00000000
_symmetry_Int_Tables_number   1
_chemical_formula_structural   TmLu3(ZnIn)4
_chemical_formula_sum   'Tm1 Lu3 Zn4 In4'
_cell_volume   263.87294109
_cell_formula_units_Z   1
loop_
 _symmetry_equiv_pos_site_id
 _symmetry_equiv_pos_as_xyz
  1  'x, y, z'
loop_
 _atom_site_type_symbol
 _atom_site_label
 _atom_site_symmetry_multiplicity
 _atom_site_fract_x
 _atom_site_fract_y
 _atom_site_fract_z
 _atom_site_occupancy
  Tm  Tm0  1  0.250000  0.510450  0.249385  1
  Lu  Lu1  1  0.750000  0.511180  0.749958  1
  Lu  Lu2  1  0.750000  0.011028  0.749479  1
  Lu  Lu3  1  0.250000  0.011139  0.250922  1
  Zn  Zn4  1  0.250000  0.703497  0.584098  1
  Zn  Zn5  1  0.750000  0.203855  0.416626  1
  Zn  Zn6  1  0.750000  0.704706  0.082539  1
  Zn  Zn7  1  0.250000  0.202369  0.916172  1
  In  In8  1  0.250000  0.786247  0.916542  1
  In  In9  1  0.750000  0.284601  0.083038  1
  In  In10  1  0.750000  0.785452  0.417007  1
  In  In11  1  0.250000  0.285475  0.584233  1
