# generated using pymatgen
data_Sr9Yb2Ho9Sn16
_symmetry_space_group_name_H-M   'P 1'
_cell_length_a   8.05367123
_cell_length_b   8.59448999
_cell_length_c   16.29935000
_cell_angle_alpha   90.00000000
_cell_angle_beta   90.00000000
_cell_angle_gamma   89.89642139
_symmetry_Int_Tables_number   1
_chemical_formula_structural   Sr9Yb2Ho9Sn16
_chemical_formula_sum   'Sr9 Yb2 Ho9 Sn16'
_cell_volume   1128.19347306
_cell_formula_units_Z   1
loop_
 _symmetry_equiv_pos_site_id
 _symmetry_equiv_pos_as_xyz
  1  'x, y, z'
loop_
 _atom_site_type_symbol
 _atom_site_label
 _atom_site_symmetry_multiplicity
 _atom_site_fract_x
 _atom_site_fract_y
 _atom_site_fract_z
 _atom_site_occupancy
  Sr  Sr0  1  0.504646  0.681060  0.593127  1
  Sr  Sr1  1  0.003772  0.819519  0.909132  1
  Sr  Sr2  1  0.494351  0.316997  0.093309  1
  Sr  Sr3  1  0.995175  0.182797  0.407176  1
  Sr  Sr4  1  0.494351  0.316997  0.406691  1
  Sr  Sr5  1  0.995175  0.182797  0.092824  1
  Sr  Sr6  1  0.504646  0.681060  0.906873  1
  Sr  Sr7  1  0.003772  0.819519  0.590868  1
  Sr  Sr8  1  0.334406  0.988556  0.750000  1
  Yb  Yb9  1  0.162859  0.491742  0.250000  1
  Yb  Yb10  1  0.662986  0.006395  0.250000  1
  Ho  Ho11  1  0.674918  0.165912  0.622084  1
  Ho  Ho12  1  0.174130  0.334043  0.877200  1
  Ho  Ho13  1  0.326512  0.832161  0.123265  1
  Ho  Ho14  1  0.826873  0.666102  0.377189  1
  Ho  Ho15  1  0.326512  0.832161  0.376735  1
  Ho  Ho16  1  0.826873  0.666102  0.122811  1
  Ho  Ho17  1  0.674918  0.165912  0.877916  1
  Ho  Ho18  1  0.174130  0.334043  0.622800  1
  Ho  Ho19  1  0.837768  0.507845  0.750000  1
  Sn  Sn20  1  0.664830  0.959195  0.458517  1
  Sn  Sn21  1  0.164391  0.540283  0.040836  1
  Sn  Sn22  1  0.336187  0.041701  0.961070  1
  Sn  Sn23  1  0.835960  0.461635  0.543890  1
  Sn  Sn24  1  0.336187  0.041701  0.538930  1
  Sn  Sn25  1  0.835960  0.461635  0.956110  1
  Sn  Sn26  1  0.664830  0.959195  0.041483  1
  Sn  Sn27  1  0.164391  0.540283  0.459164  1
  Sn  Sn28  1  0.477338  0.376797  0.750000  1
  Sn  Sn29  1  0.964290  0.143926  0.750000  1
  Sn  Sn30  1  0.528626  0.629490  0.250000  1
  Sn  Sn31  1  0.028210  0.868626  0.250000  1
  Sn  Sn32  1  0.728944  0.870352  0.750000  1
  Sn  Sn33  1  0.207662  0.615278  0.750000  1
  Sn  Sn34  1  0.281432  0.117414  0.250000  1
  Sn  Sn35  1  0.781990  0.380768  0.250000  1
