# generated using pymatgen
data_Er3Tm3(Sc2Pb3)2
_symmetry_space_group_name_H-M   'P 1'
_cell_length_a   6.33001100
_cell_length_b   8.83339118
_cell_length_c   8.83361701
_cell_angle_alpha   119.99915227
_cell_angle_beta   90.00074084
_cell_angle_gamma   89.99852630
_symmetry_Int_Tables_number   1
_chemical_formula_structural   Er3Tm3(Sc2Pb3)2
_chemical_formula_sum   'Er3 Tm3 Sc4 Pb6'
_cell_volume   427.76459409
_cell_formula_units_Z   1
loop_
 _symmetry_equiv_pos_site_id
 _symmetry_equiv_pos_as_xyz
  1  'x, y, z'
loop_
 _atom_site_type_symbol
 _atom_site_label
 _atom_site_symmetry_multiplicity
 _atom_site_fract_x
 _atom_site_fract_y
 _atom_site_fract_z
 _atom_site_occupancy
  Er  Er0  1  0.750054  0.238030  0.000000  1
  Er  Er1  1  0.750021  0.761935  0.761928  1
  Er  Er2  1  0.750021  0.000007  0.238072  1
  Tm  Tm3  1  0.249991  0.762000  0.000000  1
  Tm  Tm4  1  0.249981  0.238055  0.238027  1
  Tm  Tm5  1  0.249981  0.000029  0.761973  1
  Sc  Sc6  1  0.499953  0.333332  0.666695  1
  Sc  Sc7  1  0.499953  0.666637  0.333305  1
  Sc  Sc8  1  0.000047  0.666660  0.333312  1
  Sc  Sc9  1  0.000047  0.333348  0.666688  1
  Pb  Pb10  1  0.749988  0.601720  0.000000  1
  Pb  Pb11  1  0.750002  0.398233  0.398243  1
  Pb  Pb12  1  0.750002  0.999990  0.601757  1
  Pb  Pb13  1  0.249979  0.398100  0.000000  1
  Pb  Pb14  1  0.249992  0.601930  0.601935  1
  Pb  Pb15  1  0.249992  0.999994  0.398065  1
