# generated using pymatgen
data_K2Nb2P2S11
_symmetry_space_group_name_H-M   'P 1'
_cell_length_a   7.08715600
_cell_length_b   7.03428945
_cell_length_c   18.80964622
_cell_angle_alpha   81.27471770
_cell_angle_beta   90.00000000
_cell_angle_gamma   90.00000000
_symmetry_Int_Tables_number   1
_chemical_formula_structural   K2Nb2P2S11
_chemical_formula_sum   'K4 Nb4 P4 S22'
_cell_volume   926.86711610
_cell_formula_units_Z   2
loop_
 _symmetry_equiv_pos_site_id
 _symmetry_equiv_pos_as_xyz
  1  'x, y, z'
loop_
 _atom_site_type_symbol
 _atom_site_label
 _atom_site_symmetry_multiplicity
 _atom_site_fract_x
 _atom_site_fract_y
 _atom_site_fract_z
 _atom_site_occupancy
  K  K0  1  0.250000  0.749418  0.996938  1
  K  K1  1  0.750000  0.250582  0.003062  1
  K  K2  1  0.250000  0.771209  0.507207  1
  K  K3  1  0.750000  0.228791  0.492793  1
  Nb  Nb4  1  0.951580  0.303595  0.755416  1
  Nb  Nb5  1  0.451580  0.696405  0.244584  1
  Nb  Nb6  1  0.048420  0.696405  0.244584  1
  Nb  Nb7  1  0.548420  0.303595  0.755416  1
  P  P8  1  0.250000  0.310784  0.893305  1
  P  P9  1  0.250000  0.207481  0.625479  1
  P  P10  1  0.750000  0.689216  0.106695  1
  P  P11  1  0.750000  0.792519  0.374521  1
  S  S12  1  0.750000  0.604832  0.731688  1
  S  S13  1  0.750000  0.739356  0.482651  1
  S  S14  1  0.519470  0.519493  0.140697  1
  S  S15  1  0.250000  0.939026  0.186818  1
  S  S16  1  0.750000  0.777057  0.000830  1
  S  S17  1  0.750000  0.441064  0.653129  1
  S  S18  1  0.250000  0.558936  0.346871  1
  S  S19  1  0.250000  0.222943  0.999170  1
  S  S20  1  0.250000  0.459047  0.674256  1
  S  S21  1  0.750000  0.894290  0.175008  1
  S  S22  1  0.750000  0.060974  0.813182  1
  S  S23  1  0.014549  0.059509  0.666222  1
  S  S24  1  0.980530  0.519493  0.140697  1
  S  S25  1  0.250000  0.395168  0.268312  1
  S  S26  1  0.250000  0.260644  0.517349  1
  S  S27  1  0.485451  0.059509  0.666222  1
  S  S28  1  0.019470  0.480507  0.859303  1
  S  S29  1  0.480530  0.480507  0.859303  1
  S  S30  1  0.985451  0.940491  0.333778  1
  S  S31  1  0.250000  0.105710  0.824992  1
  S  S32  1  0.750000  0.540953  0.325744  1
  S  S33  1  0.514549  0.940491  0.333778  1
