# generated using pymatgen
data_Sr3YCrO6
_symmetry_space_group_name_H-M   'P 1'
_cell_length_a   6.86452749
_cell_length_b   6.86452877
_cell_length_c   6.86452916
_cell_angle_alpha   92.16343755
_cell_angle_beta   92.16343923
_cell_angle_gamma   92.16344204
_symmetry_Int_Tables_number   1
_chemical_formula_structural   Sr3YCrO6
_chemical_formula_sum   'Sr6 Y2 Cr2 O12'
_cell_volume   322.75897180
_cell_formula_units_Z   2
loop_
 _symmetry_equiv_pos_site_id
 _symmetry_equiv_pos_as_xyz
  1  'x, y, z'
loop_
 _atom_site_type_symbol
 _atom_site_label
 _atom_site_symmetry_multiplicity
 _atom_site_fract_x
 _atom_site_fract_y
 _atom_site_fract_z
 _atom_site_occupancy
  Sr  Sr0  1  0.250000  0.883570  0.616430  1
  Sr  Sr1  1  0.883570  0.616430  0.250000  1
  Sr  Sr2  1  0.750000  0.116430  0.383570  1
  Sr  Sr3  1  0.383570  0.750000  0.116430  1
  Sr  Sr4  1  0.116430  0.383570  0.750000  1
  Sr  Sr5  1  0.616430  0.250000  0.883570  1
  Y  Y6  1  0.750000  0.750000  0.750000  1
  Y  Y7  1  0.250000  0.250000  0.250000  1
  Cr  Cr8  1  0.500000  0.500000  0.500000  1
  Cr  Cr9  1  0.000000  0.000000  0.000000  1
  O  O10  1  0.588548  0.785399  0.456309  1
  O  O11  1  0.456309  0.588548  0.785399  1
  O  O12  1  0.785399  0.456309  0.588548  1
  O  O13  1  0.911452  0.043691  0.714601  1
  O  O14  1  0.714601  0.911452  0.043691  1
  O  O15  1  0.043691  0.714601  0.911452  1
  O  O16  1  0.411452  0.214601  0.543691  1
  O  O17  1  0.543691  0.411452  0.214601  1
  O  O18  1  0.214601  0.543691  0.411452  1
  O  O19  1  0.088548  0.956309  0.285399  1
  O  O20  1  0.956309  0.285399  0.088548  1
  O  O21  1  0.285399  0.088548  0.956309  1
