# generated using pymatgen
data_LiPuCl6
_symmetry_space_group_name_H-M   'P 1'
_cell_length_a   10.29468654
_cell_length_b   10.29468708
_cell_length_c   10.29468705
_cell_angle_alpha   79.60395757
_cell_angle_beta   79.60395560
_cell_angle_gamma   79.60395782
_symmetry_Int_Tables_number   1
_chemical_formula_structural   LiPuCl6
_chemical_formula_sum   'Li4 Pu4 Cl24'
_cell_volume   1043.10429123
_cell_formula_units_Z   4
loop_
 _symmetry_equiv_pos_site_id
 _symmetry_equiv_pos_as_xyz
  1  'x, y, z'
loop_
 _atom_site_type_symbol
 _atom_site_label
 _atom_site_symmetry_multiplicity
 _atom_site_fract_x
 _atom_site_fract_y
 _atom_site_fract_z
 _atom_site_occupancy
  Li  Li0  1  0.337089  0.337089  0.337089  1
  Li  Li1  1  0.161506  0.677924  0.162082  1
  Li  Li2  1  0.162082  0.161506  0.677924  1
  Li  Li3  1  0.677924  0.162082  0.161506  1
  Pu  Pu4  1  0.498662  0.001998  0.498550  1
  Pu  Pu5  1  0.999460  0.999460  0.999460  1
  Pu  Pu6  1  0.498550  0.498662  0.001998  1
  Pu  Pu7  1  0.001998  0.498550  0.498662  1
  Cl  Cl8  1  0.945273  0.265442  0.583793  1
  Cl  Cl9  1  0.426969  0.780745  0.571422  1
  Cl  Cl10  1  0.078402  0.222550  0.907818  1
  Cl  Cl11  1  0.571422  0.426969  0.780745  1
  Cl  Cl12  1  0.907818  0.078402  0.222550  1
  Cl  Cl13  1  0.403818  0.077484  0.722279  1
  Cl  Cl14  1  0.583793  0.945273  0.265442  1
  Cl  Cl15  1  0.100892  0.430311  0.268605  1
  Cl  Cl16  1  0.233889  0.405691  0.567088  1
  Cl  Cl17  1  0.222550  0.907818  0.078402  1
  Cl  Cl18  1  0.567088  0.233889  0.405691  1
  Cl  Cl19  1  0.940203  0.766949  0.081686  1
  Cl  Cl20  1  0.780745  0.571422  0.426969  1
  Cl  Cl21  1  0.718426  0.921857  0.571100  1
  Cl  Cl22  1  0.430311  0.268605  0.100892  1
  Cl  Cl23  1  0.268605  0.100892  0.430311  1
  Cl  Cl24  1  0.405691  0.567088  0.233889  1
  Cl  Cl25  1  0.766949  0.081686  0.940203  1
  Cl  Cl26  1  0.077484  0.722279  0.403818  1
  Cl  Cl27  1  0.571100  0.718426  0.921857  1
  Cl  Cl28  1  0.921856  0.571100  0.718426  1
  Cl  Cl29  1  0.722279  0.403818  0.077484  1
  Cl  Cl30  1  0.265442  0.583793  0.945273  1
  Cl  Cl31  1  0.081686  0.940203  0.766949  1
