# generated using pymatgen
data_Cs5BaNbP4
_symmetry_space_group_name_H-M   'P 1'
_cell_length_a   11.01068452
_cell_length_b   11.01068333
_cell_length_c   8.37866681
_cell_angle_alpha   87.93187005
_cell_angle_beta   87.93187473
_cell_angle_gamma   121.02013069
_symmetry_Int_Tables_number   1
_chemical_formula_structural   Cs5BaNbP4
_chemical_formula_sum   'Cs10 Ba2 Nb2 P8'
_cell_volume   868.17494744
_cell_formula_units_Z   2
loop_
 _symmetry_equiv_pos_site_id
 _symmetry_equiv_pos_as_xyz
  1  'x, y, z'
loop_
 _atom_site_type_symbol
 _atom_site_label
 _atom_site_symmetry_multiplicity
 _atom_site_fract_x
 _atom_site_fract_y
 _atom_site_fract_z
 _atom_site_occupancy
  Cs  Cs0  1  0.461674  0.526847  0.493060  1
  Cs  Cs1  1  0.067261  0.530390  0.498987  1
  Cs  Cs2  1  0.526847  0.461674  0.993060  1
  Cs  Cs3  1  0.530390  0.067261  0.998987  1
  Cs  Cs4  1  0.865710  0.140738  0.679709  1
  Cs  Cs5  1  0.290316  0.149547  0.720265  1
  Cs  Cs6  1  0.855785  0.715062  0.652631  1
  Cs  Cs7  1  0.140738  0.865710  0.179709  1
  Cs  Cs8  1  0.715062  0.855785  0.152631  1
  Cs  Cs9  1  0.149547  0.290316  0.220265  1
  Ba  Ba10  1  0.464387  0.935194  0.494712  1
  Ba  Ba11  1  0.935194  0.464387  0.994712  1
  Nb  Nb12  1  0.671257  0.328917  0.394401  1
  Nb  Nb13  1  0.328917  0.671257  0.894401  1
  P  P14  1  0.688731  0.338794  0.683158  1
  P  P15  1  0.338794  0.688731  0.183158  1
  P  P16  1  0.785344  0.204712  0.292881  1
  P  P17  1  0.422506  0.195105  0.334636  1
  P  P18  1  0.793697  0.568027  0.269849  1
  P  P19  1  0.204712  0.785344  0.792881  1
  P  P20  1  0.568027  0.793697  0.769849  1
  P  P21  1  0.195105  0.422506  0.834636  1
