# generated using pymatgen
data_Tm3ThMgCdCu4
_symmetry_space_group_name_H-M   'P 1'
_cell_length_a   3.66066300
_cell_length_b   7.63490599
_cell_length_c   7.62153401
_cell_angle_alpha   91.00183121
_cell_angle_beta   90.00000000
_cell_angle_gamma   90.00000000
_symmetry_Int_Tables_number   1
_chemical_formula_structural   Tm3ThMgCdCu4
_chemical_formula_sum   'Tm3 Th1 Mg1 Cd1 Cu4'
_cell_volume   212.98030397
_cell_formula_units_Z   1
loop_
 _symmetry_equiv_pos_site_id
 _symmetry_equiv_pos_as_xyz
  1  'x, y, z'
loop_
 _atom_site_type_symbol
 _atom_site_label
 _atom_site_symmetry_multiplicity
 _atom_site_fract_x
 _atom_site_fract_y
 _atom_site_fract_z
 _atom_site_occupancy
  Tm  Tm0  1  0.500000  0.820512  0.328994  1
  Tm  Tm1  1  0.500000  0.336618  0.177926  1
  Tm  Tm2  1  0.500000  0.670290  0.827718  1
  Th  Th3  1  0.500000  0.173518  0.667045  1
  Mg  Mg4  1  0.000000  0.998504  0.006715  1
  Cd  Cd5  1  0.000000  0.507041  0.497202  1
  Cu  Cu6  1  0.000000  0.625170  0.116954  1
  Cu  Cu7  1  0.000000  0.378518  0.885934  1
  Cu  Cu8  1  0.000000  0.873179  0.621657  1
  Cu  Cu9  1  0.000000  0.116649  0.369854  1
