# generated using pymatgen
data_Er7TmHg4
_symmetry_space_group_name_H-M   'P 1'
_cell_length_a   6.98262219
_cell_length_b   5.04858400
_cell_length_c   9.18184025
_cell_angle_alpha   90.00000000
_cell_angle_beta   89.97315795
_cell_angle_gamma   90.00000000
_symmetry_Int_Tables_number   1
_chemical_formula_structural   Er7TmHg4
_chemical_formula_sum   'Er7 Tm1 Hg4'
_cell_volume   323.68145360
_cell_formula_units_Z   1
loop_
 _symmetry_equiv_pos_site_id
 _symmetry_equiv_pos_as_xyz
  1  'x, y, z'
loop_
 _atom_site_type_symbol
 _atom_site_label
 _atom_site_symmetry_multiplicity
 _atom_site_fract_x
 _atom_site_fract_y
 _atom_site_fract_z
 _atom_site_occupancy
  Er  Er0  1  0.017088  0.750000  0.193975  1
  Er  Er1  1  0.516423  0.750000  0.305719  1
  Er  Er2  1  0.830777  0.250000  0.425650  1
  Er  Er3  1  0.169301  0.750000  0.574354  1
  Er  Er4  1  0.483328  0.250000  0.694289  1
  Er  Er5  1  0.983612  0.250000  0.805995  1
  Er  Er6  1  0.668745  0.750000  0.925833  1
  Tm  Tm7  1  0.331068  0.250000  0.074331  1
  Hg  Hg8  1  0.762563  0.250000  0.101998  1
  Hg  Hg9  1  0.263403  0.250000  0.397370  1
  Hg  Hg10  1  0.736771  0.750000  0.602101  1
  Hg  Hg11  1  0.236919  0.750000  0.898384  1
