# generated using pymatgen
data_Tm3Lu(Tc3Ge4)2
_symmetry_space_group_name_H-M   'P 1'
_cell_length_a   8.30764529
_cell_length_b   5.63530233
_cell_length_c   6.97133761
_cell_angle_alpha   75.93474563
_cell_angle_beta   90.05706230
_cell_angle_gamma   89.98632627
_symmetry_Int_Tables_number   1
_chemical_formula_structural   Tm3Lu(Tc3Ge4)2
_chemical_formula_sum   'Tm3 Lu1 Tc6 Ge8'
_cell_volume   316.58585710
_cell_formula_units_Z   1
loop_
 _symmetry_equiv_pos_site_id
 _symmetry_equiv_pos_as_xyz
  1  'x, y, z'
loop_
 _atom_site_type_symbol
 _atom_site_label
 _atom_site_symmetry_multiplicity
 _atom_site_fract_x
 _atom_site_fract_y
 _atom_site_fract_z
 _atom_site_occupancy
  Tm  Tm0  1  0.550923  0.077653  0.244468  1
  Tm  Tm1  1  0.051004  0.422417  0.755339  1
  Tm  Tm2  1  0.448819  0.922282  0.755650  1
  Lu  Lu3  1  0.949485  0.578204  0.243662  1
  Tc  Tc4  1  0.204812  0.116381  0.112350  1
  Tc  Tc5  1  0.704755  0.384262  0.887718  1
  Tc  Tc6  1  0.795620  0.883337  0.888218  1
  Tc  Tc7  1  0.294986  0.615367  0.112433  1
  Tc  Tc8  1  0.999854  0.000264  0.499526  1
  Tc  Tc9  1  0.499787  0.499986  0.500113  1
  Ge  Ge10  1  0.900062  0.120024  0.130544  1
  Ge  Ge11  1  0.400016  0.380141  0.869783  1
  Ge  Ge12  1  0.099943  0.879717  0.870264  1
  Ge  Ge13  1  0.600298  0.619730  0.130597  1
  Ge  Ge14  1  0.748723  0.224201  0.576261  1
  Ge  Ge15  1  0.248229  0.276430  0.423757  1
  Ge  Ge16  1  0.251100  0.775989  0.423377  1
  Ge  Ge17  1  0.751584  0.723614  0.575938  1
