# generated using pymatgen
data_Ho8Tl3Os
_symmetry_space_group_name_H-M   'P 1'
_cell_length_a   10.29572500
_cell_length_b   10.29572577
_cell_length_c   7.24653800
_cell_angle_alpha   90.00000000
_cell_angle_beta   90.00000000
_cell_angle_gamma   120.00000074
_symmetry_Int_Tables_number   1
_chemical_formula_structural   Ho8Tl3Os
_chemical_formula_sum   'Ho16 Tl6 Os2'
_cell_volume   665.23501862
_cell_formula_units_Z   2
loop_
 _symmetry_equiv_pos_site_id
 _symmetry_equiv_pos_as_xyz
  1  'x, y, z'
loop_
 _atom_site_type_symbol
 _atom_site_label
 _atom_site_symmetry_multiplicity
 _atom_site_fract_x
 _atom_site_fract_y
 _atom_site_fract_z
 _atom_site_occupancy
  Ho  Ho0  1  0.537567  0.075135  0.507436  1
  Ho  Ho1  1  0.924865  0.462433  0.507436  1
  Ho  Ho2  1  0.537567  0.462433  0.507436  1
  Ho  Ho3  1  0.462433  0.924865  0.007436  1
  Ho  Ho4  1  0.075135  0.537567  0.007436  1
  Ho  Ho5  1  0.462433  0.537567  0.007436  1
  Ho  Ho6  1  0.175777  0.351553  0.706288  1
  Ho  Ho7  1  0.648447  0.824223  0.706288  1
  Ho  Ho8  1  0.175777  0.824223  0.706288  1
  Ho  Ho9  1  0.824223  0.648447  0.206288  1
  Ho  Ho10  1  0.351553  0.175777  0.206288  1
  Ho  Ho11  1  0.824223  0.175777  0.206288  1
  Ho  Ho12  1  0.666667  0.333333  0.890769  1
  Ho  Ho13  1  0.333333  0.666667  0.390769  1
  Ho  Ho14  1  0.000000  0.000000  0.483831  1
  Ho  Ho15  1  0.000000  0.000000  0.983831  1
  Tl  Tl16  1  0.835285  0.670569  0.762797  1
  Tl  Tl17  1  0.329431  0.164715  0.762797  1
  Tl  Tl18  1  0.835285  0.164715  0.762797  1
  Tl  Tl19  1  0.164715  0.329431  0.262797  1
  Tl  Tl20  1  0.670569  0.835285  0.262797  1
  Tl  Tl21  1  0.164715  0.835285  0.262797  1
  Os  Os22  1  0.666667  0.333333  0.274858  1
  Os  Os23  1  0.333333  0.666667  0.774858  1
