# generated using pymatgen
data_Rb6DyInSb4
_symmetry_space_group_name_H-M   'P 1'
_cell_length_a   10.22106406
_cell_length_b   10.22106451
_cell_length_c   10.22106466
_cell_angle_alpha   129.05573306
_cell_angle_beta   137.47730098
_cell_angle_gamma   68.46400872
_symmetry_Int_Tables_number   1
_chemical_formula_structural   Rb6DyInSb4
_chemical_formula_sum   'Rb6 Dy1 In1 Sb4'
_cell_volume   550.71560539
_cell_formula_units_Z   1
loop_
 _symmetry_equiv_pos_site_id
 _symmetry_equiv_pos_as_xyz
  1  'x, y, z'
loop_
 _atom_site_type_symbol
 _atom_site_label
 _atom_site_symmetry_multiplicity
 _atom_site_fract_x
 _atom_site_fract_y
 _atom_site_fract_z
 _atom_site_occupancy
  Rb  Rb0  1  0.694689  0.479608  0.809919  1
  Rb  Rb1  1  0.805311  0.115230  0.284920  1
  Rb  Rb2  1  0.169690  0.884770  0.690081  1
  Rb  Rb3  1  0.330310  0.520392  0.215080  1
  Rb  Rb4  1  0.750000  0.000000  0.750000  1
  Rb  Rb5  1  0.250000  0.000000  0.250000  1
  Dy  Dy6  1  0.250000  0.500000  0.750000  1
  In  In7  1  0.750000  0.500000  0.250000  1
  Sb  Sb8  1  0.405218  0.209821  0.815821  1
  Sb  Sb9  1  0.606001  0.790179  0.195398  1
  Sb  Sb10  1  0.094782  0.410603  0.304602  1
  Sb  Sb11  1  0.893999  0.589397  0.684179  1
