# generated using pymatgen
data_NdGd5Zn4Pt13
_symmetry_space_group_name_H-M   'P 1'
_cell_length_a   8.26905803
_cell_length_b   8.26905896
_cell_length_c   8.26905700
_cell_angle_alpha   109.37680304
_cell_angle_beta   109.51844881
_cell_angle_gamma   109.51845265
_symmetry_Int_Tables_number   1
_chemical_formula_structural   NdGd5Zn4Pt13
_chemical_formula_sum   'Nd1 Gd5 Zn4 Pt13'
_cell_volume   435.25656581
_cell_formula_units_Z   1
loop_
 _symmetry_equiv_pos_site_id
 _symmetry_equiv_pos_as_xyz
  1  'x, y, z'
loop_
 _atom_site_type_symbol
 _atom_site_label
 _atom_site_symmetry_multiplicity
 _atom_site_fract_x
 _atom_site_fract_y
 _atom_site_fract_z
 _atom_site_occupancy
  Nd  Nd0  1  0.000000  0.702559  0.702559  1
  Gd  Gd1  1  0.699731  0.699396  0.999666  1
  Gd  Gd2  1  0.300269  0.999666  0.299933  1
  Gd  Gd3  1  0.000000  0.304471  0.304471  1
  Gd  Gd4  1  0.300269  0.299933  0.999666  1
  Gd  Gd5  1  0.699731  0.999666  0.699396  1
  Zn  Zn6  1  0.000000  0.999765  0.496790  1
  Zn  Zn7  1  0.000000  0.496790  0.999765  1
  Zn  Zn8  1  0.502974  0.999765  0.999765  1
  Zn  Zn9  1  0.497026  0.496790  0.496790  1
  Pt  Pt10  1  0.331711  0.331842  0.663554  1
  Pt  Pt11  1  0.668289  0.000132  0.331842  1
  Pt  Pt12  1  0.000000  0.670772  0.328315  1
  Pt  Pt13  1  0.668289  0.331842  0.000132  1
  Pt  Pt14  1  0.331711  0.663554  0.331842  1
  Pt  Pt15  1  0.000000  0.328315  0.670772  1
  Pt  Pt16  1  0.333594  0.667121  0.000713  1
  Pt  Pt17  1  0.333594  0.000713  0.667121  1
  Pt  Pt18  1  0.657543  0.328315  0.328315  1
  Pt  Pt19  1  0.666406  0.667121  0.333527  1
  Pt  Pt20  1  0.666406  0.333527  0.667121  1
  Pt  Pt21  1  0.342457  0.670772  0.670772  1
  Pt  Pt22  1  0.000000  0.007176  0.007176  1
