# generated using pymatgen
data_Dy16Ho3LuPb16
_symmetry_space_group_name_H-M   'P 1'
_cell_length_a   8.19483315
_cell_length_b   8.27800315
_cell_length_c   15.65058300
_cell_angle_alpha   90.00000000
_cell_angle_beta   90.00000000
_cell_angle_gamma   90.02194739
_symmetry_Int_Tables_number   1
_chemical_formula_structural   Dy16Ho3LuPb16
_chemical_formula_sum   'Dy16 Ho3 Lu1 Pb16'
_cell_volume   1061.68624622
_cell_formula_units_Z   1
loop_
 _symmetry_equiv_pos_site_id
 _symmetry_equiv_pos_as_xyz
  1  'x, y, z'
loop_
 _atom_site_type_symbol
 _atom_site_label
 _atom_site_symmetry_multiplicity
 _atom_site_fract_x
 _atom_site_fract_y
 _atom_site_fract_z
 _atom_site_occupancy
  Dy  Dy0  1  0.376547  0.841585  0.879183  1
  Dy  Dy1  1  0.876566  0.658395  0.620855  1
  Dy  Dy2  1  0.623160  0.158235  0.379123  1
  Dy  Dy3  1  0.123607  0.341458  0.120851  1
  Dy  Dy4  1  0.623160  0.158235  0.120877  1
  Dy  Dy5  1  0.123607  0.341458  0.379149  1
  Dy  Dy6  1  0.376547  0.841585  0.620817  1
  Dy  Dy7  1  0.876566  0.658395  0.879145  1
  Dy  Dy8  1  0.536037  0.323591  0.900095  1
  Dy  Dy9  1  0.035999  0.176411  0.599866  1
  Dy  Dy10  1  0.463890  0.676547  0.400122  1
  Dy  Dy11  1  0.964100  0.823685  0.099910  1
  Dy  Dy12  1  0.463890  0.676547  0.099878  1
  Dy  Dy13  1  0.964100  0.823685  0.400090  1
  Dy  Dy14  1  0.536037  0.323591  0.599905  1
  Dy  Dy15  1  0.035999  0.176411  0.900134  1
  Ho  Ho16  1  0.208410  0.504344  0.750000  1
  Ho  Ho17  1  0.708421  0.995734  0.750000  1
  Ho  Ho18  1  0.791605  0.495779  0.250000  1
  Lu  Lu19  1  0.291363  0.004429  0.250000  1
  Pb  Pb20  1  0.281181  0.032807  0.043632  1
  Pb  Pb21  1  0.781163  0.467166  0.456596  1
  Pb  Pb22  1  0.718845  0.967128  0.543327  1
  Pb  Pb23  1  0.218831  0.532837  0.956671  1
  Pb  Pb24  1  0.718845  0.967128  0.956673  1
  Pb  Pb25  1  0.218831  0.532837  0.543329  1
  Pb  Pb26  1  0.281181  0.032807  0.456368  1
  Pb  Pb27  1  0.781163  0.467166  0.043404  1
  Pb  Pb28  1  0.571545  0.626025  0.750000  1
  Pb  Pb29  1  0.071533  0.873975  0.750000  1
  Pb  Pb30  1  0.428390  0.373668  0.250000  1
  Pb  Pb31  1  0.929053  0.125775  0.250000  1
  Pb  Pb32  1  0.347618  0.154404  0.750000  1
  Pb  Pb33  1  0.847631  0.345459  0.750000  1
  Pb  Pb34  1  0.652199  0.845578  0.250000  1
  Pb  Pb35  1  0.152382  0.655142  0.250000  1
