# generated using pymatgen
data_La5(HgC)2
_symmetry_space_group_name_H-M   'P 1'
_cell_length_a   9.15459400
_cell_length_b   13.80483600
_cell_length_c   4.04642700
_cell_angle_alpha   90.00000000
_cell_angle_beta   90.00000000
_cell_angle_gamma   90.00000000
_symmetry_Int_Tables_number   1
_chemical_formula_structural   La5(HgC)2
_chemical_formula_sum   'La10 Hg4 C4'
_cell_volume   511.37801130
_cell_formula_units_Z   2
loop_
 _symmetry_equiv_pos_site_id
 _symmetry_equiv_pos_as_xyz
  1  'x, y, z'
loop_
 _atom_site_type_symbol
 _atom_site_label
 _atom_site_symmetry_multiplicity
 _atom_site_fract_x
 _atom_site_fract_y
 _atom_site_fract_z
 _atom_site_occupancy
  La  La0  1  0.500000  0.000000  0.000000  1
  La  La1  1  0.179659  0.189796  0.000000  1
  La  La2  1  0.679660  0.310204  0.000000  1
  La  La3  1  0.000000  0.500000  0.000000  1
  La  La4  1  0.320341  0.689796  0.000000  1
  La  La5  1  0.820341  0.810204  0.000000  1
  La  La6  1  0.852663  0.067961  0.499998  1
  La  La7  1  0.352663  0.432039  0.499998  1
  La  La8  1  0.647338  0.567961  0.499998  1
  La  La9  1  0.147338  0.932039  0.499998  1
  Hg  Hg10  1  0.474296  0.179263  0.499998  1
  Hg  Hg11  1  0.974296  0.320737  0.499998  1
  Hg  Hg12  1  0.025703  0.679263  0.499998  1
  Hg  Hg13  1  0.525705  0.820737  0.499998  1
  C  C14  1  0.039860  0.043014  0.000000  1
  C  C15  1  0.539859  0.456986  0.000000  1
  C  C16  1  0.460140  0.543014  0.000000  1
  C  C17  1  0.960141  0.956986  0.000000  1
