# generated using pymatgen
data_Y10Ho6In4OsRh3
_symmetry_space_group_name_H-M   'P 1'
_cell_length_a   9.67174626
_cell_length_b   9.71577841
_cell_length_c   9.64678400
_cell_angle_alpha   59.94403602
_cell_angle_beta   59.87167767
_cell_angle_gamma   60.01242238
_symmetry_Int_Tables_number   1
_chemical_formula_structural   Y10Ho6In4OsRh3
_chemical_formula_sum   'Y10 Ho6 In4 Os1 Rh3'
_cell_volume   640.15343584
_cell_formula_units_Z   1
loop_
 _symmetry_equiv_pos_site_id
 _symmetry_equiv_pos_as_xyz
  1  'x, y, z'
loop_
 _atom_site_type_symbol
 _atom_site_label
 _atom_site_symmetry_multiplicity
 _atom_site_fract_x
 _atom_site_fract_y
 _atom_site_fract_z
 _atom_site_occupancy
  Y  Y0  1  0.188956  0.190977  0.809854  1
  Y  Y1  1  0.600212  0.600080  0.202609  1
  Y  Y2  1  0.441700  0.056404  0.440990  1
  Y  Y3  1  0.440933  0.441538  0.057471  1
  Y  Y4  1  0.811568  0.190041  0.810500  1
  Y  Y5  1  0.190696  0.812845  0.192901  1
  Y  Y6  1  0.440520  0.056689  0.059652  1
  Y  Y7  1  0.191341  0.813295  0.804116  1
  Y  Y8  1  0.059019  0.440668  0.057855  1
  Y  Y9  1  0.806522  0.813753  0.190585  1
  Ho  Ho10  1  0.202051  0.601125  0.599659  1
  Ho  Ho11  1  0.057881  0.442104  0.440501  1
  Ho  Ho12  1  0.060534  0.056723  0.439871  1
  Ho  Ho13  1  0.811887  0.189415  0.189163  1
  Ho  Ho14  1  0.601416  0.201284  0.598943  1
  Ho  Ho15  1  0.598283  0.599499  0.597188  1
  In  In16  1  0.832978  0.832883  0.832965  1
  In  In17  1  0.831990  0.833171  0.501823  1
  In  In18  1  0.500121  0.833271  0.833130  1
  In  In19  1  0.831987  0.501473  0.833042  1
  Os  Os20  1  0.389215  0.824564  0.394634  1
  Rh  Rh21  1  0.388277  0.389788  0.395303  1
  Rh  Rh22  1  0.827930  0.386974  0.395882  1
  Rh  Rh23  1  0.393984  0.391438  0.821363  1
