# generated using pymatgen
data_Pr12Ga3AsI12
_symmetry_space_group_name_H-M   'P 1'
_cell_length_a   10.98457477
_cell_length_b   10.92173205
_cell_length_c   10.92173139
_cell_angle_alpha   109.35436948
_cell_angle_beta   109.58782256
_cell_angle_gamma   109.58782163
_symmetry_Int_Tables_number   1
_chemical_formula_structural   Pr12Ga3AsI12
_chemical_formula_sum   'Pr12 Ga3 As1 I12'
_cell_volume   1007.20384880
_cell_formula_units_Z   1
loop_
 _symmetry_equiv_pos_site_id
 _symmetry_equiv_pos_as_xyz
  1  'x, y, z'
loop_
 _atom_site_type_symbol
 _atom_site_label
 _atom_site_symmetry_multiplicity
 _atom_site_fract_x
 _atom_site_fract_y
 _atom_site_fract_z
 _atom_site_occupancy
  Pr  Pr0  1  0.469347  0.485950  0.233709  1
  Pr  Pr1  1  0.750000  0.235629  0.264371  1
  Pr  Pr2  1  0.750000  0.013686  0.486314  1
  Pr  Pr3  1  0.236314  0.472627  0.486314  1
  Pr  Pr4  1  0.264362  0.747759  0.233709  1
  Pr  Pr5  1  0.030653  0.266291  0.014050  1
  Pr  Pr6  1  0.014371  0.028743  0.264371  1
  Pr  Pr7  1  0.483397  0.747759  0.014050  1
  Pr  Pr8  1  0.485629  0.235629  0.471257  1
  Pr  Pr9  1  0.016603  0.485950  0.752241  1
  Pr  Pr10  1  0.263686  0.013686  0.027373  1
  Pr  Pr11  1  0.235638  0.266291  0.752241  1
  Ga  Ga12  1  0.250000  0.250351  0.249649  1
  Ga  Ga13  1  0.499649  0.999299  0.249649  1
  Ga  Ga14  1  0.000351  0.250351  0.500701  1
  As  As15  1  0.250000  0.500000  0.000000  1
  I  I16  1  0.250000  0.757255  0.742745  1
  I  I17  1  0.515412  0.508036  0.758769  1
  I  I18  1  0.984588  0.741231  0.991964  1
  I  I19  1  0.743356  0.250732  0.758769  1
  I  I20  1  0.992745  0.985489  0.742745  1
  I  I21  1  0.250000  0.992155  0.507845  1
  I  I22  1  0.757845  0.515689  0.507845  1
  I  I23  1  0.507376  0.250732  0.991964  1
  I  I24  1  0.756644  0.741231  0.249268  1
  I  I25  1  0.742155  0.992155  0.984311  1
  I  I26  1  0.992624  0.508036  0.249268  1
  I  I27  1  0.507255  0.757255  0.514511  1
