# generated using pymatgen
data_MgZnBi3Ru3O14
_symmetry_space_group_name_H-M   'P 1'
_cell_length_a   7.19841674
_cell_length_b   7.34790257
_cell_length_c   7.34790200
_cell_angle_alpha   60.00000259
_cell_angle_beta   59.31064187
_cell_angle_gamma   59.31064709
_symmetry_Int_Tables_number   1
_chemical_formula_structural   MgZnBi3Ru3O14
_chemical_formula_sum   'Mg1 Zn1 Bi3 Ru3 O14'
_cell_volume   271.92184027
_cell_formula_units_Z   1
loop_
 _symmetry_equiv_pos_site_id
 _symmetry_equiv_pos_as_xyz
  1  'x, y, z'
loop_
 _atom_site_type_symbol
 _atom_site_label
 _atom_site_symmetry_multiplicity
 _atom_site_fract_x
 _atom_site_fract_y
 _atom_site_fract_z
 _atom_site_occupancy
  Mg  Mg0  1  0.125000  0.625000  0.625000  1
  Zn  Zn1  1  0.625000  0.125000  0.125000  1
  Bi  Bi2  1  0.125000  0.125000  0.625000  1
  Bi  Bi3  1  0.125000  0.625000  0.125000  1
  Bi  Bi4  1  0.125000  0.125000  0.125000  1
  Ru  Ru5  1  0.625000  0.625000  0.125000  1
  Ru  Ru6  1  0.625000  0.125000  0.625000  1
  Ru  Ru7  1  0.625000  0.625000  0.625000  1
  O  O8  1  0.302530  0.232490  0.232490  1
  O  O9  1  0.947470  0.017510  0.017510  1
  O  O10  1  0.570625  0.939395  0.550585  1
  O  O11  1  0.288580  0.719647  0.272126  1
  O  O12  1  0.570625  0.550585  0.939395  1
  O  O13  1  0.961420  0.530353  0.530353  1
  O  O14  1  0.570625  0.939395  0.939395  1
  O  O15  1  0.961420  0.977874  0.530353  1
  O  O16  1  0.961420  0.530353  0.977874  1
  O  O17  1  0.679375  0.310605  0.310605  1
  O  O18  1  0.288580  0.719647  0.719647  1
  O  O19  1  0.679375  0.310605  0.699415  1
  O  O20  1  0.288580  0.272126  0.719647  1
  O  O21  1  0.679375  0.699415  0.310605  1
