# generated using pymatgen
data_Rb4PaVSe6
_symmetry_space_group_name_H-M   'P 1'
_cell_length_a   14.00028500
_cell_length_b   6.58269154
_cell_length_c   9.46131700
_cell_angle_alpha   72.27509084
_cell_angle_beta   90.00000000
_cell_angle_gamma   90.00000000
_symmetry_Int_Tables_number   1
_chemical_formula_structural   Rb4PaVSe6
_chemical_formula_sum   'Rb8 Pa2 V2 Se12'
_cell_volume   830.55860015
_cell_formula_units_Z   2
loop_
 _symmetry_equiv_pos_site_id
 _symmetry_equiv_pos_as_xyz
  1  'x, y, z'
loop_
 _atom_site_type_symbol
 _atom_site_label
 _atom_site_symmetry_multiplicity
 _atom_site_fract_x
 _atom_site_fract_y
 _atom_site_fract_z
 _atom_site_occupancy
  Rb  Rb0  1  0.956130  0.676403  0.651198  1
  Rb  Rb1  1  0.456130  0.823597  0.348802  1
  Rb  Rb2  1  0.044383  0.325107  0.349662  1
  Rb  Rb3  1  0.544383  0.174893  0.650338  1
  Rb  Rb4  1  0.867793  0.085113  0.903627  1
  Rb  Rb5  1  0.367793  0.414887  0.096373  1
  Rb  Rb6  1  0.131870  0.925095  0.097960  1
  Rb  Rb7  1  0.631870  0.574905  0.902040  1
  Pa  Pa8  1  0.749091  0.652342  0.297738  1
  Pa  Pa9  1  0.249091  0.847658  0.702262  1
  V  V10  1  0.252041  0.347749  0.700047  1
  V  V11  1  0.752041  0.152251  0.299953  1
  Se  Se12  1  0.903111  0.931191  0.280631  1
  Se  Se13  1  0.403111  0.568809  0.719369  1
  Se  Se14  1  0.096203  0.111783  0.720918  1
  Se  Se15  1  0.596203  0.388217  0.279082  1
  Se  Se16  1  0.815181  0.287287  0.512736  1
  Se  Se17  1  0.315181  0.212713  0.487264  1
  Se  Se18  1  0.184071  0.677041  0.486111  1
  Se  Se19  1  0.684071  0.822959  0.513889  1
  Se  Se20  1  0.838514  0.480507  0.095749  1
  Se  Se21  1  0.338514  0.019493  0.904251  1
  Se  Se22  1  0.161609  0.492198  0.900807  1
  Se  Se23  1  0.661609  0.007802  0.099193  1
