# generated using pymatgen
data_Li2PrNd2Al7
_symmetry_space_group_name_H-M   'P 1'
_cell_length_a   9.44585296
_cell_length_b   9.44585259
_cell_length_c   9.44585226
_cell_angle_alpha   34.90082063
_cell_angle_beta   34.90082421
_cell_angle_gamma   34.90082460
_symmetry_Int_Tables_number   1
_chemical_formula_structural   Li2PrNd2Al7
_chemical_formula_sum   'Li2 Pr1 Nd2 Al7'
_cell_volume   246.30591902
_cell_formula_units_Z   1
loop_
 _symmetry_equiv_pos_site_id
 _symmetry_equiv_pos_as_xyz
  1  'x, y, z'
loop_
 _atom_site_type_symbol
 _atom_site_label
 _atom_site_symmetry_multiplicity
 _atom_site_fract_x
 _atom_site_fract_y
 _atom_site_fract_z
 _atom_site_occupancy
  Li  Li0  1  0.335309  0.335309  0.335309  1
  Li  Li1  1  0.664691  0.664691  0.664691  1
  Pr  Pr2  1  0.000000  0.000000  0.000000  1
  Nd  Nd3  1  0.139890  0.139890  0.139890  1
  Nd  Nd4  1  0.860110  0.860110  0.860110  1
  Al  Al5  1  0.584800  0.584800  0.076016  1
  Al  Al6  1  0.415200  0.923984  0.415200  1
  Al  Al7  1  0.584800  0.076016  0.584800  1
  Al  Al8  1  0.076016  0.584800  0.584800  1
  Al  Al9  1  0.415200  0.415200  0.923984  1
  Al  Al10  1  0.500000  0.500000  0.500000  1
  Al  Al11  1  0.923984  0.415200  0.415200  1
