# generated using pymatgen
data_YTm3(MoN3)4
_symmetry_space_group_name_H-M   'P 1'
_cell_length_a   7.30142840
_cell_length_b   7.30142775
_cell_length_c   6.23934530
_cell_angle_alpha   73.29679850
_cell_angle_beta   73.29679592
_cell_angle_gamma   81.01262906
_symmetry_Int_Tables_number   1
_chemical_formula_structural   YTm3(MoN3)4
_chemical_formula_sum   'Y1 Tm3 Mo4 N12'
_cell_volume   304.16384734
_cell_formula_units_Z   1
loop_
 _symmetry_equiv_pos_site_id
 _symmetry_equiv_pos_as_xyz
  1  'x, y, z'
loop_
 _atom_site_type_symbol
 _atom_site_label
 _atom_site_symmetry_multiplicity
 _atom_site_fract_x
 _atom_site_fract_y
 _atom_site_fract_z
 _atom_site_occupancy
  Y  Y0  1  0.292400  0.707600  0.750000  1
  Tm  Tm1  1  0.912564  0.087436  0.750000  1
  Tm  Tm2  1  0.709739  0.290261  0.250000  1
  Tm  Tm3  1  0.085785  0.914215  0.250000  1
  Mo  Mo4  1  0.800822  0.618382  0.773573  1
  Mo  Mo5  1  0.198578  0.380348  0.228605  1
  Mo  Mo6  1  0.619652  0.801422  0.271395  1
  Mo  Mo7  1  0.381618  0.199178  0.726427  1
  N  N8  1  0.216016  0.001802  0.848444  1
  N  N9  1  0.370763  0.345418  0.427488  1
  N  N10  1  0.633055  0.654411  0.569244  1
  N  N11  1  0.627624  0.110521  0.661362  1
  N  N12  1  0.998198  0.783984  0.651556  1
  N  N13  1  0.781812  0.002139  0.152188  1
  N  N14  1  0.110256  0.626392  0.165816  1
  N  N15  1  0.889479  0.372376  0.838638  1
  N  N16  1  0.997861  0.218188  0.347812  1
  N  N17  1  0.345589  0.366945  0.930756  1
  N  N18  1  0.654582  0.629237  0.072512  1
  N  N19  1  0.373608  0.889744  0.334184  1
