# generated using pymatgen
data_LuZr2IrF15
_symmetry_space_group_name_H-M   'P 1'
_cell_length_a   8.06458975
_cell_length_b   8.06458921
_cell_length_c   8.08538487
_cell_angle_alpha   79.92879385
_cell_angle_beta   79.92879664
_cell_angle_gamma   99.81567030
_symmetry_Int_Tables_number   1
_chemical_formula_structural   LuZr2IrF15
_chemical_formula_sum   'Lu2 Zr4 Ir2 F30'
_cell_volume   498.68877294
_cell_formula_units_Z   2
loop_
 _symmetry_equiv_pos_site_id
 _symmetry_equiv_pos_as_xyz
  1  'x, y, z'
loop_
 _atom_site_type_symbol
 _atom_site_label
 _atom_site_symmetry_multiplicity
 _atom_site_fract_x
 _atom_site_fract_y
 _atom_site_fract_z
 _atom_site_occupancy
  Lu  Lu0  1  0.676021  0.323979  0.750000  1
  Lu  Lu1  1  0.323979  0.676021  0.250000  1
  Zr  Zr2  1  0.823030  0.749035  0.326177  1
  Zr  Zr3  1  0.250965  0.176970  0.173823  1
  Zr  Zr4  1  0.176970  0.250965  0.673823  1
  Zr  Zr5  1  0.749035  0.823030  0.826177  1
  Ir  Ir6  1  0.249176  0.750824  0.750000  1
  Ir  Ir7  1  0.750824  0.249176  0.250000  1
  F  F8  1  0.149505  0.185539  0.946444  1
  F  F9  1  0.687150  0.560514  0.847717  1
  F  F10  1  0.045838  0.653977  0.313684  1
  F  F11  1  0.653977  0.045838  0.813684  1
  F  F12  1  0.560514  0.687150  0.347717  1
  F  F13  1  0.185539  0.149505  0.446444  1
  F  F14  1  0.850495  0.814461  0.053556  1
  F  F15  1  0.312850  0.439486  0.152283  1
  F  F16  1  0.954162  0.346023  0.686316  1
  F  F17  1  0.346023  0.954162  0.186316  1
  F  F18  1  0.439486  0.312850  0.652283  1
  F  F19  1  0.814461  0.850495  0.553556  1
  F  F20  1  0.968204  0.031796  0.750000  1
  F  F21  1  0.540283  0.752376  0.030053  1
  F  F22  1  0.247624  0.459717  0.469947  1
  F  F23  1  0.459717  0.247624  0.969947  1
  F  F24  1  0.752376  0.540283  0.530053  1
  F  F25  1  0.031796  0.968204  0.250000  1
  F  F26  1  0.215687  0.726803  0.998263  1
  F  F27  1  0.225823  0.497842  0.786954  1
  F  F28  1  0.995710  0.713861  0.775645  1
  F  F29  1  0.713861  0.995710  0.275645  1
  F  F30  1  0.497842  0.225823  0.286954  1
  F  F31  1  0.726803  0.215687  0.498263  1
  F  F32  1  0.784313  0.273197  0.001737  1
  F  F33  1  0.774177  0.502158  0.213046  1
  F  F34  1  0.004290  0.286139  0.224355  1
  F  F35  1  0.286139  0.004290  0.724355  1
  F  F36  1  0.502158  0.774177  0.713046  1
  F  F37  1  0.273197  0.784313  0.501737  1
