# generated using pymatgen
data_TmHfMn3Co9P7
_symmetry_space_group_name_H-M   'P 1'
_cell_length_a   9.02634700
_cell_length_b   9.02634605
_cell_length_c   3.56337200
_cell_angle_alpha   90.00000000
_cell_angle_beta   90.00000000
_cell_angle_gamma   119.99999981
_symmetry_Int_Tables_number   1
_chemical_formula_structural   TmHfMn3Co9P7
_chemical_formula_sum   'Tm1 Hf1 Mn3 Co9 P7'
_cell_volume   251.42925020
_cell_formula_units_Z   1
loop_
 _symmetry_equiv_pos_site_id
 _symmetry_equiv_pos_as_xyz
  1  'x, y, z'
loop_
 _atom_site_type_symbol
 _atom_site_label
 _atom_site_symmetry_multiplicity
 _atom_site_fract_x
 _atom_site_fract_y
 _atom_site_fract_z
 _atom_site_occupancy
  Tm  Tm0  1  0.666667  0.333333  0.500000  1
  Hf  Hf1  1  0.000000  0.000000  0.000000  1
  Mn  Mn2  1  0.456642  0.567087  0.500000  1
  Mn  Mn3  1  0.432913  0.889556  0.500000  1
  Mn  Mn4  1  0.110444  0.543358  0.500000  1
  Co  Co5  1  0.705313  0.607089  0.000000  1
  Co  Co6  1  0.392911  0.098225  0.000000  1
  Co  Co7  1  0.901775  0.294687  0.000000  1
  Co  Co8  1  0.214974  0.387725  0.000000  1
  Co  Co9  1  0.612275  0.827248  0.000000  1
  Co  Co10  1  0.172752  0.785026  0.000000  1
  Co  Co11  1  0.276798  0.224337  0.500000  1
  Co  Co12  1  0.775663  0.052459  0.500000  1
  Co  Co13  1  0.947541  0.723202  0.500000  1
  P  P14  1  0.447835  0.367922  0.000000  1
  P  P15  1  0.632078  0.079913  0.000000  1
  P  P16  1  0.920087  0.552165  0.000000  1
  P  P17  1  0.044192  0.255285  0.500000  1
  P  P18  1  0.744715  0.788908  0.500000  1
  P  P19  1  0.211092  0.955808  0.500000  1
  P  P20  1  0.333333  0.666667  0.000000  1
