# generated using pymatgen
data_DyErCo3P7Ru9
_symmetry_space_group_name_H-M   'P 1'
_cell_length_a   9.33310900
_cell_length_b   9.33310883
_cell_length_c   3.83184400
_cell_angle_alpha   90.00000000
_cell_angle_beta   90.00000000
_cell_angle_gamma   120.00000416
_symmetry_Int_Tables_number   1
_chemical_formula_structural   DyErCo3P7Ru9
_chemical_formula_sum   'Dy1 Er1 Co3 P7 Ru9'
_cell_volume   289.06206522
_cell_formula_units_Z   1
loop_
 _symmetry_equiv_pos_site_id
 _symmetry_equiv_pos_as_xyz
  1  'x, y, z'
loop_
 _atom_site_type_symbol
 _atom_site_label
 _atom_site_symmetry_multiplicity
 _atom_site_fract_x
 _atom_site_fract_y
 _atom_site_fract_z
 _atom_site_occupancy
  Dy  Dy0  1  0.333333  0.666667  0.000000  1
  Er  Er1  1  0.666667  0.333333  0.500000  1
  Co  Co2  1  0.158028  0.888945  0.000000  1
  Co  Co3  1  0.111055  0.269083  0.000000  1
  Co  Co4  1  0.730917  0.841972  0.000000  1
  P  P5  1  0.411551  0.110279  0.000000  1
  P  P6  1  0.889721  0.301272  0.000000  1
  P  P7  1  0.698728  0.588449  0.000000  1
  P  P8  1  0.115361  0.714214  0.500000  1
  P  P9  1  0.285786  0.401147  0.500000  1
  P  P10  1  0.598853  0.884639  0.500000  1
  P  P11  1  0.000000  0.000000  0.000000  1
  Ru  Ru12  1  0.425886  0.363861  0.000000  1
  Ru  Ru13  1  0.636139  0.062025  0.000000  1
  Ru  Ru14  1  0.937975  0.574114  0.000000  1
  Ru  Ru15  1  0.382505  0.947367  0.500000  1
  Ru  Ru16  1  0.052633  0.435138  0.500000  1
  Ru  Ru17  1  0.564862  0.617495  0.500000  1
  Ru  Ru18  1  0.205704  0.120701  0.500000  1
  Ru  Ru19  1  0.879299  0.085003  0.500000  1
  Ru  Ru20  1  0.914997  0.794296  0.500000  1
