# generated using pymatgen
data_Sm2BPdPt5
_symmetry_space_group_name_H-M   'P 1'
_cell_length_a   6.11319119
_cell_length_b   6.18505665
_cell_length_c   6.18505649
_cell_angle_alpha   56.57588477
_cell_angle_beta   57.53414834
_cell_angle_gamma   57.53415364
_symmetry_Int_Tables_number   1
_chemical_formula_structural   Sm2BPdPt5
_chemical_formula_sum   'Sm2 B1 Pd1 Pt5'
_cell_volume   154.72390026
_cell_formula_units_Z   1
loop_
 _symmetry_equiv_pos_site_id
 _symmetry_equiv_pos_as_xyz
  1  'x, y, z'
loop_
 _atom_site_type_symbol
 _atom_site_label
 _atom_site_symmetry_multiplicity
 _atom_site_fract_x
 _atom_site_fract_y
 _atom_site_fract_z
 _atom_site_occupancy
  Sm  Sm0  1  0.246666  0.242882  0.242882  1
  Sm  Sm1  1  0.760802  0.752216  0.752216  1
  B  B2  1  0.484904  0.510096  0.510096  1
  Pd  Pd3  1  0.749139  0.242368  0.242369  1
  Pt  Pt4  1  0.247541  0.744716  0.240873  1
  Pt  Pt5  1  0.756467  0.753523  0.251543  1
  Pt  Pt6  1  0.247541  0.240872  0.744717  1
  Pt  Pt7  1  0.756467  0.251544  0.753522  1
  Pt  Pt8  1  0.250472  0.761784  0.761783  1
