# generated using pymatgen
data_CeErZr3Si4
_symmetry_space_group_name_H-M   'P 1'
_cell_length_a   7.36014985
_cell_length_b   7.15137687
_cell_length_c   7.32987787
_cell_angle_alpha   71.85312567
_cell_angle_beta   89.73657003
_cell_angle_gamma   90.25571143
_symmetry_Int_Tables_number   1
_chemical_formula_structural   CeErZr3Si4
_chemical_formula_sum   'Ce2 Er2 Zr6 Si8'
_cell_volume   366.60900779
_cell_formula_units_Z   2
loop_
 _symmetry_equiv_pos_site_id
 _symmetry_equiv_pos_as_xyz
  1  'x, y, z'
loop_
 _atom_site_type_symbol
 _atom_site_label
 _atom_site_symmetry_multiplicity
 _atom_site_fract_x
 _atom_site_fract_y
 _atom_site_fract_z
 _atom_site_occupancy
  Ce  Ce0  1  0.169501  0.573796  0.312104  1
  Ce  Ce1  1  0.830499  0.426204  0.687896  1
  Er  Er2  1  0.673091  0.927785  0.692870  1
  Er  Er3  1  0.326909  0.072215  0.307130  1
  Zr  Zr4  1  0.677230  0.750465  0.249814  1
  Zr  Zr5  1  0.322770  0.249535  0.750186  1
  Zr  Zr6  1  0.180338  0.750259  0.752901  1
  Zr  Zr7  1  0.819662  0.249741  0.247099  1
  Zr  Zr8  1  0.000000  0.000000  0.000000  1
  Zr  Zr9  1  0.500000  0.500000  0.000000  1
  Si  Si10  1  0.967213  0.874167  0.417612  1
  Si  Si11  1  0.032787  0.125833  0.582388  1
  Si  Si12  1  0.469448  0.630153  0.583571  1
  Si  Si13  1  0.530552  0.369847  0.416429  1
  Si  Si14  1  0.875543  0.628497  0.991505  1
  Si  Si15  1  0.124457  0.371503  0.008495  1
  Si  Si16  1  0.377817  0.873191  0.008422  1
  Si  Si17  1  0.622183  0.126809  0.991578  1
