# generated using pymatgen
data_Tb3In3Rh2Au
_symmetry_space_group_name_H-M   'P 1'
_cell_length_a   7.78194200
_cell_length_b   7.78194197
_cell_length_c   3.82447000
_cell_angle_alpha   90.00000000
_cell_angle_beta   90.00000000
_cell_angle_gamma   119.99999165
_symmetry_Int_Tables_number   1
_chemical_formula_structural   Tb3In3Rh2Au
_chemical_formula_sum   'Tb3 In3 Rh2 Au1'
_cell_volume   200.57550952
_cell_formula_units_Z   1
loop_
 _symmetry_equiv_pos_site_id
 _symmetry_equiv_pos_as_xyz
  1  'x, y, z'
loop_
 _atom_site_type_symbol
 _atom_site_label
 _atom_site_symmetry_multiplicity
 _atom_site_fract_x
 _atom_site_fract_y
 _atom_site_fract_z
 _atom_site_occupancy
  Tb  Tb0  1  0.587321  0.981715  0.500000  1
  Tb  Tb1  1  0.394394  0.412679  0.500000  1
  Tb  Tb2  1  0.018285  0.605606  0.500000  1
  In  In3  1  0.740990  0.744987  0.000000  1
  In  In4  1  0.003997  0.259010  0.000000  1
  In  In5  1  0.255013  0.996003  0.000000  1
  Rh  Rh6  1  0.333333  0.666667  0.000000  1
  Rh  Rh7  1  0.000000  0.000000  0.500000  1
  Au  Au8  1  0.666667  0.333333  0.000000  1
