# generated using pymatgen
data_Sr2SnB2Pd7
_symmetry_space_group_name_H-M   'P 1'
_cell_length_a   5.69707500
_cell_length_b   5.69707553
_cell_length_c   7.52791400
_cell_angle_alpha   90.00000000
_cell_angle_beta   90.00000000
_cell_angle_gamma   120.00000273
_symmetry_Int_Tables_number   1
_chemical_formula_structural   Sr2SnB2Pd7
_chemical_formula_sum   'Sr2 Sn1 B2 Pd7'
_cell_volume   211.59684250
_cell_formula_units_Z   1
loop_
 _symmetry_equiv_pos_site_id
 _symmetry_equiv_pos_as_xyz
  1  'x, y, z'
loop_
 _atom_site_type_symbol
 _atom_site_label
 _atom_site_symmetry_multiplicity
 _atom_site_fract_x
 _atom_site_fract_y
 _atom_site_fract_z
 _atom_site_occupancy
  Sr  Sr0  1  0.000000  0.000000  0.000000  1
  Sr  Sr1  1  0.000000  0.000000  0.500000  1
  Sn  Sn2  1  0.666666  0.333332  0.000000  1
  B  B3  1  0.666666  0.333332  0.500000  1
  B  B4  1  0.333333  0.666667  0.500000  1
  Pd  Pd5  1  0.333333  0.666667  0.000000  1
  Pd  Pd6  1  0.500476  0.000952  0.307329  1
  Pd  Pd7  1  0.999048  0.499525  0.307329  1
  Pd  Pd8  1  0.500477  0.499525  0.307329  1
  Pd  Pd9  1  0.500476  0.000952  0.692671  1
  Pd  Pd10  1  0.999048  0.499525  0.692671  1
  Pd  Pd11  1  0.500477  0.499525  0.692671  1
