# generated using pymatgen
data_Ho4AlNi13
_symmetry_space_group_name_H-M   'P 1'
_cell_length_a   4.90493321
_cell_length_b   4.90493393
_cell_length_c   12.41445815
_cell_angle_alpha   78.63010554
_cell_angle_beta   78.63011384
_cell_angle_gamma   60.71199742
_symmetry_Int_Tables_number   1
_chemical_formula_structural   Ho4AlNi13
_chemical_formula_sum   'Ho4 Al1 Ni13'
_cell_volume   253.60355285
_cell_formula_units_Z   1
loop_
 _symmetry_equiv_pos_site_id
 _symmetry_equiv_pos_as_xyz
  1  'x, y, z'
loop_
 _atom_site_type_symbol
 _atom_site_label
 _atom_site_symmetry_multiplicity
 _atom_site_fract_x
 _atom_site_fract_y
 _atom_site_fract_z
 _atom_site_occupancy
  Ho  Ho0  1  0.946372  0.946372  0.160933  1
  Ho  Ho1  1  0.053628  0.053628  0.839067  1
  Ho  Ho2  1  0.851953  0.851953  0.443422  1
  Ho  Ho3  1  0.148047  0.148047  0.556578  1
  Al  Al4  1  0.500000  0.500000  0.000000  1
  Ni  Ni5  1  0.500000  0.500000  0.500000  1
  Ni  Ni6  1  0.723195  0.723195  0.833458  1
  Ni  Ni7  1  0.276805  0.276805  0.166542  1
  Ni  Ni8  1  0.611824  0.611824  0.166356  1
  Ni  Ni9  1  0.388176  0.388176  0.833644  1
  Ni  Ni10  1  0.000000  0.500000  0.000000  1
  Ni  Ni11  1  0.500000  0.000000  0.000000  1
  Ni  Ni12  1  0.388681  0.388681  0.330921  1
  Ni  Ni13  1  0.890641  0.389208  0.330786  1
  Ni  Ni14  1  0.389208  0.890641  0.330786  1
  Ni  Ni15  1  0.611319  0.611319  0.669079  1
  Ni  Ni16  1  0.109359  0.610792  0.669214  1
  Ni  Ni17  1  0.610792  0.109359  0.669214  1
