# generated using pymatgen
data_Nd5SiBi2
_symmetry_space_group_name_H-M   'P 1'
_cell_length_a   12.56318300
_cell_length_b   9.46715000
_cell_length_c   8.30841100
_cell_angle_alpha   90.00000000
_cell_angle_beta   90.00000000
_cell_angle_gamma   90.00000000
_symmetry_Int_Tables_number   1
_chemical_formula_structural   Nd5SiBi2
_chemical_formula_sum   'Nd20 Si4 Bi8'
_cell_volume   988.18194852
_cell_formula_units_Z   4
loop_
 _symmetry_equiv_pos_site_id
 _symmetry_equiv_pos_as_xyz
  1  'x, y, z'
loop_
 _atom_site_type_symbol
 _atom_site_label
 _atom_site_symmetry_multiplicity
 _atom_site_fract_x
 _atom_site_fract_y
 _atom_site_fract_z
 _atom_site_occupancy
  Nd  Nd0  1  0.061346  0.547680  0.816436  1
  Nd  Nd1  1  0.561346  0.952320  0.683564  1
  Nd  Nd2  1  0.938654  0.047680  0.183564  1
  Nd  Nd3  1  0.438654  0.452320  0.316436  1
  Nd  Nd4  1  0.938654  0.452320  0.183564  1
  Nd  Nd5  1  0.438654  0.047680  0.316436  1
  Nd  Nd6  1  0.061346  0.952320  0.816436  1
  Nd  Nd7  1  0.561346  0.547680  0.683564  1
  Nd  Nd8  1  0.001724  0.750000  0.467182  1
  Nd  Nd9  1  0.501724  0.750000  0.032818  1
  Nd  Nd10  1  0.998276  0.250000  0.532818  1
  Nd  Nd11  1  0.498276  0.250000  0.967182  1
  Nd  Nd12  1  0.211385  0.750000  0.159423  1
  Nd  Nd13  1  0.711385  0.750000  0.340577  1
  Nd  Nd14  1  0.788615  0.250000  0.840577  1
  Nd  Nd15  1  0.288615  0.250000  0.659423  1
  Nd  Nd16  1  0.293320  0.750000  0.632265  1
  Nd  Nd17  1  0.793320  0.750000  0.867735  1
  Nd  Nd18  1  0.706680  0.250000  0.367735  1
  Nd  Nd19  1  0.206680  0.250000  0.132265  1
  Si  Si20  1  0.479927  0.750000  0.418231  1
  Si  Si21  1  0.979927  0.750000  0.081769  1
  Si  Si22  1  0.520073  0.250000  0.581769  1
  Si  Si23  1  0.020073  0.250000  0.918231  1
  Bi  Bi24  1  0.325414  0.509354  0.925444  1
  Bi  Bi25  1  0.825414  0.990646  0.574556  1
  Bi  Bi26  1  0.674586  0.009354  0.074556  1
  Bi  Bi27  1  0.174586  0.490646  0.425444  1
  Bi  Bi28  1  0.674586  0.490646  0.074556  1
  Bi  Bi29  1  0.174586  0.009354  0.425444  1
  Bi  Bi30  1  0.325414  0.990646  0.925444  1
  Bi  Bi31  1  0.825414  0.509354  0.574556  1
