# generated using pymatgen
data_Ta9Si6Ru
_symmetry_space_group_name_H-M   'P 1'
_cell_length_a   6.44931013
_cell_length_b   6.44931168
_cell_length_c   7.58132766
_cell_angle_alpha   115.17229751
_cell_angle_beta   115.17230057
_cell_angle_gamma   90.00000588
_symmetry_Int_Tables_number   1
_chemical_formula_structural   Ta9Si6Ru
_chemical_formula_sum   'Ta9 Si6 Ru1'
_cell_volume   251.90665655
_cell_formula_units_Z   1
loop_
 _symmetry_equiv_pos_site_id
 _symmetry_equiv_pos_as_xyz
  1  'x, y, z'
loop_
 _atom_site_type_symbol
 _atom_site_label
 _atom_site_symmetry_multiplicity
 _atom_site_fract_x
 _atom_site_fract_y
 _atom_site_fract_z
 _atom_site_occupancy
  Ta  Ta0  1  0.000000  0.000000  0.000000  1
  Ta  Ta1  1  0.484009  0.315881  0.304065  1
  Ta  Ta2  1  0.988185  0.484009  0.304065  1
  Ta  Ta3  1  0.315881  0.820056  0.304065  1
  Ta  Ta4  1  0.820056  0.988185  0.304065  1
  Ta  Ta5  1  0.179943  0.011815  0.695934  1
  Ta  Ta6  1  0.684119  0.179943  0.695934  1
  Ta  Ta7  1  0.011815  0.515991  0.695934  1
  Ta  Ta8  1  0.515991  0.684119  0.695934  1
  Si  Si9  1  0.623656  0.139556  0.000000  1
  Si  Si10  1  0.139556  0.376343  0.000000  1
  Si  Si11  1  0.860445  0.623656  0.000000  1
  Si  Si12  1  0.376343  0.860445  0.000000  1
  Si  Si13  1  0.248710  0.248710  0.497420  1
  Si  Si14  1  0.751291  0.751291  0.502580  1
  Ru  Ru15  1  0.500000  0.500000  0.000000  1
