# generated using pymatgen
data_Tb4Y2CuRh17
_symmetry_space_group_name_H-M   'P 1'
_cell_length_a   5.28534400
_cell_length_b   5.28724717
_cell_length_c   17.37981600
_cell_angle_alpha   90.00025866
_cell_angle_beta   89.99995524
_cell_angle_gamma   119.96433525
_symmetry_Int_Tables_number   1
_chemical_formula_structural   Tb4Y2CuRh17
_chemical_formula_sum   'Tb4 Y2 Cu1 Rh17'
_cell_volume   420.76019143
_cell_formula_units_Z   1
loop_
 _symmetry_equiv_pos_site_id
 _symmetry_equiv_pos_as_xyz
  1  'x, y, z'
loop_
 _atom_site_type_symbol
 _atom_site_label
 _atom_site_symmetry_multiplicity
 _atom_site_fract_x
 _atom_site_fract_y
 _atom_site_fract_z
 _atom_site_occupancy
  Tb  Tb0  1  0.333333  0.666691  0.957736  1
  Tb  Tb1  1  0.666663  0.333325  0.041967  1
  Tb  Tb2  1  0.333326  0.666648  0.749996  1
  Tb  Tb3  1  0.666674  0.333319  0.250004  1
  Y  Y4  1  0.666663  0.333327  0.458035  1
  Y  Y5  1  0.333334  0.666693  0.542266  1
  Cu  Cu6  1  0.333363  0.666694  0.250001  1
  Rh  Rh7  1  0.168652  0.831345  0.373398  1
  Rh  Rh8  1  0.168648  0.337273  0.373397  1
  Rh  Rh9  1  0.662684  0.831324  0.373409  1
  Rh  Rh10  1  0.832916  0.167062  0.625105  1
  Rh  Rh11  1  0.832910  0.665858  0.625101  1
  Rh  Rh12  1  0.334132  0.167073  0.625099  1
  Rh  Rh13  1  0.832917  0.167061  0.874895  1
  Rh  Rh14  1  0.832912  0.665863  0.874899  1
  Rh  Rh15  1  0.334128  0.167072  0.874901  1
  Rh  Rh16  1  0.168655  0.831349  0.126602  1
  Rh  Rh17  1  0.168649  0.337280  0.126604  1
  Rh  Rh18  1  0.662682  0.831329  0.126592  1
  Rh  Rh19  1  0.666700  0.333315  0.749993  1
  Rh  Rh20  1  0.000006  0.999982  0.250008  1
  Rh  Rh21  1  0.000012  0.000045  0.749994  1
  Rh  Rh22  1  0.000018  0.000043  0.497977  1
  Rh  Rh23  1  0.000018  0.000028  0.002022  1
