# generated using pymatgen
data_Er4Tm4Ti11Si16Ag
_symmetry_space_group_name_H-M   'P 1'
_cell_length_a   7.03104158
_cell_length_b   7.03140698
_cell_length_c   12.84065503
_cell_angle_alpha   90.06385469
_cell_angle_beta   89.92714629
_cell_angle_gamma   89.66968437
_symmetry_Int_Tables_number   1
_chemical_formula_structural   Er4Tm4Ti11Si16Ag
_chemical_formula_sum   'Er4 Tm4 Ti11 Si16 Ag1'
_cell_volume   634.80631589
_cell_formula_units_Z   1
loop_
 _symmetry_equiv_pos_site_id
 _symmetry_equiv_pos_as_xyz
  1  'x, y, z'
loop_
 _atom_site_type_symbol
 _atom_site_label
 _atom_site_symmetry_multiplicity
 _atom_site_fract_x
 _atom_site_fract_y
 _atom_site_fract_z
 _atom_site_occupancy
  Er  Er0  1  0.158009  0.501632  0.785159  1
  Er  Er1  1  0.656502  0.000686  0.968539  1
  Er  Er2  1  0.001981  0.340949  0.533160  1
  Er  Er3  1  0.000649  0.656490  0.031674  1
  Tm  Tm4  1  0.341244  0.001584  0.466590  1
  Tm  Tm5  1  0.497897  0.841067  0.716605  1
  Tm  Tm6  1  0.501246  0.157573  0.214930  1
  Tm  Tm7  1  0.840851  0.497884  0.283322  1
  Ti  Ti8  1  0.174053  0.826461  0.250153  1
  Ti  Ti9  1  0.826318  0.173813  0.749863  1
  Ti  Ti10  1  0.672533  0.672840  0.499973  1
  Ti  Ti11  1  0.147698  0.007546  0.876551  1
  Ti  Ti12  1  0.495800  0.650288  0.123332  1
  Ti  Ti13  1  0.507157  0.350547  0.624935  1
  Ti  Ti14  1  0.650350  0.495755  0.876731  1
  Ti  Ti15  1  0.350762  0.507238  0.374981  1
  Ti  Ti16  1  0.850169  0.992486  0.374239  1
  Ti  Ti17  1  0.007504  0.147595  0.123496  1
  Ti  Ti18  1  0.992414  0.850232  0.625624  1
  Si  Si19  1  0.202744  0.132810  0.683619  1
  Si  Si20  1  0.373352  0.719353  0.928401  1
  Si  Si21  1  0.631747  0.294008  0.431671  1
  Si  Si22  1  0.718947  0.373010  0.071807  1
  Si  Si23  1  0.294394  0.632402  0.568076  1
  Si  Si24  1  0.796984  0.866732  0.182341  1
  Si  Si25  1  0.133567  0.202296  0.316375  1
  Si  Si26  1  0.866427  0.797224  0.817660  1
  Si  Si27  1  0.287140  0.938939  0.066269  1
  Si  Si28  1  0.546572  0.791898  0.314505  1
  Si  Si29  1  0.455267  0.207019  0.808897  1
  Si  Si30  1  0.791280  0.546991  0.685557  1
  Si  Si31  1  0.207258  0.455091  0.191109  1
  Si  Si32  1  0.707666  0.046950  0.564177  1
  Si  Si33  1  0.938614  0.286906  0.933899  1
  Si  Si34  1  0.047316  0.708288  0.435674  1
  Ag  Ag35  1  0.327587  0.327415  0.000109  1
