# generated using pymatgen
data_Tb3Y13Cd3InPd4
_symmetry_space_group_name_H-M   'P 1'
_cell_length_a   9.74274668
_cell_length_b   9.74678168
_cell_length_c   9.74678097
_cell_angle_alpha   60.04416948
_cell_angle_beta   60.01693978
_cell_angle_gamma   60.01694450
_symmetry_Int_Tables_number   1
_chemical_formula_structural   Tb3Y13Cd3InPd4
_chemical_formula_sum   'Tb3 Y13 Cd3 In1 Pd4'
_cell_volume   654.85456855
_cell_formula_units_Z   1
loop_
 _symmetry_equiv_pos_site_id
 _symmetry_equiv_pos_as_xyz
  1  'x, y, z'
loop_
 _atom_site_type_symbol
 _atom_site_label
 _atom_site_symmetry_multiplicity
 _atom_site_fract_x
 _atom_site_fract_y
 _atom_site_fract_z
 _atom_site_occupancy
  Tb  Tb0  1  0.351248  0.351290  0.351290  1
  Tb  Tb1  1  0.355557  0.355746  0.937380  1
  Tb  Tb2  1  0.355557  0.937380  0.355746  1
  Y  Y3  1  0.935298  0.356437  0.356437  1
  Y  Y4  1  0.810900  0.189737  0.189737  1
  Y  Y5  1  0.190798  0.809599  0.809599  1
  Y  Y6  1  0.189677  0.811045  0.189681  1
  Y  Y7  1  0.809698  0.190489  0.809696  1
  Y  Y8  1  0.189677  0.189681  0.811045  1
  Y  Y9  1  0.809698  0.809696  0.190489  1
  Y  Y10  1  0.936329  0.566476  0.566476  1
  Y  Y11  1  0.564287  0.935920  0.935920  1
  Y  Y12  1  0.566123  0.936219  0.566541  1
  Y  Y13  1  0.935941  0.564545  0.935525  1
  Y  Y14  1  0.566123  0.566541  0.936219  1
  Y  Y15  1  0.935941  0.935525  0.564545  1
  Cd  Cd16  1  0.581168  0.580755  0.252154  1
  Cd  Cd17  1  0.581168  0.252154  0.580755  1
  Cd  Cd18  1  0.252127  0.580857  0.580857  1
  In  In19  1  0.582875  0.582283  0.582283  1
  Pd  Pd20  1  0.146389  0.145503  0.145503  1
  Pd  Pd21  1  0.143598  0.142548  0.566515  1
  Pd  Pd22  1  0.143598  0.566515  0.142548  1
  Pd  Pd23  1  0.566224  0.143056  0.143056  1
