# generated using pymatgen
data_Gd9Dy4Lu7Sn16
_symmetry_space_group_name_H-M   'P 1'
_cell_length_a   7.99337889
_cell_length_b   8.11434831
_cell_length_c   15.76169500
_cell_angle_alpha   90.06227137
_cell_angle_beta   90.12781102
_cell_angle_gamma   90.10444909
_symmetry_Int_Tables_number   1
_chemical_formula_structural   Gd9Dy4Lu7Sn16
_chemical_formula_sum   'Gd9 Dy4 Lu7 Sn16'
_cell_volume   1022.31540207
_cell_formula_units_Z   1
loop_
 _symmetry_equiv_pos_site_id
 _symmetry_equiv_pos_as_xyz
  1  'x, y, z'
loop_
 _atom_site_type_symbol
 _atom_site_label
 _atom_site_symmetry_multiplicity
 _atom_site_fract_x
 _atom_site_fract_y
 _atom_site_fract_z
 _atom_site_occupancy
  Gd  Gd0  1  0.143107  0.337359  0.622148  1
  Gd  Gd1  1  0.486532  0.679512  0.595223  1
  Gd  Gd2  1  0.986858  0.820856  0.906355  1
  Gd  Gd3  1  0.513161  0.321441  0.095065  1
  Gd  Gd4  1  0.013337  0.178910  0.403150  1
  Gd  Gd5  1  0.513787  0.322253  0.403767  1
  Gd  Gd6  1  0.013326  0.178555  0.095612  1
  Gd  Gd7  1  0.487272  0.678951  0.905475  1
  Gd  Gd8  1  0.986289  0.820698  0.595676  1
  Dy  Dy9  1  0.643121  0.162548  0.624183  1
  Dy  Dy10  1  0.144176  0.337413  0.877477  1
  Dy  Dy11  1  0.356490  0.837859  0.123455  1
  Dy  Dy12  1  0.857625  0.662561  0.376618  1
  Lu  Lu13  1  0.356606  0.838414  0.373664  1
  Lu  Lu14  1  0.854751  0.662204  0.124165  1
  Lu  Lu15  1  0.644509  0.161476  0.876765  1
  Lu  Lu16  1  0.812155  0.496403  0.751064  1
  Lu  Lu17  1  0.312749  0.003020  0.750292  1
  Lu  Lu18  1  0.187785  0.504242  0.250168  1
  Lu  Lu19  1  0.687975  0.996831  0.249254  1
  Sn  Sn20  1  0.692871  0.961720  0.457105  1
  Sn  Sn21  1  0.192077  0.538450  0.043356  1
  Sn  Sn22  1  0.307453  0.038210  0.957270  1
  Sn  Sn23  1  0.799832  0.462664  0.542395  1
  Sn  Sn24  1  0.304898  0.035848  0.539428  1
  Sn  Sn25  1  0.802436  0.459283  0.959727  1
  Sn  Sn26  1  0.698288  0.959706  0.041337  1
  Sn  Sn27  1  0.200192  0.542252  0.456072  1
  Sn  Sn28  1  0.448507  0.378445  0.751907  1
  Sn  Sn29  1  0.946599  0.119400  0.751639  1
  Sn  Sn30  1  0.553256  0.620726  0.249204  1
  Sn  Sn31  1  0.052159  0.879717  0.249759  1
  Sn  Sn32  1  0.676782  0.850353  0.751406  1
  Sn  Sn33  1  0.176902  0.650206  0.751143  1
  Sn  Sn34  1  0.323057  0.149935  0.249835  1
  Sn  Sn35  1  0.823082  0.351579  0.248840  1
