# generated using pymatgen
data_Dy5Ho5(In2Pd)4
_symmetry_space_group_name_H-M   'P 1'
_cell_length_a   3.62413000
_cell_length_b   8.14219718
_cell_length_c   18.36788500
_cell_angle_alpha   90.01209642
_cell_angle_beta   90.00000000
_cell_angle_gamma   90.00000000
_symmetry_Int_Tables_number   1
_chemical_formula_structural   Dy5Ho5(In2Pd)4
_chemical_formula_sum   'Dy5 Ho5 In8 Pd4'
_cell_volume   542.00653797
_cell_formula_units_Z   1
loop_
 _symmetry_equiv_pos_site_id
 _symmetry_equiv_pos_as_xyz
  1  'x, y, z'
loop_
 _atom_site_type_symbol
 _atom_site_label
 _atom_site_symmetry_multiplicity
 _atom_site_fract_x
 _atom_site_fract_y
 _atom_site_fract_z
 _atom_site_occupancy
  Dy  Dy0  1  0.500000  0.241175  0.780614  1
  Dy  Dy1  1  0.500000  0.758825  0.219386  1
  Dy  Dy2  1  0.500000  0.258909  0.280588  1
  Dy  Dy3  1  0.500000  0.741091  0.719412  1
  Dy  Dy4  1  0.500000  0.000000  0.000000  1
  Ho  Ho5  1  0.500000  0.118569  0.583209  1
  Ho  Ho6  1  0.500000  0.881431  0.416791  1
  Ho  Ho7  1  0.500000  0.381180  0.083149  1
  Ho  Ho8  1  0.500000  0.618820  0.916851  1
  Ho  Ho9  1  0.500000  0.500000  0.500000  1
  In  In10  1  0.000000  0.078962  0.150367  1
  In  In11  1  0.000000  0.921038  0.849633  1
  In  In12  1  0.000000  0.421032  0.650327  1
  In  In13  1  0.000000  0.578968  0.349673  1
  In  In14  1  0.000000  0.208127  0.432204  1
  In  In15  1  0.000000  0.791873  0.567796  1
  In  In16  1  0.000000  0.292124  0.932077  1
  In  In17  1  0.000000  0.707876  0.067923  1
  Pd  Pd18  1  0.000000  0.025362  0.695288  1
  Pd  Pd19  1  0.000000  0.974638  0.304712  1
  Pd  Pd20  1  0.000000  0.474632  0.195446  1
  Pd  Pd21  1  0.000000  0.525368  0.804554  1
