# generated using pymatgen
data_PrUTi4O12
_symmetry_space_group_name_H-M   'P 1'
_cell_length_a   5.32127710
_cell_length_b   6.71011558
_cell_length_c   7.50438400
_cell_angle_alpha   67.63705070
_cell_angle_beta   68.93830884
_cell_angle_gamma   81.91102163
_symmetry_Int_Tables_number   1
_chemical_formula_structural   PrUTi4O12
_chemical_formula_sum   'Pr1 U1 Ti4 O12'
_cell_volume   231.24505000
_cell_formula_units_Z   1
loop_
 _symmetry_equiv_pos_site_id
 _symmetry_equiv_pos_as_xyz
  1  'x, y, z'
loop_
 _atom_site_type_symbol
 _atom_site_label
 _atom_site_symmetry_multiplicity
 _atom_site_fract_x
 _atom_site_fract_y
 _atom_site_fract_z
 _atom_site_occupancy
  Pr  Pr0  1  0.747169  0.497322  0.749497  1
  U  U1  1  0.251747  0.500911  0.249915  1
  Ti  Ti2  1  0.285555  0.888716  0.465490  1
  Ti  Ti3  1  0.800021  0.895405  0.967592  1
  Ti  Ti4  1  0.700911  0.104297  0.532199  1
  Ti  Ti5  1  0.213729  0.110691  0.035527  1
  O  O6  1  0.199351  0.608836  0.500691  1
  O  O7  1  0.856039  0.387716  0.450526  1
  O  O8  1  0.011781  0.061523  0.319265  1
  O  O9  1  0.956211  0.889807  0.693849  1
  O  O10  1  0.298715  0.390214  0.002694  1
  O  O11  1  0.646407  0.612958  0.045822  1
  O  O12  1  0.540469  0.820969  0.591880  1
  O  O13  1  0.423351  0.201400  0.416096  1
  O  O14  1  0.487413  0.935551  0.181385  1
  O  O15  1  0.544481  0.115485  0.805000  1
  O  O16  1  0.958577  0.179312  0.909949  1
  O  O17  1  0.078073  0.798889  0.082627  1
