# generated using pymatgen
data_Dy6Sc2Hg3Au7
_symmetry_space_group_name_H-M   'P 1'
_cell_length_a   7.94644142
_cell_length_b   7.94644115
_cell_length_c   7.94644100
_cell_angle_alpha   66.37285954
_cell_angle_beta   66.37286037
_cell_angle_gamma   66.37285203
_symmetry_Int_Tables_number   1
_chemical_formula_structural   Dy6Sc2Hg3Au7
_chemical_formula_sum   'Dy6 Sc2 Hg3 Au7'
_cell_volume   403.57772603
_cell_formula_units_Z   1
loop_
 _symmetry_equiv_pos_site_id
 _symmetry_equiv_pos_as_xyz
  1  'x, y, z'
loop_
 _atom_site_type_symbol
 _atom_site_label
 _atom_site_symmetry_multiplicity
 _atom_site_fract_x
 _atom_site_fract_y
 _atom_site_fract_z
 _atom_site_occupancy
  Dy  Dy0  1  0.895590  0.205731  0.595567  1
  Dy  Dy1  1  0.595567  0.895590  0.205731  1
  Dy  Dy2  1  0.205731  0.595567  0.895590  1
  Dy  Dy3  1  0.108415  0.809184  0.384225  1
  Dy  Dy4  1  0.384225  0.108415  0.809184  1
  Dy  Dy5  1  0.809184  0.384225  0.108415  1
  Sc  Sc6  1  0.662777  0.662777  0.662777  1
  Sc  Sc7  1  0.337134  0.337134  0.337134  1
  Hg  Hg8  1  0.995037  0.995037  0.995037  1
  Hg  Hg9  1  0.499881  0.499881  0.499881  1
  Hg  Hg10  1  0.816074  0.816074  0.816074  1
  Au  Au11  1  0.190622  0.190622  0.190622  1
  Au  Au12  1  0.933849  0.563554  0.309094  1
  Au  Au13  1  0.309094  0.933849  0.563554  1
  Au  Au14  1  0.563554  0.309094  0.933849  1
  Au  Au15  1  0.064167  0.450286  0.678812  1
  Au  Au16  1  0.678812  0.064167  0.450286  1
  Au  Au17  1  0.450286  0.678812  0.064167  1
