# generated using pymatgen
data_Tm3Lu7(SiSn3)2
_symmetry_space_group_name_H-M   'P 1'
_cell_length_a   9.05204500
_cell_length_b   9.05204445
_cell_length_c   6.33932900
_cell_angle_alpha   90.00000000
_cell_angle_beta   90.00000000
_cell_angle_gamma   120.00000567
_symmetry_Int_Tables_number   1
_chemical_formula_structural   Tm3Lu7(SiSn3)2
_chemical_formula_sum   'Tm3 Lu7 Si2 Sn6'
_cell_volume   449.84953968
_cell_formula_units_Z   1
loop_
 _symmetry_equiv_pos_site_id
 _symmetry_equiv_pos_as_xyz
  1  'x, y, z'
loop_
 _atom_site_type_symbol
 _atom_site_label
 _atom_site_symmetry_multiplicity
 _atom_site_fract_x
 _atom_site_fract_y
 _atom_site_fract_z
 _atom_site_occupancy
  Tm  Tm0  1  0.748269  0.748269  0.750000  1
  Tm  Tm1  1  0.251731  0.000000  0.750000  1
  Tm  Tm2  1  0.000000  0.251731  0.750000  1
  Lu  Lu3  1  0.666667  0.333333  0.999809  1
  Lu  Lu4  1  0.333333  0.666667  0.999809  1
  Lu  Lu5  1  0.333333  0.666667  0.500191  1
  Lu  Lu6  1  0.666667  0.333333  0.500191  1
  Lu  Lu7  1  0.254327  0.254327  0.250000  1
  Lu  Lu8  1  0.745673  0.000000  0.250000  1
  Lu  Lu9  1  0.000000  0.745673  0.250000  1
  Si  Si10  1  0.000000  0.000000  0.005920  1
  Si  Si11  1  0.000000  0.000000  0.494080  1
  Sn  Sn12  1  0.393278  0.393278  0.750000  1
  Sn  Sn13  1  0.606722  0.000000  0.750000  1
  Sn  Sn14  1  0.000000  0.606722  0.750000  1
  Sn  Sn15  1  0.607307  0.607307  0.250000  1
  Sn  Sn16  1  0.392693  0.000000  0.250000  1
  Sn  Sn17  1  0.000000  0.392693  0.250000  1
