# generated using pymatgen
data_Rb4CrReCl12
_symmetry_space_group_name_H-M   'P 1'
_cell_length_a   7.18594327
_cell_length_b   7.18664624
_cell_length_c   10.24901600
_cell_angle_alpha   90.00000000
_cell_angle_beta   90.00000000
_cell_angle_gamma   89.96928825
_symmetry_Int_Tables_number   1
_chemical_formula_structural   Rb4CrReCl12
_chemical_formula_sum   'Rb4 Cr1 Re1 Cl12'
_cell_volume   529.28813777
_cell_formula_units_Z   1
loop_
 _symmetry_equiv_pos_site_id
 _symmetry_equiv_pos_as_xyz
  1  'x, y, z'
loop_
 _atom_site_type_symbol
 _atom_site_label
 _atom_site_symmetry_multiplicity
 _atom_site_fract_x
 _atom_site_fract_y
 _atom_site_fract_z
 _atom_site_occupancy
  Rb  Rb0  1  0.500000  0.000000  0.773235  1
  Rb  Rb1  1  0.000000  0.500000  0.226837  1
  Rb  Rb2  1  0.500000  0.000000  0.226765  1
  Rb  Rb3  1  0.000000  0.500000  0.773163  1
  Cr  Cr4  1  0.000000  0.000000  0.000000  1
  Re  Re5  1  0.500000  0.500000  0.500000  1
  Cl  Cl6  1  0.000000  0.000000  0.772152  1
  Cl  Cl7  1  0.500000  0.500000  0.269365  1
  Cl  Cl8  1  0.730844  0.730960  0.500000  1
  Cl  Cl9  1  0.230002  0.230074  0.000000  1
  Cl  Cl10  1  0.731412  0.268443  0.500000  1
  Cl  Cl11  1  0.230417  0.769504  0.000000  1
  Cl  Cl12  1  0.000000  0.000000  0.227848  1
  Cl  Cl13  1  0.500000  0.500000  0.730635  1
  Cl  Cl14  1  0.269156  0.269040  0.500000  1
  Cl  Cl15  1  0.769998  0.769926  0.000000  1
  Cl  Cl16  1  0.268588  0.731557  0.500000  1
  Cl  Cl17  1  0.769583  0.230496  0.000000  1
