# generated using pymatgen
data_AcLaZn8
_symmetry_space_group_name_H-M   'P 1'
_cell_length_a   6.13684334
_cell_length_b   6.13684468
_cell_length_c   6.14053600
_cell_angle_alpha   90.00000000
_cell_angle_beta   90.00000000
_cell_angle_gamma   118.09502851
_symmetry_Int_Tables_number   1
_chemical_formula_structural   AcLaZn8
_chemical_formula_sum   'Ac1 La1 Zn8'
_cell_volume   204.00819731
_cell_formula_units_Z   1
loop_
 _symmetry_equiv_pos_site_id
 _symmetry_equiv_pos_as_xyz
  1  'x, y, z'
loop_
 _atom_site_type_symbol
 _atom_site_label
 _atom_site_symmetry_multiplicity
 _atom_site_fract_x
 _atom_site_fract_y
 _atom_site_fract_z
 _atom_site_occupancy
  Ac  Ac0  1  0.266928  0.733072  0.750000  1
  La  La1  1  0.730190  0.269810  0.250000  1
  Zn  Zn2  1  0.853256  0.146744  0.750000  1
  Zn  Zn3  1  0.150185  0.849815  0.250000  1
  Zn  Zn4  1  0.609518  0.390482  0.750000  1
  Zn  Zn5  1  0.390052  0.609948  0.250000  1
  Zn  Zn6  1  0.783962  0.784027  0.005743  1
  Zn  Zn7  1  0.783962  0.784027  0.494257  1
  Zn  Zn8  1  0.215973  0.216038  0.005743  1
  Zn  Zn9  1  0.215973  0.216038  0.494257  1
