# generated using pymatgen
data_Lu6Al6RhAu5
_symmetry_space_group_name_H-M   'P 1'
_cell_length_a   7.24696200
_cell_length_b   7.24696270
_cell_length_c   7.94578400
_cell_angle_alpha   90.00000000
_cell_angle_beta   90.00000000
_cell_angle_gamma   119.99999681
_symmetry_Int_Tables_number   1
_chemical_formula_structural   Lu6Al6RhAu5
_chemical_formula_sum   'Lu6 Al6 Rh1 Au5'
_cell_volume   361.39272906
_cell_formula_units_Z   1
loop_
 _symmetry_equiv_pos_site_id
 _symmetry_equiv_pos_as_xyz
  1  'x, y, z'
loop_
 _atom_site_type_symbol
 _atom_site_label
 _atom_site_symmetry_multiplicity
 _atom_site_fract_x
 _atom_site_fract_y
 _atom_site_fract_z
 _atom_site_occupancy
  Lu  Lu0  1  0.582863  0.996941  0.750000  1
  Lu  Lu1  1  0.003059  0.585924  0.750000  1
  Lu  Lu2  1  0.414076  0.417137  0.750000  1
  Lu  Lu3  1  0.996721  0.593973  0.250000  1
  Lu  Lu4  1  0.597251  0.003279  0.250000  1
  Lu  Lu5  1  0.406027  0.402749  0.250000  1
  Al  Al6  1  0.760366  0.760776  0.008410  1
  Al  Al7  1  0.239224  0.999589  0.008410  1
  Al  Al8  1  0.000411  0.239634  0.008410  1
  Al  Al9  1  0.760366  0.760776  0.491590  1
  Al  Al10  1  0.239224  0.999589  0.491590  1
  Al  Al11  1  0.000411  0.239634  0.491590  1
  Rh  Rh12  1  0.000000  0.000000  0.250000  1
  Au  Au13  1  0.000000  0.000000  0.750000  1
  Au  Au14  1  0.666667  0.333333  0.997086  1
  Au  Au15  1  0.666667  0.333333  0.502914  1
  Au  Au16  1  0.333333  0.666667  0.494919  1
  Au  Au17  1  0.333333  0.666667  0.005081  1
