# generated using pymatgen
data_Nd2Y6Cd2NiIr
_symmetry_space_group_name_H-M   'P 1'
_cell_length_a   9.73205542
_cell_length_b   9.73205629
_cell_length_c   9.79067000
_cell_angle_alpha   59.80057518
_cell_angle_beta   59.80057219
_cell_angle_gamma   59.59454316
_symmetry_Int_Tables_number   1
_chemical_formula_structural   Nd2Y6Cd2NiIr
_chemical_formula_sum   'Nd4 Y12 Cd4 Ni2 Ir2'
_cell_volume   651.70408546
_cell_formula_units_Z   2
loop_
 _symmetry_equiv_pos_site_id
 _symmetry_equiv_pos_as_xyz
  1  'x, y, z'
loop_
 _atom_site_type_symbol
 _atom_site_label
 _atom_site_symmetry_multiplicity
 _atom_site_fract_x
 _atom_site_fract_y
 _atom_site_fract_z
 _atom_site_occupancy
  Nd  Nd0  1  0.601863  0.601863  0.596846  1
  Nd  Nd1  1  0.601863  0.601863  0.199427  1
  Nd  Nd2  1  0.604534  0.198103  0.598682  1
  Nd  Nd3  1  0.198103  0.604534  0.598682  1
  Y  Y4  1  0.061287  0.435858  0.439163  1
  Y  Y5  1  0.435858  0.061287  0.063693  1
  Y  Y6  1  0.435858  0.061287  0.439163  1
  Y  Y7  1  0.061287  0.435858  0.063693  1
  Y  Y8  1  0.437777  0.437777  0.062223  1
  Y  Y9  1  0.062305  0.062305  0.437695  1
  Y  Y10  1  0.186299  0.811785  0.817036  1
  Y  Y11  1  0.811785  0.186299  0.184879  1
  Y  Y12  1  0.811785  0.186299  0.817036  1
  Y  Y13  1  0.186299  0.811785  0.184879  1
  Y  Y14  1  0.815857  0.815857  0.184143  1
  Y  Y15  1  0.187822  0.187822  0.812178  1
  Cd  Cd16  1  0.830841  0.830841  0.833548  1
  Cd  Cd17  1  0.830841  0.830841  0.504768  1
  Cd  Cd18  1  0.830401  0.504356  0.832621  1
  Cd  Cd19  1  0.504356  0.830401  0.832621  1
  Ni  Ni20  1  0.391825  0.827505  0.390335  1
  Ni  Ni21  1  0.827505  0.391825  0.390335  1
  Ir  Ir22  1  0.391823  0.391823  0.390093  1
  Ir  Ir23  1  0.391823  0.391823  0.826261  1
