# generated using pymatgen
data_Ce3Lu(Ni2Pb)2
_symmetry_space_group_name_H-M   'P 1'
_cell_length_a   7.57290204
_cell_length_b   7.57290204
_cell_length_c   3.59972000
_cell_angle_alpha   90.00000000
_cell_angle_beta   90.00000000
_cell_angle_gamma   90.67923974
_symmetry_Int_Tables_number   1
_chemical_formula_structural   Ce3Lu(Ni2Pb)2
_chemical_formula_sum   'Ce3 Lu1 Ni4 Pb2'
_cell_volume   206.42527887
_cell_formula_units_Z   1
loop_
 _symmetry_equiv_pos_site_id
 _symmetry_equiv_pos_as_xyz
  1  'x, y, z'
loop_
 _atom_site_type_symbol
 _atom_site_label
 _atom_site_symmetry_multiplicity
 _atom_site_fract_x
 _atom_site_fract_y
 _atom_site_fract_z
 _atom_site_occupancy
  Ce  Ce0  1  0.330244  0.169755  0.500000  1
  Ce  Ce1  1  0.826102  0.327705  0.500000  1
  Ce  Ce2  1  0.172294  0.673897  0.500000  1
  Lu  Lu3  1  0.671037  0.828962  0.500000  1
  Ni  Ni4  1  0.620836  0.122960  0.000000  1
  Ni  Ni5  1  0.123096  0.376904  0.000000  1
  Ni  Ni6  1  0.882145  0.617855  0.000000  1
  Ni  Ni7  1  0.377040  0.879164  0.000000  1
  Pb  Pb8  1  0.993356  0.996152  0.000000  1
  Pb  Pb9  1  0.503848  0.506644  0.000000  1
