# generated using pymatgen
data_TiNb5(Ir7Rh2)2
_symmetry_space_group_name_H-M   'P 1'
_cell_length_a   5.56069085
_cell_length_b   5.56069213
_cell_length_c   13.48908965
_cell_angle_alpha   89.93791664
_cell_angle_beta   90.06208142
_cell_angle_gamma   119.98792164
_symmetry_Int_Tables_number   1
_chemical_formula_structural   TiNb5(Ir7Rh2)2
_chemical_formula_sum   'Ti1 Nb5 Ir14 Rh4'
_cell_volume   361.26291237
_cell_formula_units_Z   1
loop_
 _symmetry_equiv_pos_site_id
 _symmetry_equiv_pos_as_xyz
  1  'x, y, z'
loop_
 _atom_site_type_symbol
 _atom_site_label
 _atom_site_symmetry_multiplicity
 _atom_site_fract_x
 _atom_site_fract_y
 _atom_site_fract_z
 _atom_site_occupancy
  Ti  Ti0  1  0.000114  0.999886  0.250304  1
  Nb  Nb1  1  0.999931  0.000069  0.749704  1
  Nb  Nb2  1  0.333319  0.666681  0.410101  1
  Nb  Nb3  1  0.666330  0.333670  0.587292  1
  Nb  Nb4  1  0.666711  0.333289  0.912460  1
  Nb  Nb5  1  0.333273  0.666727  0.090151  1
  Ir  Ir6  1  0.503483  0.496517  0.250475  1
  Ir  Ir7  1  0.503641  0.007004  0.250029  1
  Ir  Ir8  1  0.992996  0.496359  0.250029  1
  Ir  Ir9  1  0.496141  0.503859  0.749475  1
  Ir  Ir10  1  0.496327  0.992435  0.749745  1
  Ir  Ir11  1  0.007565  0.503673  0.749745  1
  Ir  Ir12  1  0.164940  0.329937  0.917255  1
  Ir  Ir13  1  0.670063  0.835060  0.917255  1
  Ir  Ir14  1  0.165077  0.834923  0.917168  1
  Ir  Ir15  1  0.835456  0.670538  0.083857  1
  Ir  Ir16  1  0.329462  0.164544  0.083857  1
  Ir  Ir17  1  0.835142  0.164858  0.083954  1
  Ir  Ir18  1  0.836001  0.671503  0.416402  1
  Ir  Ir19  1  0.328497  0.163999  0.416402  1
  Rh  Rh20  1  0.835444  0.164556  0.416502  1
  Rh  Rh21  1  0.165455  0.330461  0.582738  1
  Rh  Rh22  1  0.669539  0.834545  0.582738  1
  Rh  Rh23  1  0.165092  0.834908  0.582361  1
