# generated using pymatgen
data_DyLuB6Ir
_symmetry_space_group_name_H-M   'P 1'
_cell_length_a   3.61251900
_cell_length_b   9.11435300
_cell_length_c   11.47482100
_cell_angle_alpha   90.00000000
_cell_angle_beta   90.00000000
_cell_angle_gamma   90.00000000
_symmetry_Int_Tables_number   1
_chemical_formula_structural   DyLuB6Ir
_chemical_formula_sum   'Dy4 Lu4 B24 Ir4'
_cell_volume   377.81735588
_cell_formula_units_Z   4
loop_
 _symmetry_equiv_pos_site_id
 _symmetry_equiv_pos_as_xyz
  1  'x, y, z'
loop_
 _atom_site_type_symbol
 _atom_site_label
 _atom_site_symmetry_multiplicity
 _atom_site_fract_x
 _atom_site_fract_y
 _atom_site_fract_z
 _atom_site_occupancy
  Dy  Dy0  1  0.000000  0.320765  0.413727  1
  Dy  Dy1  1  0.000000  0.679235  0.586273  1
  Dy  Dy2  1  0.000000  0.820765  0.086273  1
  Dy  Dy3  1  0.000000  0.179235  0.913727  1
  Lu  Lu4  1  0.000000  0.944236  0.374318  1
  Lu  Lu5  1  0.000000  0.055764  0.625682  1
  Lu  Lu6  1  0.000000  0.444236  0.125682  1
  Lu  Lu7  1  0.000000  0.555764  0.874318  1
  B  B8  1  0.500000  0.553847  0.433811  1
  B  B9  1  0.500000  0.446153  0.566189  1
  B  B10  1  0.500000  0.053847  0.066189  1
  B  B11  1  0.500000  0.946153  0.933811  1
  B  B12  1  0.500000  0.751168  0.420226  1
  B  B13  1  0.500000  0.248832  0.579774  1
  B  B14  1  0.500000  0.251168  0.079774  1
  B  B15  1  0.500000  0.748832  0.920226  1
  B  B16  1  0.500000  0.793604  0.265067  1
  B  B17  1  0.500000  0.206396  0.734933  1
  B  B18  1  0.500000  0.293604  0.234933  1
  B  B19  1  0.500000  0.706396  0.765067  1
  B  B20  1  0.500000  0.630835  0.183263  1
  B  B21  1  0.500000  0.369165  0.816737  1
  B  B22  1  0.500000  0.130835  0.316737  1
  B  B23  1  0.500000  0.869165  0.683263  1
  B  B24  1  0.500000  0.981593  0.213864  1
  B  B25  1  0.500000  0.018407  0.786136  1
  B  B26  1  0.500000  0.481593  0.286136  1
  B  B27  1  0.500000  0.518407  0.713864  1
  B  B28  1  0.500000  0.605291  0.028660  1
  B  B29  1  0.500000  0.394709  0.971340  1
  B  B30  1  0.500000  0.105291  0.471340  1
  B  B31  1  0.500000  0.894709  0.528660  1
  Ir  Ir32  1  0.000000  0.639142  0.320235  1
  Ir  Ir33  1  0.000000  0.360858  0.679765  1
  Ir  Ir34  1  0.000000  0.139142  0.179765  1
  Ir  Ir35  1  0.000000  0.860858  0.820235  1
