# generated using pymatgen
data_La3GaSi4Hg
_symmetry_space_group_name_H-M   'P 1'
_cell_length_a   4.40999565
_cell_length_b   4.28605725
_cell_length_c   22.11945905
_cell_angle_alpha   84.44021679
_cell_angle_beta   95.72107867
_cell_angle_gamma   90.00000554
_symmetry_Int_Tables_number   1
_chemical_formula_structural   La3GaSi4Hg
_chemical_formula_sum   'La6 Ga2 Si8 Hg2'
_cell_volume   414.03155439
_cell_formula_units_Z   2
loop_
 _symmetry_equiv_pos_site_id
 _symmetry_equiv_pos_as_xyz
  1  'x, y, z'
loop_
 _atom_site_type_symbol
 _atom_site_label
 _atom_site_symmetry_multiplicity
 _atom_site_fract_x
 _atom_site_fract_y
 _atom_site_fract_z
 _atom_site_occupancy
  La  La0  1  0.370990  0.879010  0.241980  1
  La  La1  1  0.038468  0.211532  0.576935  1
  La  La2  1  0.706138  0.543862  0.912277  1
  La  La3  1  0.292415  0.457585  0.084827  1
  La  La4  1  0.960695  0.789305  0.421390  1
  La  La5  1  0.628855  0.121145  0.757710  1
  Ga  Ga6  1  0.235870  0.014130  0.971740  1
  Ga  Ga7  1  0.763114  0.986886  0.026227  1
  Si  Si8  1  0.432916  0.317084  0.365833  1
  Si  Si9  1  0.100646  0.649354  0.701293  1
  Si  Si10  1  0.844386  0.405614  0.188774  1
  Si  Si11  1  0.512496  0.737504  0.524992  1
  Si  Si12  1  0.180831  0.069169  0.861660  1
  Si  Si13  1  0.818544  0.931456  0.137090  1
  Si  Si14  1  0.486363  0.263637  0.472727  1
  Si  Si15  1  0.153879  0.596121  0.807755  1
  Hg  Hg16  1  0.902762  0.347238  0.305524  1
  Hg  Hg17  1  0.570633  0.679367  0.641265  1
