# generated using pymatgen
data_Tb3DyGa18IrRu5
_symmetry_space_group_name_H-M   'P 1'
_cell_length_a   7.51529693
_cell_length_b   7.51494577
_cell_length_c   9.69684002
_cell_angle_alpha   90.08272537
_cell_angle_beta   90.07382186
_cell_angle_gamma   119.66467348
_symmetry_Int_Tables_number   1
_chemical_formula_structural   Tb3DyGa18IrRu5
_chemical_formula_sum   'Tb3 Dy1 Ga18 Ir1 Ru5'
_cell_volume   475.87054638
_cell_formula_units_Z   1
loop_
 _symmetry_equiv_pos_site_id
 _symmetry_equiv_pos_as_xyz
  1  'x, y, z'
loop_
 _atom_site_type_symbol
 _atom_site_label
 _atom_site_symmetry_multiplicity
 _atom_site_fract_x
 _atom_site_fract_y
 _atom_site_fract_z
 _atom_site_occupancy
  Tb  Tb0  1  0.002202  0.329575  0.749976  1
  Tb  Tb1  1  0.670450  0.997746  0.250020  1
  Tb  Tb2  1  0.329595  0.002242  0.749979  1
  Dy  Dy3  1  0.997948  0.670430  0.250033  1
  Ga  Ga4  1  0.130174  0.129986  0.251323  1
  Ga  Ga5  1  0.869678  0.869652  0.748687  1
  Ga  Ga6  1  0.004983  0.337284  0.077059  1
  Ga  Ga7  1  0.995063  0.662963  0.923291  1
  Ga  Ga8  1  0.993721  0.664382  0.576131  1
  Ga  Ga9  1  0.335361  0.006128  0.423491  1
  Ga  Ga10  1  0.006300  0.335802  0.423495  1
  Ga  Ga11  1  0.664406  0.993668  0.576298  1
  Ga  Ga12  1  0.662922  0.995009  0.923154  1
  Ga  Ga13  1  0.336883  0.004865  0.077065  1
  Ga  Ga14  1  0.337428  0.337464  0.560937  1
  Ga  Ga15  1  0.662675  0.662451  0.438737  1
  Ga  Ga16  1  0.661344  0.661166  0.061717  1
  Ga  Ga17  1  0.338824  0.338854  0.938568  1
  Ga  Ga18  1  0.337650  0.550470  0.249903  1
  Ga  Ga19  1  0.662150  0.449639  0.750113  1
  Ga  Ga20  1  0.550800  0.338151  0.249884  1
  Ga  Ga21  1  0.449560  0.662124  0.750128  1
  Ir  Ir22  1  0.999920  0.999926  0.000099  1
  Ru  Ru23  1  0.674054  0.326196  0.000097  1
  Ru  Ru24  1  0.325989  0.673969  0.000169  1
  Ru  Ru25  1  0.325437  0.674643  0.499870  1
  Ru  Ru26  1  0.674592  0.325466  0.499898  1
  Ru  Ru27  1  0.999894  0.999749  0.499877  1
