# generated using pymatgen
data_Zr4TcNi2Os5
_symmetry_space_group_name_H-M   'P 1'
_cell_length_a   5.13328416
_cell_length_b   5.13236690
_cell_length_c   8.53741400
_cell_angle_alpha   90.00000000
_cell_angle_beta   90.00000000
_cell_angle_gamma   119.55316021
_symmetry_Int_Tables_number   1
_chemical_formula_structural   Zr4TcNi2Os5
_chemical_formula_sum   'Zr4 Tc1 Ni2 Os5'
_cell_volume   195.66263372
_cell_formula_units_Z   1
loop_
 _symmetry_equiv_pos_site_id
 _symmetry_equiv_pos_as_xyz
  1  'x, y, z'
loop_
 _atom_site_type_symbol
 _atom_site_label
 _atom_site_symmetry_multiplicity
 _atom_site_fract_x
 _atom_site_fract_y
 _atom_site_fract_z
 _atom_site_occupancy
  Zr  Zr0  1  0.331831  0.672009  0.435671  1
  Zr  Zr1  1  0.667592  0.338568  0.566614  1
  Zr  Zr2  1  0.667592  0.338568  0.933386  1
  Zr  Zr3  1  0.331831  0.672009  0.064329  1
  Tc  Tc4  1  0.828953  0.165684  0.250000  1
  Ni  Ni5  1  0.830431  0.657100  0.250000  1
  Ni  Ni6  1  0.170683  0.828561  0.750000  1
  Os  Os7  1  0.998407  0.998055  0.500007  1
  Os  Os8  1  0.998407  0.998055  0.999993  1
  Os  Os9  1  0.344369  0.167731  0.250000  1
  Os  Os10  1  0.173437  0.338885  0.750000  1
  Os  Os11  1  0.656467  0.824778  0.750000  1
