# generated using pymatgen
data_Ti5(Zn2Co)2
_symmetry_space_group_name_H-M   'P 1'
_cell_length_a   2.97074900
_cell_length_b   6.84797700
_cell_length_c   15.97562200
_cell_angle_alpha   90.00000000
_cell_angle_beta   90.00000000
_cell_angle_gamma   90.00000000
_symmetry_Int_Tables_number   1
_chemical_formula_structural   Ti5(Zn2Co)2
_chemical_formula_sum   'Ti10 Zn8 Co4'
_cell_volume   325.00199641
_cell_formula_units_Z   2
loop_
 _symmetry_equiv_pos_site_id
 _symmetry_equiv_pos_as_xyz
  1  'x, y, z'
loop_
 _atom_site_type_symbol
 _atom_site_label
 _atom_site_symmetry_multiplicity
 _atom_site_fract_x
 _atom_site_fract_y
 _atom_site_fract_z
 _atom_site_occupancy
  Ti  Ti0  1  0.500000  0.500000  0.500000  1
  Ti  Ti1  1  0.500000  0.000000  0.000000  1
  Ti  Ti2  1  0.500000  0.863248  0.418972  1
  Ti  Ti3  1  0.500000  0.136752  0.581028  1
  Ti  Ti4  1  0.500000  0.636752  0.918972  1
  Ti  Ti5  1  0.500000  0.363248  0.081028  1
  Ti  Ti6  1  0.500000  0.230860  0.279192  1
  Ti  Ti7  1  0.500000  0.769140  0.720808  1
  Ti  Ti8  1  0.500000  0.269140  0.779192  1
  Ti  Ti9  1  0.500000  0.730860  0.220808  1
  Zn  Zn10  1  0.000000  0.201910  0.429672  1
  Zn  Zn11  1  0.000000  0.798090  0.570328  1
  Zn  Zn12  1  0.000000  0.298090  0.929672  1
  Zn  Zn13  1  0.000000  0.701910  0.070328  1
  Zn  Zn14  1  0.000000  0.553749  0.349848  1
  Zn  Zn15  1  0.000000  0.446251  0.650152  1
  Zn  Zn16  1  0.000000  0.946251  0.849848  1
  Zn  Zn17  1  0.000000  0.053749  0.150152  1
  Co  Co18  1  0.000000  0.943636  0.307883  1
  Co  Co19  1  0.000000  0.056364  0.692117  1
  Co  Co20  1  0.000000  0.556364  0.807883  1
  Co  Co21  1  0.000000  0.443636  0.192117  1
