# generated using pymatgen
data_K4AcUTe6
_symmetry_space_group_name_H-M   'P 1'
_cell_length_a   8.31971416
_cell_length_b   8.31967278
_cell_length_c   8.63394064
_cell_angle_alpha   80.57243334
_cell_angle_beta   80.57167065
_cell_angle_gamma   119.94932621
_symmetry_Int_Tables_number   1
_chemical_formula_structural   K4AcUTe6
_chemical_formula_sum   'K4 Ac1 U1 Te6'
_cell_volume   489.28398637
_cell_formula_units_Z   1
loop_
 _symmetry_equiv_pos_site_id
 _symmetry_equiv_pos_as_xyz
  1  'x, y, z'
loop_
 _atom_site_type_symbol
 _atom_site_label
 _atom_site_symmetry_multiplicity
 _atom_site_fract_x
 _atom_site_fract_y
 _atom_site_fract_z
 _atom_site_occupancy
  K  K0  1  0.343470  0.656529  0.499999  1
  K  K1  1  0.655233  0.344766  0.500000  1
  K  K2  1  0.000395  0.999606  0.500000  1
  K  K3  1  0.499970  0.500029  0.999999  1
  Ac  Ac4  1  0.167922  0.832080  0.999999  1
  U  U5  1  0.832547  0.167453  0.999999  1
  Te  Te6  1  0.780046  0.805407  0.214130  1
  Te  Te7  1  0.452878  0.073478  0.217980  1
  Te  Te8  1  0.045437  0.399013  0.216020  1
  Te  Te9  1  0.600988  0.954565  0.783982  1
  Te  Te10  1  0.926522  0.547122  0.782021  1
  Te  Te11  1  0.194591  0.219952  0.785871  1
