# generated using pymatgen
data_Pr4Si10(OsPt)3
_symmetry_space_group_name_H-M   'P 1'
_cell_length_a   8.27727769
_cell_length_b   8.29922531
_cell_length_c   8.29922485
_cell_angle_alpha   137.42799502
_cell_angle_beta   105.59751384
_cell_angle_gamma   89.73604540
_symmetry_Int_Tables_number   1
_chemical_formula_structural   Pr4Si10(OsPt)3
_chemical_formula_sum   'Pr4 Si10 Os3 Pt3'
_cell_volume   354.74818889
_cell_formula_units_Z   1
loop_
 _symmetry_equiv_pos_site_id
 _symmetry_equiv_pos_as_xyz
  1  'x, y, z'
loop_
 _atom_site_type_symbol
 _atom_site_label
 _atom_site_symmetry_multiplicity
 _atom_site_fract_x
 _atom_site_fract_y
 _atom_site_fract_z
 _atom_site_occupancy
  Pr  Pr0  1  0.863621  0.628600  0.235021  1
  Pr  Pr1  1  0.137631  0.371183  0.766448  1
  Pr  Pr2  1  0.396835  0.131655  0.265180  1
  Pr  Pr3  1  0.604378  0.870228  0.734150  1
  Si  Si4  1  0.493756  0.753981  0.254133  1
  Si  Si5  1  0.493756  0.239623  0.739775  1
  Si  Si6  1  0.222792  0.973192  0.744074  1
  Si  Si7  1  0.776061  0.523740  0.747170  1
  Si  Si8  1  0.776061  0.028891  0.252321  1
  Si  Si9  1  0.222792  0.478718  0.249600  1
  Si  Si10  1  0.052032  0.898102  0.153930  1
  Si  Si11  1  0.959146  0.104876  0.854270  1
  Si  Si12  1  0.748091  0.394590  0.353501  1
  Si  Si13  1  0.251924  0.603975  0.647949  1
  Os  Os14  1  0.999653  0.750586  0.751525  1
  Os  Os15  1  0.999653  0.248128  0.249067  1
  Os  Os16  1  0.246584  0.859806  0.386779  1
  Pt  Pt17  1  0.750091  0.138552  0.611538  1
  Pt  Pt18  1  0.474334  0.361974  0.112360  1
  Pt  Pt19  1  0.530810  0.639601  0.891210  1
