# generated using pymatgen
data_TbLu7(Si4W3)4
_symmetry_space_group_name_H-M   'P 1'
_cell_length_a   6.71064777
_cell_length_b   6.89583525
_cell_length_c   12.82465194
_cell_angle_alpha   89.95986126
_cell_angle_beta   90.00229206
_cell_angle_gamma   89.96137075
_symmetry_Int_Tables_number   1
_chemical_formula_structural   TbLu7(Si4W3)4
_chemical_formula_sum   'Tb1 Lu7 Si16 W12'
_cell_volume   593.46717536
_cell_formula_units_Z   1
loop_
 _symmetry_equiv_pos_site_id
 _symmetry_equiv_pos_as_xyz
  1  'x, y, z'
loop_
 _atom_site_type_symbol
 _atom_site_label
 _atom_site_symmetry_multiplicity
 _atom_site_fract_x
 _atom_site_fract_y
 _atom_site_fract_z
 _atom_site_occupancy
  Tb  Tb0  1  0.995459  0.831954  0.592373  1
  Lu  Lu1  1  0.494346  0.668367  0.592891  1
  Lu  Lu2  1  0.994563  0.831433  0.906994  1
  Lu  Lu3  1  0.505600  0.331332  0.093115  1
  Lu  Lu4  1  0.005699  0.168944  0.406779  1
  Lu  Lu5  1  0.505492  0.331657  0.407081  1
  Lu  Lu6  1  0.005400  0.168689  0.093027  1
  Lu  Lu7  1  0.494519  0.668709  0.907099  1
  Si  Si8  1  0.662696  0.960044  0.452937  1
  Si  Si9  1  0.163650  0.540227  0.046485  1
  Si  Si10  1  0.336505  0.040375  0.953754  1
  Si  Si11  1  0.835563  0.457635  0.546133  1
  Si  Si12  1  0.338626  0.041581  0.546034  1
  Si  Si13  1  0.836323  0.459793  0.953666  1
  Si  Si14  1  0.663499  0.959613  0.046620  1
  Si  Si15  1  0.163854  0.539603  0.452885  1
  Si  Si16  1  0.464369  0.373767  0.750419  1
  Si  Si17  1  0.964208  0.127735  0.750475  1
  Si  Si18  1  0.535144  0.626301  0.249677  1
  Si  Si19  1  0.035340  0.873481  0.250080  1
  Si  Si20  1  0.696188  0.863211  0.750659  1
  Si  Si21  1  0.198433  0.635688  0.750876  1
  Si  Si22  1  0.302830  0.137075  0.250006  1
  Si  Si23  1  0.802519  0.362713  0.249885  1
  W  W24  1  0.667054  0.164799  0.625476  1
  W  W25  1  0.168528  0.336322  0.874953  1
  W  W26  1  0.331015  0.836658  0.124751  1
  W  W27  1  0.830564  0.662724  0.374348  1
  W  W28  1  0.331934  0.836251  0.374587  1
  W  W29  1  0.831384  0.663408  0.124992  1
  W  W30  1  0.668837  0.163304  0.875346  1
  W  W31  1  0.169099  0.336630  0.624822  1
  W  W32  1  0.832542  0.501604  0.750373  1
  W  W33  1  0.333965  0.998398  0.750321  1
  W  W34  1  0.167063  0.497578  0.249960  1
  W  W35  1  0.667190  0.002400  0.250122  1
