# generated using pymatgen
data_DyLu5Bi2Mo
_symmetry_space_group_name_H-M   'P 1'
_cell_length_a   8.15956800
_cell_length_b   8.14067539
_cell_length_c   4.34312200
_cell_angle_alpha   90.00000000
_cell_angle_beta   90.00000000
_cell_angle_gamma   120.07679196
_symmetry_Int_Tables_number   1
_chemical_formula_structural   DyLu5Bi2Mo
_chemical_formula_sum   'Dy1 Lu5 Bi2 Mo1'
_cell_volume   249.64546667
_cell_formula_units_Z   1
loop_
 _symmetry_equiv_pos_site_id
 _symmetry_equiv_pos_as_xyz
  1  'x, y, z'
loop_
 _atom_site_type_symbol
 _atom_site_label
 _atom_site_symmetry_multiplicity
 _atom_site_fract_x
 _atom_site_fract_y
 _atom_site_fract_z
 _atom_site_occupancy
  Dy  Dy0  1  0.611310  0.000000  0.500000  1
  Lu  Lu1  1  0.385564  0.385877  0.500000  1
  Lu  Lu2  1  0.999687  0.614123  0.500000  1
  Lu  Lu3  1  0.001267  0.234946  0.000000  1
  Lu  Lu4  1  0.766321  0.765054  0.000000  1
  Lu  Lu5  1  0.234359  0.000000  0.000000  1
  Bi  Bi6  1  0.667004  0.334524  0.000000  1
  Bi  Bi7  1  0.332479  0.665476  0.000000  1
  Mo  Mo8  1  0.002010  0.000000  0.500000  1
