# generated using pymatgen
data_Ho2Er2B12MoRh
_symmetry_space_group_name_H-M   'P 1'
_cell_length_a   3.65314000
_cell_length_b   9.15873347
_cell_length_c   11.56478295
_cell_angle_alpha   90.41136701
_cell_angle_beta   90.00000000
_cell_angle_gamma   90.00000000
_symmetry_Int_Tables_number   1
_chemical_formula_structural   Ho2Er2B12MoRh
_chemical_formula_sum   'Ho4 Er4 B24 Mo2 Rh2'
_cell_volume   386.92610293
_cell_formula_units_Z   2
loop_
 _symmetry_equiv_pos_site_id
 _symmetry_equiv_pos_as_xyz
  1  'x, y, z'
loop_
 _atom_site_type_symbol
 _atom_site_label
 _atom_site_symmetry_multiplicity
 _atom_site_fract_x
 _atom_site_fract_y
 _atom_site_fract_z
 _atom_site_occupancy
  Ho  Ho0  1  0.500000  0.319570  0.411737  1
  Ho  Ho1  1  0.500000  0.680430  0.588263  1
  Ho  Ho2  1  0.500000  0.174596  0.916635  1
  Ho  Ho3  1  0.500000  0.825404  0.083365  1
  Er  Er4  1  0.500000  0.443712  0.126724  1
  Er  Er5  1  0.500000  0.556288  0.873276  1
  Er  Er6  1  0.500000  0.054584  0.627919  1
  Er  Er7  1  0.500000  0.945416  0.372081  1
  B  B8  1  0.000000  0.107463  0.471694  1
  B  B9  1  0.000000  0.892537  0.528306  1
  B  B10  1  0.000000  0.394598  0.970124  1
  B  B11  1  0.000000  0.605402  0.029876  1
  B  B12  1  0.000000  0.132993  0.317445  1
  B  B13  1  0.000000  0.867007  0.682555  1
  B  B14  1  0.000000  0.368097  0.815662  1
  B  B15  1  0.000000  0.631903  0.184338  1
  B  B16  1  0.000000  0.051961  0.066131  1
  B  B17  1  0.000000  0.948039  0.933869  1
  B  B18  1  0.000000  0.446014  0.565790  1
  B  B19  1  0.000000  0.553986  0.434210  1
  B  B20  1  0.000000  0.483730  0.288084  1
  B  B21  1  0.000000  0.516270  0.711916  1
  B  B22  1  0.000000  0.019855  0.786068  1
  B  B23  1  0.000000  0.980145  0.213932  1
  B  B24  1  0.000000  0.250429  0.079375  1
  B  B25  1  0.000000  0.749571  0.920625  1
  B  B26  1  0.000000  0.250570  0.579242  1
  B  B27  1  0.000000  0.749430  0.420758  1
  B  B28  1  0.000000  0.296122  0.236281  1
  B  B29  1  0.000000  0.703878  0.763719  1
  B  B30  1  0.000000  0.208507  0.733938  1
  B  B31  1  0.000000  0.791493  0.266062  1
  Mo  Mo32  1  0.500000  0.139797  0.181247  1
  Mo  Mo33  1  0.500000  0.860203  0.818753  1
  Rh  Rh34  1  0.500000  0.361520  0.678312  1
  Rh  Rh35  1  0.500000  0.638480  0.321688  1
