# generated using pymatgen
data_Sm11In(Hg2Pd)4
_symmetry_space_group_name_H-M   'P 1'
_cell_length_a   13.34743790
_cell_length_b   13.34743801
_cell_length_c   3.74903100
_cell_angle_alpha   90.00000000
_cell_angle_beta   90.00000000
_cell_angle_gamma   112.45463517
_symmetry_Int_Tables_number   1
_chemical_formula_structural   Sm11In(Hg2Pd)4
_chemical_formula_sum   'Sm11 In1 Hg8 Pd4'
_cell_volume   617.26616301
_cell_formula_units_Z   1
loop_
 _symmetry_equiv_pos_site_id
 _symmetry_equiv_pos_as_xyz
  1  'x, y, z'
loop_
 _atom_site_type_symbol
 _atom_site_label
 _atom_site_symmetry_multiplicity
 _atom_site_fract_x
 _atom_site_fract_y
 _atom_site_fract_z
 _atom_site_occupancy
  Sm  Sm0  1  0.416030  0.075631  0.000000  1
  Sm  Sm1  1  0.583970  0.924369  0.000000  1
  Sm  Sm2  1  0.075631  0.416030  0.000000  1
  Sm  Sm3  1  0.924369  0.583970  0.000000  1
  Sm  Sm4  1  0.167108  0.832892  0.000000  1
  Sm  Sm5  1  0.832892  0.167108  0.000000  1
  Sm  Sm6  1  0.371815  0.628185  0.000000  1
  Sm  Sm7  1  0.628185  0.371815  0.000000  1
  Sm  Sm8  1  0.298923  0.298923  0.000000  1
  Sm  Sm9  1  0.701077  0.701077  0.000000  1
  Sm  Sm10  1  0.000000  0.000000  0.000000  1
  In  In11  1  0.500000  0.500000  0.500000  1
  Hg  Hg12  1  0.369469  0.843191  0.500000  1
  Hg  Hg13  1  0.630531  0.156809  0.500000  1
  Hg  Hg14  1  0.843193  0.369469  0.500000  1
  Hg  Hg15  1  0.156807  0.630531  0.500000  1
  Hg  Hg16  1  0.213692  0.064704  0.500000  1
  Hg  Hg17  1  0.786308  0.935296  0.500000  1
  Hg  Hg18  1  0.064703  0.213691  0.500000  1
  Hg  Hg19  1  0.935297  0.786309  0.500000  1
  Pd  Pd20  1  0.448855  0.250909  0.500000  1
  Pd  Pd21  1  0.551145  0.749091  0.500000  1
  Pd  Pd22  1  0.250910  0.448855  0.500000  1
  Pd  Pd23  1  0.749090  0.551145  0.500000  1
