# generated using pymatgen
data_Ca4Ac2YbNi4Sn13
_symmetry_space_group_name_H-M   'P 1'
_cell_length_a   11.33971500
_cell_length_b   11.33971500
_cell_length_c   4.64344700
_cell_angle_alpha   90.00000000
_cell_angle_beta   90.00000000
_cell_angle_gamma   90.00000000
_symmetry_Int_Tables_number   1
_chemical_formula_structural   Ca4Ac2YbNi4Sn13
_chemical_formula_sum   'Ca4 Ac2 Yb1 Ni4 Sn13'
_cell_volume   597.09683910
_cell_formula_units_Z   1
loop_
 _symmetry_equiv_pos_site_id
 _symmetry_equiv_pos_as_xyz
  1  'x, y, z'
loop_
 _atom_site_type_symbol
 _atom_site_label
 _atom_site_symmetry_multiplicity
 _atom_site_fract_x
 _atom_site_fract_y
 _atom_site_fract_z
 _atom_site_occupancy
  Ca  Ca0  1  0.337137  0.671668  0.500000  1
  Ca  Ca1  1  0.662863  0.328332  0.500000  1
  Ca  Ca2  1  0.328332  0.337137  0.500000  1
  Ca  Ca3  1  0.671668  0.662863  0.500000  1
  Ac  Ac4  1  0.500000  0.000000  0.500000  1
  Ac  Ac5  1  0.000000  0.500000  0.500000  1
  Yb  Yb6  1  0.000000  0.000000  0.000000  1
  Ni  Ni7  1  0.117770  0.722988  0.000000  1
  Ni  Ni8  1  0.882230  0.277012  0.000000  1
  Ni  Ni9  1  0.277012  0.117770  0.000000  1
  Ni  Ni10  1  0.722988  0.882230  0.000000  1
  Sn  Sn11  1  0.281937  0.887572  0.000000  1
  Sn  Sn12  1  0.718063  0.112428  0.000000  1
  Sn  Sn13  1  0.112428  0.281937  0.000000  1
  Sn  Sn14  1  0.887572  0.718063  0.000000  1
  Sn  Sn15  1  0.076202  0.812562  0.500000  1
  Sn  Sn16  1  0.923798  0.187438  0.500000  1
  Sn  Sn17  1  0.187438  0.076202  0.500000  1
  Sn  Sn18  1  0.812562  0.923798  0.500000  1
  Sn  Sn19  1  0.518607  0.778158  0.000000  1
  Sn  Sn20  1  0.481393  0.221842  0.000000  1
  Sn  Sn21  1  0.221842  0.518607  0.000000  1
  Sn  Sn22  1  0.778158  0.481393  0.000000  1
  Sn  Sn23  1  0.500000  0.500000  0.000000  1
