# generated using pymatgen
data_Na2TeRhO6
_symmetry_space_group_name_H-M   'P 1'
_cell_length_a   6.18399643
_cell_length_b   6.18399658
_cell_length_c   6.18399613
_cell_angle_alpha   50.96928885
_cell_angle_beta   50.96929422
_cell_angle_gamma   50.96929062
_symmetry_Int_Tables_number   1
_chemical_formula_structural   Na2TeRhO6
_chemical_formula_sum   'Na2 Te1 Rh1 O6'
_cell_volume   131.61998575
_cell_formula_units_Z   1
loop_
 _symmetry_equiv_pos_site_id
 _symmetry_equiv_pos_as_xyz
  1  'x, y, z'
loop_
 _atom_site_type_symbol
 _atom_site_label
 _atom_site_symmetry_multiplicity
 _atom_site_fract_x
 _atom_site_fract_y
 _atom_site_fract_z
 _atom_site_occupancy
  Na  Na0  1  0.859480  0.859480  0.859480  1
  Na  Na1  1  0.137552  0.137552  0.137552  1
  Te  Te2  1  0.337033  0.337033  0.337033  1
  Rh  Rh3  1  0.663852  0.663852  0.663852  1
  O  O4  1  0.688943  0.069040  0.451243  1
  O  O5  1  0.451243  0.688943  0.069040  1
  O  O6  1  0.069040  0.451243  0.688943  1
  O  O7  1  0.304370  0.945659  0.542828  1
  O  O8  1  0.542828  0.304370  0.945659  1
  O  O9  1  0.945659  0.542828  0.304370  1
