# generated using pymatgen
data_Zr4Sc4CoRu7
_symmetry_space_group_name_H-M   'P 1'
_cell_length_a   6.45252400
_cell_length_b   4.59314700
_cell_length_c   9.19554100
_cell_angle_alpha   90.00000000
_cell_angle_beta   90.00285647
_cell_angle_gamma   90.00000000
_symmetry_Int_Tables_number   1
_chemical_formula_structural   Zr4Sc4CoRu7
_chemical_formula_sum   'Zr4 Sc4 Co1 Ru7'
_cell_volume   272.53184623
_cell_formula_units_Z   1
loop_
 _symmetry_equiv_pos_site_id
 _symmetry_equiv_pos_as_xyz
  1  'x, y, z'
loop_
 _atom_site_type_symbol
 _atom_site_label
 _atom_site_symmetry_multiplicity
 _atom_site_fract_x
 _atom_site_fract_y
 _atom_site_fract_z
 _atom_site_occupancy
  Zr  Zr0  1  0.749325  0.250000  0.125019  1
  Zr  Zr1  1  0.249740  0.750000  0.374317  1
  Zr  Zr2  1  0.750733  0.250000  0.625015  1
  Zr  Zr3  1  0.249973  0.750000  0.875663  1
  Sc  Sc4  1  0.251301  0.250000  0.124992  1
  Sc  Sc5  1  0.749453  0.750000  0.374309  1
  Sc  Sc6  1  0.249945  0.250000  0.624981  1
  Sc  Sc7  1  0.749706  0.750000  0.875714  1
  Co  Co8  1  0.499755  0.750000  0.124996  1
  Ru  Ru9  1  0.999595  0.750000  0.124971  1
  Ru  Ru10  1  0.500012  0.250000  0.373224  1
  Ru  Ru11  1  0.999904  0.250000  0.374011  1
  Ru  Ru12  1  0.000258  0.750000  0.624966  1
  Ru  Ru13  1  0.500127  0.750000  0.624966  1
  Ru  Ru14  1  0.000017  0.250000  0.876031  1
  Ru  Ru15  1  0.500156  0.250000  0.876828  1
