# generated using pymatgen
data_Dy5Tm3(Lu3Sn4)4
_symmetry_space_group_name_H-M   'P 1'
_cell_length_a   7.94819821
_cell_length_b   8.07844707
_cell_length_c   15.25965300
_cell_angle_alpha   89.99724814
_cell_angle_beta   90.01303324
_cell_angle_gamma   90.00705050
_symmetry_Int_Tables_number   1
_chemical_formula_structural   Dy5Tm3(Lu3Sn4)4
_chemical_formula_sum   'Dy5 Tm3 Lu12 Sn16'
_cell_volume   979.80852881
_cell_formula_units_Z   1
loop_
 _symmetry_equiv_pos_site_id
 _symmetry_equiv_pos_as_xyz
  1  'x, y, z'
loop_
 _atom_site_type_symbol
 _atom_site_label
 _atom_site_symmetry_multiplicity
 _atom_site_fract_x
 _atom_site_fract_y
 _atom_site_fract_z
 _atom_site_occupancy
  Dy  Dy0  1  0.978157  0.820819  0.096926  1
  Dy  Dy1  1  0.478254  0.678946  0.096583  1
  Dy  Dy2  1  0.978103  0.820885  0.403286  1
  Dy  Dy3  1  0.521741  0.320960  0.596595  1
  Dy  Dy4  1  0.021673  0.179128  0.903233  1
  Tm  Tm5  1  0.522056  0.320930  0.902929  1
  Tm  Tm6  1  0.022120  0.179125  0.597095  1
  Tm  Tm7  1  0.477843  0.679025  0.403100  1
  Lu  Lu8  1  0.367063  0.836964  0.876946  1
  Lu  Lu9  1  0.867218  0.663035  0.623075  1
  Lu  Lu10  1  0.632751  0.163028  0.377047  1
  Lu  Lu11  1  0.132722  0.336861  0.123039  1
  Lu  Lu12  1  0.632769  0.163170  0.122943  1
  Lu  Lu13  1  0.132712  0.336836  0.377142  1
  Lu  Lu14  1  0.367287  0.836939  0.622949  1
  Lu  Lu15  1  0.867172  0.662994  0.876881  1
  Lu  Lu16  1  0.197720  0.504437  0.750035  1
  Lu  Lu17  1  0.697713  0.995568  0.749902  1
  Lu  Lu18  1  0.802149  0.495374  0.250205  1
  Lu  Lu19  1  0.302443  0.004626  0.250082  1
  Sn  Sn20  1  0.294934  0.038264  0.041411  1
  Sn  Sn21  1  0.793796  0.462865  0.458344  1
  Sn  Sn22  1  0.706310  0.962735  0.541905  1
  Sn  Sn23  1  0.205989  0.537164  0.958145  1
  Sn  Sn24  1  0.704704  0.962087  0.958249  1
  Sn  Sn25  1  0.205151  0.538270  0.541339  1
  Sn  Sn26  1  0.294563  0.037949  0.458865  1
  Sn  Sn27  1  0.794451  0.461508  0.041075  1
  Sn  Sn28  1  0.563756  0.620624  0.749999  1
  Sn  Sn29  1  0.063971  0.879318  0.749979  1
  Sn  Sn30  1  0.436096  0.379322  0.249995  1
  Sn  Sn31  1  0.935967  0.120843  0.250091  1
  Sn  Sn32  1  0.331643  0.148896  0.750197  1
  Sn  Sn33  1  0.831295  0.351429  0.749755  1
  Sn  Sn34  1  0.668272  0.851071  0.250471  1
  Sn  Sn35  1  0.169436  0.648004  0.250187  1
