# generated using pymatgen
data_Y2ErIn4CoIr
_symmetry_space_group_name_H-M   'P 1'
_cell_length_a   7.91740159
_cell_length_b   7.91278569
_cell_length_c   3.67002900
_cell_angle_alpha   90.00000000
_cell_angle_beta   90.00000000
_cell_angle_gamma   119.97515356
_symmetry_Int_Tables_number   1
_chemical_formula_structural   Y2ErIn4CoIr
_chemical_formula_sum   'Y2 Er1 In4 Co1 Ir1'
_cell_volume   199.16860632
_cell_formula_units_Z   1
loop_
 _symmetry_equiv_pos_site_id
 _symmetry_equiv_pos_as_xyz
  1  'x, y, z'
loop_
 _atom_site_type_symbol
 _atom_site_label
 _atom_site_symmetry_multiplicity
 _atom_site_fract_x
 _atom_site_fract_y
 _atom_site_fract_z
 _atom_site_occupancy
  Y  Y0  1  0.700509  0.954234  0.500000  1
  Y  Y1  1  0.254221  0.299647  0.500000  1
  Er  Er2  1  0.043737  0.746580  0.500000  1
  In  In3  1  0.917799  0.337214  0.000000  1
  In  In4  1  0.418588  0.082259  0.000000  1
  In  In5  1  0.664296  0.581668  0.000000  1
  In  In6  1  0.332342  0.667083  0.000000  1
  Co  Co7  1  0.667885  0.334728  0.500000  1
  Ir  Ir8  1  0.000625  0.996586  0.000000  1
