# generated using pymatgen
data_Tb13Er2Tm(InRh)4
_symmetry_space_group_name_H-M   'P 1'
_cell_length_a   9.69111003
_cell_length_b   9.68242809
_cell_length_c   9.67267022
_cell_angle_alpha   60.08227972
_cell_angle_beta   60.02252363
_cell_angle_gamma   59.94328770
_symmetry_Int_Tables_number   1
_chemical_formula_structural   Tb13Er2Tm(InRh)4
_chemical_formula_sum   'Tb13 Er2 Tm1 In4 Rh4'
_cell_volume   642.01577850
_cell_formula_units_Z   1
loop_
 _symmetry_equiv_pos_site_id
 _symmetry_equiv_pos_as_xyz
  1  'x, y, z'
loop_
 _atom_site_type_symbol
 _atom_site_label
 _atom_site_symmetry_multiplicity
 _atom_site_fract_x
 _atom_site_fract_y
 _atom_site_fract_z
 _atom_site_occupancy
  Tb  Tb0  1  0.648527  0.051257  0.648700  1
  Tb  Tb1  1  0.061109  0.061739  0.438082  1
  Tb  Tb2  1  0.437920  0.436876  0.061763  1
  Tb  Tb3  1  0.651790  0.650795  0.650963  1
  Tb  Tb4  1  0.812074  0.188621  0.188078  1
  Tb  Tb5  1  0.189079  0.811784  0.811286  1
  Tb  Tb6  1  0.050688  0.648440  0.648938  1
  Tb  Tb7  1  0.438774  0.060800  0.060821  1
  Tb  Tb8  1  0.438018  0.061224  0.437673  1
  Tb  Tb9  1  0.060971  0.437749  0.061685  1
  Tb  Tb10  1  0.649042  0.648730  0.050590  1
  Tb  Tb11  1  0.188656  0.812155  0.188659  1
  Tb  Tb12  1  0.060835  0.437376  0.438113  1
  Er  Er13  1  0.810981  0.189569  0.811535  1
  Er  Er14  1  0.188930  0.189523  0.811309  1
  Tm  Tm15  1  0.810233  0.811173  0.189976  1
  In  In16  1  0.417109  0.417038  0.416969  1
  In  In17  1  0.417859  0.417670  0.748179  1
  In  In18  1  0.417995  0.747838  0.417859  1
  In  In19  1  0.748047  0.417957  0.417957  1
  Rh  Rh20  1  0.859895  0.425841  0.857172  1
  Rh  Rh21  1  0.857026  0.858394  0.859716  1
  Rh  Rh22  1  0.857708  0.857370  0.426339  1
  Rh  Rh23  1  0.426729  0.860076  0.857638  1
