# generated using pymatgen
data_Rb3YbTlI6
_symmetry_space_group_name_H-M   'P 1'
_cell_length_a   10.12287428
_cell_length_b   10.12287498
_cell_length_c   10.12287500
_cell_angle_alpha   90.81307933
_cell_angle_beta   90.81308504
_cell_angle_gamma   90.81307869
_symmetry_Int_Tables_number   1
_chemical_formula_structural   Rb3YbTlI6
_chemical_formula_sum   'Rb6 Yb2 Tl2 I12'
_cell_volume   1037.00088914
_cell_formula_units_Z   2
loop_
 _symmetry_equiv_pos_site_id
 _symmetry_equiv_pos_as_xyz
  1  'x, y, z'
loop_
 _atom_site_type_symbol
 _atom_site_label
 _atom_site_symmetry_multiplicity
 _atom_site_fract_x
 _atom_site_fract_y
 _atom_site_fract_z
 _atom_site_occupancy
  Rb  Rb0  1  0.869845  0.630155  0.250000  1
  Rb  Rb1  1  0.630155  0.250000  0.869845  1
  Rb  Rb2  1  0.250000  0.869845  0.630155  1
  Rb  Rb3  1  0.130155  0.369845  0.750000  1
  Rb  Rb4  1  0.369845  0.750000  0.130155  1
  Rb  Rb5  1  0.750000  0.130155  0.369845  1
  Yb  Yb6  1  0.000000  0.000000  0.000000  1
  Yb  Yb7  1  0.500000  0.500000  0.500000  1
  Tl  Tl8  1  0.250000  0.250000  0.250000  1
  Tl  Tl9  1  0.750000  0.750000  0.750000  1
  I  I10  1  0.203803  0.553034  0.427316  1
  I  I11  1  0.053034  0.703803  0.927316  1
  I  I12  1  0.927316  0.053034  0.703803  1
  I  I13  1  0.796197  0.446966  0.572684  1
  I  I14  1  0.703803  0.927316  0.053034  1
  I  I15  1  0.446966  0.572684  0.796197  1
  I  I16  1  0.572684  0.796197  0.446966  1
  I  I17  1  0.553034  0.427316  0.203803  1
  I  I18  1  0.072684  0.946966  0.296197  1
  I  I19  1  0.946966  0.296197  0.072684  1
  I  I20  1  0.296197  0.072684  0.946966  1
  I  I21  1  0.427316  0.203803  0.553034  1
