# generated using pymatgen
data_Li3Nd6MgPd13
_symmetry_space_group_name_H-M   'P 1'
_cell_length_a   8.42512025
_cell_length_b   8.38981573
_cell_length_c   8.42512124
_cell_angle_alpha   109.38635676
_cell_angle_beta   109.55594837
_cell_angle_gamma   109.38635694
_symmetry_Int_Tables_number   1
_chemical_formula_structural   Li3Nd6MgPd13
_chemical_formula_sum   'Li3 Nd6 Mg1 Pd13'
_cell_volume   458.91958522
_cell_formula_units_Z   1
loop_
 _symmetry_equiv_pos_site_id
 _symmetry_equiv_pos_as_xyz
  1  'x, y, z'
loop_
 _atom_site_type_symbol
 _atom_site_label
 _atom_site_symmetry_multiplicity
 _atom_site_fract_x
 _atom_site_fract_y
 _atom_site_fract_z
 _atom_site_occupancy
  Li  Li0  1  0.000000  0.000000  0.500000  1
  Li  Li1  1  0.500000  0.000000  0.000000  1
  Li  Li2  1  0.500000  0.500000  0.500000  1
  Nd  Nd3  1  0.692754  0.694242  0.000000  1
  Nd  Nd4  1  0.307246  0.001488  0.307246  1
  Nd  Nd5  1  0.000000  0.305758  0.307246  1
  Nd  Nd6  1  0.307246  0.305758  0.000000  1
  Nd  Nd7  1  0.692754  0.998512  0.692754  1
  Nd  Nd8  1  0.000000  0.694242  0.692754  1
  Mg  Mg9  1  0.000000  0.500000  0.000000  1
  Pd  Pd10  1  0.333041  0.333041  0.666083  1
  Pd  Pd11  1  0.666959  0.000000  0.333041  1
  Pd  Pd12  1  0.000000  0.668750  0.333958  1
  Pd  Pd13  1  0.666042  0.331250  0.000000  1
  Pd  Pd14  1  0.333958  0.665208  0.333958  1
  Pd  Pd15  1  0.000000  0.331250  0.666042  1
  Pd  Pd16  1  0.333958  0.668750  0.000000  1
  Pd  Pd17  1  0.333041  0.000000  0.666959  1
  Pd  Pd18  1  0.666083  0.333041  0.333041  1
  Pd  Pd19  1  0.666959  0.666959  0.333917  1
  Pd  Pd20  1  0.666042  0.334792  0.666042  1
  Pd  Pd21  1  0.333917  0.666959  0.666959  1
  Pd  Pd22  1  0.000000  0.000000  0.000000  1
