# generated using pymatgen
data_Ba4Ca4Si3Pb
_symmetry_space_group_name_H-M   'P 1'
_cell_length_a   5.13891400
_cell_length_b   8.67711261
_cell_length_c   9.36205769
_cell_angle_alpha   90.95211780
_cell_angle_beta   90.00000000
_cell_angle_gamma   90.00000000
_symmetry_Int_Tables_number   1
_chemical_formula_structural   Ba4Ca4Si3Pb
_chemical_formula_sum   'Ba4 Ca4 Si3 Pb1'
_cell_volume   417.40527188
_cell_formula_units_Z   1
loop_
 _symmetry_equiv_pos_site_id
 _symmetry_equiv_pos_as_xyz
  1  'x, y, z'
loop_
 _atom_site_type_symbol
 _atom_site_label
 _atom_site_symmetry_multiplicity
 _atom_site_fract_x
 _atom_site_fract_y
 _atom_site_fract_z
 _atom_site_occupancy
  Ba  Ba0  1  0.250000  0.530366  0.318289  1
  Ba  Ba1  1  0.250000  0.024815  0.169923  1
  Ba  Ba2  1  0.750000  0.481049  0.684121  1
  Ba  Ba3  1  0.750000  0.969177  0.825747  1
  Ca  Ca4  1  0.250000  0.642142  0.927091  1
  Ca  Ca5  1  0.250000  0.137177  0.588096  1
  Ca  Ca6  1  0.750000  0.362736  0.062353  1
  Ca  Ca7  1  0.750000  0.846098  0.426638  1
  Si  Si8  1  0.250000  0.284029  0.894227  1
  Si  Si9  1  0.250000  0.779568  0.610968  1
  Si  Si10  1  0.750000  0.719016  0.103123  1
  Pb  Pb11  1  0.750000  0.223827  0.389423  1
