# generated using pymatgen
data_Rb2Mn2CdSe4
_symmetry_space_group_name_H-M   'P 1'
_cell_length_a   9.90898711
_cell_length_b   9.90898800
_cell_length_c   9.90898780
_cell_angle_alpha   142.95565656
_cell_angle_beta   105.61343400
_cell_angle_gamma   86.14021239
_symmetry_Int_Tables_number   1
_chemical_formula_structural   Rb2Mn2CdSe4
_chemical_formula_sum   'Rb4 Mn4 Cd2 Se8'
_cell_volume   545.95643744
_cell_formula_units_Z   2
loop_
 _symmetry_equiv_pos_site_id
 _symmetry_equiv_pos_as_xyz
  1  'x, y, z'
loop_
 _atom_site_type_symbol
 _atom_site_label
 _atom_site_symmetry_multiplicity
 _atom_site_fract_x
 _atom_site_fract_y
 _atom_site_fract_z
 _atom_site_occupancy
  Rb  Rb0  1  0.123582  0.237489  0.360001  1
  Rb  Rb1  1  0.376418  0.736420  0.113907  1
  Rb  Rb2  1  0.622513  0.262511  0.886093  1
  Rb  Rb3  1  0.877487  0.763580  0.639999  1
  Mn  Mn4  1  0.477631  0.250000  0.227631  1
  Mn  Mn5  1  0.750000  0.250000  0.500000  1
  Mn  Mn6  1  0.250000  0.750000  0.500000  1
  Mn  Mn7  1  0.022369  0.250000  0.772369  1
  Cd  Cd8  1  0.525252  0.750000  0.775252  1
  Cd  Cd9  1  0.974748  0.750000  0.224748  1
  Se  Se10  1  0.226359  0.085233  0.604723  1
  Se  Se11  1  0.273641  0.878363  0.858874  1
  Se  Se12  1  0.019490  0.414767  0.141126  1
  Se  Se13  1  0.480510  0.621637  0.395277  1
  Se  Se14  1  0.774772  0.935874  0.423357  1
  Se  Se15  1  0.725228  0.148585  0.161101  1
  Se  Se16  1  0.987484  0.564126  0.838899  1
  Se  Se17  1  0.512516  0.351415  0.576643  1
