# generated using pymatgen
data_Dy2Er5(TmBi2)3
_symmetry_space_group_name_H-M   'P 1'
_cell_length_a   8.20767900
_cell_length_b   9.46345100
_cell_length_c   11.94933200
_cell_angle_alpha   89.99803623
_cell_angle_beta   90.00000000
_cell_angle_gamma   90.00000000
_symmetry_Int_Tables_number   1
_chemical_formula_structural   Dy2Er5(TmBi2)3
_chemical_formula_sum   'Dy4 Er10 Tm6 Bi12'
_cell_volume   928.14008227
_cell_formula_units_Z   2
loop_
 _symmetry_equiv_pos_site_id
 _symmetry_equiv_pos_as_xyz
  1  'x, y, z'
loop_
 _atom_site_type_symbol
 _atom_site_label
 _atom_site_symmetry_multiplicity
 _atom_site_fract_x
 _atom_site_fract_y
 _atom_site_fract_z
 _atom_site_occupancy
  Dy  Dy0  1  0.312302  0.249996  0.218454  1
  Dy  Dy1  1  0.812302  0.250004  0.281546  1
  Dy  Dy2  1  0.687663  0.750046  0.781581  1
  Dy  Dy3  1  0.187663  0.749954  0.718419  1
  Er  Er4  1  0.352553  0.749962  0.216880  1
  Er  Er5  1  0.852553  0.750038  0.283120  1
  Er  Er6  1  0.647357  0.250014  0.783126  1
  Er  Er7  1  0.147357  0.249986  0.716874  1
  Er  Er8  1  0.692712  0.565350  0.059164  1
  Er  Er9  1  0.192712  0.934650  0.440836  1
  Er  Er10  1  0.307307  0.065267  0.940805  1
  Er  Er11  1  0.807307  0.434733  0.559195  1
  Er  Er12  1  0.307347  0.434703  0.940827  1
  Er  Er13  1  0.807347  0.065297  0.559173  1
  Tm  Tm14  1  0.692788  0.934346  0.059201  1
  Tm  Tm15  1  0.192788  0.565654  0.440799  1
  Tm  Tm16  1  0.475954  0.250033  0.488893  1
  Tm  Tm17  1  0.975954  0.249967  0.011107  1
  Tm  Tm18  1  0.523857  0.749941  0.511058  1
  Tm  Tm19  1  0.023857  0.750059  0.988942  1
  Bi  Bi20  1  0.405372  0.750096  0.958205  1
  Bi  Bi21  1  0.905372  0.749904  0.541795  1
  Bi  Bi22  1  0.594778  0.249685  0.041874  1
  Bi  Bi23  1  0.094778  0.250315  0.458126  1
  Bi  Bi24  1  0.565219  0.994860  0.325929  1
  Bi  Bi25  1  0.065219  0.505140  0.174071  1
  Bi  Bi26  1  0.434826  0.494853  0.674013  1
  Bi  Bi27  1  0.934826  0.005147  0.825987  1
  Bi  Bi28  1  0.434814  0.005125  0.674051  1
  Bi  Bi29  1  0.934814  0.494875  0.825949  1
  Bi  Bi30  1  0.565152  0.505135  0.325968  1
  Bi  Bi31  1  0.065152  0.994865  0.174032  1
