# generated using pymatgen
data_TbIn6IrCl12
_symmetry_space_group_name_H-M   'P 1'
_cell_length_a   8.88313086
_cell_length_b   8.88313037
_cell_length_c   8.88313110
_cell_angle_alpha   104.85884850
_cell_angle_beta   104.85885109
_cell_angle_gamma   104.85884974
_symmetry_Int_Tables_number   1
_chemical_formula_structural   TbIn6IrCl12
_chemical_formula_sum   'Tb1 In6 Ir1 Cl12'
_cell_volume   614.69351151
_cell_formula_units_Z   1
loop_
 _symmetry_equiv_pos_site_id
 _symmetry_equiv_pos_as_xyz
  1  'x, y, z'
loop_
 _atom_site_type_symbol
 _atom_site_label
 _atom_site_symmetry_multiplicity
 _atom_site_fract_x
 _atom_site_fract_y
 _atom_site_fract_z
 _atom_site_occupancy
  Tb  Tb0  1  0.500000  0.500000  0.500000  1
  In  In1  1  0.053848  0.062514  0.318382  1
  In  In2  1  0.318382  0.053848  0.062514  1
  In  In3  1  0.062514  0.318382  0.053848  1
  In  In4  1  0.946152  0.937486  0.681618  1
  In  In5  1  0.681618  0.946152  0.937486  1
  In  In6  1  0.937486  0.681618  0.946152  1
  Ir  Ir7  1  0.000000  0.000000  0.000000  1
  Cl  Cl8  1  0.985540  0.563478  0.189753  1
  Cl  Cl9  1  0.189753  0.985540  0.563478  1
  Cl  Cl10  1  0.563478  0.189753  0.985540  1
  Cl  Cl11  1  0.014460  0.436522  0.810247  1
  Cl  Cl12  1  0.810247  0.014460  0.436522  1
  Cl  Cl13  1  0.436522  0.810247  0.014460  1
  Cl  Cl14  1  0.490468  0.187449  0.383197  1
  Cl  Cl15  1  0.383197  0.490468  0.187449  1
  Cl  Cl16  1  0.187449  0.383197  0.490468  1
  Cl  Cl17  1  0.509532  0.812551  0.616803  1
  Cl  Cl18  1  0.616803  0.509532  0.812551  1
  Cl  Cl19  1  0.812551  0.616803  0.509532  1
