# generated using pymatgen
data_Tb16Cd2Hg2Pd3Pt
_symmetry_space_group_name_H-M   'P 1'
_cell_length_a   9.72030407
_cell_length_b   9.70743718
_cell_length_c   9.70814100
_cell_angle_alpha   59.99760499
_cell_angle_beta   60.04138763
_cell_angle_gamma   60.09846912
_symmetry_Int_Tables_number   1
_chemical_formula_structural   Tb16Cd2Hg2Pd3Pt
_chemical_formula_sum   'Tb16 Cd2 Hg2 Pd3 Pt1'
_cell_volume   648.41887821
_cell_formula_units_Z   1
loop_
 _symmetry_equiv_pos_site_id
 _symmetry_equiv_pos_as_xyz
  1  'x, y, z'
loop_
 _atom_site_type_symbol
 _atom_site_label
 _atom_site_symmetry_multiplicity
 _atom_site_fract_x
 _atom_site_fract_y
 _atom_site_fract_z
 _atom_site_occupancy
  Tb  Tb0  1  0.354522  0.352749  0.350238  1
  Tb  Tb1  1  0.354522  0.352749  0.942490  1
  Tb  Tb2  1  0.358334  0.934249  0.353708  1
  Tb  Tb3  1  0.932133  0.357963  0.354952  1
  Tb  Tb4  1  0.809805  0.189126  0.190399  1
  Tb  Tb5  1  0.189455  0.810643  0.809280  1
  Tb  Tb6  1  0.189455  0.810643  0.190622  1
  Tb  Tb7  1  0.809805  0.189126  0.810670  1
  Tb  Tb8  1  0.190367  0.190063  0.809785  1
  Tb  Tb9  1  0.808694  0.810741  0.190283  1
  Tb  Tb10  1  0.935082  0.564348  0.566040  1
  Tb  Tb11  1  0.564651  0.935310  0.935258  1
  Tb  Tb12  1  0.564651  0.935310  0.564782  1
  Tb  Tb13  1  0.935082  0.564348  0.934531  1
  Tb  Tb14  1  0.565742  0.564339  0.934960  1
  Tb  Tb15  1  0.935151  0.934997  0.564926  1
  Cd  Cd16  1  0.579496  0.255310  0.582596  1
  Cd  Cd17  1  0.255656  0.579641  0.582351  1
  Hg  Hg18  1  0.584709  0.584961  0.588581  1
  Hg  Hg19  1  0.584709  0.584961  0.241746  1
  Pd  Pd20  1  0.143525  0.144395  0.147466  1
  Pd  Pd21  1  0.143525  0.144395  0.564615  1
  Pd  Pd22  1  0.141833  0.567601  0.145284  1
  Pt  Pt23  1  0.569094  0.142030  0.144439  1
