# generated using pymatgen
data_DyTmAl2Ga7Ir3
_symmetry_space_group_name_H-M   'P 1'
_cell_length_a   7.56807504
_cell_length_b   7.56028079
_cell_length_c   9.48857500
_cell_angle_alpha   90.00000000
_cell_angle_beta   90.00000000
_cell_angle_gamma   119.77666947
_symmetry_Int_Tables_number   1
_chemical_formula_structural   DyTmAl2Ga7Ir3
_chemical_formula_sum   'Dy2 Tm2 Al4 Ga14 Ir6'
_cell_volume   471.22458121
_cell_formula_units_Z   2
loop_
 _symmetry_equiv_pos_site_id
 _symmetry_equiv_pos_as_xyz
  1  'x, y, z'
loop_
 _atom_site_type_symbol
 _atom_site_label
 _atom_site_symmetry_multiplicity
 _atom_site_fract_x
 _atom_site_fract_y
 _atom_site_fract_z
 _atom_site_occupancy
  Dy  Dy0  1  0.669561  0.000662  0.750000  1
  Dy  Dy1  1  0.330439  0.999338  0.250000  1
  Tm  Tm2  1  0.001020  0.669691  0.750000  1
  Tm  Tm3  1  0.998980  0.330309  0.250000  1
  Al  Al4  1  0.331358  0.331986  0.054040  1
  Al  Al5  1  0.668642  0.668014  0.945960  1
  Al  Al6  1  0.668642  0.668014  0.554040  1
  Al  Al7  1  0.331358  0.331986  0.445960  1
  Ga  Ga8  1  0.126809  0.126404  0.750000  1
  Ga  Ga9  1  0.873191  0.873596  0.250000  1
  Ga  Ga10  1  0.000415  0.336148  0.579526  1
  Ga  Ga11  1  0.999585  0.663852  0.420474  1
  Ga  Ga12  1  0.999585  0.663852  0.079526  1
  Ga  Ga13  1  0.334294  0.999653  0.919883  1
  Ga  Ga14  1  0.000415  0.336148  0.920474  1
  Ga  Ga15  1  0.665706  0.000347  0.080117  1
  Ga  Ga16  1  0.665706  0.000347  0.419883  1
  Ga  Ga17  1  0.334294  0.999653  0.580117  1
  Ga  Ga18  1  0.345828  0.549406  0.750000  1
  Ga  Ga19  1  0.654172  0.450594  0.250000  1
  Ga  Ga20  1  0.550285  0.347114  0.750000  1
  Ga  Ga21  1  0.449715  0.652886  0.250000  1
  Ir  Ir22  1  0.669929  0.330381  0.500042  1
  Ir  Ir23  1  0.330071  0.669619  0.499958  1
  Ir  Ir24  1  0.330071  0.669619  0.000042  1
  Ir  Ir25  1  0.669929  0.330381  0.999958  1
  Ir  Ir26  1  0.000000  0.000000  0.500000  1
  Ir  Ir27  1  0.000000  0.000000  0.000000  1
