# generated using pymatgen
data_Ga4Hg15Br16
_symmetry_space_group_name_H-M   'P 1'
_cell_length_a   7.76454272
_cell_length_b   7.76454340
_cell_length_c   26.71043273
_cell_angle_alpha   86.41881325
_cell_angle_beta   86.41881178
_cell_angle_gamma   60.72664572
_symmetry_Int_Tables_number   1
_chemical_formula_structural   Ga4Hg15Br16
_chemical_formula_sum   'Ga4 Hg15 Br16'
_cell_volume   1400.99313584
_cell_formula_units_Z   1
loop_
 _symmetry_equiv_pos_site_id
 _symmetry_equiv_pos_as_xyz
  1  'x, y, z'
loop_
 _atom_site_type_symbol
 _atom_site_label
 _atom_site_symmetry_multiplicity
 _atom_site_fract_x
 _atom_site_fract_y
 _atom_site_fract_z
 _atom_site_occupancy
  Ga  Ga0  1  0.635199  0.635199  0.117828  1
  Ga  Ga1  1  0.364801  0.364801  0.882172  1
  Ga  Ga2  1  0.756210  0.756210  0.617386  1
  Ga  Ga3  1  0.243790  0.243790  0.382614  1
  Hg  Hg4  1  0.028845  0.028845  0.898329  1
  Hg  Hg5  1  0.769229  0.769229  0.280345  1
  Hg  Hg6  1  0.489297  0.489297  0.550865  1
  Hg  Hg7  1  0.722944  0.235278  0.726260  1
  Hg  Hg8  1  0.277056  0.764722  0.273740  1
  Hg  Hg9  1  0.764722  0.277056  0.273740  1
  Hg  Hg10  1  0.235278  0.722944  0.726260  1
  Hg  Hg11  1  0.510703  0.510703  0.449135  1
  Hg  Hg12  1  0.971155  0.971155  0.101671  1
  Hg  Hg13  1  0.000000  0.000000  0.000000  1
  Hg  Hg14  1  0.230771  0.230771  0.719655  1
  Hg  Hg15  1  0.944550  0.944550  0.204229  1
  Hg  Hg16  1  0.055450  0.055450  0.795771  1
  Hg  Hg17  1  0.588252  0.588252  0.350990  1
  Hg  Hg18  1  0.411748  0.411748  0.649010  1
  Br  Br19  1  0.534015  0.043622  0.849236  1
  Br  Br20  1  0.074672  0.074672  0.412249  1
  Br  Br21  1  0.536209  0.536209  0.852896  1
  Br  Br22  1  0.428836  0.917598  0.589019  1
  Br  Br23  1  0.742416  0.742416  0.706605  1
  Br  Br24  1  0.344816  0.344816  0.970066  1
  Br  Br25  1  0.465985  0.956378  0.150764  1
  Br  Br26  1  0.956378  0.465985  0.150764  1
  Br  Br27  1  0.463791  0.463791  0.147104  1
  Br  Br28  1  0.571164  0.082402  0.410981  1
  Br  Br29  1  0.655184  0.655184  0.029934  1
  Br  Br30  1  0.917598  0.428836  0.589019  1
  Br  Br31  1  0.257584  0.257584  0.293395  1
  Br  Br32  1  0.082402  0.571164  0.410981  1
  Br  Br33  1  0.925328  0.925328  0.587751  1
  Br  Br34  1  0.043622  0.534015  0.849236  1
