# generated using pymatgen
data_Ti2Br5Cl
_symmetry_space_group_name_H-M   'P 1'
_cell_length_a   7.25040721
_cell_length_b   7.25040729
_cell_length_c   5.99346600
_cell_angle_alpha   90.00000000
_cell_angle_beta   90.00000000
_cell_angle_gamma   120.78749266
_symmetry_Int_Tables_number   1
_chemical_formula_structural   Ti2Br5Cl
_chemical_formula_sum   'Ti2 Br5 Cl1'
_cell_volume   270.66508529
_cell_formula_units_Z   1
loop_
 _symmetry_equiv_pos_site_id
 _symmetry_equiv_pos_as_xyz
  1  'x, y, z'
loop_
 _atom_site_type_symbol
 _atom_site_label
 _atom_site_symmetry_multiplicity
 _atom_site_fract_x
 _atom_site_fract_y
 _atom_site_fract_z
 _atom_site_occupancy
  Ti  Ti0  1  0.001204  0.001204  0.981022  1
  Ti  Ti1  1  0.001204  0.001204  0.518978  1
  Br  Br2  1  0.706527  0.001883  0.750000  1
  Br  Br3  1  0.010362  0.289731  0.250000  1
  Br  Br4  1  0.289731  0.010362  0.250000  1
  Br  Br5  1  0.001883  0.706527  0.750000  1
  Br  Br6  1  0.715351  0.715351  0.250000  1
  Cl  Cl7  1  0.273737  0.273737  0.750000  1
