# generated using pymatgen
data_Zr3AlGa2Ru3
_symmetry_space_group_name_H-M   'P 1'
_cell_length_a   7.11351300
_cell_length_b   7.11351464
_cell_length_c   3.43364000
_cell_angle_alpha   90.00000000
_cell_angle_beta   90.00000000
_cell_angle_gamma   120.00000631
_symmetry_Int_Tables_number   1
_chemical_formula_structural   Zr3AlGa2Ru3
_chemical_formula_sum   'Zr3 Al1 Ga2 Ru3'
_cell_volume   150.47131733
_cell_formula_units_Z   1
loop_
 _symmetry_equiv_pos_site_id
 _symmetry_equiv_pos_as_xyz
  1  'x, y, z'
loop_
 _atom_site_type_symbol
 _atom_site_label
 _atom_site_symmetry_multiplicity
 _atom_site_fract_x
 _atom_site_fract_y
 _atom_site_fract_z
 _atom_site_occupancy
  Zr  Zr0  1  0.405836  0.405836  0.500000  1
  Zr  Zr1  1  0.594164  0.000000  0.500000  1
  Zr  Zr2  1  0.000000  0.594164  0.500000  1
  Al  Al3  1  0.000000  0.000000  0.500000  1
  Ga  Ga4  1  0.666667  0.333333  0.000000  1
  Ga  Ga5  1  0.333333  0.666667  0.000000  1
  Ru  Ru6  1  0.000000  0.256046  0.000000  1
  Ru  Ru7  1  0.256046  0.000000  0.000000  1
  Ru  Ru8  1  0.743954  0.743954  0.000000  1
