# generated using pymatgen
data_Tb13Lu3(HgRh)4
_symmetry_space_group_name_H-M   'P 1'
_cell_length_a   9.59691571
_cell_length_b   9.58318236
_cell_length_c   9.58014023
_cell_angle_alpha   60.10535754
_cell_angle_beta   60.02462515
_cell_angle_gamma   59.93159706
_symmetry_Int_Tables_number   1
_chemical_formula_structural   Tb13Lu3(HgRh)4
_chemical_formula_sum   'Tb13 Lu3 Hg4 Rh4'
_cell_volume   623.30174770
_cell_formula_units_Z   1
loop_
 _symmetry_equiv_pos_site_id
 _symmetry_equiv_pos_as_xyz
  1  'x, y, z'
loop_
 _atom_site_type_symbol
 _atom_site_label
 _atom_site_symmetry_multiplicity
 _atom_site_fract_x
 _atom_site_fract_y
 _atom_site_fract_z
 _atom_site_occupancy
  Tb  Tb0  1  0.648446  0.052831  0.649950  1
  Tb  Tb1  1  0.061900  0.063790  0.438073  1
  Tb  Tb2  1  0.438073  0.436237  0.061900  1
  Tb  Tb3  1  0.649950  0.648774  0.648446  1
  Tb  Tb4  1  0.812278  0.187460  0.186934  1
  Tb  Tb5  1  0.186934  0.813328  0.812278  1
  Tb  Tb6  1  0.052510  0.648242  0.649529  1
  Tb  Tb7  1  0.438454  0.063378  0.061622  1
  Tb  Tb8  1  0.437288  0.062712  0.437288  1
  Tb  Tb9  1  0.062871  0.437129  0.062871  1
  Tb  Tb10  1  0.649529  0.649720  0.052510  1
  Tb  Tb11  1  0.188061  0.811939  0.188061  1
  Tb  Tb12  1  0.061622  0.436548  0.438454  1
  Lu  Lu13  1  0.811278  0.812257  0.188012  1
  Lu  Lu14  1  0.812534  0.187466  0.812534  1
  Lu  Lu15  1  0.188012  0.188453  0.811278  1
  Hg  Hg16  1  0.416278  0.415987  0.416794  1
  Hg  Hg17  1  0.416608  0.415833  0.751181  1
  Hg  Hg18  1  0.416794  0.750941  0.416278  1
  Hg  Hg19  1  0.751181  0.416377  0.416608  1
  Rh  Rh20  1  0.859778  0.424482  0.856228  1
  Rh  Rh21  1  0.856228  0.859513  0.859778  1
  Rh  Rh22  1  0.856811  0.856557  0.426585  1
  Rh  Rh23  1  0.426585  0.860050  0.856811  1
