# generated using pymatgen
data_Ac3In3IrPt2
_symmetry_space_group_name_H-M   'P 1'
_cell_length_a   7.74837800
_cell_length_b   7.74837820
_cell_length_c   4.39265800
_cell_angle_alpha   90.00000000
_cell_angle_beta   90.00000000
_cell_angle_gamma   119.99999059
_symmetry_Int_Tables_number   1
_chemical_formula_structural   Ac3In3IrPt2
_chemical_formula_sum   'Ac3 In3 Ir1 Pt2'
_cell_volume   228.39136217
_cell_formula_units_Z   1
loop_
 _symmetry_equiv_pos_site_id
 _symmetry_equiv_pos_as_xyz
  1  'x, y, z'
loop_
 _atom_site_type_symbol
 _atom_site_label
 _atom_site_symmetry_multiplicity
 _atom_site_fract_x
 _atom_site_fract_y
 _atom_site_fract_z
 _atom_site_occupancy
  Ac  Ac0  1  0.590770  0.000000  0.500001  1
  Ac  Ac1  1  0.409230  0.409230  0.500001  1
  Ac  Ac2  1  0.000000  0.590769  0.500001  1
  In  In3  1  0.239527  0.000000  0.000000  1
  In  In4  1  0.000000  0.239527  0.000000  1
  In  In5  1  0.760472  0.760472  0.000000  1
  Ir  Ir6  1  0.000000  0.000000  0.500001  1
  Pt  Pt7  1  0.666667  0.333333  0.000000  1
  Pt  Pt8  1  0.333333  0.666666  0.000000  1
