# generated using pymatgen
data_Li4Ca(Cu2P3)2
_symmetry_space_group_name_H-M   'P 1'
_cell_length_a   8.01957849
_cell_length_b   8.01957929
_cell_length_c   8.01957885
_cell_angle_alpha   151.66971303
_cell_angle_beta   113.73464946
_cell_angle_gamma   73.57690253
_symmetry_Int_Tables_number   1
_chemical_formula_structural   Li4Ca(Cu2P3)2
_chemical_formula_sum   'Li4 Ca1 Cu4 P6'
_cell_volume   220.99659179
_cell_formula_units_Z   1
loop_
 _symmetry_equiv_pos_site_id
 _symmetry_equiv_pos_as_xyz
  1  'x, y, z'
loop_
 _atom_site_type_symbol
 _atom_site_label
 _atom_site_symmetry_multiplicity
 _atom_site_fract_x
 _atom_site_fract_y
 _atom_site_fract_z
 _atom_site_occupancy
  Li  Li0  1  0.718817  0.718817  0.000000  1
  Li  Li1  1  0.666556  0.500000  0.166556  1
  Li  Li2  1  0.333444  0.500000  0.833444  1
  Li  Li3  1  0.281183  0.281183  0.000000  1
  Ca  Ca4  1  0.000000  0.000000  0.000000  1
  Cu  Cu5  1  0.905217  0.174374  0.730844  1
  Cu  Cu6  1  0.556470  0.825626  0.730844  1
  Cu  Cu7  1  0.443530  0.174374  0.269156  1
  Cu  Cu8  1  0.094783  0.825626  0.269156  1
  P  P9  1  0.974381  0.347713  0.626668  1
  P  P10  1  0.721043  0.347713  0.373332  1
  P  P11  1  0.585545  0.085545  0.500000  1
  P  P12  1  0.414455  0.914455  0.500000  1
  P  P13  1  0.278957  0.652287  0.626668  1
  P  P14  1  0.025619  0.652287  0.373332  1
