# generated using pymatgen
data_ErLu3(Tc3Ge4)2
_symmetry_space_group_name_H-M   'P 1'
_cell_length_a   8.30913718
_cell_length_b   5.62858509
_cell_length_c   6.96650217
_cell_angle_alpha   75.87707630
_cell_angle_beta   90.07464794
_cell_angle_gamma   89.98311995
_symmetry_Int_Tables_number   1
_chemical_formula_structural   ErLu3(Tc3Ge4)2
_chemical_formula_sum   'Er1 Lu3 Tc6 Ge8'
_cell_volume   315.96591309
_cell_formula_units_Z   1
loop_
 _symmetry_equiv_pos_site_id
 _symmetry_equiv_pos_as_xyz
  1  'x, y, z'
loop_
 _atom_site_type_symbol
 _atom_site_label
 _atom_site_symmetry_multiplicity
 _atom_site_fract_x
 _atom_site_fract_y
 _atom_site_fract_z
 _atom_site_occupancy
  Er  Er0  1  0.550991  0.077197  0.245193  1
  Lu  Lu1  1  0.050148  0.422024  0.756027  1
  Lu  Lu2  1  0.449598  0.921759  0.756450  1
  Lu  Lu3  1  0.949573  0.578053  0.243799  1
  Tc  Tc4  1  0.204261  0.117046  0.111463  1
  Tc  Tc5  1  0.705292  0.384436  0.887485  1
  Tc  Tc6  1  0.795295  0.883457  0.888261  1
  Tc  Tc7  1  0.295355  0.616049  0.111510  1
  Tc  Tc8  1  0.999695  0.000048  0.499828  1
  Tc  Tc9  1  0.499794  0.499591  0.500753  1
  Ge  Ge10  1  0.900329  0.120106  0.130457  1
  Ge  Ge11  1  0.399787  0.380606  0.868513  1
  Ge  Ge12  1  0.100099  0.880052  0.869067  1
  Ge  Ge13  1  0.600219  0.619865  0.130346  1
  Ge  Ge14  1  0.749015  0.224633  0.576578  1
  Ge  Ge15  1  0.248370  0.276028  0.424066  1
  Ge  Ge16  1  0.250779  0.775303  0.423814  1
  Ge  Ge17  1  0.751402  0.723746  0.576389  1
