# generated using pymatgen
data_Hf12Al4FeIr7
_symmetry_space_group_name_H-M   'P 1'
_cell_length_a   8.46699269
_cell_length_b   8.46620172
_cell_length_c   8.46620200
_cell_angle_alpha   59.99999891
_cell_angle_beta   60.00308912
_cell_angle_gamma   60.00309614
_symmetry_Int_Tables_number   1
_chemical_formula_structural   Hf12Al4FeIr7
_chemical_formula_sum   'Hf12 Al4 Fe1 Ir7'
_cell_volume   429.15257394
_cell_formula_units_Z   1
loop_
 _symmetry_equiv_pos_site_id
 _symmetry_equiv_pos_as_xyz
  1  'x, y, z'
loop_
 _atom_site_type_symbol
 _atom_site_label
 _atom_site_symmetry_multiplicity
 _atom_site_fract_x
 _atom_site_fract_y
 _atom_site_fract_z
 _atom_site_occupancy
  Hf  Hf0  1  0.806855  0.804651  0.194247  1
  Hf  Hf1  1  0.193135  0.193724  0.806570  1
  Hf  Hf2  1  0.806855  0.194247  0.804651  1
  Hf  Hf3  1  0.193135  0.806570  0.193724  1
  Hf  Hf4  1  0.193135  0.806570  0.806570  1
  Hf  Hf5  1  0.806855  0.194247  0.194247  1
  Hf  Hf6  1  0.442955  0.442855  0.057095  1
  Hf  Hf7  1  0.052011  0.064370  0.441810  1
  Hf  Hf8  1  0.442955  0.057095  0.442855  1
  Hf  Hf9  1  0.052011  0.441810  0.064370  1
  Hf  Hf10  1  0.052011  0.441810  0.441810  1
  Hf  Hf11  1  0.442955  0.057095  0.057095  1
  Al  Al12  1  0.125460  0.624847  0.624847  1
  Al  Al13  1  0.627270  0.128465  0.622133  1
  Al  Al14  1  0.627270  0.622133  0.128465  1
  Al  Al15  1  0.627270  0.622133  0.622133  1
  Fe  Fe16  1  0.764520  0.411826  0.411826  1
  Ir  Ir17  1  0.414461  0.762081  0.411728  1
  Ir  Ir18  1  0.414461  0.411728  0.762081  1
  Ir  Ir19  1  0.414461  0.411728  0.411728  1
  Ir  Ir20  1  0.486302  0.837900  0.837900  1
  Ir  Ir21  1  0.837885  0.486549  0.837784  1
  Ir  Ir22  1  0.837885  0.837784  0.486549  1
  Ir  Ir23  1  0.837885  0.837784  0.837784  1
