# generated using pymatgen
data_PrNdB2(PtRh)4
_symmetry_space_group_name_H-M   'P 1'
_cell_length_a   5.47503601
_cell_length_b   5.47503471
_cell_length_c   7.54829800
_cell_angle_alpha   90.00000000
_cell_angle_beta   90.00000000
_cell_angle_gamma   120.02498635
_symmetry_Int_Tables_number   1
_chemical_formula_structural   PrNdB2(PtRh)4
_chemical_formula_sum   'Pr1 Nd1 B2 Pt4 Rh4'
_cell_volume   195.90437034
_cell_formula_units_Z   1
loop_
 _symmetry_equiv_pos_site_id
 _symmetry_equiv_pos_as_xyz
  1  'x, y, z'
loop_
 _atom_site_type_symbol
 _atom_site_label
 _atom_site_symmetry_multiplicity
 _atom_site_fract_x
 _atom_site_fract_y
 _atom_site_fract_z
 _atom_site_occupancy
  Pr  Pr0  1  0.000000  0.000000  0.500000  1
  Nd  Nd1  1  0.000000  0.000000  0.000000  1
  B  B2  1  0.334950  0.665050  0.000000  1
  B  B3  1  0.665050  0.334950  0.000000  1
  Pt  Pt4  1  0.319402  0.680598  0.500000  1
  Pt  Pt5  1  0.680598  0.319402  0.500000  1
  Pt  Pt6  1  0.500000  0.500000  0.208641  1
  Pt  Pt7  1  0.500000  0.500000  0.791359  1
  Rh  Rh8  1  0.500000  0.000000  0.193902  1
  Rh  Rh9  1  0.500000  0.000000  0.806098  1
  Rh  Rh10  1  0.000000  0.500000  0.193902  1
  Rh  Rh11  1  0.000000  0.500000  0.806098  1
