# generated using pymatgen
data_U3MoF24
_symmetry_space_group_name_H-M   'P 1'
_cell_length_a   5.43424800
_cell_length_b   9.38995000
_cell_length_c   10.50201501
_cell_angle_alpha   90.00000000
_cell_angle_beta   90.00491169
_cell_angle_gamma   90.00000000
_symmetry_Int_Tables_number   1
_chemical_formula_structural   U3MoF24
_chemical_formula_sum   'U3 Mo1 F24'
_cell_volume   535.88964764
_cell_formula_units_Z   1
loop_
 _symmetry_equiv_pos_site_id
 _symmetry_equiv_pos_as_xyz
  1  'x, y, z'
loop_
 _atom_site_type_symbol
 _atom_site_label
 _atom_site_symmetry_multiplicity
 _atom_site_fract_x
 _atom_site_fract_y
 _atom_site_fract_z
 _atom_site_occupancy
  U  U0  1  0.068276  0.250000  0.866080  1
  U  U1  1  0.568268  0.750000  0.633859  1
  U  U2  1  0.932011  0.750000  0.133903  1
  Mo  Mo3  1  0.431848  0.250000  0.366091  1
  F  F4  1  0.210708  0.750000  0.006162  1
  F  F5  1  0.392741  0.902570  0.735091  1
  F  F6  1  0.107145  0.597449  0.235098  1
  F  F7  1  0.289261  0.750000  0.506169  1
  F  F8  1  0.654257  0.750000  0.262837  1
  F  F9  1  0.892739  0.402582  0.764852  1
  F  F10  1  0.175822  0.250000  0.247016  1
  F  F11  1  0.392741  0.597430  0.735091  1
  F  F12  1  0.845777  0.750000  0.762858  1
  F  F13  1  0.269040  0.109733  0.460011  1
  F  F14  1  0.593735  0.390927  0.272601  1
  F  F15  1  0.744461  0.901861  0.532242  1
  F  F16  1  0.345635  0.250000  0.737227  1
  F  F17  1  0.107145  0.902551  0.235098  1
  F  F18  1  0.269040  0.390267  0.460011  1
  F  F19  1  0.244394  0.098089  0.967810  1
  F  F20  1  0.689058  0.250000  0.484065  1
  F  F21  1  0.789472  0.250000  0.993826  1
  F  F22  1  0.892739  0.097418  0.764852  1
  F  F23  1  0.244394  0.401911  0.967810  1
  F  F24  1  0.755547  0.598050  0.032250  1
  F  F25  1  0.755547  0.901950  0.032250  1
  F  F26  1  0.744461  0.598139  0.532242  1
  F  F27  1  0.593735  0.109073  0.272601  1
