# generated using pymatgen
data_Er(ZrH5)3
_symmetry_space_group_name_H-M   'P 1'
_cell_length_a   7.10622440
_cell_length_b   7.12118548
_cell_length_c   7.13624988
_cell_angle_alpha   109.51931340
_cell_angle_beta   109.43451223
_cell_angle_gamma   109.33149048
_symmetry_Int_Tables_number   1
_chemical_formula_structural   Er(ZrH5)3
_chemical_formula_sum   'Er2 Zr6 H30'
_cell_volume   278.43543038
_cell_formula_units_Z   2
loop_
 _symmetry_equiv_pos_site_id
 _symmetry_equiv_pos_as_xyz
  1  'x, y, z'
loop_
 _atom_site_type_symbol
 _atom_site_label
 _atom_site_symmetry_multiplicity
 _atom_site_fract_x
 _atom_site_fract_y
 _atom_site_fract_z
 _atom_site_occupancy
  Er  Er0  1  0.910102  0.909559  0.908788  1
  Er  Er1  1  0.501313  0.000771  0.091212  1
  Zr  Zr2  1  0.002362  0.107267  0.503112  1
  Zr  Zr3  1  0.106018  0.500333  0.002523  1
  Zr  Zr4  1  0.999251  0.604155  0.496888  1
  Zr  Zr5  1  0.603495  0.497810  0.997477  1
  Zr  Zr6  1  0.499689  0.999185  0.594462  1
  Zr  Zr7  1  0.405227  0.404725  0.405538  1
  H  H8  1  0.663461  0.975931  0.395702  1
  H  H9  1  0.223059  0.307595  0.846264  1
  H  H10  1  0.190877  0.418078  0.536668  1
  H  H11  1  0.091809  0.286829  0.127173  1
  H  H12  1  0.280038  0.133536  0.101839  1
  H  H13  1  0.126725  0.099353  0.288852  1
  H  H14  1  0.464635  0.159656  0.872827  1
  H  H15  1  0.724647  0.342360  0.812393  1
  H  H16  1  0.626774  0.381459  0.253695  1
  H  H17  1  0.243332  0.624219  0.369471  1
  H  H18  1  0.756813  0.871291  0.137174  1
  H  H19  1  0.119638  0.734116  0.862826  1
  H  H20  1  0.373861  0.254748  0.630529  1
  H  H21  1  0.873079  0.127763  0.746305  1
  H  H22  1  0.767758  0.580230  0.604298  1
  H  H23  1  0.306533  0.836233  0.227303  1
  H  H24  1  0.379575  0.642474  0.971102  1
  H  H25  1  0.973994  0.381796  0.658025  1
  H  H26  1  0.528351  0.192598  0.425264  1
  H  H27  1  0.412254  0.529967  0.187607  1
  H  H28  1  0.857807  0.231868  0.324120  1
  H  H29  1  0.908472  0.671371  0.028898  1
  H  H30  1  0.815970  0.723770  0.341975  1
  H  H31  1  0.154210  0.881412  0.463332  1
  H  H32  1  0.678197  0.031696  0.898161  1
  H  H33  1  0.337872  0.810500  0.711148  1
  H  H34  1  0.876794  0.461330  0.153736  1
  H  H35  1  0.603086  0.767335  0.574736  1
  H  H36  1  0.579231  0.608931  0.772697  1
  H  H37  1  0.033689  0.907748  0.675880  1
