# generated using pymatgen
data_Ba4Zn3IrI2
_symmetry_space_group_name_H-M   'P 1'
_cell_length_a   4.55921800
_cell_length_b   4.55921784
_cell_length_c   19.04880400
_cell_angle_alpha   90.00000000
_cell_angle_beta   90.00000000
_cell_angle_gamma   119.99998666
_symmetry_Int_Tables_number   1
_chemical_formula_structural   Ba4Zn3IrI2
_chemical_formula_sum   'Ba4 Zn3 Ir1 I2'
_cell_volume   342.90917471
_cell_formula_units_Z   1
loop_
 _symmetry_equiv_pos_site_id
 _symmetry_equiv_pos_as_xyz
  1  'x, y, z'
loop_
 _atom_site_type_symbol
 _atom_site_label
 _atom_site_symmetry_multiplicity
 _atom_site_fract_x
 _atom_site_fract_y
 _atom_site_fract_z
 _atom_site_occupancy
  Ba  Ba0  1  0.000000  0.000000  0.109746  1
  Ba  Ba1  1  0.000000  0.000000  0.890238  1
  Ba  Ba2  1  0.000000  0.000000  0.615084  1
  Ba  Ba3  1  0.000000  0.000000  0.384753  1
  Zn  Zn4  1  0.333333  0.666667  0.500199  1
  Zn  Zn5  1  0.666667  0.333333  0.499599  1
  Zn  Zn6  1  0.666667  0.333333  0.000674  1
  Ir  Ir7  1  0.333333  0.666667  0.999359  1
  I  I8  1  0.333333  0.666667  0.249261  1
  I  I9  1  0.666667  0.333333  0.751088  1
