# generated using pymatgen
data_Cs5TiHS5
_symmetry_space_group_name_H-M   'P 1'
_cell_length_a   8.16663017
_cell_length_b   8.16662966
_cell_length_c   14.92362178
_cell_angle_alpha   81.26504807
_cell_angle_beta   81.26504907
_cell_angle_gamma   110.47369769
_symmetry_Int_Tables_number   1
_chemical_formula_structural   Cs5TiHS5
_chemical_formula_sum   'Cs10 Ti2 H2 S10'
_cell_volume   898.76167538
_cell_formula_units_Z   2
loop_
 _symmetry_equiv_pos_site_id
 _symmetry_equiv_pos_as_xyz
  1  'x, y, z'
loop_
 _atom_site_type_symbol
 _atom_site_label
 _atom_site_symmetry_multiplicity
 _atom_site_fract_x
 _atom_site_fract_y
 _atom_site_fract_z
 _atom_site_occupancy
  Cs  Cs0  1  0.267789  0.267789  0.957336  1
  Cs  Cs1  1  0.603740  0.083903  0.802053  1
  Cs  Cs2  1  0.083903  0.603740  0.802053  1
  Cs  Cs3  1  0.805294  0.805294  0.601413  1
  Cs  Cs4  1  0.672436  0.327564  0.500000  1
  Cs  Cs5  1  0.327564  0.672436  0.500000  1
  Cs  Cs6  1  0.194706  0.194706  0.398587  1
  Cs  Cs7  1  0.916097  0.396260  0.197947  1
  Cs  Cs8  1  0.396260  0.916097  0.197947  1
  Cs  Cs9  1  0.732211  0.732211  0.042664  1
  Ti  Ti10  1  0.168317  0.168317  0.694682  1
  Ti  Ti11  1  0.831683  0.831683  0.305318  1
  H  H12  1  0.793950  0.206050  0.000000  1
  H  H13  1  0.206050  0.793950  0.000000  1
  S  S14  1  0.693304  0.306696  0.000000  1
  S  S15  1  0.306696  0.693304  0.000000  1
  S  S16  1  0.998786  0.998786  0.835459  1
  S  S17  1  0.408175  0.408175  0.707585  1
  S  S18  1  0.264777  0.987567  0.616721  1
  S  S19  1  0.987567  0.264777  0.616721  1
  S  S20  1  0.012433  0.735223  0.383279  1
  S  S21  1  0.735223  0.012433  0.383279  1
  S  S22  1  0.591825  0.591825  0.292415  1
  S  S23  1  0.001214  0.001214  0.164541  1
