# generated using pymatgen
data_Hf3Si3Ni4As
_symmetry_space_group_name_H-M   'P 1'
_cell_length_a   7.38772761
_cell_length_b   7.38772737
_cell_length_c   7.38772625
_cell_angle_alpha   149.69052364
_cell_angle_beta   128.88951167
_cell_angle_gamma   60.58494794
_symmetry_Int_Tables_number   1
_chemical_formula_structural   Hf3Si3Ni4As
_chemical_formula_sum   'Hf3 Si3 Ni4 As1'
_cell_volume   157.05323334
_cell_formula_units_Z   1
loop_
 _symmetry_equiv_pos_site_id
 _symmetry_equiv_pos_as_xyz
  1  'x, y, z'
loop_
 _atom_site_type_symbol
 _atom_site_label
 _atom_site_symmetry_multiplicity
 _atom_site_fract_x
 _atom_site_fract_y
 _atom_site_fract_z
 _atom_site_occupancy
  Hf  Hf0  1  0.375171  0.371097  0.004074  1
  Hf  Hf1  1  0.632976  0.628903  0.004074  1
  Hf  Hf2  1  0.991619  0.499999  0.491618  1
  Si  Si3  1  0.785826  0.285733  0.500092  1
  Si  Si4  1  0.214359  0.714266  0.500091  1
  Si  Si5  1  0.698653  0.000000  0.698653  1
  Ni  Ni6  1  0.377073  0.178989  0.198084  1
  Ni  Ni7  1  0.019096  0.821011  0.198083  1
  Ni  Ni8  1  0.974346  0.172264  0.802081  1
  Ni  Ni9  1  0.629818  0.827736  0.802080  1
  As  As10  1  0.301066  0.000000  0.301066  1
