# generated using pymatgen
data_Y6Ni16P13Pd4
_symmetry_space_group_name_H-M   'P 1'
_cell_length_a   12.81180800
_cell_length_b   12.81180783
_cell_length_c   3.80041800
_cell_angle_alpha   90.00000000
_cell_angle_beta   90.00000000
_cell_angle_gamma   120.00000044
_symmetry_Int_Tables_number   1
_chemical_formula_structural   Y6Ni16P13Pd4
_chemical_formula_sum   'Y6 Ni16 P13 Pd4'
_cell_volume   540.23514481
_cell_formula_units_Z   1
loop_
 _symmetry_equiv_pos_site_id
 _symmetry_equiv_pos_as_xyz
  1  'x, y, z'
loop_
 _atom_site_type_symbol
 _atom_site_label
 _atom_site_symmetry_multiplicity
 _atom_site_fract_x
 _atom_site_fract_y
 _atom_site_fract_z
 _atom_site_occupancy
  Y  Y0  1  0.468427  0.185584  0.000000  1
  Y  Y1  1  0.717158  0.531573  0.000000  1
  Y  Y2  1  0.814416  0.282842  0.000000  1
  Y  Y3  1  0.529322  0.812029  0.500000  1
  Y  Y4  1  0.282708  0.470678  0.500000  1
  Y  Y5  1  0.187971  0.717292  0.500000  1
  Ni  Ni6  1  0.333333  0.666667  0.000000  1
  Ni  Ni7  1  0.198417  0.093535  0.000000  1
  Ni  Ni8  1  0.895118  0.801583  0.000000  1
  Ni  Ni9  1  0.906465  0.104882  0.000000  1
  Ni  Ni10  1  0.438737  0.420147  0.000000  1
  Ni  Ni11  1  0.981409  0.561263  0.000000  1
  Ni  Ni12  1  0.579853  0.018591  0.000000  1
  Ni  Ni13  1  0.564249  0.589204  0.500000  1
  Ni  Ni14  1  0.024955  0.435751  0.500000  1
  Ni  Ni15  1  0.410796  0.975045  0.500000  1
  Ni  Ni16  1  0.079412  0.322370  0.000000  1
  Ni  Ni17  1  0.242957  0.920588  0.000000  1
  Ni  Ni18  1  0.677630  0.757043  0.000000  1
  Ni  Ni19  1  0.927191  0.679199  0.500000  1
  Ni  Ni20  1  0.752008  0.072809  0.500000  1
  Ni  Ni21  1  0.320801  0.247992  0.500000  1
  P  P22  1  0.240366  0.287020  0.000000  1
  P  P23  1  0.046654  0.759634  0.000000  1
  P  P24  1  0.712980  0.953346  0.000000  1
  P  P25  1  0.764675  0.712855  0.500000  1
  P  P26  1  0.948180  0.235325  0.500000  1
  P  P27  1  0.287145  0.051820  0.500000  1
  P  P28  1  0.476835  0.616303  0.000000  1
  P  P29  1  0.139468  0.523165  0.000000  1
  P  P30  1  0.383697  0.860532  0.000000  1
  P  P31  1  0.517548  0.391025  0.500000  1
  P  P32  1  0.873477  0.482452  0.500000  1
  P  P33  1  0.608975  0.126523  0.500000  1
  P  P34  1  0.000000  0.000000  0.000000  1
  Pd  Pd35  1  0.666667  0.333333  0.500000  1
  Pd  Pd36  1  0.840901  0.924157  0.500000  1
  Pd  Pd37  1  0.083257  0.159099  0.500000  1
  Pd  Pd38  1  0.075843  0.916743  0.500000  1
