# generated using pymatgen
data_Tb6Er10Tl2Cd2Pd3Pt
_symmetry_space_group_name_H-M   'P 1'
_cell_length_a   9.65840000
_cell_length_b   9.64809910
_cell_length_c   9.64810100
_cell_angle_alpha   59.99999690
_cell_angle_beta   60.03527093
_cell_angle_gamma   60.03527039
_symmetry_Int_Tables_number   1
_chemical_formula_structural   Tb6Er10Tl2Cd2Pd3Pt
_chemical_formula_sum   'Tb6 Er10 Tl2 Cd2 Pd3 Pt1'
_cell_volume   636.07027406
_cell_formula_units_Z   1
loop_
 _symmetry_equiv_pos_site_id
 _symmetry_equiv_pos_as_xyz
  1  'x, y, z'
loop_
 _atom_site_type_symbol
 _atom_site_label
 _atom_site_symmetry_multiplicity
 _atom_site_fract_x
 _atom_site_fract_y
 _atom_site_fract_z
 _atom_site_occupancy
  Tb  Tb0  1  0.938127  0.564584  0.563239  1
  Tb  Tb1  1  0.564577  0.938463  0.934717  1
  Tb  Tb2  1  0.564577  0.938463  0.562243  1
  Tb  Tb3  1  0.938127  0.564584  0.934050  1
  Tb  Tb4  1  0.563779  0.562140  0.937041  1
  Tb  Tb5  1  0.935314  0.935140  0.564773  1
  Er  Er6  1  0.355402  0.351866  0.352676  1
  Er  Er7  1  0.355402  0.351866  0.940056  1
  Er  Er8  1  0.354982  0.940571  0.352224  1
  Er  Er9  1  0.937992  0.353479  0.354265  1
  Er  Er10  1  0.810898  0.187076  0.187925  1
  Er  Er11  1  0.187035  0.812257  0.813023  1
  Er  Er12  1  0.187035  0.812257  0.187685  1
  Er  Er13  1  0.810898  0.187076  0.814101  1
  Er  Er14  1  0.186861  0.186633  0.813253  1
  Er  Er15  1  0.810234  0.813699  0.188034  1
  Tl  Tl16  1  0.583553  0.583886  0.586239  1
  Tl  Tl17  1  0.583553  0.583886  0.246321  1
  Cd  Cd18  1  0.581680  0.250178  0.584070  1
  Cd  Cd19  1  0.251019  0.581408  0.583786  1
  Pd  Pd20  1  0.143572  0.145013  0.144673  1
  Pd  Pd21  1  0.143572  0.145013  0.566742  1
  Pd  Pd22  1  0.143931  0.566009  0.145030  1
  Pt  Pt23  1  0.567883  0.144449  0.143834  1
