# generated using pymatgen
data_Dy4InCo2Au
_symmetry_space_group_name_H-M   'P 1'
_cell_length_a   8.65501860
_cell_length_b   8.65501911
_cell_length_c   8.65501959
_cell_angle_alpha   130.98086723
_cell_angle_beta   130.98086038
_cell_angle_gamma   71.84348131
_symmetry_Int_Tables_number   1
_chemical_formula_structural   Dy4InCo2Au
_chemical_formula_sum   'Dy8 In2 Co4 Au2'
_cell_volume   361.43001925
_cell_formula_units_Z   2
loop_
 _symmetry_equiv_pos_site_id
 _symmetry_equiv_pos_as_xyz
  1  'x, y, z'
loop_
 _atom_site_type_symbol
 _atom_site_label
 _atom_site_symmetry_multiplicity
 _atom_site_fract_x
 _atom_site_fract_y
 _atom_site_fract_z
 _atom_site_occupancy
  Dy  Dy0  1  0.806704  0.306704  0.852931  1
  Dy  Dy1  1  0.193296  0.693296  0.147070  1
  Dy  Dy2  1  0.453774  0.953774  0.147070  1
  Dy  Dy3  1  0.306704  0.453774  0.500000  1
  Dy  Dy4  1  0.046226  0.193296  0.500000  1
  Dy  Dy5  1  0.546226  0.046226  0.852930  1
  Dy  Dy6  1  0.693296  0.546226  0.500000  1
  Dy  Dy7  1  0.953774  0.806704  0.500000  1
  In  In8  1  0.000000  0.000000  0.000000  1
  In  In9  1  0.500000  0.500000  0.000000  1
  Co  Co10  1  0.117175  0.617175  0.734350  1
  Co  Co11  1  0.882825  0.382825  0.265650  1
  Co  Co12  1  0.617175  0.882825  0.500000  1
  Co  Co13  1  0.382825  0.117175  0.500000  1
  Au  Au14  1  0.250000  0.250000  0.000000  1
  Au  Au15  1  0.750000  0.750000  0.000000  1
