# generated using pymatgen
data_DySc4U3(ReB6)4
_symmetry_space_group_name_H-M   'P 1'
_cell_length_a   3.60449000
_cell_length_b   8.97296839
_cell_length_c   11.33255610
_cell_angle_alpha   90.12973347
_cell_angle_beta   90.00000000
_cell_angle_gamma   90.00000000
_symmetry_Int_Tables_number   1
_chemical_formula_structural   DySc4U3(ReB6)4
_chemical_formula_sum   'Dy1 Sc4 U3 Re4 B24'
_cell_volume   366.52763704
_cell_formula_units_Z   1
loop_
 _symmetry_equiv_pos_site_id
 _symmetry_equiv_pos_as_xyz
  1  'x, y, z'
loop_
 _atom_site_type_symbol
 _atom_site_label
 _atom_site_symmetry_multiplicity
 _atom_site_fract_x
 _atom_site_fract_y
 _atom_site_fract_z
 _atom_site_occupancy
  Dy  Dy0  1  0.000000  0.180878  0.913524  1
  Sc  Sc1  1  0.000000  0.946095  0.374333  1
  Sc  Sc2  1  0.000000  0.054801  0.626295  1
  Sc  Sc3  1  0.000000  0.444529  0.125076  1
  Sc  Sc4  1  0.000000  0.553880  0.874433  1
  U  U5  1  0.000000  0.321143  0.414255  1
  U  U6  1  0.000000  0.678292  0.586209  1
  U  U7  1  0.000000  0.821459  0.085970  1
  Re  Re8  1  0.000000  0.640187  0.320066  1
  Re  Re9  1  0.000000  0.362028  0.677513  1
  Re  Re10  1  0.000000  0.139761  0.182894  1
  Re  Re11  1  0.000000  0.857596  0.818960  1
  B  B12  1  0.500000  0.553540  0.433636  1
  B  B13  1  0.500000  0.446814  0.565657  1
  B  B14  1  0.500000  0.052832  0.067581  1
  B  B15  1  0.500000  0.944591  0.933922  1
  B  B16  1  0.500000  0.753078  0.420355  1
  B  B17  1  0.500000  0.246934  0.580120  1
  B  B18  1  0.500000  0.253138  0.080580  1
  B  B19  1  0.500000  0.747020  0.920685  1
  B  B20  1  0.500000  0.794826  0.264307  1
  B  B21  1  0.500000  0.205475  0.734771  1
  B  B22  1  0.500000  0.295240  0.235062  1
  B  B23  1  0.500000  0.704804  0.764620  1
  B  B24  1  0.500000  0.630519  0.181922  1
  B  B25  1  0.500000  0.370684  0.816863  1
  B  B26  1  0.500000  0.130924  0.317936  1
  B  B27  1  0.500000  0.869070  0.682684  1
  B  B28  1  0.500000  0.980537  0.213849  1
  B  B29  1  0.500000  0.018809  0.785658  1
  B  B30  1  0.500000  0.480855  0.285491  1
  B  B31  1  0.500000  0.519140  0.714118  1
  B  B32  1  0.500000  0.600395  0.027658  1
  B  B33  1  0.500000  0.400061  0.972354  1
  B  B34  1  0.500000  0.101725  0.472613  1
  B  B35  1  0.500000  0.898343  0.528033  1
