# generated using pymatgen
data_SrLa3Pr3FeBr12
_symmetry_space_group_name_H-M   'P 1'
_cell_length_a   9.74534607
_cell_length_b   9.76839957
_cell_length_c   9.36154781
_cell_angle_alpha   105.45561542
_cell_angle_beta   106.24029252
_cell_angle_gamma   106.90444650
_symmetry_Int_Tables_number   1
_chemical_formula_structural   SrLa3Pr3FeBr12
_chemical_formula_sum   'Sr1 La3 Pr3 Fe1 Br12'
_cell_volume   757.70488036
_cell_formula_units_Z   1
loop_
 _symmetry_equiv_pos_site_id
 _symmetry_equiv_pos_as_xyz
  1  'x, y, z'
loop_
 _atom_site_type_symbol
 _atom_site_label
 _atom_site_symmetry_multiplicity
 _atom_site_fract_x
 _atom_site_fract_y
 _atom_site_fract_z
 _atom_site_occupancy
  Sr  Sr0  1  0.498859  0.498843  0.499313  1
  La  La1  1  0.980021  0.907914  0.720818  1
  La  La2  1  0.681287  0.979818  0.888415  1
  La  La3  1  0.892263  0.682395  0.986607  1
  Pr  Pr4  1  0.110153  0.313069  0.013550  1
  Pr  Pr5  1  0.313395  0.020041  0.109400  1
  Pr  Pr6  1  0.019515  0.096731  0.287222  1
  Fe  Fe7  1  0.998952  0.994468  0.983296  1
  Br  Br8  1  0.217591  0.683960  0.077092  1
  Br  Br9  1  0.450628  0.361835  0.146975  1
  Br  Br10  1  0.686651  0.073195  0.220825  1
  Br  Br11  1  0.935698  0.792834  0.332462  1
  Br  Br12  1  0.152843  0.443060  0.361833  1
  Br  Br13  1  0.363916  0.155016  0.454457  1
  Br  Br14  1  0.627013  0.840940  0.540575  1
  Br  Br15  1  0.842569  0.551013  0.635057  1
  Br  Br16  1  0.069974  0.219446  0.674242  1
  Br  Br17  1  0.320018  0.930104  0.785314  1
  Br  Br18  1  0.549246  0.635810  0.853203  1
  Br  Br19  1  0.789407  0.319509  0.929343  1
