# generated using pymatgen
data_Hf8Co7Ni(P3Ru)4
_symmetry_space_group_name_H-M   'P 1'
_cell_length_a   3.64730000
_cell_length_b   10.00491300
_cell_length_c   12.38305400
_cell_angle_alpha   89.99928443
_cell_angle_beta   90.00000000
_cell_angle_gamma   90.00000000
_symmetry_Int_Tables_number   1
_chemical_formula_structural   Hf8Co7Ni(P3Ru)4
_chemical_formula_sum   'Hf8 Co7 Ni1 P12 Ru4'
_cell_volume   451.86902296
_cell_formula_units_Z   1
loop_
 _symmetry_equiv_pos_site_id
 _symmetry_equiv_pos_as_xyz
  1  'x, y, z'
loop_
 _atom_site_type_symbol
 _atom_site_label
 _atom_site_symmetry_multiplicity
 _atom_site_fract_x
 _atom_site_fract_y
 _atom_site_fract_z
 _atom_site_occupancy
  Hf  Hf0  1  0.250000  0.341931  0.996073  1
  Hf  Hf1  1  0.250000  0.158788  0.495379  1
  Hf  Hf2  1  0.750000  0.655965  0.004491  1
  Hf  Hf3  1  0.750000  0.841821  0.504151  1
  Hf  Hf4  1  0.250000  0.427458  0.711890  1
  Hf  Hf5  1  0.250000  0.070682  0.210198  1
  Hf  Hf6  1  0.750000  0.576706  0.288037  1
  Hf  Hf7  1  0.750000  0.926504  0.788232  1
  Co  Co8  1  0.250000  0.132992  0.714501  1
  Co  Co9  1  0.250000  0.365847  0.217903  1
  Co  Co10  1  0.750000  0.867103  0.283807  1
  Co  Co11  1  0.750000  0.631942  0.784484  1
  Co  Co12  1  0.250000  0.768575  0.166838  1
  Co  Co13  1  0.250000  0.730865  0.667920  1
  Co  Co14  1  0.750000  0.229404  0.832969  1
  Ni  Ni15  1  0.750000  0.269015  0.333620  1
  P  P16  1  0.250000  0.106690  0.891485  1
  P  P17  1  0.250000  0.398571  0.393603  1
  P  P18  1  0.750000  0.891506  0.107171  1
  P  P19  1  0.750000  0.607669  0.608172  1
  P  P20  1  0.250000  0.729244  0.847448  1
  P  P21  1  0.250000  0.771055  0.346968  1
  P  P22  1  0.750000  0.270563  0.151226  1
  P  P23  1  0.750000  0.230924  0.652722  1
  P  P24  1  0.250000  0.552324  0.127872  1
  P  P25  1  0.250000  0.946031  0.626839  1
  P  P26  1  0.750000  0.445305  0.872812  1
  P  P27  1  0.750000  0.052253  0.373361  1
  Ru  Ru28  1  0.250000  0.896344  0.976628  1
  Ru  Ru29  1  0.250000  0.606038  0.477806  1
  Ru  Ru30  1  0.750000  0.102466  0.023004  1
  Ru  Ru31  1  0.750000  0.397417  0.522391  1
