# generated using pymatgen
data_Sc4Si7(Ni8Rh)2
_symmetry_space_group_name_H-M   'P 1'
_cell_length_a   7.98625303
_cell_length_b   7.94126014
_cell_length_c   7.98625303
_cell_angle_alpha   119.81380880
_cell_angle_beta   90.64378207
_cell_angle_gamma   119.81380880
_symmetry_Int_Tables_number   1
_chemical_formula_structural   Sc4Si7(Ni8Rh)2
_chemical_formula_sum   'Sc4 Si7 Ni16 Rh2'
_cell_volume   358.12377169
_cell_formula_units_Z   1
loop_
 _symmetry_equiv_pos_site_id
 _symmetry_equiv_pos_as_xyz
  1  'x, y, z'
loop_
 _atom_site_type_symbol
 _atom_site_label
 _atom_site_symmetry_multiplicity
 _atom_site_fract_x
 _atom_site_fract_y
 _atom_site_fract_z
 _atom_site_occupancy
  Sc  Sc0  1  0.198247  0.000000  0.198247  1
  Sc  Sc1  1  0.198247  0.396494  0.198247  1
  Sc  Sc2  1  0.801753  0.603507  0.801753  1
  Sc  Sc3  1  0.801754  0.000000  0.801754  1
  Si  Si4  1  0.500000  0.000000  0.000000  1
  Si  Si5  1  0.000000  0.500000  0.000000  1
  Si  Si6  1  0.500000  0.500000  0.000000  1
  Si  Si7  1  0.499999  0.000000  0.499999  1
  Si  Si8  1  0.000000  0.000000  0.500000  1
  Si  Si9  1  0.000000  0.500000  0.500000  1
  Si  Si10  1  0.500000  0.500000  0.500000  1
  Ni  Ni11  1  0.387411  0.767195  0.146979  1
  Ni  Ni12  1  0.506846  0.338780  0.170716  1
  Ni  Ni13  1  0.831933  0.338780  0.168066  1
  Ni  Ni14  1  0.831933  0.661219  0.168066  1
  Ni  Ni15  1  0.620216  0.232806  0.379785  1
  Ni  Ni16  1  0.146979  0.767195  0.387411  1
  Ni  Ni17  1  0.620216  0.767195  0.379785  1
  Ni  Ni18  1  0.829283  0.661219  0.493153  1
  Ni  Ni19  1  0.170716  0.338780  0.506846  1
  Ni  Ni20  1  0.853021  0.232806  0.612589  1
  Ni  Ni21  1  0.379785  0.232806  0.620216  1
  Ni  Ni22  1  0.379785  0.767195  0.620216  1
  Ni  Ni23  1  0.168066  0.338780  0.831933  1
  Ni  Ni24  1  0.168066  0.661219  0.831933  1
  Ni  Ni25  1  0.493153  0.661219  0.829283  1
  Ni  Ni26  1  0.612589  0.232806  0.853021  1
  Rh  Rh27  1  0.804695  0.000000  0.195304  1
  Rh  Rh28  1  0.195304  0.000000  0.804695  1
