# generated using pymatgen
data_Li2Nd6Cd21P
_symmetry_space_group_name_H-M   'P 1'
_cell_length_a   9.97861964
_cell_length_b   9.99720315
_cell_length_c   9.99720349
_cell_angle_alpha   60.14610741
_cell_angle_beta   60.06146993
_cell_angle_gamma   60.06147115
_symmetry_Int_Tables_number   1
_chemical_formula_structural   Li2Nd6Cd21P
_chemical_formula_sum   'Li2 Nd6 Cd21 P1'
_cell_volume   706.63242062
_cell_formula_units_Z   1
loop_
 _symmetry_equiv_pos_site_id
 _symmetry_equiv_pos_as_xyz
  1  'x, y, z'
loop_
 _atom_site_type_symbol
 _atom_site_label
 _atom_site_symmetry_multiplicity
 _atom_site_fract_x
 _atom_site_fract_y
 _atom_site_fract_z
 _atom_site_occupancy
  Li  Li0  1  0.000000  0.500000  0.500000  1
  Li  Li1  1  0.500000  0.500000  0.500000  1
  Nd  Nd2  1  0.795019  0.798537  0.201463  1
  Nd  Nd3  1  0.204981  0.798537  0.201463  1
  Nd  Nd4  1  0.796844  0.203156  0.203156  1
  Nd  Nd5  1  0.204981  0.201463  0.798537  1
  Nd  Nd6  1  0.795019  0.201463  0.798537  1
  Nd  Nd7  1  0.203156  0.796844  0.796844  1
  Cd  Cd8  1  0.836081  0.821283  0.506555  1
  Cd  Cd9  1  0.836081  0.506555  0.821283  1
  Cd  Cd10  1  0.503647  0.831754  0.831754  1
  Cd  Cd11  1  0.832843  0.831754  0.831754  1
  Cd  Cd12  1  0.163919  0.178717  0.493445  1
  Cd  Cd13  1  0.163919  0.493445  0.178717  1
  Cd  Cd14  1  0.496353  0.168246  0.168246  1
  Cd  Cd15  1  0.167157  0.168246  0.168246  1
  Cd  Cd16  1  0.617656  0.615734  0.148954  1
  Cd  Cd17  1  0.617656  0.148954  0.615734  1
  Cd  Cd18  1  0.148124  0.613445  0.613445  1
  Cd  Cd19  1  0.624984  0.613445  0.613445  1
  Cd  Cd20  1  0.382344  0.384266  0.851046  1
  Cd  Cd21  1  0.382344  0.851046  0.384266  1
  Cd  Cd22  1  0.851876  0.386555  0.386555  1
  Cd  Cd23  1  0.375016  0.386555  0.386555  1
  Cd  Cd24  1  0.000000  0.000000  0.500000  1
  Cd  Cd25  1  0.500000  0.000000  0.500000  1
  Cd  Cd26  1  0.500000  0.500000  0.000000  1
  Cd  Cd27  1  0.000000  0.500000  0.000000  1
  Cd  Cd28  1  0.500000  0.000000  0.000000  1
  P  P29  1  0.000000  0.000000  0.000000  1
