# generated using pymatgen
data_LuSc4U3(TcB6)4
_symmetry_space_group_name_H-M   'P 1'
_cell_length_a   3.59400700
_cell_length_b   8.95580106
_cell_length_c   11.30479850
_cell_angle_alpha   90.08799311
_cell_angle_beta   90.00000000
_cell_angle_gamma   90.00000000
_symmetry_Int_Tables_number   1
_chemical_formula_structural   LuSc4U3(TcB6)4
_chemical_formula_sum   'Lu1 Sc4 U3 Tc4 B24'
_cell_volume   363.86951343
_cell_formula_units_Z   1
loop_
 _symmetry_equiv_pos_site_id
 _symmetry_equiv_pos_as_xyz
  1  'x, y, z'
loop_
 _atom_site_type_symbol
 _atom_site_label
 _atom_site_symmetry_multiplicity
 _atom_site_fract_x
 _atom_site_fract_y
 _atom_site_fract_z
 _atom_site_occupancy
  Lu  Lu0  1  0.000000  0.181297  0.913506  1
  Sc  Sc1  1  0.000000  0.945825  0.373833  1
  Sc  Sc2  1  0.000000  0.055384  0.626807  1
  Sc  Sc3  1  0.000000  0.443764  0.124786  1
  Sc  Sc4  1  0.000000  0.553942  0.874272  1
  U  U5  1  0.000000  0.321359  0.413984  1
  U  U6  1  0.000000  0.678185  0.586538  1
  U  U7  1  0.000000  0.821923  0.085741  1
  Tc  Tc8  1  0.000000  0.640401  0.320027  1
  Tc  Tc9  1  0.000000  0.361047  0.678544  1
  Tc  Tc10  1  0.000000  0.139900  0.182218  1
  Tc  Tc11  1  0.000000  0.858425  0.819206  1
  B  B12  1  0.500000  0.553509  0.433555  1
  B  B13  1  0.500000  0.446648  0.565948  1
  B  B14  1  0.500000  0.053433  0.066745  1
  B  B15  1  0.500000  0.945276  0.933987  1
  B  B16  1  0.500000  0.753063  0.420174  1
  B  B17  1  0.500000  0.246893  0.580716  1
  B  B18  1  0.500000  0.252563  0.079651  1
  B  B19  1  0.500000  0.747272  0.920279  1
  B  B20  1  0.500000  0.794813  0.264142  1
  B  B21  1  0.500000  0.205334  0.735587  1
  B  B22  1  0.500000  0.294982  0.234689  1
  B  B23  1  0.500000  0.704904  0.764985  1
  B  B24  1  0.500000  0.630424  0.181906  1
  B  B25  1  0.500000  0.369790  0.817348  1
  B  B26  1  0.500000  0.130991  0.317689  1
  B  B27  1  0.500000  0.869387  0.683115  1
  B  B28  1  0.500000  0.981016  0.213443  1
  B  B29  1  0.500000  0.019195  0.786583  1
  B  B30  1  0.500000  0.480939  0.285397  1
  B  B31  1  0.500000  0.518658  0.714309  1
  B  B32  1  0.500000  0.600382  0.027477  1
  B  B33  1  0.500000  0.398812  0.972147  1
  B  B34  1  0.500000  0.101459  0.472693  1
  B  B35  1  0.500000  0.898803  0.527975  1
