# generated using pymatgen
data_Y2HoSi3P3Pd20
_symmetry_space_group_name_H-M   'P 1'
_cell_length_a   8.68532907
_cell_length_b   8.69196433
_cell_length_c   8.69759052
_cell_angle_alpha   59.92811552
_cell_angle_beta   60.00378338
_cell_angle_gamma   60.06810342
_symmetry_Int_Tables_number   1
_chemical_formula_structural   Y2HoSi3P3Pd20
_chemical_formula_sum   'Y2 Ho1 Si3 P3 Pd20'
_cell_volume   464.28738263
_cell_formula_units_Z   1
loop_
 _symmetry_equiv_pos_site_id
 _symmetry_equiv_pos_as_xyz
  1  'x, y, z'
loop_
 _atom_site_type_symbol
 _atom_site_label
 _atom_site_symmetry_multiplicity
 _atom_site_fract_x
 _atom_site_fract_y
 _atom_site_fract_z
 _atom_site_occupancy
  Y  Y0  1  0.250337  0.249663  0.250337  1
  Y  Y1  1  0.750337  0.749663  0.750337  1
  Ho  Ho2  1  0.999571  0.000429  0.999571  1
  Si  Si3  1  0.733318  0.266682  0.733318  1
  Si  Si4  1  0.266512  0.265247  0.734753  1
  Si  Si5  1  0.734753  0.733488  0.266512  1
  P  P6  1  0.735469  0.264531  0.266183  1
  P  P7  1  0.266183  0.733817  0.735469  1
  P  P8  1  0.264973  0.735027  0.264973  1
  Pd  Pd9  1  0.385092  0.385083  0.383021  1
  Pd  Pd10  1  0.614291  0.616914  0.616697  1
  Pd  Pd11  1  0.383086  0.385709  0.847903  1
  Pd  Pd12  1  0.383021  0.846806  0.385092  1
  Pd  Pd13  1  0.614917  0.614908  0.153194  1
  Pd  Pd14  1  0.616697  0.152097  0.614291  1
  Pd  Pd15  1  0.847903  0.383303  0.383086  1
  Pd  Pd16  1  0.153194  0.616979  0.614917  1
  Pd  Pd17  1  0.346047  0.998337  0.001663  1
  Pd  Pd18  1  0.654154  0.000010  0.999990  1
  Pd  Pd19  1  0.999990  0.345846  0.654154  1
  Pd  Pd20  1  0.001663  0.653953  0.346047  1
  Pd  Pd21  1  0.998121  0.345749  0.000503  1
  Pd  Pd22  1  0.654251  0.001879  0.344373  1
  Pd  Pd23  1  0.000503  0.655627  0.998121  1
  Pd  Pd24  1  0.344373  0.999497  0.654251  1
  Pd  Pd25  1  0.000373  0.999627  0.344186  1
  Pd  Pd26  1  0.001129  0.998871  0.655558  1
  Pd  Pd27  1  0.655558  0.344442  0.001129  1
  Pd  Pd28  1  0.344186  0.655814  0.000373  1
