# generated using pymatgen
data_Dy3(Cd2In)2
_symmetry_space_group_name_H-M   'P 1'
_cell_length_a   7.47621110
_cell_length_b   7.48509850
_cell_length_c   4.65344106
_cell_angle_alpha   89.98214878
_cell_angle_beta   90.02241857
_cell_angle_gamma   119.97609171
_symmetry_Int_Tables_number   1
_chemical_formula_structural   Dy3(Cd2In)2
_chemical_formula_sum   'Dy3 Cd4 In2'
_cell_volume   225.57370117
_cell_formula_units_Z   1
loop_
 _symmetry_equiv_pos_site_id
 _symmetry_equiv_pos_as_xyz
  1  'x, y, z'
loop_
 _atom_site_type_symbol
 _atom_site_label
 _atom_site_symmetry_multiplicity
 _atom_site_fract_x
 _atom_site_fract_y
 _atom_site_fract_z
 _atom_site_occupancy
  Dy  Dy0  1  0.999836  0.426150  0.500119  1
  Dy  Dy1  1  0.573635  0.573683  0.499975  1
  Dy  Dy2  1  0.426123  0.999886  0.499850  1
  Cd  Cd3  1  0.999869  0.758447  0.000235  1
  Cd  Cd4  1  0.241423  0.241462  0.000067  1
  Cd  Cd5  1  0.758375  0.999890  0.999925  1
  Cd  Cd6  1  0.999768  0.999862  0.500036  1
  In  In7  1  0.333506  0.666656  0.999986  1
  In  In8  1  0.667466  0.333966  0.999806  1
