# generated using pymatgen
data_La12TbYRh6
_symmetry_space_group_name_H-M   'P 1'
_cell_length_a   10.25409700
_cell_length_b   10.25409905
_cell_length_c   6.43382100
_cell_angle_alpha   90.00000000
_cell_angle_beta   90.00000000
_cell_angle_gamma   120.00000305
_symmetry_Int_Tables_number   1
_chemical_formula_structural   La12TbYRh6
_chemical_formula_sum   'La12 Tb1 Y1 Rh6'
_cell_volume   585.86091022
_cell_formula_units_Z   1
loop_
 _symmetry_equiv_pos_site_id
 _symmetry_equiv_pos_as_xyz
  1  'x, y, z'
loop_
 _atom_site_type_symbol
 _atom_site_label
 _atom_site_symmetry_multiplicity
 _atom_site_fract_x
 _atom_site_fract_y
 _atom_site_fract_z
 _atom_site_occupancy
  La  La0  1  0.873176  0.746351  0.767061  1
  La  La1  1  0.253649  0.126824  0.767061  1
  La  La2  1  0.873176  0.126824  0.767061  1
  La  La3  1  0.126950  0.253900  0.266904  1
  La  La4  1  0.746100  0.873050  0.266904  1
  La  La5  1  0.126950  0.873050  0.266904  1
  La  La6  1  0.457610  0.915223  0.595263  1
  La  La7  1  0.084777  0.542390  0.595263  1
  La  La8  1  0.457610  0.542390  0.595263  1
  La  La9  1  0.542438  0.084875  0.095380  1
  La  La10  1  0.915125  0.457562  0.095380  1
  La  La11  1  0.542438  0.457562  0.095380  1
  Tb  Tb12  1  0.666667  0.333333  0.568054  1
  Y  Y13  1  0.333333  0.666667  0.069699  1
  Rh  Rh14  1  0.189774  0.379547  0.850397  1
  Rh  Rh15  1  0.620453  0.810226  0.850397  1
  Rh  Rh16  1  0.189774  0.810226  0.850397  1
  Rh  Rh17  1  0.809933  0.619867  0.350758  1
  Rh  Rh18  1  0.380133  0.190067  0.350758  1
  Rh  Rh19  1  0.809933  0.190067  0.350758  1
