# generated using pymatgen
data_MnCr4CuSe8
_symmetry_space_group_name_H-M   'P 1'
_cell_length_a   7.44431757
_cell_length_b   7.44431799
_cell_length_c   7.44431700
_cell_angle_alpha   59.99999994
_cell_angle_beta   59.99999807
_cell_angle_gamma   59.99999545
_symmetry_Int_Tables_number   1
_chemical_formula_structural   MnCr4CuSe8
_chemical_formula_sum   'Mn1 Cr4 Cu1 Se8'
_cell_volume   291.71559447
_cell_formula_units_Z   1
loop_
 _symmetry_equiv_pos_site_id
 _symmetry_equiv_pos_as_xyz
  1  'x, y, z'
loop_
 _atom_site_type_symbol
 _atom_site_label
 _atom_site_symmetry_multiplicity
 _atom_site_fract_x
 _atom_site_fract_y
 _atom_site_fract_z
 _atom_site_occupancy
  Mn  Mn0  1  0.500000  0.500000  0.500000  1
  Cr  Cr1  1  0.632937  0.122354  0.122354  1
  Cr  Cr2  1  0.122354  0.632937  0.122354  1
  Cr  Cr3  1  0.122354  0.122354  0.632937  1
  Cr  Cr4  1  0.122354  0.122354  0.122354  1
  Cu  Cu5  1  0.750000  0.750000  0.750000  1
  Se  Se6  1  0.351014  0.882995  0.882995  1
  Se  Se7  1  0.882995  0.351014  0.882995  1
  Se  Se8  1  0.882995  0.882995  0.351014  1
  Se  Se9  1  0.882995  0.882995  0.882995  1
  Se  Se10  1  0.904695  0.365101  0.365101  1
  Se  Se11  1  0.365101  0.904695  0.365101  1
  Se  Se12  1  0.365101  0.365101  0.904695  1
  Se  Se13  1  0.365101  0.365101  0.365101  1
