# generated using pymatgen
data_Y6Cd17Ag6As
_symmetry_space_group_name_H-M   'P 1'
_cell_length_a   9.70097543
_cell_length_b   9.70097687
_cell_length_c   9.70097700
_cell_angle_alpha   60.00000298
_cell_angle_beta   59.99999806
_cell_angle_gamma   60.00000559
_symmetry_Int_Tables_number   1
_chemical_formula_structural   Y6Cd17Ag6As
_chemical_formula_sum   'Y6 Cd17 Ag6 As1'
_cell_volume   645.55221073
_cell_formula_units_Z   1
loop_
 _symmetry_equiv_pos_site_id
 _symmetry_equiv_pos_as_xyz
  1  'x, y, z'
loop_
 _atom_site_type_symbol
 _atom_site_label
 _atom_site_symmetry_multiplicity
 _atom_site_fract_x
 _atom_site_fract_y
 _atom_site_fract_z
 _atom_site_occupancy
  Y  Y0  1  0.794192  0.794192  0.205808  1
  Y  Y1  1  0.205808  0.794192  0.205808  1
  Y  Y2  1  0.794192  0.205808  0.205808  1
  Y  Y3  1  0.205808  0.205808  0.794192  1
  Y  Y4  1  0.794192  0.205808  0.794192  1
  Y  Y5  1  0.205808  0.794192  0.794192  1
  Cd  Cd6  1  0.834735  0.834735  0.495795  1
  Cd  Cd7  1  0.834735  0.495795  0.834735  1
  Cd  Cd8  1  0.495795  0.834735  0.834735  1
  Cd  Cd9  1  0.834735  0.834735  0.834735  1
  Cd  Cd10  1  0.165265  0.165265  0.504205  1
  Cd  Cd11  1  0.165265  0.504205  0.165265  1
  Cd  Cd12  1  0.504205  0.165265  0.165265  1
  Cd  Cd13  1  0.165265  0.165265  0.165265  1
  Cd  Cd14  1  0.622033  0.622033  0.133900  1
  Cd  Cd15  1  0.622033  0.133900  0.622033  1
  Cd  Cd16  1  0.133900  0.622033  0.622033  1
  Cd  Cd17  1  0.622033  0.622033  0.622033  1
  Cd  Cd18  1  0.377967  0.377967  0.866100  1
  Cd  Cd19  1  0.377967  0.866100  0.377967  1
  Cd  Cd20  1  0.866100  0.377967  0.377967  1
  Cd  Cd21  1  0.377967  0.377967  0.377967  1
  Cd  Cd22  1  0.500000  0.500000  0.500000  1
  Ag  Ag23  1  0.000000  0.000000  0.500000  1
  Ag  Ag24  1  0.500000  0.000000  0.500000  1
  Ag  Ag25  1  0.000000  0.500000  0.500000  1
  Ag  Ag26  1  0.500000  0.500000  0.000000  1
  Ag  Ag27  1  0.000000  0.500000  0.000000  1
  Ag  Ag28  1  0.500000  0.000000  0.000000  1
  As  As29  1  0.000000  0.000000  0.000000  1
