# generated using pymatgen
data_Dy4Lu8Co5Bi
_symmetry_space_group_name_H-M   'P 1'
_cell_length_a   8.17293977
_cell_length_b   8.17293927
_cell_length_c   8.17293894
_cell_angle_alpha   111.34592060
_cell_angle_beta   110.66202509
_cell_angle_gamma   106.44814598
_symmetry_Int_Tables_number   1
_chemical_formula_structural   Dy4Lu8Co5Bi
_chemical_formula_sum   'Dy4 Lu8 Co5 Bi1'
_cell_volume   419.36763366
_cell_formula_units_Z   1
loop_
 _symmetry_equiv_pos_site_id
 _symmetry_equiv_pos_as_xyz
  1  'x, y, z'
loop_
 _atom_site_type_symbol
 _atom_site_label
 _atom_site_symmetry_multiplicity
 _atom_site_fract_x
 _atom_site_fract_y
 _atom_site_fract_z
 _atom_site_occupancy
  Dy  Dy0  1  0.592244  0.789071  0.803173  1
  Dy  Dy1  1  0.407756  0.210929  0.196827  1
  Dy  Dy2  1  0.985898  0.789071  0.196827  1
  Dy  Dy3  1  0.014102  0.210929  0.803173  1
  Lu  Lu4  1  0.818577  0.713024  0.531601  1
  Lu  Lu5  1  0.181423  0.286976  0.468399  1
  Lu  Lu6  1  0.181423  0.713024  0.894446  1
  Lu  Lu7  1  0.818577  0.286976  0.105554  1
  Lu  Lu8  1  0.687316  0.377940  0.690624  1
  Lu  Lu9  1  0.312684  0.622060  0.309376  1
  Lu  Lu10  1  0.687316  0.996693  0.309376  1
  Lu  Lu11  1  0.312684  0.003307  0.690624  1
  Co  Co12  1  0.624044  0.000000  0.624044  1
  Co  Co13  1  0.375956  0.000000  0.375956  1
  Co  Co14  1  0.111910  0.611910  0.500000  1
  Co  Co15  1  0.888090  0.388090  0.500000  1
  Co  Co16  1  0.000000  0.000000  0.000000  1
  Bi  Bi17  1  0.500000  0.500000  0.000000  1
