# generated using pymatgen
data_K2FeAs4Ir3
_symmetry_space_group_name_H-M   'P 1'
_cell_length_a   5.69499300
_cell_length_b   7.32984382
_cell_length_c   5.69360806
_cell_angle_alpha   67.08004836
_cell_angle_beta   89.99989939
_cell_angle_gamma   89.99995292
_symmetry_Int_Tables_number   1
_chemical_formula_structural   K2FeAs4Ir3
_chemical_formula_sum   'K2 Fe1 As4 Ir3'
_cell_volume   218.90648057
_cell_formula_units_Z   1
loop_
 _symmetry_equiv_pos_site_id
 _symmetry_equiv_pos_as_xyz
  1  'x, y, z'
loop_
 _atom_site_type_symbol
 _atom_site_label
 _atom_site_symmetry_multiplicity
 _atom_site_fract_x
 _atom_site_fract_y
 _atom_site_fract_z
 _atom_site_occupancy
  K  K0  1  0.992306  0.000001  0.999999  1
  K  K1  1  0.507621  0.999999  0.500001  1
  Fe  Fe2  1  0.249889  0.499999  0.499999  1
  As  As3  1  0.489125  0.701837  0.159631  1
  As  As4  1  0.010859  0.701705  0.638551  1
  As  As5  1  0.010862  0.298295  0.361448  1
  As  As6  1  0.489128  0.298165  0.840368  1
  Ir  Ir7  1  0.250179  0.500001  0.000001  1
  Ir  Ir8  1  0.749864  0.500001  0.000000  1
  Ir  Ir9  1  0.750167  0.499997  0.500000  1
