# generated using pymatgen
data_Tb2OsC2
_symmetry_space_group_name_H-M   'P 1'
_cell_length_a   5.17157700
_cell_length_b   6.45471300
_cell_length_c   9.83822000
_cell_angle_alpha   90.00000000
_cell_angle_beta   90.00000000
_cell_angle_gamma   90.00000000
_symmetry_Int_Tables_number   1
_chemical_formula_structural   Tb2OsC2
_chemical_formula_sum   'Tb8 Os4 C8'
_cell_volume   328.41006742
_cell_formula_units_Z   4
loop_
 _symmetry_equiv_pos_site_id
 _symmetry_equiv_pos_as_xyz
  1  'x, y, z'
loop_
 _atom_site_type_symbol
 _atom_site_label
 _atom_site_symmetry_multiplicity
 _atom_site_fract_x
 _atom_site_fract_y
 _atom_site_fract_z
 _atom_site_occupancy
  Tb  Tb0  1  0.750000  0.814497  0.051438  1
  Tb  Tb1  1  0.250000  0.685503  0.551438  1
  Tb  Tb2  1  0.750000  0.314497  0.448562  1
  Tb  Tb3  1  0.250000  0.185503  0.948562  1
  Tb  Tb4  1  0.750000  0.475935  0.780858  1
  Tb  Tb5  1  0.250000  0.024065  0.280858  1
  Tb  Tb6  1  0.750000  0.975935  0.719142  1
  Tb  Tb7  1  0.250000  0.524065  0.219142  1
  Os  Os8  1  0.750000  0.274335  0.135569  1
  Os  Os9  1  0.250000  0.225665  0.635569  1
  Os  Os10  1  0.750000  0.774335  0.364431  1
  Os  Os11  1  0.250000  0.725665  0.864431  1
  C  C12  1  0.750000  0.176939  0.948623  1
  C  C13  1  0.250000  0.823061  0.051377  1
  C  C14  1  0.750000  0.676939  0.551377  1
  C  C15  1  0.250000  0.323061  0.448623  1
  C  C16  1  0.750000  0.037757  0.257497  1
  C  C17  1  0.250000  0.462243  0.757497  1
  C  C18  1  0.750000  0.537757  0.242503  1
  C  C19  1  0.250000  0.962243  0.742503  1
