# generated using pymatgen
data_Er8FeSi16Tc11
_symmetry_space_group_name_H-M   'P 1'
_cell_length_a   6.77519100
_cell_length_b   6.75770339
_cell_length_c   12.59983239
_cell_angle_alpha   90.35582637
_cell_angle_beta   90.09799827
_cell_angle_gamma   90.19567795
_symmetry_Int_Tables_number   1
_chemical_formula_structural   Er8FeSi16Tc11
_chemical_formula_sum   'Er8 Fe1 Si16 Tc11'
_cell_volume   576.86458552
_cell_formula_units_Z   1
loop_
 _symmetry_equiv_pos_site_id
 _symmetry_equiv_pos_as_xyz
  1  'x, y, z'
loop_
 _atom_site_type_symbol
 _atom_site_label
 _atom_site_symmetry_multiplicity
 _atom_site_fract_x
 _atom_site_fract_y
 _atom_site_fract_z
 _atom_site_occupancy
  Er  Er0  1  0.344053  0.995455  0.468629  1
  Er  Er1  1  0.503996  0.837259  0.719369  1
  Er  Er2  1  0.496571  0.164710  0.218994  1
  Er  Er3  1  0.842521  0.509235  0.283048  1
  Er  Er4  1  0.159682  0.490656  0.779193  1
  Er  Er5  1  0.663555  0.000756  0.968831  1
  Er  Er6  1  0.999367  0.336591  0.528128  1
  Er  Er7  1  0.006765  0.659667  0.030564  1
  Fe  Fe8  1  0.034152  0.806000  0.633926  1
  Si  Si9  1  0.188455  0.105062  0.683985  1
  Si  Si10  1  0.383565  0.690861  0.934666  1
  Si  Si11  1  0.613167  0.310316  0.439238  1
  Si  Si12  1  0.691482  0.385925  0.061478  1
  Si  Si13  1  0.299760  0.621771  0.566602  1
  Si  Si14  1  0.806365  0.885375  0.184875  1
  Si  Si15  1  0.116994  0.195975  0.314608  1
  Si  Si16  1  0.885508  0.803843  0.808912  1
  Si  Si17  1  0.273909  0.979482  0.062624  1
  Si  Si18  1  0.518671  0.771380  0.310144  1
  Si  Si19  1  0.469509  0.216179  0.814966  1
  Si  Si20  1  0.781501  0.524192  0.682419  1
  Si  Si21  1  0.230550  0.483814  0.189584  1
  Si  Si22  1  0.741249  0.014889  0.564570  1
  Si  Si23  1  0.975997  0.273381  0.936298  1
  Si  Si24  1  0.014852  0.741241  0.446283  1
  Tc  Tc25  1  0.333521  0.332471  0.999630  1
  Tc  Tc26  1  0.166867  0.837292  0.249921  1
  Tc  Tc27  1  0.835103  0.160431  0.744768  1
  Tc  Tc28  1  0.668034  0.666391  0.503865  1
  Tc  Tc29  1  0.180683  0.974981  0.870296  1
  Tc  Tc30  1  0.520979  0.688015  0.117694  1
  Tc  Tc31  1  0.474375  0.326075  0.626811  1
  Tc  Tc32  1  0.675593  0.512031  0.871322  1
  Tc  Tc33  1  0.312800  0.485696  0.384284  1
  Tc  Tc34  1  0.813416  0.026840  0.370074  1
  Tc  Tc35  1  0.976432  0.185761  0.129400  1
