# generated using pymatgen
data_Y20Ga3Os5Pb4
_symmetry_space_group_name_H-M   'P 1'
_cell_length_a   7.83586453
_cell_length_b   7.79974028
_cell_length_c   13.85837802
_cell_angle_alpha   90.00227634
_cell_angle_beta   89.99502508
_cell_angle_gamma   89.86532035
_symmetry_Int_Tables_number   1
_chemical_formula_structural   Y20Ga3Os5Pb4
_chemical_formula_sum   'Y20 Ga3 Os5 Pb4'
_cell_volume   846.98995988
_cell_formula_units_Z   1
loop_
 _symmetry_equiv_pos_site_id
 _symmetry_equiv_pos_as_xyz
  1  'x, y, z'
loop_
 _atom_site_type_symbol
 _atom_site_label
 _atom_site_symmetry_multiplicity
 _atom_site_fract_x
 _atom_site_fract_y
 _atom_site_fract_z
 _atom_site_occupancy
  Y  Y0  1  0.847404  0.834877  0.889227  1
  Y  Y1  1  0.170726  0.163724  0.614249  1
  Y  Y2  1  0.837463  0.171884  0.383929  1
  Y  Y3  1  0.172277  0.837519  0.384235  1
  Y  Y4  1  0.337042  0.338043  0.381334  1
  Y  Y5  1  0.836942  0.171427  0.116044  1
  Y  Y6  1  0.329808  0.664522  0.885488  1
  Y  Y7  1  0.172808  0.838095  0.115783  1
  Y  Y8  1  0.488270  0.003351  0.750402  1
  Y  Y9  1  0.002445  0.496144  0.249486  1
  Y  Y10  1  0.330305  0.664920  0.614455  1
  Y  Y11  1  0.652196  0.653519  0.117039  1
  Y  Y12  1  0.649591  0.336342  0.612344  1
  Y  Y13  1  0.009344  0.505073  0.749585  1
  Y  Y14  1  0.846932  0.835231  0.610735  1
  Y  Y15  1  0.650018  0.336805  0.887745  1
  Y  Y16  1  0.170258  0.164272  0.885804  1
  Y  Y17  1  0.495817  0.002103  0.250537  1
  Y  Y18  1  0.652723  0.652925  0.382897  1
  Y  Y19  1  0.337772  0.337477  0.118674  1
  Ga  Ga20  1  0.869964  0.868374  0.250003  1
  Ga  Ga21  1  0.634067  0.629343  0.749992  1
  Ga  Ga22  1  0.867417  0.127848  0.750025  1
  Os  Os23  1  0.637509  0.367276  0.249977  1
  Os  Os24  1  0.367627  0.635560  0.250010  1
  Os  Os25  1  0.124379  0.122661  0.249994  1
  Os  Os26  1  0.375710  0.374934  0.750010  1
  Os  Os27  1  0.122656  0.876023  0.749987  1
  Pb  Pb28  1  0.997426  0.498081  0.998654  1
  Pb  Pb29  1  0.507852  0.996837  0.998414  1
  Pb  Pb30  1  0.507828  0.996782  0.501552  1
  Pb  Pb31  1  0.997422  0.498026  0.501390  1
