# generated using pymatgen
data_SmDyNi2(SnH)2
_symmetry_space_group_name_H-M   'P 1'
_cell_length_a   4.27949100
_cell_length_b   7.14018504
_cell_length_c   8.37091322
_cell_angle_alpha   89.93823108
_cell_angle_beta   90.00000000
_cell_angle_gamma   90.00000000
_symmetry_Int_Tables_number   1
_chemical_formula_structural   SmDyNi2(SnH)2
_chemical_formula_sum   'Sm2 Dy2 Ni4 Sn4 H4'
_cell_volume   255.78446908
_cell_formula_units_Z   2
loop_
 _symmetry_equiv_pos_site_id
 _symmetry_equiv_pos_as_xyz
  1  'x, y, z'
loop_
 _atom_site_type_symbol
 _atom_site_label
 _atom_site_symmetry_multiplicity
 _atom_site_fract_x
 _atom_site_fract_y
 _atom_site_fract_z
 _atom_site_occupancy
  Sm  Sm0  1  0.250000  0.485848  0.187927  1
  Sm  Sm1  1  0.750000  0.514152  0.812073  1
  Dy  Dy2  1  0.750000  0.014218  0.685512  1
  Dy  Dy3  1  0.250000  0.985782  0.314488  1
  Ni  Ni4  1  0.750000  0.779622  0.107654  1
  Ni  Ni5  1  0.250000  0.220378  0.892346  1
  Ni  Ni6  1  0.250000  0.726674  0.603561  1
  Ni  Ni7  1  0.750000  0.273326  0.396439  1
  Sn  Sn8  1  0.750000  0.658927  0.429434  1
  Sn  Sn9  1  0.250000  0.341073  0.570566  1
  Sn  Sn10  1  0.250000  0.844249  0.928580  1
  Sn  Sn11  1  0.750000  0.155751  0.071420  1
  H  H12  1  0.250000  0.442600  0.920032  1
  H  H13  1  0.750000  0.557400  0.079968  1
  H  H14  1  0.750000  0.051964  0.421795  1
  H  H15  1  0.250000  0.948036  0.578205  1
