# generated using pymatgen
data_Dy2Y3In4IrPt
_symmetry_space_group_name_H-M   'P 1'
_cell_length_a   3.64480400
_cell_length_b   8.12899113
_cell_length_c   18.29600271
_cell_angle_alpha   89.93350783
_cell_angle_beta   90.00000000
_cell_angle_gamma   90.00000000
_symmetry_Int_Tables_number   1
_chemical_formula_structural   Dy2Y3In4IrPt
_chemical_formula_sum   'Dy4 Y6 In8 Ir2 Pt2'
_cell_volume   542.08420412
_cell_formula_units_Z   2
loop_
 _symmetry_equiv_pos_site_id
 _symmetry_equiv_pos_as_xyz
  1  'x, y, z'
loop_
 _atom_site_type_symbol
 _atom_site_label
 _atom_site_symmetry_multiplicity
 _atom_site_fract_x
 _atom_site_fract_y
 _atom_site_fract_z
 _atom_site_occupancy
  Dy  Dy0  1  0.000000  0.236849  0.221968  1
  Dy  Dy1  1  0.000000  0.763151  0.778032  1
  Dy  Dy2  1  0.000000  0.248129  0.720417  1
  Dy  Dy3  1  0.000000  0.751871  0.279583  1
  Y  Y4  1  0.000000  0.115333  0.412452  1
  Y  Y5  1  0.000000  0.884667  0.587548  1
  Y  Y6  1  0.000000  0.382927  0.913981  1
  Y  Y7  1  0.000000  0.617073  0.086019  1
  Y  Y8  1  0.000000  0.000000  0.000000  1
  Y  Y9  1  0.000000  0.500000  0.500000  1
  In  In10  1  0.500000  0.424331  0.351209  1
  In  In11  1  0.500000  0.575669  0.648791  1
  In  In12  1  0.500000  0.072588  0.850816  1
  In  In13  1  0.500000  0.927412  0.149184  1
  In  In14  1  0.500000  0.292215  0.066859  1
  In  In15  1  0.500000  0.707785  0.933141  1
  In  In16  1  0.500000  0.206628  0.568021  1
  In  In17  1  0.500000  0.793372  0.431979  1
  Ir  Ir18  1  0.500000  0.020982  0.303103  1
  Ir  Ir19  1  0.500000  0.979018  0.696897  1
  Pt  Pt20  1  0.500000  0.477709  0.802333  1
  Pt  Pt21  1  0.500000  0.522291  0.197667  1
