# generated using pymatgen
data_NdHo(Ni3As2)2
_symmetry_space_group_name_H-M   'P 1'
_cell_length_a   3.93841600
_cell_length_b   10.85870064
_cell_length_c   12.78273141
_cell_angle_alpha   90.17608681
_cell_angle_beta   90.00000000
_cell_angle_gamma   90.00000000
_symmetry_Int_Tables_number   1
_chemical_formula_structural   NdHo(Ni3As2)2
_chemical_formula_sum   'Nd3 Ho3 Ni18 As12'
_cell_volume   546.66473681
_cell_formula_units_Z   3
loop_
 _symmetry_equiv_pos_site_id
 _symmetry_equiv_pos_as_xyz
  1  'x, y, z'
loop_
 _atom_site_type_symbol
 _atom_site_label
 _atom_site_symmetry_multiplicity
 _atom_site_fract_x
 _atom_site_fract_y
 _atom_site_fract_z
 _atom_site_occupancy
  Nd  Nd0  1  0.000000  0.500031  0.521930  1
  Nd  Nd1  1  0.500000  0.000821  0.479463  1
  Nd  Nd2  1  0.500000  0.814848  0.205558  1
  Ho  Ho3  1  0.500000  0.185856  0.206127  1
  Ho  Ho4  1  0.000000  0.684327  0.794645  1
  Ho  Ho5  1  0.000000  0.315437  0.792664  1
  Ni  Ni6  1  0.000000  0.496880  0.978649  1
  Ni  Ni7  1  0.500000  0.002998  0.018038  1
  Ni  Ni8  1  0.500000  0.303041  0.422720  1
  Ni  Ni9  1  0.500000  0.697091  0.426234  1
  Ni  Ni10  1  0.000000  0.197627  0.576705  1
  Ni  Ni11  1  0.000000  0.803193  0.578578  1
  Ni  Ni12  1  0.500000  0.879939  0.711877  1
  Ni  Ni13  1  0.500000  0.121079  0.710298  1
  Ni  Ni14  1  0.000000  0.618139  0.290758  1
  Ni  Ni15  1  0.000000  0.378796  0.288917  1
  Ni  Ni16  1  0.500000  0.332854  0.997062  1
  Ni  Ni17  1  0.500000  0.663991  0.994957  1
  Ni  Ni18  1  0.000000  0.168767  0.001291  1
  Ni  Ni19  1  0.000000  0.833314  0.002440  1
  Ni  Ni20  1  0.500000  0.499527  0.152964  1
  Ni  Ni21  1  0.000000  0.000401  0.847273  1
  Ni  Ni22  1  0.500000  0.499579  0.699795  1
  Ni  Ni23  1  0.000000  0.001204  0.300308  1
  As  As24  1  0.500000  0.312023  0.613271  1
  As  As25  1  0.500000  0.687956  0.615651  1
  As  As26  1  0.000000  0.188432  0.386152  1
  As  As27  1  0.000000  0.811998  0.389187  1
  As  As28  1  0.500000  0.498406  0.874774  1
  As  As29  1  0.000000  0.003867  0.122901  1
  As  As30  1  0.500000  0.846815  0.893478  1
  As  As31  1  0.500000  0.153833  0.890958  1
  As  As32  1  0.000000  0.648734  0.105600  1
  As  As33  1  0.000000  0.347156  0.107765  1
  As  As34  1  0.500000  0.500430  0.339770  1
  As  As35  1  0.000000  0.000609  0.661244  1
