# generated using pymatgen
data_Sr4Eu4Si3Pt
_symmetry_space_group_name_H-M   'P 1'
_cell_length_a   8.09299101
_cell_length_b   5.02156200
_cell_length_c   9.41902180
_cell_angle_alpha   90.00000000
_cell_angle_beta   89.35353274
_cell_angle_gamma   90.00000000
_symmetry_Int_Tables_number   1
_chemical_formula_structural   Sr4Eu4Si3Pt
_chemical_formula_sum   'Sr4 Eu4 Si3 Pt1'
_cell_volume   382.75955778
_cell_formula_units_Z   1
loop_
 _symmetry_equiv_pos_site_id
 _symmetry_equiv_pos_as_xyz
  1  'x, y, z'
loop_
 _atom_site_type_symbol
 _atom_site_label
 _atom_site_symmetry_multiplicity
 _atom_site_fract_x
 _atom_site_fract_y
 _atom_site_fract_z
 _atom_site_occupancy
  Sr  Sr0  1  0.475888  0.250000  0.174765  1
  Sr  Sr1  1  0.981762  0.250000  0.326943  1
  Sr  Sr2  1  0.020526  0.750001  0.675187  1
  Sr  Sr3  1  0.526750  0.750001  0.827497  1
  Eu  Eu4  1  0.135199  0.750001  0.072803  1
  Eu  Eu5  1  0.650825  0.750001  0.421973  1
  Eu  Eu6  1  0.354830  0.250000  0.575486  1
  Eu  Eu7  1  0.851335  0.250000  0.928793  1
  Si  Si8  1  0.263717  0.750001  0.389266  1
  Si  Si9  1  0.737831  0.250000  0.609151  1
  Si  Si10  1  0.235314  0.250000  0.893597  1
  Pt  Pt11  1  0.766024  0.750001  0.104541  1
