# generated using pymatgen
data_V11Si4Pt
_symmetry_space_group_name_H-M   'P 1'
_cell_length_a   4.67303500
_cell_length_b   4.67636000
_cell_length_c   9.54378400
_cell_angle_alpha   90.00000000
_cell_angle_beta   90.00000000
_cell_angle_gamma   90.00000000
_symmetry_Int_Tables_number   1
_chemical_formula_structural   V11Si4Pt
_chemical_formula_sum   'V11 Si4 Pt1'
_cell_volume   208.55834528
_cell_formula_units_Z   1
loop_
 _symmetry_equiv_pos_site_id
 _symmetry_equiv_pos_as_xyz
  1  'x, y, z'
loop_
 _atom_site_type_symbol
 _atom_site_label
 _atom_site_symmetry_multiplicity
 _atom_site_fract_x
 _atom_site_fract_y
 _atom_site_fract_z
 _atom_site_occupancy
  V  V0  1  0.000000  0.500000  0.625058  1
  V  V1  1  0.500000  0.252886  0.751105  1
  V  V2  1  0.500000  0.244172  0.251776  1
  V  V3  1  0.744111  0.000000  0.998255  1
  V  V4  1  0.752784  0.000000  0.498890  1
  V  V5  1  0.000000  0.500000  0.863359  1
  V  V6  1  0.000000  0.500000  0.386559  1
  V  V7  1  0.500000  0.747114  0.751105  1
  V  V8  1  0.500000  0.755828  0.251776  1
  V  V9  1  0.255889  0.000000  0.998255  1
  V  V10  1  0.247216  0.000000  0.498890  1
  Si  Si11  1  0.500000  0.500000  0.991753  1
  Si  Si12  1  0.500000  0.500000  0.500143  1
  Si  Si13  1  0.000000  0.000000  0.749776  1
  Si  Si14  1  0.000000  0.000000  0.258331  1
  Pt  Pt15  1  0.000000  0.500000  0.124969  1
