# generated using pymatgen
data_K3SeClF6
_symmetry_space_group_name_H-M   'P 1'
_cell_length_a   8.42225400
_cell_length_b   8.42225400
_cell_length_c   6.06480500
_cell_angle_alpha   90.00000000
_cell_angle_beta   90.00000000
_cell_angle_gamma   90.00000000
_symmetry_Int_Tables_number   1
_chemical_formula_structural   K3SeClF6
_chemical_formula_sum   'K6 Se2 Cl2 F12'
_cell_volume   430.20307600
_cell_formula_units_Z   2
loop_
 _symmetry_equiv_pos_site_id
 _symmetry_equiv_pos_as_xyz
  1  'x, y, z'
loop_
 _atom_site_type_symbol
 _atom_site_label
 _atom_site_symmetry_multiplicity
 _atom_site_fract_x
 _atom_site_fract_y
 _atom_site_fract_z
 _atom_site_occupancy
  K  K0  1  0.683659  0.183659  0.500000  1
  K  K1  1  0.816341  0.683659  0.500000  1
  K  K2  1  0.500000  0.500000  0.000000  1
  K  K3  1  0.183659  0.316341  0.500000  1
  K  K4  1  0.316341  0.816341  0.500000  1
  K  K5  1  0.000000  0.000000  0.000000  1
  Se  Se6  1  0.500000  0.000000  0.000000  1
  Se  Se7  1  0.000000  0.500000  0.000000  1
  Cl  Cl8  1  0.500000  0.500000  0.500000  1
  Cl  Cl9  1  0.000000  0.000000  0.500000  1
  F  F10  1  0.887229  0.387229  0.237743  1
  F  F11  1  0.612771  0.887229  0.762257  1
  F  F12  1  0.165172  0.334828  0.000000  1
  F  F13  1  0.887229  0.387229  0.762257  1
  F  F14  1  0.387229  0.112771  0.762257  1
  F  F15  1  0.834828  0.665172  0.000000  1
  F  F16  1  0.112771  0.612771  0.237743  1
  F  F17  1  0.665172  0.165172  0.000000  1
  F  F18  1  0.612771  0.887229  0.237743  1
  F  F19  1  0.387229  0.112771  0.237743  1
  F  F20  1  0.112771  0.612771  0.762257  1
  F  F21  1  0.334828  0.834828  0.000000  1
