# generated using pymatgen
data_Lu5TlTcTe2
_symmetry_space_group_name_H-M   'P 1'
_cell_length_a   8.62499089
_cell_length_b   8.62499162
_cell_length_c   7.73681700
_cell_angle_alpha   91.17152072
_cell_angle_beta   91.17152082
_cell_angle_gamma   126.51292874
_symmetry_Int_Tables_number   1
_chemical_formula_structural   Lu5TlTcTe2
_chemical_formula_sum   'Lu10 Tl2 Tc2 Te4'
_cell_volume   462.10122580
_cell_formula_units_Z   2
loop_
 _symmetry_equiv_pos_site_id
 _symmetry_equiv_pos_as_xyz
  1  'x, y, z'
loop_
 _atom_site_type_symbol
 _atom_site_label
 _atom_site_symmetry_multiplicity
 _atom_site_fract_x
 _atom_site_fract_y
 _atom_site_fract_z
 _atom_site_occupancy
  Lu  Lu0  1  0.000000  0.000000  0.000000  1
  Lu  Lu1  1  0.500000  0.500000  0.500000  1
  Lu  Lu2  1  0.816620  0.568138  0.189805  1
  Lu  Lu3  1  0.431862  0.183380  0.810195  1
  Lu  Lu4  1  0.971666  0.721649  0.653743  1
  Lu  Lu5  1  0.278351  0.028334  0.346257  1
  Lu  Lu6  1  0.183380  0.431862  0.810195  1
  Lu  Lu7  1  0.568138  0.816620  0.189805  1
  Lu  Lu8  1  0.028334  0.278351  0.346257  1
  Lu  Lu9  1  0.721649  0.971666  0.653743  1
  Tl  Tl10  1  0.632051  0.632051  0.868942  1
  Tl  Tl11  1  0.367949  0.367949  0.131058  1
  Tc  Tc12  1  0.882303  0.882303  0.383895  1
  Tc  Tc13  1  0.117697  0.117697  0.616105  1
  Te  Te14  1  0.213885  0.786115  0.000000  1
  Te  Te15  1  0.706653  0.293347  0.500000  1
  Te  Te16  1  0.786115  0.213885  0.000000  1
  Te  Te17  1  0.293347  0.706653  0.500000  1
