# generated using pymatgen
data_Dy2Fe7Ni5As6P
_symmetry_space_group_name_H-M   'P 1'
_cell_length_a   9.36216091
_cell_length_b   9.35325340
_cell_length_c   3.78358800
_cell_angle_alpha   90.00000000
_cell_angle_beta   90.00000000
_cell_angle_gamma   120.25063577
_symmetry_Int_Tables_number   1
_chemical_formula_structural   Dy2Fe7Ni5As6P
_chemical_formula_sum   'Dy2 Fe7 Ni5 As6 P1'
_cell_volume   286.20082498
_cell_formula_units_Z   1
loop_
 _symmetry_equiv_pos_site_id
 _symmetry_equiv_pos_as_xyz
  1  'x, y, z'
loop_
 _atom_site_type_symbol
 _atom_site_label
 _atom_site_symmetry_multiplicity
 _atom_site_fract_x
 _atom_site_fract_y
 _atom_site_fract_z
 _atom_site_occupancy
  Dy  Dy0  1  0.336262  0.668652  0.000000  1
  Dy  Dy1  1  0.996571  0.997939  0.500000  1
  Fe  Fe2  1  0.932474  0.482163  0.000000  1
  Fe  Fe3  1  0.515073  0.447313  0.000000  1
  Fe  Fe4  1  0.551592  0.070664  0.000000  1
  Fe  Fe5  1  0.619410  0.905086  0.500000  1
  Fe  Fe6  1  0.756130  0.534063  0.500000  1
  Fe  Fe7  1  0.470190  0.227909  0.500000  1
  Fe  Fe8  1  0.771509  0.243772  0.500000  1
  Ni  Ni9  1  0.723878  0.764740  0.000000  1
  Ni  Ni10  1  0.232761  0.954369  0.000000  1
  Ni  Ni11  1  0.043247  0.274646  0.000000  1
  Ni  Ni12  1  0.098644  0.715092  0.500000  1
  Ni  Ni13  1  0.284448  0.381751  0.500000  1
  As  As14  1  0.956467  0.737699  0.000000  1
  As  As15  1  0.259632  0.214957  0.000000  1
  As  As16  1  0.778915  0.038784  0.000000  1
  As  As17  1  0.066761  0.445941  0.500000  1
  As  As18  1  0.554079  0.625267  0.500000  1
  As  As19  1  0.384313  0.933475  0.500000  1
  P  P20  1  0.667644  0.335719  0.000000  1
