# generated using pymatgen
data_Dy2Ta5WO18
_symmetry_space_group_name_H-M   'P 1'
_cell_length_a   7.51451781
_cell_length_b   5.30267394
_cell_length_c   8.32482406
_cell_angle_alpha   87.61491553
_cell_angle_beta   90.18442182
_cell_angle_gamma   89.79989278
_symmetry_Int_Tables_number   1
_chemical_formula_structural   Dy2Ta5WO18
_chemical_formula_sum   'Dy2 Ta5 W1 O18'
_cell_volume   331.42830852
_cell_formula_units_Z   1
loop_
 _symmetry_equiv_pos_site_id
 _symmetry_equiv_pos_as_xyz
  1  'x, y, z'
loop_
 _atom_site_type_symbol
 _atom_site_label
 _atom_site_symmetry_multiplicity
 _atom_site_fract_x
 _atom_site_fract_y
 _atom_site_fract_z
 _atom_site_occupancy
  Dy  Dy0  1  0.247610  0.965288  0.435157  1
  Dy  Dy1  1  0.752390  0.034712  0.564843  1
  Ta  Ta2  1  0.500000  0.000000  0.000000  1
  Ta  Ta3  1  0.008419  0.530379  0.696568  1
  Ta  Ta4  1  0.494006  0.526886  0.695894  1
  Ta  Ta5  1  0.991581  0.469621  0.303432  1
  Ta  Ta6  1  0.505994  0.473114  0.304106  1
  W  W7  1  0.000000  0.000000  0.000000  1
  O  O8  1  0.246775  0.907503  0.978334  1
  O  O9  1  0.932980  0.854815  0.780697  1
  O  O10  1  0.562924  0.849848  0.787095  1
  O  O11  1  0.956432  0.741525  0.468122  1
  O  O12  1  0.543382  0.741895  0.467993  1
  O  O13  1  0.250937  0.665926  0.654879  1
  O  O14  1  0.945039  0.672848  0.122890  1
  O  O15  1  0.552354  0.676758  0.121053  1
  O  O16  1  0.249952  0.577822  0.313810  1
  O  O17  1  0.750048  0.422178  0.686190  1
  O  O18  1  0.054961  0.327152  0.877110  1
  O  O19  1  0.447646  0.323242  0.878947  1
  O  O20  1  0.749063  0.334074  0.345121  1
  O  O21  1  0.043568  0.258475  0.531878  1
  O  O22  1  0.456618  0.258105  0.532007  1
  O  O23  1  0.067020  0.145185  0.219303  1
  O  O24  1  0.437076  0.150152  0.212905  1
  O  O25  1  0.753225  0.092497  0.021666  1
