# generated using pymatgen
data_Mn8Re3W
_symmetry_space_group_name_H-M   'P 1'
_cell_length_a   4.67365000
_cell_length_b   4.67364946
_cell_length_c   7.69001700
_cell_angle_alpha   90.00000000
_cell_angle_beta   90.00000000
_cell_angle_gamma   120.00000385
_symmetry_Int_Tables_number   1
_chemical_formula_structural   Mn8Re3W
_chemical_formula_sum   'Mn8 Re3 W1'
_cell_volume   145.46892715
_cell_formula_units_Z   1
loop_
 _symmetry_equiv_pos_site_id
 _symmetry_equiv_pos_as_xyz
  1  'x, y, z'
loop_
 _atom_site_type_symbol
 _atom_site_label
 _atom_site_symmetry_multiplicity
 _atom_site_fract_x
 _atom_site_fract_y
 _atom_site_fract_z
 _atom_site_occupancy
  Mn  Mn0  1  0.826850  0.173150  0.751263  1
  Mn  Mn1  1  0.826850  0.653699  0.751263  1
  Mn  Mn2  1  0.346301  0.173150  0.751263  1
  Mn  Mn3  1  0.173041  0.826959  0.249197  1
  Mn  Mn4  1  0.173041  0.346084  0.249197  1
  Mn  Mn5  1  0.653916  0.826959  0.249197  1
  Mn  Mn6  1  0.000000  0.000000  0.000533  1
  Mn  Mn7  1  0.000000  0.000000  0.500510  1
  Re  Re8  1  0.333333  0.666667  0.933489  1
  Re  Re9  1  0.666667  0.333333  0.068007  1
  Re  Re10  1  0.666667  0.333333  0.430667  1
  W  W11  1  0.333333  0.666667  0.565411  1
