# generated using pymatgen
data_AlW(SeO3)4
_symmetry_space_group_name_H-M   'P 1'
_cell_length_a   8.09252600
_cell_length_b   8.13490835
_cell_length_c   8.23779079
_cell_angle_alpha   90.06736792
_cell_angle_beta   90.00000000
_cell_angle_gamma   90.00000000
_symmetry_Int_Tables_number   1
_chemical_formula_structural   AlW(SeO3)4
_chemical_formula_sum   'Al2 W2 Se8 O24'
_cell_volume   542.30951647
_cell_formula_units_Z   2
loop_
 _symmetry_equiv_pos_site_id
 _symmetry_equiv_pos_as_xyz
  1  'x, y, z'
loop_
 _atom_site_type_symbol
 _atom_site_label
 _atom_site_symmetry_multiplicity
 _atom_site_fract_x
 _atom_site_fract_y
 _atom_site_fract_z
 _atom_site_occupancy
  Al  Al0  1  0.000000  0.000000  0.500000  1
  Al  Al1  1  0.500000  0.000000  0.000000  1
  W  W2  1  0.000000  0.500000  0.000000  1
  W  W3  1  0.500000  0.500000  0.500000  1
  Se  Se4  1  0.324428  0.696435  0.161272  1
  Se  Se5  1  0.824428  0.303565  0.338728  1
  Se  Se6  1  0.681245  0.840705  0.690915  1
  Se  Se7  1  0.181245  0.159295  0.809085  1
  Se  Se8  1  0.675572  0.303565  0.838728  1
  Se  Se9  1  0.175572  0.696435  0.661272  1
  Se  Se10  1  0.318755  0.159295  0.309085  1
  Se  Se11  1  0.818755  0.840705  0.190915  1
  O  O12  1  0.241562  0.527235  0.053191  1
  O  O13  1  0.741562  0.472765  0.446809  1
  O  O14  1  0.769753  0.957116  0.543110  1
  O  O15  1  0.269753  0.042884  0.956890  1
  O  O16  1  0.547568  0.981193  0.774434  1
  O  O17  1  0.467117  0.576617  0.274672  1
  O  O18  1  0.967117  0.423383  0.225328  1
  O  O19  1  0.047568  0.018807  0.725566  1
  O  O20  1  0.951353  0.232390  0.485002  1
  O  O21  1  0.528969  0.734683  0.572699  1
  O  O22  1  0.451353  0.767610  0.014998  1
  O  O23  1  0.028969  0.265317  0.927301  1
  O  O24  1  0.758438  0.472765  0.946809  1
  O  O25  1  0.258438  0.527235  0.553191  1
  O  O26  1  0.230247  0.042884  0.456890  1
  O  O27  1  0.730247  0.957116  0.043110  1
  O  O28  1  0.452432  0.018807  0.225566  1
  O  O29  1  0.532883  0.423383  0.725328  1
  O  O30  1  0.032883  0.576617  0.774672  1
  O  O31  1  0.952432  0.981193  0.274434  1
  O  O32  1  0.048647  0.767610  0.514998  1
  O  O33  1  0.471031  0.265317  0.427301  1
  O  O34  1  0.548647  0.232390  0.985002  1
  O  O35  1  0.971031  0.734683  0.072699  1
