# generated using pymatgen
data_Ho2Sc8Tl5In3Pt4
_symmetry_space_group_name_H-M   'P 1'
_cell_length_a   3.49523700
_cell_length_b   7.89601300
_cell_length_c   17.75097317
_cell_angle_alpha   89.55088336
_cell_angle_beta   90.00000000
_cell_angle_gamma   90.00000000
_symmetry_Int_Tables_number   1
_chemical_formula_structural   Ho2Sc8Tl5In3Pt4
_chemical_formula_sum   'Ho2 Sc8 Tl5 In3 Pt4'
_cell_volume   489.88406041
_cell_formula_units_Z   1
loop_
 _symmetry_equiv_pos_site_id
 _symmetry_equiv_pos_as_xyz
  1  'x, y, z'
loop_
 _atom_site_type_symbol
 _atom_site_label
 _atom_site_symmetry_multiplicity
 _atom_site_fract_x
 _atom_site_fract_y
 _atom_site_fract_z
 _atom_site_occupancy
  Ho  Ho0  1  0.000000  0.256637  0.720278  1
  Ho  Ho1  1  0.000000  0.743284  0.280320  1
  Sc  Sc2  1  0.000000  0.117490  0.415787  1
  Sc  Sc3  1  0.000000  0.882488  0.584182  1
  Sc  Sc4  1  0.000000  0.384813  0.915011  1
  Sc  Sc5  1  0.000000  0.615928  0.084536  1
  Sc  Sc6  1  0.000000  0.246663  0.222106  1
  Sc  Sc7  1  0.000000  0.754016  0.777941  1
  Sc  Sc8  1  0.000000  0.998679  0.999993  1
  Sc  Sc9  1  0.000000  0.500189  0.500049  1
  Tl  Tl10  1  0.500000  0.417702  0.355454  1
  Tl  Tl11  1  0.500000  0.582205  0.644874  1
  Tl  Tl12  1  0.500000  0.073696  0.855930  1
  Tl  Tl13  1  0.500000  0.923607  0.144405  1
  Tl  Tl14  1  0.500000  0.292665  0.061460  1
  In  In15  1  0.500000  0.706722  0.936535  1
  In  In16  1  0.500000  0.201612  0.560882  1
  In  In17  1  0.500000  0.798403  0.439220  1
  Pt  Pt18  1  0.500000  0.035222  0.306469  1
  Pt  Pt19  1  0.500000  0.965340  0.693423  1
  Pt  Pt20  1  0.500000  0.480556  0.808469  1
  Pt  Pt21  1  0.500000  0.522083  0.192678  1
