# generated using pymatgen
data_Nd3Th3(ScBi5)2
_symmetry_space_group_name_H-M   'P 1'
_cell_length_a   9.74207500
_cell_length_b   9.73938166
_cell_length_c   6.53646900
_cell_angle_alpha   90.00000000
_cell_angle_beta   90.00000000
_cell_angle_gamma   120.00915173
_symmetry_Int_Tables_number   1
_chemical_formula_structural   Nd3Th3(ScBi5)2
_chemical_formula_sum   'Nd3 Th3 Sc2 Bi10'
_cell_volume   537.05236518
_cell_formula_units_Z   1
loop_
 _symmetry_equiv_pos_site_id
 _symmetry_equiv_pos_as_xyz
  1  'x, y, z'
loop_
 _atom_site_type_symbol
 _atom_site_label
 _atom_site_symmetry_multiplicity
 _atom_site_fract_x
 _atom_site_fract_y
 _atom_site_fract_z
 _atom_site_occupancy
  Nd  Nd0  1  0.001081  0.620387  0.250000  1
  Nd  Nd1  1  0.380694  0.379613  0.250000  1
  Nd  Nd2  1  0.378694  0.000000  0.750000  1
  Th  Th3  1  0.000927  0.382595  0.750000  1
  Th  Th4  1  0.616160  0.000000  0.250000  1
  Th  Th5  1  0.618332  0.617405  0.750000  1
  Sc  Sc6  1  0.001916  0.000000  0.001303  1
  Sc  Sc7  1  0.001916  0.000000  0.498697  1
  Bi  Bi8  1  0.667618  0.333049  0.999718  1
  Bi  Bi9  1  0.265864  0.000000  0.250000  1
  Bi  Bi10  1  0.334568  0.666951  0.500282  1
  Bi  Bi11  1  0.265218  0.265872  0.750000  1
  Bi  Bi12  1  0.733177  0.000000  0.750000  1
  Bi  Bi13  1  0.999345  0.734128  0.750000  1
  Bi  Bi14  1  0.732703  0.733102  0.250000  1
  Bi  Bi15  1  0.999601  0.266898  0.250000  1
  Bi  Bi16  1  0.334568  0.666951  0.999718  1
  Bi  Bi17  1  0.667618  0.333049  0.500282  1
