# generated using pymatgen
data_Sc6Ti4Al12Ir5Ru2
_symmetry_space_group_name_H-M   'P 1'
_cell_length_a   8.81032102
_cell_length_b   8.81077421
_cell_length_c   8.81077530
_cell_angle_alpha   59.89805810
_cell_angle_beta   60.00170809
_cell_angle_gamma   60.00170251
_symmetry_Int_Tables_number   1
_chemical_formula_structural   Sc6Ti4Al12Ir5Ru2
_chemical_formula_sum   'Sc6 Ti4 Al12 Ir5 Ru2'
_cell_volume   483.25949963
_cell_formula_units_Z   1
loop_
 _symmetry_equiv_pos_site_id
 _symmetry_equiv_pos_as_xyz
  1  'x, y, z'
loop_
 _atom_site_type_symbol
 _atom_site_label
 _atom_site_symmetry_multiplicity
 _atom_site_fract_x
 _atom_site_fract_y
 _atom_site_fract_z
 _atom_site_occupancy
  Sc  Sc0  1  0.708676  0.291324  0.291324  1
  Sc  Sc1  1  0.706125  0.291670  0.708286  1
  Sc  Sc2  1  0.706125  0.708286  0.291670  1
  Sc  Sc3  1  0.291752  0.708248  0.708248  1
  Sc  Sc4  1  0.293919  0.708286  0.291670  1
  Sc  Sc5  1  0.293919  0.291670  0.708286  1
  Ti  Ti6  1  0.642402  0.118526  0.118526  1
  Ti  Ti7  1  0.119282  0.641682  0.119752  1
  Ti  Ti8  1  0.119282  0.119752  0.641682  1
  Ti  Ti9  1  0.120547  0.118526  0.118526  1
  Al  Al10  1  0.357571  0.881342  0.881342  1
  Al  Al11  1  0.880731  0.357857  0.880682  1
  Al  Al12  1  0.880731  0.880682  0.357857  1
  Al  Al13  1  0.879745  0.881342  0.881342  1
  Al  Al14  1  0.996835  0.334451  0.334451  1
  Al  Al15  1  0.334226  0.998789  0.332759  1
  Al  Al16  1  0.334226  0.332759  0.998789  1
  Al  Al17  1  0.334264  0.334451  0.334451  1
  Al  Al18  1  0.003496  0.665558  0.665558  1
  Al  Al19  1  0.665646  0.001555  0.667154  1
  Al  Al20  1  0.665646  0.667154  0.001555  1
  Al  Al21  1  0.665391  0.665558  0.665558  1
  Ir  Ir22  1  0.498833  0.000876  0.499292  1
  Ir  Ir23  1  0.498833  0.499292  0.000876  1
  Ir  Ir24  1  0.000881  0.499119  0.499119  1
  Ir  Ir25  1  0.000998  0.499292  0.000876  1
  Ir  Ir26  1  0.000998  0.000876  0.499292  1
  Ru  Ru27  1  0.000250  0.999750  0.999750  1
  Ru  Ru28  1  0.498668  0.001332  0.001332  1
