# generated using pymatgen
data_Er2Tm2Ga20OsRu5
_symmetry_space_group_name_H-M   'P 1'
_cell_length_a   8.89799602
_cell_length_b   8.89798402
_cell_length_c   6.38934700
_cell_angle_alpha   90.00000000
_cell_angle_beta   90.00000000
_cell_angle_gamma   89.99320022
_symmetry_Int_Tables_number   1
_chemical_formula_structural   Er2Tm2Ga20OsRu5
_chemical_formula_sum   'Er2 Tm2 Ga20 Os1 Ru5'
_cell_volume   505.87160185
_cell_formula_units_Z   1
loop_
 _symmetry_equiv_pos_site_id
 _symmetry_equiv_pos_as_xyz
  1  'x, y, z'
loop_
 _atom_site_type_symbol
 _atom_site_label
 _atom_site_symmetry_multiplicity
 _atom_site_fract_x
 _atom_site_fract_y
 _atom_site_fract_z
 _atom_site_occupancy
  Er  Er0  1  0.816669  0.682615  0.000000  1
  Er  Er1  1  0.183331  0.317385  0.000000  1
  Tm  Tm2  1  0.682641  0.183329  0.000000  1
  Tm  Tm3  1  0.317359  0.816671  0.000000  1
  Ga  Ga4  1  0.938668  0.206740  0.292732  1
  Ga  Ga5  1  0.706998  0.438620  0.293315  1
  Ga  Ga6  1  0.500000  0.000000  0.284932  1
  Ga  Ga7  1  0.561344  0.707004  0.706677  1
  Ga  Ga8  1  0.293002  0.561380  0.706685  1
  Ga  Ga9  1  0.793254  0.938706  0.292740  1
  Ga  Ga10  1  0.938668  0.206740  0.707268  1
  Ga  Ga11  1  0.293002  0.561380  0.293315  1
  Ga  Ga12  1  0.061332  0.793260  0.292732  1
  Ga  Ga13  1  0.706998  0.438620  0.706685  1
  Ga  Ga14  1  0.438656  0.292996  0.706677  1
  Ga  Ga15  1  0.061332  0.793260  0.707268  1
  Ga  Ga16  1  0.206746  0.061294  0.707260  1
  Ga  Ga17  1  0.793254  0.938706  0.707260  1
  Ga  Ga18  1  0.206746  0.061294  0.292740  1
  Ga  Ga19  1  0.000000  0.500000  0.715004  1
  Ga  Ga20  1  0.000000  0.500000  0.284996  1
  Ga  Ga21  1  0.561344  0.707004  0.293323  1
  Ga  Ga22  1  0.438656  0.292996  0.293323  1
  Ga  Ga23  1  0.500000  0.000000  0.715068  1
  Os  Os24  1  0.500000  0.500000  0.000000  1
  Ru  Ru25  1  0.678147  0.178283  0.500000  1
  Ru  Ru26  1  0.821713  0.678151  0.500000  1
  Ru  Ru27  1  0.178287  0.321849  0.500000  1
  Ru  Ru28  1  0.000000  0.000000  0.000000  1
  Ru  Ru29  1  0.321853  0.821717  0.500000  1
