# generated using pymatgen
data_SrPrTi2O6
_symmetry_space_group_name_H-M   'P 1'
_cell_length_a   5.57918300
_cell_length_b   5.58105800
_cell_length_c   7.89799400
_cell_angle_alpha   90.00000000
_cell_angle_beta   90.00000000
_cell_angle_gamma   90.00000000
_symmetry_Int_Tables_number   1
_chemical_formula_structural   SrPrTi2O6
_chemical_formula_sum   'Sr2 Pr2 Ti4 O12'
_cell_volume   245.92571462
_cell_formula_units_Z   2
loop_
 _symmetry_equiv_pos_site_id
 _symmetry_equiv_pos_as_xyz
  1  'x, y, z'
loop_
 _atom_site_type_symbol
 _atom_site_label
 _atom_site_symmetry_multiplicity
 _atom_site_fract_x
 _atom_site_fract_y
 _atom_site_fract_z
 _atom_site_occupancy
  Sr  Sr0  1  0.254624  0.984443  0.500000  1
  Sr  Sr1  1  0.745376  0.484443  0.500000  1
  Pr  Pr2  1  0.247070  0.030799  0.000000  1
  Pr  Pr3  1  0.752930  0.530799  0.000000  1
  Ti  Ti4  1  0.253185  0.500413  0.748213  1
  Ti  Ti5  1  0.746815  0.000413  0.251787  1
  Ti  Ti6  1  0.253185  0.500413  0.251787  1
  Ti  Ti7  1  0.746815  0.000413  0.748213  1
  O  O8  1  0.023786  0.773489  0.791863  1
  O  O9  1  0.976214  0.273489  0.208137  1
  O  O10  1  0.473024  0.222478  0.269349  1
  O  O11  1  0.526976  0.722478  0.730651  1
  O  O12  1  0.473024  0.222478  0.730651  1
  O  O13  1  0.526976  0.722478  0.269349  1
  O  O14  1  0.023786  0.773489  0.208137  1
  O  O15  1  0.976214  0.273489  0.791863  1
  O  O16  1  0.315598  0.487033  0.000000  1
  O  O17  1  0.684402  0.987033  0.000000  1
  O  O18  1  0.200644  0.504961  0.500000  1
  O  O19  1  0.799356  0.004961  0.500000  1
