# generated using pymatgen
data_La16Er4Ir7Pt5
_symmetry_space_group_name_H-M   'P 1'
_cell_length_a   11.46461214
_cell_length_b   11.46461214
_cell_length_c   6.53563064
_cell_angle_alpha   90.03588329
_cell_angle_beta   90.03588329
_cell_angle_gamma   89.83024515
_symmetry_Int_Tables_number   1
_chemical_formula_structural   La16Er4Ir7Pt5
_chemical_formula_sum   'La16 Er4 Ir7 Pt5'
_cell_volume   859.02174490
_cell_formula_units_Z   1
loop_
 _symmetry_equiv_pos_site_id
 _symmetry_equiv_pos_as_xyz
  1  'x, y, z'
loop_
 _atom_site_type_symbol
 _atom_site_label
 _atom_site_symmetry_multiplicity
 _atom_site_fract_x
 _atom_site_fract_y
 _atom_site_fract_z
 _atom_site_occupancy
  La  La0  1  0.291306  0.089674  0.382868  1
  La  La1  1  0.291697  0.909830  0.882275  1
  La  La2  1  0.708810  0.087072  0.882701  1
  La  La3  1  0.708560  0.910035  0.382581  1
  La  La4  1  0.586665  0.786666  0.888179  1
  La  La5  1  0.585084  0.210506  0.382907  1
  La  La6  1  0.413098  0.787440  0.388072  1
  La  La7  1  0.410848  0.211601  0.889235  1
  La  La8  1  0.213334  0.413335  0.611821  1
  La  La9  1  0.212560  0.586902  0.111928  1
  La  La10  1  0.789494  0.414916  0.117093  1
  La  La11  1  0.788399  0.589152  0.610765  1
  La  La12  1  0.910326  0.708694  0.117132  1
  La  La13  1  0.912928  0.291190  0.617299  1
  La  La14  1  0.090170  0.708303  0.617725  1
  La  La15  1  0.089965  0.291440  0.117419  1
  Er  Er16  1  0.999955  0.999886  0.499947  1
  Er  Er17  1  0.000114  0.000045  0.000053  1
  Er  Er18  1  0.498466  0.501332  0.001507  1
  Er  Er19  1  0.498668  0.501534  0.498493  1
  Ir  Ir20  1  0.648024  0.646794  0.250111  1
  Ir  Ir21  1  0.353206  0.351976  0.249889  1
  Ir  Ir22  1  0.352437  0.647563  0.750000  1
  Ir  Ir23  1  0.500470  0.000426  0.119408  1
  Ir  Ir24  1  0.500345  0.001142  0.619741  1
  Ir  Ir25  1  0.998858  0.499655  0.880259  1
  Ir  Ir26  1  0.999574  0.499530  0.380592  1
  Pt  Pt27  1  0.853690  0.146310  0.250000  1
  Pt  Pt28  1  0.854103  0.854396  0.749992  1
  Pt  Pt29  1  0.145604  0.145897  0.750008  1
  Pt  Pt30  1  0.145878  0.854122  0.250000  1
  Pt  Pt31  1  0.647365  0.352635  0.750000  1
