# generated using pymatgen
data_Er12InNi4Ag
_symmetry_space_group_name_H-M   'P 1'
_cell_length_a   8.31826875
_cell_length_b   8.30363225
_cell_length_c   8.30212400
_cell_angle_alpha   106.53523715
_cell_angle_beta   109.63446831
_cell_angle_gamma   112.21493805
_symmetry_Int_Tables_number   1
_chemical_formula_structural   Er12InNi4Ag
_chemical_formula_sum   'Er12 In1 Ni4 Ag1'
_cell_volume   440.78031679
_cell_formula_units_Z   1
loop_
 _symmetry_equiv_pos_site_id
 _symmetry_equiv_pos_as_xyz
  1  'x, y, z'
loop_
 _atom_site_type_symbol
 _atom_site_label
 _atom_site_symmetry_multiplicity
 _atom_site_fract_x
 _atom_site_fract_y
 _atom_site_fract_z
 _atom_site_occupancy
  Er  Er0  1  0.699303  0.274604  0.973745  1
  Er  Er1  1  0.300662  0.725557  0.026360  1
  Er  Er2  1  0.699302  0.725537  0.424715  1
  Er  Er3  1  0.300624  0.274354  0.575098  1
  Er  Er4  1  0.806321  0.129892  0.323672  1
  Er  Er5  1  0.806155  0.482474  0.676338  1
  Er  Er6  1  0.193842  0.870135  0.676306  1
  Er  Er7  1  0.193804  0.517349  0.323634  1
  Er  Er8  1  0.610696  0.793758  0.816927  1
  Er  Er9  1  0.975999  0.793484  0.182518  1
  Er  Er10  1  0.023978  0.206565  0.817471  1
  Er  Er11  1  0.389267  0.206308  0.183041  1
  In  In12  1  0.499918  0.999835  0.499883  1
  Ni  Ni13  1  0.857934  0.499777  0.357984  1
  Ni  Ni14  1  0.142310  0.500335  0.642583  1
  Ni  Ni15  1  0.999944  0.125498  0.125319  1
  Ni  Ni16  1  0.999899  0.874396  0.874484  1
  Ag  Ag17  1  0.500040  0.500143  0.999924  1
