# generated using pymatgen
data_Tb9Ho7Cd4(CoPt)2
_symmetry_space_group_name_H-M   'P 1'
_cell_length_a   9.62299335
_cell_length_b   9.59527118
_cell_length_c   9.59196558
_cell_angle_alpha   59.97995135
_cell_angle_beta   59.97199933
_cell_angle_gamma   59.94938047
_symmetry_Int_Tables_number   1
_chemical_formula_structural   Tb9Ho7Cd4(CoPt)2
_chemical_formula_sum   'Tb9 Ho7 Cd4 Co2 Pt2'
_cell_volume   625.80056314
_cell_formula_units_Z   1
loop_
 _symmetry_equiv_pos_site_id
 _symmetry_equiv_pos_as_xyz
  1  'x, y, z'
loop_
 _atom_site_type_symbol
 _atom_site_label
 _atom_site_symmetry_multiplicity
 _atom_site_fract_x
 _atom_site_fract_y
 _atom_site_fract_z
 _atom_site_occupancy
  Tb  Tb0  1  0.596752  0.195531  0.612956  1
  Tb  Tb1  1  0.812863  0.815020  0.187748  1
  Tb  Tb2  1  0.207452  0.602786  0.601735  1
  Tb  Tb3  1  0.808841  0.189994  0.189641  1
  Tb  Tb4  1  0.059437  0.439569  0.441104  1
  Tb  Tb5  1  0.186101  0.813540  0.187304  1
  Tb  Tb6  1  0.596616  0.612598  0.196091  1
  Tb  Tb7  1  0.185529  0.187369  0.812948  1
  Tb  Tb8  1  0.070443  0.436742  0.052713  1
  Ho  Ho9  1  0.441194  0.437948  0.051439  1
  Ho  Ho10  1  0.587592  0.600736  0.601096  1
  Ho  Ho11  1  0.185605  0.816044  0.814448  1
  Ho  Ho12  1  0.069435  0.053205  0.437600  1
  Ho  Ho13  1  0.436859  0.062610  0.062729  1
  Ho  Ho14  1  0.812649  0.188431  0.813637  1
  Ho  Ho15  1  0.439726  0.051654  0.438697  1
  Cd  Cd16  1  0.830790  0.829040  0.508165  1
  Cd  Cd17  1  0.833195  0.831194  0.830070  1
  Cd  Cd18  1  0.505036  0.829883  0.830165  1
  Cd  Cd19  1  0.830638  0.507314  0.829065  1
  Co  Co20  1  0.391855  0.826425  0.391568  1
  Co  Co21  1  0.393267  0.391304  0.825722  1
  Pt  Pt22  1  0.396557  0.390449  0.390274  1
  Pt  Pt23  1  0.821568  0.390613  0.393086  1
