# generated using pymatgen
data_ErMn4CoP3
_symmetry_space_group_name_H-M   'P 1'
_cell_length_a   3.58361600
_cell_length_b   10.55817900
_cell_length_c   12.18590900
_cell_angle_alpha   90.00000000
_cell_angle_beta   90.00000000
_cell_angle_gamma   90.00000000
_symmetry_Int_Tables_number   1
_chemical_formula_structural   ErMn4CoP3
_chemical_formula_sum   'Er4 Mn16 Co4 P12'
_cell_volume   461.07164864
_cell_formula_units_Z   4
loop_
 _symmetry_equiv_pos_site_id
 _symmetry_equiv_pos_as_xyz
  1  'x, y, z'
loop_
 _atom_site_type_symbol
 _atom_site_label
 _atom_site_symmetry_multiplicity
 _atom_site_fract_x
 _atom_site_fract_y
 _atom_site_fract_z
 _atom_site_occupancy
  Er  Er0  1  0.250000  0.583940  0.708177  1
  Er  Er1  1  0.250000  0.916060  0.208177  1
  Er  Er2  1  0.750000  0.416060  0.291823  1
  Er  Er3  1  0.750000  0.083940  0.791823  1
  Mn  Mn4  1  0.250000  0.712116  0.986612  1
  Mn  Mn5  1  0.250000  0.787884  0.486612  1
  Mn  Mn6  1  0.750000  0.287884  0.013388  1
  Mn  Mn7  1  0.750000  0.212116  0.513388  1
  Mn  Mn8  1  0.250000  0.407708  0.492868  1
  Mn  Mn9  1  0.250000  0.092292  0.992868  1
  Mn  Mn10  1  0.750000  0.592292  0.507132  1
  Mn  Mn11  1  0.750000  0.907708  0.007132  1
  Mn  Mn12  1  0.250000  0.216872  0.176580  1
  Mn  Mn13  1  0.250000  0.283128  0.676580  1
  Mn  Mn14  1  0.750000  0.783128  0.823420  1
  Mn  Mn15  1  0.750000  0.716872  0.323420  1
  Mn  Mn16  1  0.250000  0.878156  0.697158  1
  Mn  Mn17  1  0.250000  0.621844  0.197158  1
  Mn  Mn18  1  0.750000  0.121844  0.302842  1
  Mn  Mn19  1  0.750000  0.378156  0.802842  1
  Co  Co20  1  0.250000  0.463857  0.933940  1
  Co  Co21  1  0.250000  0.036143  0.433940  1
  Co  Co22  1  0.750000  0.536143  0.066060  1
  Co  Co23  1  0.750000  0.963857  0.566060  1
  P  P24  1  0.250000  0.420586  0.112414  1
  P  P25  1  0.250000  0.079414  0.612414  1
  P  P26  1  0.750000  0.579414  0.887586  1
  P  P27  1  0.750000  0.920586  0.387586  1
  P  P28  1  0.250000  0.265072  0.872387  1
  P  P29  1  0.250000  0.234928  0.372387  1
  P  P30  1  0.750000  0.734928  0.127613  1
  P  P31  1  0.750000  0.765072  0.627613  1
  P  P32  1  0.250000  0.592231  0.385512  1
  P  P33  1  0.250000  0.907769  0.885512  1
  P  P34  1  0.750000  0.407769  0.614488  1
  P  P35  1  0.750000  0.092231  0.114488  1
