# generated using pymatgen
data_Pr2ThAs3
_symmetry_space_group_name_H-M   'P 1'
_cell_length_a   7.44263492
_cell_length_b   7.44263473
_cell_length_c   7.44263500
_cell_angle_alpha   146.53376506
_cell_angle_beta   132.01616968
_cell_angle_gamma   59.76478139
_symmetry_Int_Tables_number   1
_chemical_formula_structural   Pr2ThAs3
_chemical_formula_sum   'Pr2 Th1 As3'
_cell_volume   167.38741460
_cell_formula_units_Z   1
loop_
 _symmetry_equiv_pos_site_id
 _symmetry_equiv_pos_as_xyz
  1  'x, y, z'
loop_
 _atom_site_type_symbol
 _atom_site_label
 _atom_site_symmetry_multiplicity
 _atom_site_fract_x
 _atom_site_fract_y
 _atom_site_fract_z
 _atom_site_occupancy
  Pr  Pr0  1  0.667733  0.667733  0.000000  1
  Pr  Pr1  1  0.332267  0.332267  0.000000  1
  Th  Th2  1  0.000000  0.000000  0.000000  1
  As  As3  1  0.500000  0.000000  0.500000  1
  As  As4  1  0.162587  0.662587  0.500000  1
  As  As5  1  0.837413  0.337413  0.500000  1
