# generated using pymatgen
data_Hf6InFeTe
_symmetry_space_group_name_H-M   'P 1'
_cell_length_a   3.46695800
_cell_length_b   7.89905533
_cell_length_c   7.89892200
_cell_angle_alpha   119.99902195
_cell_angle_beta   90.00000000
_cell_angle_gamma   90.00000000
_symmetry_Int_Tables_number   1
_chemical_formula_structural   Hf6InFeTe
_chemical_formula_sum   'Hf6 In1 Fe1 Te1'
_cell_volume   187.33825628
_cell_formula_units_Z   1
loop_
 _symmetry_equiv_pos_site_id
 _symmetry_equiv_pos_as_xyz
  1  'x, y, z'
loop_
 _atom_site_type_symbol
 _atom_site_label
 _atom_site_symmetry_multiplicity
 _atom_site_fract_x
 _atom_site_fract_y
 _atom_site_fract_z
 _atom_site_occupancy
  Hf  Hf0  1  0.500000  0.605810  0.992762  1
  Hf  Hf1  1  0.500000  0.386965  0.394213  1
  Hf  Hf2  1  0.500000  0.007246  0.613045  1
  Hf  Hf3  1  0.000000  0.241862  0.003720  1
  Hf  Hf4  1  0.000000  0.761838  0.758151  1
  Hf  Hf5  1  0.000000  0.996319  0.238189  1
  In  In6  1  0.000000  0.666535  0.333223  1
  Fe  Fe7  1  0.500000  0.999995  0.000011  1
  Te  Te8  1  0.000000  0.333331  0.666688  1
