# generated using pymatgen
data_Y3Er2Hf5(Si5Ir2)4
_symmetry_space_group_name_H-M   'P 1'
_cell_length_a   12.47911253
_cell_length_b   12.47927053
_cell_length_c   4.16262500
_cell_angle_alpha   90.00000000
_cell_angle_beta   90.00000000
_cell_angle_gamma   90.03332370
_symmetry_Int_Tables_number   1
_chemical_formula_structural   Y3Er2Hf5(Si5Ir2)4
_chemical_formula_sum   'Y3 Er2 Hf5 Si20 Ir8'
_cell_volume   648.24640229
_cell_formula_units_Z   1
loop_
 _symmetry_equiv_pos_site_id
 _symmetry_equiv_pos_as_xyz
  1  'x, y, z'
loop_
 _atom_site_type_symbol
 _atom_site_label
 _atom_site_symmetry_multiplicity
 _atom_site_fract_x
 _atom_site_fract_y
 _atom_site_fract_z
 _atom_site_occupancy
  Y  Y0  1  0.884088  0.384444  0.500000  1
  Y  Y1  1  0.115919  0.615555  0.500000  1
  Y  Y2  1  0.384474  0.115893  0.500000  1
  Er  Er3  1  0.999953  0.999991  0.000000  1
  Er  Er4  1  0.615578  0.884108  0.500000  1
  Hf  Hf5  1  0.500000  0.500026  0.000000  1
  Hf  Hf6  1  0.673492  0.174949  0.500000  1
  Hf  Hf7  1  0.326603  0.824963  0.500000  1
  Hf  Hf8  1  0.175063  0.326478  0.500000  1
  Hf  Hf9  1  0.824850  0.673602  0.500000  1
  Si  Si10  1  0.565964  0.067611  0.000000  1
  Si  Si11  1  0.434283  0.932164  0.000000  1
  Si  Si12  1  0.067829  0.434047  0.000000  1
  Si  Si13  1  0.932171  0.565957  0.000000  1
  Si  Si14  1  0.665800  0.701400  0.000000  1
  Si  Si15  1  0.334204  0.298826  0.000000  1
  Si  Si16  1  0.164169  0.800929  0.000000  1
  Si  Si17  1  0.835807  0.199039  0.000000  1
  Si  Si18  1  0.298862  0.665820  0.000000  1
  Si  Si19  1  0.701175  0.334200  0.000000  1
  Si  Si20  1  0.199078  0.164161  0.000000  1
  Si  Si21  1  0.800713  0.835833  0.000000  1
  Si  Si22  1  0.651229  0.507683  0.500000  1
  Si  Si23  1  0.348782  0.492336  0.500000  1
  Si  Si24  1  0.156114  0.992775  0.500000  1
  Si  Si25  1  0.843768  0.007198  0.500000  1
  Si  Si26  1  0.492362  0.651328  0.500000  1
  Si  Si27  1  0.507658  0.348768  0.500000  1
  Si  Si28  1  0.007241  0.156099  0.500000  1
  Si  Si29  1  0.992748  0.843880  0.500000  1
  Ir  Ir30  1  0.741920  0.521563  0.000000  1
  Ir  Ir31  1  0.258072  0.478492  0.000000  1
  Ir  Ir32  1  0.246183  0.978045  0.000000  1
  Ir  Ir33  1  0.753506  0.021528  0.000000  1
  Ir  Ir34  1  0.478853  0.742302  0.000000  1
  Ir  Ir35  1  0.521540  0.258002  0.000000  1
  Ir  Ir36  1  0.021918  0.246099  0.000000  1
  Ir  Ir37  1  0.978028  0.753908  0.000000  1
