# generated using pymatgen
data_Zr10CdBi4Pb3
_symmetry_space_group_name_H-M   'P 1'
_cell_length_a   8.99548000
_cell_length_b   8.99548033
_cell_length_c   6.03521900
_cell_angle_alpha   90.00000000
_cell_angle_beta   90.00000000
_cell_angle_gamma   120.00000615
_symmetry_Int_Tables_number   1
_chemical_formula_structural   Zr10CdBi4Pb3
_chemical_formula_sum   'Zr10 Cd1 Bi4 Pb3'
_cell_volume   422.93374616
_cell_formula_units_Z   1
loop_
 _symmetry_equiv_pos_site_id
 _symmetry_equiv_pos_as_xyz
  1  'x, y, z'
loop_
 _atom_site_type_symbol
 _atom_site_label
 _atom_site_symmetry_multiplicity
 _atom_site_fract_x
 _atom_site_fract_y
 _atom_site_fract_z
 _atom_site_occupancy
  Zr  Zr0  1  0.666667  0.333333  0.002777  1
  Zr  Zr1  1  0.333333  0.666667  0.002777  1
  Zr  Zr2  1  0.333333  0.666667  0.497675  1
  Zr  Zr3  1  0.666667  0.333333  0.497675  1
  Zr  Zr4  1  0.718103  0.718103  0.742675  1
  Zr  Zr5  1  0.281897  0.000000  0.742675  1
  Zr  Zr6  1  0.000000  0.281897  0.742675  1
  Zr  Zr7  1  0.285318  0.285318  0.256970  1
  Zr  Zr8  1  0.714682  0.000000  0.256970  1
  Zr  Zr9  1  0.000000  0.714682  0.256970  1
  Cd  Cd10  1  0.000000  0.000000  0.497624  1
  Bi  Bi11  1  0.000000  0.000000  0.001442  1
  Bi  Bi12  1  0.384714  0.384714  0.750491  1
  Bi  Bi13  1  0.615286  0.000000  0.750491  1
  Bi  Bi14  1  0.000000  0.615286  0.750491  1
  Pb  Pb15  1  0.619947  0.619947  0.249875  1
  Pb  Pb16  1  0.380053  0.000000  0.249875  1
  Pb  Pb17  1  0.000000  0.380053  0.249875  1
