# generated using pymatgen
data_CsSrO6
_symmetry_space_group_name_H-M   'P 1'
_cell_length_a   7.39285019
_cell_length_b   7.39284985
_cell_length_c   7.39285066
_cell_angle_alpha   104.23430888
_cell_angle_beta   104.23430382
_cell_angle_gamma   120.54562837
_symmetry_Int_Tables_number   1
_chemical_formula_structural   CsSrO6
_chemical_formula_sum   'Cs2 Sr2 O12'
_cell_volume   302.18311006
_cell_formula_units_Z   2
loop_
 _symmetry_equiv_pos_site_id
 _symmetry_equiv_pos_as_xyz
  1  'x, y, z'
loop_
 _atom_site_type_symbol
 _atom_site_label
 _atom_site_symmetry_multiplicity
 _atom_site_fract_x
 _atom_site_fract_y
 _atom_site_fract_z
 _atom_site_occupancy
  Cs  Cs0  1  0.250000  0.250000  0.000000  1
  Cs  Cs1  1  0.750000  0.750000  0.000000  1
  Sr  Sr2  1  0.750000  0.250000  0.500000  1
  Sr  Sr3  1  0.250000  0.750000  0.500000  1
  O  O4  1  0.789545  0.529914  0.319459  1
  O  O5  1  0.470086  0.789545  0.259630  1
  O  O6  1  0.529914  0.210455  0.740370  1
  O  O7  1  0.210455  0.470086  0.680541  1
  O  O8  1  0.185148  0.314852  0.500000  1
  O  O9  1  0.314852  0.814852  0.129702  1
  O  O10  1  0.685148  0.185148  0.870298  1
  O  O11  1  0.814852  0.685148  0.500000  1
  O  O12  1  0.029914  0.289545  0.319459  1
  O  O13  1  0.289545  0.970086  0.259630  1
  O  O14  1  0.710455  0.029914  0.740370  1
  O  O15  1  0.970086  0.710455  0.680541  1
