# generated using pymatgen
data_YLu3(Nb3Si4)2
_symmetry_space_group_name_H-M   'P 1'
_cell_length_a   7.03747109
_cell_length_b   7.03998485
_cell_length_c   12.96131600
_cell_angle_alpha   90.00000000
_cell_angle_beta   90.00000000
_cell_angle_gamma   89.99527528
_symmetry_Int_Tables_number   1
_chemical_formula_structural   YLu3(Nb3Si4)2
_chemical_formula_sum   'Y2 Lu6 Nb12 Si16'
_cell_volume   642.15141701
_cell_formula_units_Z   2
loop_
 _symmetry_equiv_pos_site_id
 _symmetry_equiv_pos_as_xyz
  1  'x, y, z'
loop_
 _atom_site_type_symbol
 _atom_site_label
 _atom_site_symmetry_multiplicity
 _atom_site_fract_x
 _atom_site_fract_y
 _atom_site_fract_z
 _atom_site_occupancy
  Y  Y0  1  0.997804  0.340780  0.217962  1
  Y  Y1  1  0.002196  0.659220  0.717962  1
  Lu  Lu2  1  0.159251  0.499295  0.468451  1
  Lu  Lu3  1  0.500804  0.840979  0.031416  1
  Lu  Lu4  1  0.840749  0.500705  0.968451  1
  Lu  Lu5  1  0.499196  0.159021  0.531416  1
  Lu  Lu6  1  0.341714  0.000088  0.781904  1
  Lu  Lu7  1  0.658286  0.999912  0.281904  1
  Nb  Nb8  1  0.171465  0.170504  0.999834  1
  Nb  Nb9  1  0.828535  0.829496  0.499834  1
  Nb  Nb10  1  0.329328  0.671512  0.250138  1
  Nb  Nb11  1  0.670672  0.328488  0.750138  1
  Nb  Nb12  1  0.153191  0.993969  0.376470  1
  Nb  Nb13  1  0.846809  0.006031  0.876470  1
  Nb  Nb14  1  0.506341  0.652914  0.626040  1
  Nb  Nb15  1  0.348106  0.492665  0.874192  1
  Nb  Nb16  1  0.493659  0.347086  0.126040  1
  Nb  Nb17  1  0.651894  0.507335  0.374192  1
  Nb  Nb18  1  0.993801  0.153067  0.623660  1
  Nb  Nb19  1  0.006199  0.846933  0.123660  1
  Si  Si20  1  0.297178  0.043985  0.186264  1
  Si  Si21  1  0.702822  0.956015  0.686264  1
  Si  Si22  1  0.454737  0.796262  0.436212  1
  Si  Si23  1  0.205464  0.546306  0.063101  1
  Si  Si24  1  0.545263  0.203738  0.936212  1
  Si  Si25  1  0.794536  0.453694  0.563101  1
  Si  Si26  1  0.045521  0.294099  0.814284  1
  Si  Si27  1  0.954479  0.705901  0.314284  1
  Si  Si28  1  0.367073  0.294327  0.319955  1
  Si  Si29  1  0.632927  0.705673  0.819955  1
  Si  Si30  1  0.206961  0.867452  0.568352  1
  Si  Si31  1  0.135077  0.795172  0.931223  1
  Si  Si32  1  0.793039  0.132548  0.068352  1
  Si  Si33  1  0.864923  0.204828  0.431223  1
  Si  Si34  1  0.296265  0.364110  0.680541  1
  Si  Si35  1  0.703735  0.635890  0.180541  1
