# generated using pymatgen
data_Tb7Lu9(In3Ir)2
_symmetry_space_group_name_H-M   'P 1'
_cell_length_a   10.16747626
_cell_length_b   10.17461698
_cell_length_c   7.11635200
_cell_angle_alpha   90.05885217
_cell_angle_beta   90.01293842
_cell_angle_gamma   119.98990891
_symmetry_Int_Tables_number   1
_chemical_formula_structural   Tb7Lu9(In3Ir)2
_chemical_formula_sum   'Tb7 Lu9 In6 Ir2'
_cell_volume   637.62164963
_cell_formula_units_Z   1
loop_
 _symmetry_equiv_pos_site_id
 _symmetry_equiv_pos_as_xyz
  1  'x, y, z'
loop_
 _atom_site_type_symbol
 _atom_site_label
 _atom_site_symmetry_multiplicity
 _atom_site_fract_x
 _atom_site_fract_y
 _atom_site_fract_z
 _atom_site_occupancy
  Tb  Tb0  1  0.934325  0.466934  0.788031  1
  Tb  Tb1  1  0.532646  0.466895  0.787829  1
  Tb  Tb2  1  0.467786  0.935518  0.287131  1
  Tb  Tb3  1  0.065312  0.532449  0.287189  1
  Tb  Tb4  1  0.467061  0.532487  0.287067  1
  Tb  Tb5  1  0.999875  0.999743  0.774242  1
  Tb  Tb6  1  0.000135  0.000266  0.273929  1
  Lu  Lu7  1  0.822854  0.645538  0.491496  1
  Lu  Lu8  1  0.354370  0.176459  0.492806  1
  Lu  Lu9  1  0.822212  0.176398  0.493047  1
  Lu  Lu10  1  0.176645  0.353458  0.990384  1
  Lu  Lu11  1  0.645006  0.823605  0.989416  1
  Lu  Lu12  1  0.178441  0.823748  0.989608  1
  Lu  Lu13  1  0.666198  0.332286  0.172710  1
  Lu  Lu14  1  0.334069  0.668214  0.671619  1
  Lu  Lu15  1  0.534350  0.068780  0.788239  1
  In  In16  1  0.836438  0.673153  0.041907  1
  In  In17  1  0.328078  0.163288  0.041118  1
  In  In18  1  0.834989  0.162963  0.041261  1
  In  In19  1  0.163723  0.327192  0.541053  1
  In  In20  1  0.673298  0.836685  0.540639  1
  In  In21  1  0.163662  0.836783  0.540774  1
  Ir  Ir22  1  0.665680  0.331136  0.558486  1
  Ir  Ir23  1  0.332845  0.666023  0.056091  1
