# generated using pymatgen
data_Yb2ErTm17Pt16
_symmetry_space_group_name_H-M   'P 1'
_cell_length_a   7.42199400
_cell_length_b   7.50996082
_cell_length_c   14.58470800
_cell_angle_alpha   89.99090587
_cell_angle_beta   89.99811639
_cell_angle_gamma   90.23787448
_symmetry_Int_Tables_number   1
_chemical_formula_structural   Yb2ErTm17Pt16
_chemical_formula_sum   'Yb2 Er1 Tm17 Pt16'
_cell_volume   812.92833291
_cell_formula_units_Z   1
loop_
 _symmetry_equiv_pos_site_id
 _symmetry_equiv_pos_as_xyz
  1  'x, y, z'
loop_
 _atom_site_type_symbol
 _atom_site_label
 _atom_site_symmetry_multiplicity
 _atom_site_fract_x
 _atom_site_fract_y
 _atom_site_fract_z
 _atom_site_occupancy
  Yb  Yb0  1  0.498818  0.320729  0.907338  1
  Yb  Yb1  1  0.500970  0.679375  0.407583  1
  Er  Er2  1  0.999135  0.820638  0.092769  1
  Tm  Tm3  1  0.681009  0.989849  0.250568  1
  Tm  Tm4  1  0.182725  0.510116  0.250884  1
  Tm  Tm5  1  0.817079  0.490020  0.750554  1
  Tm  Tm6  1  0.319291  0.010110  0.750385  1
  Tm  Tm7  1  0.655179  0.833391  0.621619  1
  Tm  Tm8  1  0.155058  0.665428  0.877197  1
  Tm  Tm9  1  0.845372  0.334266  0.377561  1
  Tm  Tm10  1  0.345352  0.166934  0.121736  1
  Tm  Tm11  1  0.345898  0.166265  0.377482  1
  Tm  Tm12  1  0.845355  0.332263  0.122114  1
  Tm  Tm13  1  0.154671  0.667808  0.622040  1
  Tm  Tm14  1  0.654389  0.833415  0.877284  1
  Tm  Tm15  1  0.998423  0.819976  0.406653  1
  Tm  Tm16  1  0.498360  0.682062  0.094354  1
  Tm  Tm17  1  0.501293  0.317782  0.594363  1
  Tm  Tm18  1  0.001760  0.181197  0.906583  1
  Tm  Tm19  1  0.001663  0.180402  0.592979  1
  Pt  Pt20  1  0.818943  0.642879  0.249160  1
  Pt  Pt21  1  0.314535  0.859798  0.246718  1
  Pt  Pt22  1  0.685870  0.140016  0.746178  1
  Pt  Pt23  1  0.180102  0.356558  0.748003  1
  Pt  Pt24  1  0.547748  0.383383  0.248040  1
  Pt  Pt25  1  0.046073  0.115750  0.250591  1
  Pt  Pt26  1  0.954207  0.884739  0.750127  1
  Pt  Pt27  1  0.452125  0.616192  0.747721  1
  Pt  Pt28  1  0.819376  0.529320  0.545488  1
  Pt  Pt29  1  0.312376  0.963023  0.958261  1
  Pt  Pt30  1  0.687743  0.037119  0.458802  1
  Pt  Pt31  1  0.180802  0.469202  0.044620  1
  Pt  Pt32  1  0.177603  0.461565  0.458806  1
  Pt  Pt33  1  0.684578  0.028343  0.043432  1
  Pt  Pt34  1  0.313584  0.972728  0.543890  1
  Pt  Pt35  1  0.822536  0.537358  0.958123  1
