# generated using pymatgen
data_Li4TmUS6
_symmetry_space_group_name_H-M   'P 1'
_cell_length_a   6.57790380
_cell_length_b   6.57790267
_cell_length_c   6.34150800
_cell_angle_alpha   79.95447140
_cell_angle_beta   79.95447315
_cell_angle_gamma   120.50914795
_symmetry_Int_Tables_number   1
_chemical_formula_structural   Li4TmUS6
_chemical_formula_sum   'Li4 Tm1 U1 S6'
_cell_volume   221.30834809
_cell_formula_units_Z   1
loop_
 _symmetry_equiv_pos_site_id
 _symmetry_equiv_pos_as_xyz
  1  'x, y, z'
loop_
 _atom_site_type_symbol
 _atom_site_label
 _atom_site_symmetry_multiplicity
 _atom_site_fract_x
 _atom_site_fract_y
 _atom_site_fract_z
 _atom_site_occupancy
  Li  Li0  1  0.000272  0.999728  0.000000  1
  Li  Li1  1  0.497685  0.502315  0.500000  1
  Li  Li2  1  0.834854  0.165146  0.500000  1
  Li  Li3  1  0.167020  0.832980  0.500000  1
  Tm  Tm4  1  0.666122  0.333878  0.000000  1
  U  U5  1  0.333251  0.666749  0.000000  1
  S  S6  1  0.251278  0.257475  0.254613  1
  S  S7  1  0.419404  0.077618  0.747704  1
  S  S8  1  0.089395  0.424187  0.751818  1
  S  S9  1  0.742525  0.748722  0.745387  1
  S  S10  1  0.575813  0.910605  0.248182  1
  S  S11  1  0.922382  0.580596  0.252296  1
