# generated using pymatgen
data_LiNd8(CuPd11)2
_symmetry_space_group_name_H-M   'P 1'
_cell_length_a   8.38784300
_cell_length_b   8.48722800
_cell_length_c   8.56765200
_cell_angle_alpha   90.00000000
_cell_angle_beta   90.00000000
_cell_angle_gamma   90.00000000
_symmetry_Int_Tables_number   1
_chemical_formula_structural   LiNd8(CuPd11)2
_chemical_formula_sum   'Li1 Nd8 Cu2 Pd22'
_cell_volume   609.92717023
_cell_formula_units_Z   1
loop_
 _symmetry_equiv_pos_site_id
 _symmetry_equiv_pos_as_xyz
  1  'x, y, z'
loop_
 _atom_site_type_symbol
 _atom_site_label
 _atom_site_symmetry_multiplicity
 _atom_site_fract_x
 _atom_site_fract_y
 _atom_site_fract_z
 _atom_site_occupancy
  Li  Li0  1  0.000000  0.000000  0.000000  1
  Nd  Nd1  1  0.250083  0.248405  0.252820  1
  Nd  Nd2  1  0.749917  0.751595  0.747180  1
  Nd  Nd3  1  0.749917  0.751595  0.252820  1
  Nd  Nd4  1  0.749917  0.248405  0.747180  1
  Nd  Nd5  1  0.250083  0.248405  0.747180  1
  Nd  Nd6  1  0.250083  0.751595  0.252820  1
  Nd  Nd7  1  0.250083  0.751595  0.747180  1
  Nd  Nd8  1  0.749917  0.248405  0.252820  1
  Cu  Cu9  1  0.266544  0.500000  0.000000  1
  Cu  Cu10  1  0.733456  0.500000  0.000000  1
  Pd  Pd11  1  0.000000  0.258949  0.500000  1
  Pd  Pd12  1  0.500000  0.269338  0.000000  1
  Pd  Pd13  1  0.000000  0.741051  0.500000  1
  Pd  Pd14  1  0.500000  0.730662  0.000000  1
  Pd  Pd15  1  0.500000  0.000000  0.261436  1
  Pd  Pd16  1  0.259511  0.000000  0.500000  1
  Pd  Pd17  1  0.500000  0.000000  0.738564  1
  Pd  Pd18  1  0.740489  0.000000  0.500000  1
  Pd  Pd19  1  0.000000  0.500000  0.263409  1
  Pd  Pd20  1  0.000000  0.500000  0.736591  1
  Pd  Pd21  1  0.253755  0.500000  0.500000  1
  Pd  Pd22  1  0.746245  0.500000  0.500000  1
  Pd  Pd23  1  0.500000  0.255231  0.500000  1
  Pd  Pd24  1  0.500000  0.744769  0.500000  1
  Pd  Pd25  1  0.500000  0.500000  0.250246  1
  Pd  Pd26  1  0.500000  0.500000  0.749754  1
  Pd  Pd27  1  0.296141  0.000000  0.000000  1
  Pd  Pd28  1  0.703859  0.000000  0.000000  1
  Pd  Pd29  1  0.000000  0.304286  0.000000  1
  Pd  Pd30  1  0.000000  0.695714  0.000000  1
  Pd  Pd31  1  0.000000  0.000000  0.288388  1
  Pd  Pd32  1  0.000000  0.000000  0.711612  1
