# generated using pymatgen
data_Y10TmIn9Rh4
_symmetry_space_group_name_H-M   'P 1'
_cell_length_a   13.12596168
_cell_length_b   13.13425278
_cell_length_c   3.68687900
_cell_angle_alpha   90.00000000
_cell_angle_beta   90.00000000
_cell_angle_gamma   111.56379262
_symmetry_Int_Tables_number   1
_chemical_formula_structural   Y10TmIn9Rh4
_chemical_formula_sum   'Y10 Tm1 In9 Rh4'
_cell_volume   591.12932843
_cell_formula_units_Z   1
loop_
 _symmetry_equiv_pos_site_id
 _symmetry_equiv_pos_as_xyz
  1  'x, y, z'
loop_
 _atom_site_type_symbol
 _atom_site_label
 _atom_site_symmetry_multiplicity
 _atom_site_fract_x
 _atom_site_fract_y
 _atom_site_fract_z
 _atom_site_occupancy
  Y  Y0  1  0.922244  0.582615  0.000000  1
  Y  Y1  1  0.417192  0.078234  0.000000  1
  Y  Y2  1  0.582841  0.921716  0.000000  1
  Y  Y3  1  0.624868  0.375302  0.000000  1
  Y  Y4  1  0.374816  0.624993  0.000000  1
  Y  Y5  1  0.840309  0.161152  0.000000  1
  Y  Y6  1  0.160337  0.839399  0.000000  1
  Y  Y7  1  0.999964  0.000127  0.000000  1
  Y  Y8  1  0.311851  0.312248  0.000000  1
  Y  Y9  1  0.687726  0.687591  0.000000  1
  Tm  Tm10  1  0.080719  0.417724  0.000000  1
  In  In11  1  0.842078  0.369014  0.500000  1
  In  In12  1  0.158497  0.630178  0.500000  1
  In  In13  1  0.368646  0.840609  0.500000  1
  In  In14  1  0.631343  0.159217  0.500000  1
  In  In15  1  0.075683  0.219472  0.500000  1
  In  In16  1  0.923789  0.781265  0.500000  1
  In  In17  1  0.218688  0.076219  0.500000  1
  In  In18  1  0.781233  0.923718  0.500000  1
  In  In19  1  0.499689  0.499901  0.500000  1
  Rh  Rh20  1  0.242801  0.448302  0.500000  1
  Rh  Rh21  1  0.754703  0.550973  0.500000  1
  Rh  Rh22  1  0.448835  0.245536  0.500000  1
  Rh  Rh23  1  0.551150  0.754497  0.500000  1
