# generated using pymatgen
data_Tb2PdPtPb
_symmetry_space_group_name_H-M   'P 1'
_cell_length_a   7.98688100
_cell_length_b   7.98638900
_cell_length_c   3.62412900
_cell_angle_alpha   90.00000000
_cell_angle_beta   90.00000000
_cell_angle_gamma   90.00000000
_symmetry_Int_Tables_number   1
_chemical_formula_structural   Tb2PdPtPb
_chemical_formula_sum   'Tb4 Pd2 Pt2 Pb2'
_cell_volume   231.16991939
_cell_formula_units_Z   2
loop_
 _symmetry_equiv_pos_site_id
 _symmetry_equiv_pos_as_xyz
  1  'x, y, z'
loop_
 _atom_site_type_symbol
 _atom_site_label
 _atom_site_symmetry_multiplicity
 _atom_site_fract_x
 _atom_site_fract_y
 _atom_site_fract_z
 _atom_site_occupancy
  Tb  Tb0  1  0.660827  0.171240  0.500000  1
  Tb  Tb1  1  0.176756  0.332512  0.500000  1
  Tb  Tb2  1  0.839173  0.671240  0.500000  1
  Tb  Tb3  1  0.323244  0.832512  0.500000  1
  Pd  Pd4  1  0.630075  0.868820  0.000000  1
  Pd  Pd5  1  0.869925  0.368820  0.000000  1
  Pt  Pt6  1  0.376387  0.121097  0.000000  1
  Pt  Pt7  1  0.123613  0.621097  0.000000  1
  Pb  Pb8  1  0.994787  0.006331  0.000000  1
  Pb  Pb9  1  0.505213  0.506331  0.000000  1
