# generated using pymatgen
data_TcAg2SbF12
_symmetry_space_group_name_H-M   'P 1'
_cell_length_a   5.68518856
_cell_length_b   5.98585732
_cell_length_c   8.27867600
_cell_angle_alpha   96.33609523
_cell_angle_beta   89.54843692
_cell_angle_gamma   90.40309513
_symmetry_Int_Tables_number   1
_chemical_formula_structural   TcAg2SbF12
_chemical_formula_sum   'Tc1 Ag2 Sb1 F12'
_cell_volume   279.99437595
_cell_formula_units_Z   1
loop_
 _symmetry_equiv_pos_site_id
 _symmetry_equiv_pos_as_xyz
  1  'x, y, z'
loop_
 _atom_site_type_symbol
 _atom_site_label
 _atom_site_symmetry_multiplicity
 _atom_site_fract_x
 _atom_site_fract_y
 _atom_site_fract_z
 _atom_site_occupancy
  Tc  Tc0  1  0.000000  0.000000  0.500000  1
  Ag  Ag1  1  0.000000  0.000000  0.000000  1
  Ag  Ag2  1  0.500000  0.500000  0.500000  1
  Sb  Sb3  1  0.500000  0.500000  0.000000  1
  F  F4  1  0.891660  0.004465  0.720237  1
  F  F5  1  0.161998  0.280519  0.558149  1
  F  F6  1  0.227339  0.649546  0.927957  1
  F  F7  1  0.355598  0.491821  0.210219  1
  F  F8  1  0.359315  0.213184  0.927352  1
  F  F9  1  0.277032  0.841831  0.551461  1
  F  F10  1  0.722968  0.158169  0.448539  1
  F  F11  1  0.640685  0.786816  0.072648  1
  F  F12  1  0.644402  0.508179  0.789781  1
  F  F13  1  0.772661  0.350454  0.072043  1
  F  F14  1  0.838002  0.719481  0.441851  1
  F  F15  1  0.108340  0.995535  0.279763  1
