# generated using pymatgen
data_KS8I3
_symmetry_space_group_name_H-M   'P 1'
_cell_length_a   8.32593620
_cell_length_b   10.95767055
_cell_length_c   11.74146070
_cell_angle_alpha   102.94259927
_cell_angle_beta   97.06784035
_cell_angle_gamma   110.64540060
_symmetry_Int_Tables_number   1
_chemical_formula_structural   KS8I3
_chemical_formula_sum   'K2 S16 I6'
_cell_volume   952.68008385
_cell_formula_units_Z   2
loop_
 _symmetry_equiv_pos_site_id
 _symmetry_equiv_pos_as_xyz
  1  'x, y, z'
loop_
 _atom_site_type_symbol
 _atom_site_label
 _atom_site_symmetry_multiplicity
 _atom_site_fract_x
 _atom_site_fract_y
 _atom_site_fract_z
 _atom_site_occupancy
  K  K0  1  0.129005  0.840540  0.139451  1
  K  K1  1  0.870995  0.159461  0.860549  1
  S  S2  1  0.765958  0.491984  0.120923  1
  S  S3  1  0.921167  0.386121  0.153827  1
  S  S4  1  0.182455  0.518214  0.190469  1
  S  S5  1  0.686844  0.556647  0.274191  1
  S  S6  1  0.852407  0.757578  0.360644  1
  S  S7  1  0.276076  0.591943  0.373150  1
  S  S8  1  0.267221  0.781744  0.430014  1
  S  S9  1  0.956569  0.236006  0.504902  1
  S  S10  1  0.043432  0.763994  0.495098  1
  S  S11  1  0.732780  0.218256  0.569987  1
  S  S12  1  0.723925  0.408058  0.626850  1
  S  S13  1  0.147593  0.242422  0.639356  1
  S  S14  1  0.313155  0.443353  0.725809  1
  S  S15  1  0.817545  0.481785  0.809531  1
  S  S16  1  0.078834  0.613879  0.846173  1
  S  S17  1  0.234041  0.508016  0.879077  1
  I  I18  1  0.688788  0.860916  0.969672  1
  I  I19  1  0.593947  0.910115  0.204651  1
  I  I20  1  0.236053  0.184439  0.272511  1
  I  I21  1  0.763946  0.815561  0.727489  1
  I  I22  1  0.406052  0.089885  0.795349  1
  I  I23  1  0.311212  0.139084  0.030328  1
