# generated using pymatgen
data_Np5(O4F)3
_symmetry_space_group_name_H-M   'P 1'
_cell_length_a   6.05378909
_cell_length_b   7.30944612
_cell_length_c   9.31633616
_cell_angle_alpha   103.74368703
_cell_angle_beta   108.36936366
_cell_angle_gamma   89.33678744
_symmetry_Int_Tables_number   1
_chemical_formula_structural   Np5(O4F)3
_chemical_formula_sum   'Np5 O12 F3'
_cell_volume   379.14152687
_cell_formula_units_Z   1
loop_
 _symmetry_equiv_pos_site_id
 _symmetry_equiv_pos_as_xyz
  1  'x, y, z'
loop_
 _atom_site_type_symbol
 _atom_site_label
 _atom_site_symmetry_multiplicity
 _atom_site_fract_x
 _atom_site_fract_y
 _atom_site_fract_z
 _atom_site_occupancy
  Np  Np0  1  0.969976  0.988381  0.993976  1
  Np  Np1  1  0.374579  0.606659  0.800174  1
  Np  Np2  1  0.823959  0.195668  0.598678  1
  Np  Np3  1  0.228814  0.813358  0.404706  1
  Np  Np4  1  0.599661  0.401231  0.199501  1
  O  O5  1  0.643335  0.783795  0.895528  1
  O  O6  1  0.149696  0.802148  0.900513  1
  O  O7  1  0.099424  0.402055  0.699658  1
  O  O8  1  0.894412  0.094458  0.802320  1
  O  O9  1  0.556612  0.016491  0.502726  1
  O  O10  1  0.043972  0.997313  0.496069  1
  O  O11  1  0.303787  0.708450  0.596733  1
  O  O12  1  0.707117  0.313070  0.387706  1
  O  O13  1  0.404223  0.624340  0.311727  1
  O  O14  1  0.796690  0.178201  0.087403  1
  O  O15  1  0.099756  0.901098  0.199271  1
  O  O16  1  0.493269  0.489667  0.011433  1
  F  F17  1  0.602462  0.403407  0.700275  1
  F  F18  1  0.916794  0.601904  0.297909  1
  F  F19  1  0.283832  0.198649  0.100133  1
