# generated using pymatgen
data_Tb3Nd16ScPb16
_symmetry_space_group_name_H-M   'P 1'
_cell_length_a   8.37812359
_cell_length_b   16.10244663
_cell_length_c   8.47377100
_cell_angle_alpha   90.05198536
_cell_angle_beta   89.95494640
_cell_angle_gamma   89.99952494
_symmetry_Int_Tables_number   1
_chemical_formula_structural   Tb3Nd16ScPb16
_chemical_formula_sum   'Tb3 Nd16 Sc1 Pb16'
_cell_volume   1143.18111415
_cell_formula_units_Z   1
loop_
 _symmetry_equiv_pos_site_id
 _symmetry_equiv_pos_as_xyz
  1  'x, y, z'
loop_
 _atom_site_type_symbol
 _atom_site_label
 _atom_site_symmetry_multiplicity
 _atom_site_fract_x
 _atom_site_fract_y
 _atom_site_fract_z
 _atom_site_occupancy
  Tb  Tb0  1  0.292765  0.750015  0.003646  1
  Tb  Tb1  1  0.207496  0.250005  0.503876  1
  Tb  Tb2  1  0.707384  0.250012  0.995917  1
  Nd  Nd3  1  0.624623  0.620344  0.158572  1
  Nd  Nd4  1  0.122798  0.879569  0.343234  1
  Nd  Nd5  1  0.375817  0.119537  0.841863  1
  Nd  Nd6  1  0.875996  0.381178  0.657831  1
  Nd  Nd7  1  0.375940  0.380401  0.841846  1
  Nd  Nd8  1  0.876163  0.118808  0.657742  1
  Nd  Nd9  1  0.624788  0.879670  0.158409  1
  Nd  Nd10  1  0.122922  0.620370  0.343254  1
  Nd  Nd11  1  0.467579  0.600412  0.677252  1
  Nd  Nd12  1  0.966827  0.899587  0.821284  1
  Nd  Nd13  1  0.532792  0.099325  0.322195  1
  Nd  Nd14  1  0.032783  0.400070  0.177348  1
  Nd  Nd15  1  0.532623  0.400692  0.322177  1
  Nd  Nd16  1  0.032643  0.099928  0.177499  1
  Nd  Nd17  1  0.467521  0.899616  0.677098  1
  Nd  Nd18  1  0.966620  0.600471  0.821332  1
  Sc  Sc19  1  0.791096  0.750017  0.495504  1
  Pb  Pb20  1  0.717925  0.454948  0.968690  1
  Pb  Pb21  1  0.218182  0.045063  0.531563  1
  Pb  Pb22  1  0.281855  0.954015  0.032102  1
  Pb  Pb23  1  0.781657  0.548212  0.469571  1
  Pb  Pb24  1  0.281771  0.545911  0.031915  1
  Pb  Pb25  1  0.781625  0.951782  0.469498  1
  Pb  Pb26  1  0.717812  0.045160  0.968577  1
  Pb  Pb27  1  0.218100  0.454950  0.531617  1
  Pb  Pb28  1  0.433762  0.750000  0.378436  1
  Pb  Pb29  1  0.927757  0.750057  0.127280  1
  Pb  Pb30  1  0.571550  0.249879  0.624129  1
  Pb  Pb31  1  0.070472  0.249911  0.874940  1
  Pb  Pb32  1  0.660720  0.750006  0.841473  1
  Pb  Pb33  1  0.155351  0.750037  0.651695  1
  Pb  Pb34  1  0.342697  0.250002  0.153238  1
  Pb  Pb35  1  0.841588  0.250041  0.347394  1
