# generated using pymatgen
data_Ba4CuRh3Br2
_symmetry_space_group_name_H-M   'P 1'
_cell_length_a   4.38485900
_cell_length_b   4.38485850
_cell_length_c   18.79104900
_cell_angle_alpha   90.00000000
_cell_angle_beta   90.00000000
_cell_angle_gamma   119.99999621
_symmetry_Int_Tables_number   1
_chemical_formula_structural   Ba4CuRh3Br2
_chemical_formula_sum   'Ba4 Cu1 Rh3 Br2'
_cell_volume   312.89086899
_cell_formula_units_Z   1
loop_
 _symmetry_equiv_pos_site_id
 _symmetry_equiv_pos_as_xyz
  1  'x, y, z'
loop_
 _atom_site_type_symbol
 _atom_site_label
 _atom_site_symmetry_multiplicity
 _atom_site_fract_x
 _atom_site_fract_y
 _atom_site_fract_z
 _atom_site_occupancy
  Ba  Ba0  1  0.000000  0.000000  0.116381  1
  Ba  Ba1  1  0.000000  0.000000  0.883490  1
  Ba  Ba2  1  0.000000  0.000000  0.613906  1
  Ba  Ba3  1  0.000000  0.000000  0.386180  1
  Cu  Cu4  1  0.333333  0.666667  0.500272  1
  Rh  Rh5  1  0.666667  0.333333  0.499534  1
  Rh  Rh6  1  0.666667  0.333333  0.000393  1
  Rh  Rh7  1  0.333333  0.666667  0.999602  1
  Br  Br8  1  0.333333  0.666667  0.252028  1
  Br  Br9  1  0.666667  0.333333  0.748213  1
