# generated using pymatgen
data_Dy3ThSiI6
_symmetry_space_group_name_H-M   'P 1'
_cell_length_a   4.24148300
_cell_length_b   14.12401914
_cell_length_c   14.89337664
_cell_angle_alpha   89.36338485
_cell_angle_beta   90.00000000
_cell_angle_gamma   90.00000000
_symmetry_Int_Tables_number   1
_chemical_formula_structural   Dy3ThSiI6
_chemical_formula_sum   'Dy6 Th2 Si2 I12'
_cell_volume   892.15926971
_cell_formula_units_Z   2
loop_
 _symmetry_equiv_pos_site_id
 _symmetry_equiv_pos_as_xyz
  1  'x, y, z'
loop_
 _atom_site_type_symbol
 _atom_site_label
 _atom_site_symmetry_multiplicity
 _atom_site_fract_x
 _atom_site_fract_y
 _atom_site_fract_z
 _atom_site_occupancy
  Dy  Dy0  1  0.500000  0.112788  0.349906  1
  Dy  Dy1  1  0.500000  0.887212  0.650094  1
  Dy  Dy2  1  0.500000  0.612305  0.149910  1
  Dy  Dy3  1  0.500000  0.387695  0.850090  1
  Dy  Dy4  1  0.000000  0.610753  0.925528  1
  Dy  Dy5  1  0.000000  0.389247  0.074472  1
  Th  Th6  1  0.000000  0.109982  0.573879  1
  Th  Th7  1  0.000000  0.890018  0.426121  1
  Si  Si8  1  0.500000  0.000000  0.500000  1
  Si  Si9  1  0.500000  0.500000  0.000000  1
  I  I10  1  0.500000  0.247376  0.161955  1
  I  I11  1  0.500000  0.752624  0.838045  1
  I  I12  1  0.500000  0.739556  0.334259  1
  I  I13  1  0.500000  0.260444  0.665741  1
  I  I14  1  0.000000  0.259808  0.409052  1
  I  I15  1  0.000000  0.740192  0.590948  1
  I  I16  1  0.000000  0.755904  0.084638  1
  I  I17  1  0.000000  0.244096  0.915362  1
  I  I18  1  0.000000  0.004972  0.237353  1
  I  I19  1  0.000000  0.995028  0.762647  1
  I  I20  1  0.000000  0.499353  0.256951  1
  I  I21  1  0.000000  0.500647  0.743049  1
