# generated using pymatgen
data_Dy3Lu(Tc3Ge4)2
_symmetry_space_group_name_H-M   'P 1'
_cell_length_a   8.31077496
_cell_length_b   5.67985329
_cell_length_c   7.00029893
_cell_angle_alpha   76.22364508
_cell_angle_beta   90.51193495
_cell_angle_gamma   89.98042675
_symmetry_Int_Tables_number   1
_chemical_formula_structural   Dy3Lu(Tc3Ge4)2
_chemical_formula_sum   'Dy3 Lu1 Tc6 Ge8'
_cell_volume   320.92219544
_cell_formula_units_Z   1
loop_
 _symmetry_equiv_pos_site_id
 _symmetry_equiv_pos_as_xyz
  1  'x, y, z'
loop_
 _atom_site_type_symbol
 _atom_site_label
 _atom_site_symmetry_multiplicity
 _atom_site_fract_x
 _atom_site_fract_y
 _atom_site_fract_z
 _atom_site_occupancy
  Dy  Dy0  1  0.555022  0.076470  0.245526  1
  Dy  Dy1  1  0.054620  0.426948  0.753519  1
  Dy  Dy2  1  0.443261  0.922105  0.755896  1
  Lu  Lu3  1  0.946638  0.575570  0.242154  1
  Tc  Tc4  1  0.206689  0.128313  0.113066  1
  Tc  Tc5  1  0.707132  0.392112  0.885784  1
  Tc  Tc6  1  0.795288  0.878677  0.887571  1
  Tc  Tc7  1  0.292896  0.600831  0.115664  1
  Tc  Tc8  1  0.999149  0.000813  0.498695  1
  Tc  Tc9  1  0.499311  0.499471  0.499446  1
  Ge  Ge10  1  0.902014  0.118930  0.127138  1
  Ge  Ge11  1  0.404271  0.380340  0.869229  1
  Ge  Ge12  1  0.098435  0.880367  0.878302  1
  Ge  Ge13  1  0.598350  0.619592  0.129782  1
  Ge  Ge14  1  0.748932  0.222905  0.581197  1
  Ge  Ge15  1  0.244573  0.277720  0.429532  1
  Ge  Ge16  1  0.249575  0.778379  0.414128  1
  Ge  Ge17  1  0.753844  0.720456  0.573373  1
