# generated using pymatgen
data_CsCaHfF7
_symmetry_space_group_name_H-M   'P 1'
_cell_length_a   6.74205289
_cell_length_b   6.74205209
_cell_length_c   8.67071700
_cell_angle_alpha   90.00000000
_cell_angle_beta   90.00000000
_cell_angle_gamma   117.91339373
_symmetry_Int_Tables_number   1
_chemical_formula_structural   CsCaHfF7
_chemical_formula_sum   'Cs2 Ca2 Hf2 F14'
_cell_volume   348.27524749
_cell_formula_units_Z   2
loop_
 _symmetry_equiv_pos_site_id
 _symmetry_equiv_pos_as_xyz
  1  'x, y, z'
loop_
 _atom_site_type_symbol
 _atom_site_label
 _atom_site_symmetry_multiplicity
 _atom_site_fract_x
 _atom_site_fract_y
 _atom_site_fract_z
 _atom_site_occupancy
  Cs  Cs0  1  0.000000  0.000000  0.000000  1
  Cs  Cs1  1  0.000000  0.000000  0.500000  1
  Ca  Ca2  1  0.311385  0.688615  0.750000  1
  Ca  Ca3  1  0.688615  0.311385  0.250000  1
  Hf  Hf4  1  0.692351  0.307649  0.750000  1
  Hf  Hf5  1  0.307649  0.692351  0.250000  1
  F  F6  1  0.354400  0.064556  0.750000  1
  F  F7  1  0.645600  0.935444  0.250000  1
  F  F8  1  0.935444  0.645600  0.750000  1
  F  F9  1  0.064556  0.354400  0.250000  1
  F  F10  1  0.514174  0.485826  0.750000  1
  F  F11  1  0.485826  0.514174  0.250000  1
  F  F12  1  0.699201  0.300799  0.983480  1
  F  F13  1  0.300799  0.699201  0.016520  1
  F  F14  1  0.300799  0.699201  0.483480  1
  F  F15  1  0.699201  0.300799  0.516520  1
  F  F16  1  0.667701  0.983306  0.750000  1
  F  F17  1  0.332299  0.016694  0.250000  1
  F  F18  1  0.016694  0.332299  0.750000  1
  F  F19  1  0.983306  0.667701  0.250000  1
