# generated using pymatgen
data_TbY3GaSb5Rh7
_symmetry_space_group_name_H-M   'P 1'
_cell_length_a   7.56789336
_cell_length_b   7.57037853
_cell_length_c   7.57037860
_cell_angle_alpha   108.96392864
_cell_angle_beta   109.71314465
_cell_angle_gamma   109.71315248
_symmetry_Int_Tables_number   1
_chemical_formula_structural   TbY3GaSb5Rh7
_chemical_formula_sum   'Tb1 Y3 Ga1 Sb5 Rh7'
_cell_volume   333.96067278
_cell_formula_units_Z   1
loop_
 _symmetry_equiv_pos_site_id
 _symmetry_equiv_pos_as_xyz
  1  'x, y, z'
loop_
 _atom_site_type_symbol
 _atom_site_label
 _atom_site_symmetry_multiplicity
 _atom_site_fract_x
 _atom_site_fract_y
 _atom_site_fract_z
 _atom_site_occupancy
  Tb  Tb0  1  0.482551  0.490291  0.490291  1
  Y  Y1  1  0.517508  0.007560  0.007560  1
  Y  Y2  1  0.999982  0.490075  0.007557  1
  Y  Y3  1  0.999982  0.007557  0.490075  1
  Ga  Ga4  1  0.999840  0.328160  0.328160  1
  Sb  Sb5  1  0.683948  0.998307  0.682019  1
  Sb  Sb6  1  0.683948  0.682019  0.998307  1
  Sb  Sb7  1  0.000073  0.680284  0.680284  1
  Sb  Sb8  1  0.316126  0.997786  0.314126  1
  Sb  Sb9  1  0.316126  0.314126  0.997786  1
  Rh  Rh10  1  0.000059  0.018026  0.018026  1
  Rh  Rh11  1  0.499978  0.749131  0.249127  1
  Rh  Rh12  1  0.751586  0.497003  0.248527  1
  Rh  Rh13  1  0.248365  0.745167  0.496854  1
  Rh  Rh14  1  0.248365  0.496854  0.745167  1
  Rh  Rh15  1  0.499978  0.249127  0.749131  1
  Rh  Rh16  1  0.751586  0.248527  0.497003  1
