# generated using pymatgen
data_Tb17Lu2InIr12
_symmetry_space_group_name_H-M   'P 1'
_cell_length_a   10.91837500
_cell_length_b   10.91837500
_cell_length_c   6.32252900
_cell_angle_alpha   90.00000000
_cell_angle_beta   90.00000000
_cell_angle_gamma   90.00000000
_symmetry_Int_Tables_number   1
_chemical_formula_structural   Tb17Lu2InIr12
_chemical_formula_sum   'Tb17 Lu2 In1 Ir12'
_cell_volume   753.71445229
_cell_formula_units_Z   1
loop_
 _symmetry_equiv_pos_site_id
 _symmetry_equiv_pos_as_xyz
  1  'x, y, z'
loop_
 _atom_site_type_symbol
 _atom_site_label
 _atom_site_symmetry_multiplicity
 _atom_site_fract_x
 _atom_site_fract_y
 _atom_site_fract_z
 _atom_site_occupancy
  Tb  Tb0  1  0.283445  0.084738  0.381026  1
  Tb  Tb1  1  0.291419  0.911434  0.881001  1
  Tb  Tb2  1  0.708581  0.088566  0.881001  1
  Tb  Tb3  1  0.716555  0.915262  0.381026  1
  Tb  Tb4  1  0.587981  0.789732  0.883130  1
  Tb  Tb5  1  0.587149  0.210192  0.379075  1
  Tb  Tb6  1  0.412851  0.789808  0.379075  1
  Tb  Tb7  1  0.412019  0.210268  0.883130  1
  Tb  Tb8  1  0.210192  0.412851  0.620925  1
  Tb  Tb9  1  0.210268  0.587981  0.116870  1
  Tb  Tb10  1  0.789732  0.412019  0.116870  1
  Tb  Tb11  1  0.789808  0.587149  0.620925  1
  Tb  Tb12  1  0.911434  0.708581  0.118999  1
  Tb  Tb13  1  0.915262  0.283445  0.618974  1
  Tb  Tb14  1  0.084738  0.716555  0.618974  1
  Tb  Tb15  1  0.088566  0.291419  0.118999  1
  Tb  Tb16  1  0.000000  0.000000  0.000000  1
  Lu  Lu17  1  0.500000  0.500000  0.000000  1
  Lu  Lu18  1  0.500000  0.500000  0.500000  1
  In  In19  1  0.000000  0.000000  0.500000  1
  Ir  Ir20  1  0.845737  0.156211  0.245518  1
  Ir  Ir21  1  0.843789  0.845737  0.754482  1
  Ir  Ir22  1  0.156211  0.154263  0.754482  1
  Ir  Ir23  1  0.154263  0.843789  0.245518  1
  Ir  Ir24  1  0.651751  0.349564  0.746761  1
  Ir  Ir25  1  0.650436  0.651751  0.253239  1
  Ir  Ir26  1  0.349564  0.348249  0.253239  1
  Ir  Ir27  1  0.348249  0.650436  0.746761  1
  Ir  Ir28  1  0.500000  0.000000  0.125928  1
  Ir  Ir29  1  0.500000  0.000000  0.620882  1
  Ir  Ir30  1  0.000000  0.500000  0.874072  1
  Ir  Ir31  1  0.000000  0.500000  0.379118  1
