# generated using pymatgen
data_SmDy7Hg4
_symmetry_space_group_name_H-M   'P 1'
_cell_length_a   5.12808100
_cell_length_b   7.05528753
_cell_length_c   9.33193191
_cell_angle_alpha   89.70580199
_cell_angle_beta   90.00000000
_cell_angle_gamma   90.00000000
_symmetry_Int_Tables_number   1
_chemical_formula_structural   SmDy7Hg4
_chemical_formula_sum   'Sm1 Dy7 Hg4'
_cell_volume   337.62564722
_cell_formula_units_Z   1
loop_
 _symmetry_equiv_pos_site_id
 _symmetry_equiv_pos_as_xyz
  1  'x, y, z'
loop_
 _atom_site_type_symbol
 _atom_site_label
 _atom_site_symmetry_multiplicity
 _atom_site_fract_x
 _atom_site_fract_y
 _atom_site_fract_z
 _atom_site_occupancy
  Sm  Sm0  1  0.750000  0.330890  0.924773  1
  Dy  Dy1  1  0.250000  0.017616  0.806042  1
  Dy  Dy2  1  0.250000  0.519145  0.691646  1
  Dy  Dy3  1  0.750000  0.979762  0.195045  1
  Dy  Dy4  1  0.750000  0.482381  0.306917  1
  Dy  Dy5  1  0.250000  0.165315  0.426098  1
  Dy  Dy6  1  0.250000  0.669223  0.074720  1
  Dy  Dy7  1  0.750000  0.833513  0.575209  1
  Hg  Hg8  1  0.250000  0.733840  0.395968  1
  Hg  Hg9  1  0.250000  0.231035  0.106043  1
  Hg  Hg10  1  0.750000  0.266115  0.599486  1
  Hg  Hg11  1  0.750000  0.771165  0.898051  1
