# generated using pymatgen
data_DyY3Ta4(Co4P3)4
_symmetry_space_group_name_H-M   'P 1'
_cell_length_a   3.69103500
_cell_length_b   10.53698702
_cell_length_c   11.99231802
_cell_angle_alpha   90.00700452
_cell_angle_beta   90.00000000
_cell_angle_gamma   90.00000000
_symmetry_Int_Tables_number   1
_chemical_formula_structural   DyY3Ta4(Co4P3)4
_chemical_formula_sum   'Dy1 Y3 Ta4 Co16 P12'
_cell_volume   466.40988067
_cell_formula_units_Z   1
loop_
 _symmetry_equiv_pos_site_id
 _symmetry_equiv_pos_as_xyz
  1  'x, y, z'
loop_
 _atom_site_type_symbol
 _atom_site_label
 _atom_site_symmetry_multiplicity
 _atom_site_fract_x
 _atom_site_fract_y
 _atom_site_fract_z
 _atom_site_occupancy
  Dy  Dy0  1  0.750000  0.082518  0.794767  1
  Y  Y1  1  0.250000  0.582788  0.705325  1
  Y  Y2  1  0.250000  0.917179  0.205120  1
  Y  Y3  1  0.750000  0.417085  0.294899  1
  Ta  Ta4  1  0.250000  0.706567  0.989020  1
  Ta  Ta5  1  0.250000  0.793665  0.489298  1
  Ta  Ta6  1  0.750000  0.293579  0.010650  1
  Ta  Ta7  1  0.750000  0.206328  0.510940  1
  Co  Co8  1  0.250000  0.406299  0.490337  1
  Co  Co9  1  0.250000  0.093694  0.989953  1
  Co  Co10  1  0.750000  0.593676  0.509733  1
  Co  Co11  1  0.750000  0.906488  0.009462  1
  Co  Co12  1  0.250000  0.222706  0.176784  1
  Co  Co13  1  0.250000  0.277067  0.676960  1
  Co  Co14  1  0.750000  0.777402  0.823091  1
  Co  Co15  1  0.750000  0.722790  0.323158  1
  Co  Co16  1  0.250000  0.888707  0.701351  1
  Co  Co17  1  0.250000  0.611614  0.201088  1
  Co  Co18  1  0.750000  0.111611  0.298926  1
  Co  Co19  1  0.750000  0.388205  0.798869  1
  Co  Co20  1  0.250000  0.465008  0.933085  1
  Co  Co21  1  0.250000  0.034901  0.433376  1
  Co  Co22  1  0.750000  0.534875  0.066736  1
  Co  Co23  1  0.750000  0.965229  0.566974  1
  P  P24  1  0.250000  0.422251  0.116187  1
  P  P25  1  0.250000  0.077849  0.616429  1
  P  P26  1  0.750000  0.577781  0.883782  1
  P  P27  1  0.750000  0.922329  0.383873  1
  P  P28  1  0.250000  0.269265  0.861346  1
  P  P29  1  0.250000  0.230265  0.361538  1
  P  P30  1  0.750000  0.730394  0.138479  1
  P  P31  1  0.750000  0.769681  0.638612  1
  P  P32  1  0.250000  0.591673  0.390075  1
  P  P33  1  0.250000  0.908624  0.889984  1
  P  P34  1  0.750000  0.408323  0.609934  1
  P  P35  1  0.750000  0.091584  0.109860  1
