# generated using pymatgen
data_Lu3Co4P6Rh5
_symmetry_space_group_name_H-M   'P 1'
_cell_length_a   3.75278900
_cell_length_b   10.90273300
_cell_length_c   12.48439900
_cell_angle_alpha   90.00000000
_cell_angle_beta   90.00000000
_cell_angle_gamma   90.00000000
_symmetry_Int_Tables_number   1
_chemical_formula_structural   Lu3Co4P6Rh5
_chemical_formula_sum   'Lu6 Co8 P12 Rh10'
_cell_volume   510.80738075
_cell_formula_units_Z   2
loop_
 _symmetry_equiv_pos_site_id
 _symmetry_equiv_pos_as_xyz
  1  'x, y, z'
loop_
 _atom_site_type_symbol
 _atom_site_label
 _atom_site_symmetry_multiplicity
 _atom_site_fract_x
 _atom_site_fract_y
 _atom_site_fract_z
 _atom_site_occupancy
  Lu  Lu0  1  0.000000  0.500000  0.518098  1
  Lu  Lu1  1  0.500000  0.000000  0.475767  1
  Lu  Lu2  1  0.500000  0.815926  0.197769  1
  Lu  Lu3  1  0.500000  0.184074  0.197769  1
  Lu  Lu4  1  0.000000  0.679909  0.804013  1
  Lu  Lu5  1  0.000000  0.320091  0.804013  1
  Co  Co6  1  0.000000  0.500000  0.991696  1
  Co  Co7  1  0.500000  0.000000  0.012152  1
  Co  Co8  1  0.000000  0.621438  0.283655  1
  Co  Co9  1  0.000000  0.378562  0.283655  1
  Co  Co10  1  0.500000  0.333931  0.996942  1
  Co  Co11  1  0.500000  0.666069  0.996942  1
  Co  Co12  1  0.000000  0.168808  0.007761  1
  Co  Co13  1  0.000000  0.831192  0.007761  1
  P  P14  1  0.500000  0.317668  0.619887  1
  P  P15  1  0.500000  0.682332  0.619887  1
  P  P16  1  0.000000  0.191674  0.371497  1
  P  P17  1  0.000000  0.808326  0.371497  1
  P  P18  1  0.500000  0.500000  0.893682  1
  P  P19  1  0.000000  0.000000  0.108369  1
  P  P20  1  0.500000  0.839951  0.904108  1
  P  P21  1  0.500000  0.160049  0.904108  1
  P  P22  1  0.000000  0.657115  0.104939  1
  P  P23  1  0.000000  0.342885  0.104939  1
  P  P24  1  0.500000  0.500000  0.342380  1
  P  P25  1  0.000000  0.000000  0.651309  1
  Rh  Rh26  1  0.500000  0.302001  0.425978  1
  Rh  Rh27  1  0.500000  0.697999  0.425978  1
  Rh  Rh28  1  0.000000  0.204406  0.568064  1
  Rh  Rh29  1  0.000000  0.795594  0.568064  1
  Rh  Rh30  1  0.500000  0.871236  0.717051  1
  Rh  Rh31  1  0.500000  0.128764  0.717051  1
  Rh  Rh32  1  0.500000  0.500000  0.157709  1
  Rh  Rh33  1  0.000000  0.000000  0.843462  1
  Rh  Rh34  1  0.500000  0.500000  0.708648  1
  Rh  Rh35  1  0.000000  0.000000  0.293394  1
