# generated using pymatgen
data_Se5Br2
_symmetry_space_group_name_H-M   'P 1'
_cell_length_a   7.38261874
_cell_length_b   8.24323887
_cell_length_c   6.10848628
_cell_angle_alpha   104.64002289
_cell_angle_beta   112.00151082
_cell_angle_gamma   108.11963964
_symmetry_Int_Tables_number   1
_chemical_formula_structural   Se5Br2
_chemical_formula_sum   'Se5 Br2'
_cell_volume   297.42952887
_cell_formula_units_Z   1
loop_
 _symmetry_equiv_pos_site_id
 _symmetry_equiv_pos_as_xyz
  1  'x, y, z'
loop_
 _atom_site_type_symbol
 _atom_site_label
 _atom_site_symmetry_multiplicity
 _atom_site_fract_x
 _atom_site_fract_y
 _atom_site_fract_z
 _atom_site_occupancy
  Se  Se0  1  0.742086  0.874573  0.769232  1
  Se  Se1  1  0.321662  0.044469  0.456622  1
  Se  Se2  1  0.843599  0.728167  0.474741  1
  Se  Se3  1  0.713829  0.140621  0.742126  1
  Se  Se4  1  0.224514  0.870497  0.719159  1
  Br  Br5  1  0.390788  0.362622  0.729605  1
  Br  Br6  1  0.247898  0.721088  0.101983  1
