# generated using pymatgen
data_Tb13Dy7(Bi2Te)4
_symmetry_space_group_name_H-M   'P 1'
_cell_length_a   8.20682500
_cell_length_b   9.48541400
_cell_length_c   11.98156900
_cell_angle_alpha   89.99977045
_cell_angle_beta   89.99778530
_cell_angle_gamma   89.99805707
_symmetry_Int_Tables_number   1
_chemical_formula_structural   Tb13Dy7(Bi2Te)4
_chemical_formula_sum   'Tb13 Dy7 Bi8 Te4'
_cell_volume   932.70682874
_cell_formula_units_Z   1
loop_
 _symmetry_equiv_pos_site_id
 _symmetry_equiv_pos_as_xyz
  1  'x, y, z'
loop_
 _atom_site_type_symbol
 _atom_site_label
 _atom_site_symmetry_multiplicity
 _atom_site_fract_x
 _atom_site_fract_y
 _atom_site_fract_z
 _atom_site_occupancy
  Tb  Tb0  1  0.353501  0.750025  0.213143  1
  Tb  Tb1  1  0.853613  0.750061  0.286929  1
  Tb  Tb2  1  0.646454  0.250009  0.786882  1
  Tb  Tb3  1  0.146448  0.250024  0.713121  1
  Tb  Tb4  1  0.689647  0.561938  0.057306  1
  Tb  Tb5  1  0.476259  0.249996  0.488422  1
  Tb  Tb6  1  0.976272  0.249976  0.011576  1
  Tb  Tb7  1  0.523742  0.750006  0.511586  1
  Tb  Tb8  1  0.023824  0.750051  0.988396  1
  Tb  Tb9  1  0.319162  0.250003  0.217929  1
  Tb  Tb10  1  0.819162  0.249989  0.282077  1
  Tb  Tb11  1  0.680856  0.750043  0.782016  1
  Tb  Tb12  1  0.180849  0.750002  0.717927  1
  Dy  Dy13  1  0.189627  0.937936  0.442704  1
  Dy  Dy14  1  0.310349  0.062067  0.942706  1
  Dy  Dy15  1  0.810384  0.437917  0.557309  1
  Dy  Dy16  1  0.310362  0.437915  0.942695  1
  Dy  Dy17  1  0.810370  0.062089  0.557291  1
  Dy  Dy18  1  0.689616  0.938032  0.057301  1
  Dy  Dy19  1  0.189629  0.562072  0.442716  1
  Bi  Bi20  1  0.568497  0.995639  0.325180  1
  Bi  Bi21  1  0.068564  0.504380  0.174868  1
  Bi  Bi22  1  0.431484  0.495629  0.674827  1
  Bi  Bi23  1  0.931523  0.004385  0.825162  1
  Bi  Bi24  1  0.431499  0.004383  0.674836  1
  Bi  Bi25  1  0.931532  0.495634  0.825113  1
  Bi  Bi26  1  0.568459  0.504387  0.325220  1
  Bi  Bi27  1  0.068506  0.995647  0.174846  1
  Te  Te28  1  0.407057  0.750087  0.957241  1
  Te  Te29  1  0.907134  0.749994  0.542713  1
  Te  Te30  1  0.592756  0.249686  0.042672  1
  Te  Te31  1  0.092862  0.250000  0.457291  1
