# generated using pymatgen
data_Tm3Zr(WN2)4
_symmetry_space_group_name_H-M   'P 1'
_cell_length_a   3.15079600
_cell_length_b   5.65268170
_cell_length_c   10.47883785
_cell_angle_alpha   90.13110502
_cell_angle_beta   90.00000000
_cell_angle_gamma   90.00000000
_symmetry_Int_Tables_number   1
_chemical_formula_structural   Tm3Zr(WN2)4
_chemical_formula_sum   'Tm3 Zr1 W4 N8'
_cell_volume   186.63229653
_cell_formula_units_Z   1
loop_
 _symmetry_equiv_pos_site_id
 _symmetry_equiv_pos_as_xyz
  1  'x, y, z'
loop_
 _atom_site_type_symbol
 _atom_site_label
 _atom_site_symmetry_multiplicity
 _atom_site_fract_x
 _atom_site_fract_y
 _atom_site_fract_z
 _atom_site_occupancy
  Tm  Tm0  1  0.250000  0.081642  0.146086  1
  Tm  Tm1  1  0.750000  0.418058  0.647357  1
  Tm  Tm2  1  0.750000  0.919177  0.852735  1
  Zr  Zr3  1  0.250000  0.583516  0.349836  1
  W  W4  1  0.250000  0.929541  0.594081  1
  W  W5  1  0.250000  0.431699  0.904293  1
  W  W6  1  0.750000  0.066513  0.407314  1
  W  W7  1  0.750000  0.569559  0.095137  1
  N  N8  1  0.250000  0.665409  0.745977  1
  N  N9  1  0.250000  0.162565  0.750983  1
  N  N10  1  0.750000  0.344029  0.257527  1
  N  N11  1  0.750000  0.829132  0.251438  1
  N  N12  1  0.250000  0.272505  0.492335  1
  N  N13  1  0.250000  0.766329  0.006473  1
  N  N14  1  0.750000  0.728138  0.501671  1
  N  N15  1  0.750000  0.232187  0.996756  1
