# generated using pymatgen
data_Ti5VS8
_symmetry_space_group_name_H-M   'P 1'
_cell_length_a   9.49628846
_cell_length_b   9.37057840
_cell_length_c   3.37752400
_cell_angle_alpha   90.00000000
_cell_angle_beta   90.00000000
_cell_angle_gamma   119.73087619
_symmetry_Int_Tables_number   1
_chemical_formula_structural   Ti5VS8
_chemical_formula_sum   'Ti5 V1 S8'
_cell_volume   260.98812434
_cell_formula_units_Z   1
loop_
 _symmetry_equiv_pos_site_id
 _symmetry_equiv_pos_as_xyz
  1  'x, y, z'
loop_
 _atom_site_type_symbol
 _atom_site_label
 _atom_site_symmetry_multiplicity
 _atom_site_fract_x
 _atom_site_fract_y
 _atom_site_fract_z
 _atom_site_occupancy
  Ti  Ti0  1  0.512060  0.872543  0.750000  1
  Ti  Ti1  1  0.644646  0.509570  0.250000  1
  Ti  Ti2  1  0.865451  0.352805  0.250000  1
  Ti  Ti3  1  0.132842  0.648210  0.750000  1
  Ti  Ti4  1  0.353180  0.484075  0.750000  1
  V  V5  1  0.490997  0.132482  0.250000  1
  S  S6  1  0.665310  0.329488  0.750000  1
  S  S7  1  0.332887  0.667669  0.250000  1
  S  S8  1  0.640246  0.691669  0.750000  1
  S  S9  1  0.949320  0.645119  0.250000  1
  S  S10  1  0.693050  0.049283  0.250000  1
  S  S11  1  0.311674  0.958408  0.750000  1
  S  S12  1  0.358643  0.302975  0.250000  1
  S  S13  1  0.049694  0.355705  0.750000  1
