# generated using pymatgen
data_Ta6NbB8Os5Ru
_symmetry_space_group_name_H-M   'P 1'
_cell_length_a   9.64874839
_cell_length_b   9.64438323
_cell_length_c   3.12763700
_cell_angle_alpha   90.00000000
_cell_angle_beta   90.00000000
_cell_angle_gamma   120.17777547
_symmetry_Int_Tables_number   1
_chemical_formula_structural   Ta6NbB8Os5Ru
_chemical_formula_sum   'Ta6 Nb1 B8 Os5 Ru1'
_cell_volume   251.60057887
_cell_formula_units_Z   1
loop_
 _symmetry_equiv_pos_site_id
 _symmetry_equiv_pos_as_xyz
  1  'x, y, z'
loop_
 _atom_site_type_symbol
 _atom_site_label
 _atom_site_symmetry_multiplicity
 _atom_site_fract_x
 _atom_site_fract_y
 _atom_site_fract_z
 _atom_site_occupancy
  Ta  Ta0  1  0.725050  0.639008  0.000000  1
  Ta  Ta1  1  0.361310  0.087406  0.000000  1
  Ta  Ta2  1  0.913940  0.273673  0.000000  1
  Ta  Ta3  1  0.275099  0.360424  0.000000  1
  Ta  Ta4  1  0.639723  0.914131  0.000000  1
  Ta  Ta5  1  0.086113  0.726325  0.000000  1
  Nb  Nb6  1  0.999605  0.999481  0.000000  1
  B  B7  1  0.666916  0.333218  0.000000  1
  B  B8  1  0.333309  0.667056  0.000000  1
  B  B9  1  0.153920  0.935017  0.500000  1
  B  B10  1  0.064928  0.217947  0.500000  1
  B  B11  1  0.780427  0.845473  0.500000  1
  B  B12  1  0.846507  0.065257  0.500000  1
  B  B13  1  0.934900  0.780778  0.500000  1
  B  B14  1  0.218284  0.153357  0.500000  1
  Os  Os15  1  0.361115  0.847034  0.500000  1
  Os  Os16  1  0.152871  0.512344  0.500000  1
  Os  Os17  1  0.486406  0.639170  0.500000  1
  Os  Os18  1  0.637766  0.153664  0.500000  1
  Os  Os19  1  0.847500  0.487536  0.500000  1
  Ru  Ru20  1  0.514311  0.361699  0.500000  1
