# generated using pymatgen
data_LiLaTh3Ru11C10
_symmetry_space_group_name_H-M   'P 1'
_cell_length_a   9.18070326
_cell_length_b   9.17184429
_cell_length_c   4.19859900
_cell_angle_alpha   90.00000000
_cell_angle_beta   90.00000000
_cell_angle_gamma   89.80507761
_symmetry_Int_Tables_number   1
_chemical_formula_structural   LiLaTh3Ru11C10
_chemical_formula_sum   'Li1 La1 Th3 Ru11 C10'
_cell_volume   353.53670362
_cell_formula_units_Z   1
loop_
 _symmetry_equiv_pos_site_id
 _symmetry_equiv_pos_as_xyz
  1  'x, y, z'
loop_
 _atom_site_type_symbol
 _atom_site_label
 _atom_site_symmetry_multiplicity
 _atom_site_fract_x
 _atom_site_fract_y
 _atom_site_fract_z
 _atom_site_occupancy
  Li  Li0  1  0.999903  0.000055  0.500000  1
  La  La1  1  0.338849  0.818835  0.500000  1
  Th  Th2  1  0.814954  0.657972  0.500000  1
  Th  Th3  1  0.185207  0.342800  0.500000  1
  Th  Th4  1  0.656906  0.184427  0.500000  1
  Ru  Ru5  1  0.711618  0.424667  0.000000  1
  Ru  Ru6  1  0.425243  0.289342  0.000000  1
  Ru  Ru7  1  0.502448  0.002573  0.000000  1
  Ru  Ru8  1  0.998574  0.498587  0.000000  1
  Ru  Ru9  1  0.502163  0.497340  0.500000  1
  Ru  Ru10  1  0.792915  0.931721  0.000000  1
  Ru  Ru11  1  0.931652  0.207485  0.000000  1
  Ru  Ru12  1  0.065697  0.789763  0.000000  1
  Ru  Ru13  1  0.208580  0.070590  0.000000  1
  Ru  Ru14  1  0.577517  0.712661  0.000000  1
  Ru  Ru15  1  0.285774  0.571559  0.000000  1
  C  C16  1  0.499096  0.502561  0.000000  1
  C  C17  1  0.001652  0.999205  0.000000  1
  C  C18  1  0.877967  0.366158  0.672357  1
  C  C19  1  0.120569  0.630823  0.672865  1
  C  C20  1  0.877967  0.366158  0.327643  1
  C  C21  1  0.367895  0.122790  0.327156  1
  C  C22  1  0.634195  0.879158  0.327641  1
  C  C23  1  0.120569  0.630823  0.327135  1
  C  C24  1  0.634195  0.879158  0.672359  1
  C  C25  1  0.367895  0.122790  0.672844  1
