# generated using pymatgen
data_Ho8Zn3Si12Ir
_symmetry_space_group_name_H-M   'P 1'
_cell_length_a   8.09700100
_cell_length_b   8.09700113
_cell_length_c   8.03507500
_cell_angle_alpha   90.00000000
_cell_angle_beta   90.00000000
_cell_angle_gamma   119.99999538
_symmetry_Int_Tables_number   1
_chemical_formula_structural   Ho8Zn3Si12Ir
_chemical_formula_sum   'Ho8 Zn3 Si12 Ir1'
_cell_volume   456.21438984
_cell_formula_units_Z   1
loop_
 _symmetry_equiv_pos_site_id
 _symmetry_equiv_pos_as_xyz
  1  'x, y, z'
loop_
 _atom_site_type_symbol
 _atom_site_label
 _atom_site_symmetry_multiplicity
 _atom_site_fract_x
 _atom_site_fract_y
 _atom_site_fract_z
 _atom_site_occupancy
  Ho  Ho0  1  0.499564  0.999125  0.250124  1
  Ho  Ho1  1  0.497313  0.994627  0.749827  1
  Ho  Ho2  1  0.000875  0.500436  0.250124  1
  Ho  Ho3  1  0.005373  0.502687  0.749827  1
  Ho  Ho4  1  0.499564  0.500436  0.250124  1
  Ho  Ho5  1  0.497313  0.502687  0.749827  1
  Ho  Ho6  1  0.000000  0.000000  0.247969  1
  Ho  Ho7  1  0.000000  0.000000  0.752057  1
  Zn  Zn8  1  0.333333  0.666667  0.006842  1
  Zn  Zn9  1  0.666667  0.333333  0.993941  1
  Zn  Zn10  1  0.666667  0.333333  0.501951  1
  Si  Si11  1  0.166775  0.333549  0.998538  1
  Si  Si12  1  0.833167  0.666335  0.001321  1
  Si  Si13  1  0.666451  0.833225  0.998538  1
  Si  Si14  1  0.836202  0.672406  0.501430  1
  Si  Si15  1  0.333665  0.166833  0.001321  1
  Si  Si16  1  0.168774  0.337546  0.498507  1
  Si  Si17  1  0.166775  0.833225  0.998538  1
  Si  Si18  1  0.327594  0.163798  0.501430  1
  Si  Si19  1  0.833167  0.166833  0.001321  1
  Si  Si20  1  0.662454  0.831226  0.498507  1
  Si  Si21  1  0.836202  0.163798  0.501430  1
  Si  Si22  1  0.168774  0.831226  0.498507  1
  Ir  Ir23  1  0.333333  0.666667  0.497998  1
