# generated using pymatgen
data_Ti3Zn2O
_symmetry_space_group_name_H-M   'P 1'
_cell_length_a   6.86229100
_cell_length_b   6.86229100
_cell_length_c   6.86229100
_cell_angle_alpha   90.00000000
_cell_angle_beta   90.00000000
_cell_angle_gamma   90.00000000
_symmetry_Int_Tables_number   1
_chemical_formula_structural   Ti3Zn2O
_chemical_formula_sum   'Ti12 Zn8 O4'
_cell_volume   323.15240466
_cell_formula_units_Z   4
loop_
 _symmetry_equiv_pos_site_id
 _symmetry_equiv_pos_as_xyz
  1  'x, y, z'
loop_
 _atom_site_type_symbol
 _atom_site_label
 _atom_site_symmetry_multiplicity
 _atom_site_fract_x
 _atom_site_fract_y
 _atom_site_fract_z
 _atom_site_occupancy
  Ti  Ti0  1  0.789281  0.960719  0.375000  1
  Ti  Ti1  1  0.710719  0.039281  0.875000  1
  Ti  Ti2  1  0.210719  0.460719  0.125000  1
  Ti  Ti3  1  0.289281  0.539281  0.625000  1
  Ti  Ti4  1  0.960719  0.375000  0.789281  1
  Ti  Ti5  1  0.039281  0.875000  0.710719  1
  Ti  Ti6  1  0.460719  0.125000  0.210719  1
  Ti  Ti7  1  0.539281  0.625000  0.289281  1
  Ti  Ti8  1  0.375000  0.789281  0.960719  1
  Ti  Ti9  1  0.875000  0.710719  0.039281  1
  Ti  Ti10  1  0.125000  0.210719  0.460719  1
  Ti  Ti11  1  0.625000  0.289281  0.539281  1
  Zn  Zn12  1  0.177629  0.822371  0.322371  1
  Zn  Zn13  1  0.322371  0.177629  0.822371  1
  Zn  Zn14  1  0.822371  0.322371  0.177629  1
  Zn  Zn15  1  0.677629  0.677629  0.677629  1
  Zn  Zn16  1  0.572371  0.427629  0.927629  1
  Zn  Zn17  1  0.427629  0.927629  0.572371  1
  Zn  Zn18  1  0.927629  0.572371  0.427629  1
  Zn  Zn19  1  0.072371  0.072371  0.072371  1
  O  O20  1  0.875000  0.125000  0.625000  1
  O  O21  1  0.625000  0.875000  0.125000  1
  O  O22  1  0.125000  0.625000  0.875000  1
  O  O23  1  0.375000  0.375000  0.375000  1
