# generated using pymatgen
data_MnCdSiB2Rh5
_symmetry_space_group_name_H-M   'P 1'
_cell_length_a   9.42689400
_cell_length_b   9.40764400
_cell_length_c   2.90979000
_cell_angle_alpha   90.00000000
_cell_angle_beta   90.00000000
_cell_angle_gamma   90.00000000
_symmetry_Int_Tables_number   1
_chemical_formula_structural   MnCdSiB2Rh5
_chemical_formula_sum   'Mn2 Cd2 Si2 B4 Rh10'
_cell_volume   258.05432686
_cell_formula_units_Z   2
loop_
 _symmetry_equiv_pos_site_id
 _symmetry_equiv_pos_as_xyz
  1  'x, y, z'
loop_
 _atom_site_type_symbol
 _atom_site_label
 _atom_site_symmetry_multiplicity
 _atom_site_fract_x
 _atom_site_fract_y
 _atom_site_fract_z
 _atom_site_occupancy
  Mn  Mn0  1  0.822188  0.325156  0.000000  1
  Mn  Mn1  1  0.322188  0.174844  0.000000  1
  Cd  Cd2  1  0.676453  0.826257  0.000000  1
  Cd  Cd3  1  0.176453  0.673743  0.000000  1
  Si  Si4  1  0.997680  0.996081  0.000000  1
  Si  Si5  1  0.497680  0.503919  0.000000  1
  B  B6  1  0.627842  0.135800  0.000000  1
  B  B7  1  0.127842  0.364200  0.000000  1
  B  B8  1  0.875078  0.616246  0.000000  1
  B  B9  1  0.375078  0.883754  0.000000  1
  Rh  Rh10  1  0.069716  0.204580  0.500000  1
  Rh  Rh11  1  0.211354  0.936719  0.500000  1
  Rh  Rh12  1  0.791000  0.078653  0.500000  1
  Rh  Rh13  1  0.931481  0.785926  0.500000  1
  Rh  Rh14  1  0.431481  0.714074  0.500000  1
  Rh  Rh15  1  0.569716  0.295420  0.500000  1
  Rh  Rh16  1  0.711354  0.563281  0.500000  1
  Rh  Rh17  1  0.291000  0.421347  0.500000  1
  Rh  Rh18  1  0.497208  0.010417  0.500000  1
  Rh  Rh19  1  0.997208  0.489583  0.500000  1
