# generated using pymatgen
data_NdHoCo2I
_symmetry_space_group_name_H-M   'P 1'
_cell_length_a   3.97834900
_cell_length_b   3.97834936
_cell_length_c   17.36899700
_cell_angle_alpha   90.00000000
_cell_angle_beta   90.00000000
_cell_angle_gamma   119.99998872
_symmetry_Int_Tables_number   1
_chemical_formula_structural   NdHoCo2I
_chemical_formula_sum   'Nd2 Ho2 Co4 I2'
_cell_volume   238.07358839
_cell_formula_units_Z   2
loop_
 _symmetry_equiv_pos_site_id
 _symmetry_equiv_pos_as_xyz
  1  'x, y, z'
loop_
 _atom_site_type_symbol
 _atom_site_label
 _atom_site_symmetry_multiplicity
 _atom_site_fract_x
 _atom_site_fract_y
 _atom_site_fract_z
 _atom_site_occupancy
  Nd  Nd0  1  0.000000  0.000000  0.608105  1
  Nd  Nd1  1  0.000000  0.000000  0.391895  1
  Ho  Ho2  1  0.000000  0.000000  0.099817  1
  Ho  Ho3  1  0.000000  0.000000  0.900183  1
  Co  Co4  1  0.333333  0.666667  0.500240  1
  Co  Co5  1  0.666667  0.333333  0.499760  1
  Co  Co6  1  0.666667  0.333333  0.001670  1
  Co  Co7  1  0.333333  0.666667  0.998330  1
  I  I8  1  0.333333  0.666667  0.242102  1
  I  I9  1  0.666667  0.333333  0.757898  1
