# generated using pymatgen
data_Lu20NiSb11
_symmetry_space_group_name_H-M   'P 1'
_cell_length_a   7.89093001
_cell_length_b   9.11142500
_cell_length_c   11.61391694
_cell_angle_alpha   90.00000000
_cell_angle_beta   89.66546331
_cell_angle_gamma   90.00000000
_symmetry_Int_Tables_number   1
_chemical_formula_structural   Lu20NiSb11
_chemical_formula_sum   'Lu20 Ni1 Sb11'
_cell_volume   834.99871766
_cell_formula_units_Z   1
loop_
 _symmetry_equiv_pos_site_id
 _symmetry_equiv_pos_as_xyz
  1  'x, y, z'
loop_
 _atom_site_type_symbol
 _atom_site_label
 _atom_site_symmetry_multiplicity
 _atom_site_fract_x
 _atom_site_fract_y
 _atom_site_fract_z
 _atom_site_occupancy
  Lu  Lu0  1  0.183084  0.569555  0.445505  1
  Lu  Lu1  1  0.695488  0.937550  0.066602  1
  Lu  Lu2  1  0.814031  0.032812  0.559863  1
  Lu  Lu3  1  0.304589  0.438230  0.937777  1
  Lu  Lu4  1  0.814031  0.467188  0.559863  1
  Lu  Lu5  1  0.304589  0.061770  0.937777  1
  Lu  Lu6  1  0.183084  0.930445  0.445505  1
  Lu  Lu7  1  0.695488  0.562450  0.066602  1
  Lu  Lu8  1  0.030546  0.750000  0.989913  1
  Lu  Lu9  1  0.546310  0.750000  0.505202  1
  Lu  Lu10  1  0.971563  0.250000  0.010514  1
  Lu  Lu11  1  0.481028  0.250000  0.493203  1
  Lu  Lu12  1  0.153829  0.750000  0.704045  1
  Lu  Lu13  1  0.694421  0.750000  0.779667  1
  Lu  Lu14  1  0.815202  0.250000  0.280219  1
  Lu  Lu15  1  0.310393  0.250000  0.218505  1
  Lu  Lu16  1  0.858671  0.750000  0.303421  1
  Lu  Lu17  1  0.348477  0.750000  0.215113  1
  Lu  Lu18  1  0.151542  0.250000  0.714038  1
  Lu  Lu19  1  0.648700  0.250000  0.781496  1
  Ni  Ni20  1  0.914763  0.750000  0.528761  1
  Sb  Sb21  1  0.934940  0.495133  0.827696  1
  Sb  Sb22  1  0.434033  0.999289  0.674520  1
  Sb  Sb23  1  0.064463  0.995701  0.174097  1
  Sb  Sb24  1  0.559116  0.500011  0.323752  1
  Sb  Sb25  1  0.064463  0.504299  0.174097  1
  Sb  Sb26  1  0.559116  0.999989  0.323752  1
  Sb  Sb27  1  0.934940  0.004867  0.827696  1
  Sb  Sb28  1  0.434033  0.500711  0.674520  1
  Sb  Sb29  1  0.414243  0.750000  0.958688  1
  Sb  Sb30  1  0.091035  0.250000  0.458552  1
  Sb  Sb31  1  0.589789  0.250000  0.039040  1
