# generated using pymatgen
data_Er16In4Pt3Rh
_symmetry_space_group_name_H-M   'P 1'
_cell_length_a   9.61759888
_cell_length_b   9.61759967
_cell_length_c   9.61759848
_cell_angle_alpha   60.06724893
_cell_angle_beta   60.06724967
_cell_angle_gamma   60.06725211
_symmetry_Int_Tables_number   1
_chemical_formula_structural   Er16In4Pt3Rh
_chemical_formula_sum   'Er16 In4 Pt3 Rh1'
_cell_volume   630.00848294
_cell_formula_units_Z   1
loop_
 _symmetry_equiv_pos_site_id
 _symmetry_equiv_pos_as_xyz
  1  'x, y, z'
loop_
 _atom_site_type_symbol
 _atom_site_label
 _atom_site_symmetry_multiplicity
 _atom_site_fract_x
 _atom_site_fract_y
 _atom_site_fract_z
 _atom_site_occupancy
  Er  Er0  1  0.190208  0.190208  0.809250  1
  Er  Er1  1  0.438355  0.062093  0.062093  1
  Er  Er2  1  0.437347  0.063578  0.437347  1
  Er  Er3  1  0.062093  0.438355  0.062093  1
  Er  Er4  1  0.650469  0.051519  0.650469  1
  Er  Er5  1  0.186849  0.810655  0.810655  1
  Er  Er6  1  0.062093  0.062093  0.438355  1
  Er  Er7  1  0.809250  0.190208  0.190208  1
  Er  Er8  1  0.810655  0.810655  0.186849  1
  Er  Er9  1  0.650469  0.650469  0.051519  1
  Er  Er10  1  0.649340  0.649340  0.649340  1
  Er  Er11  1  0.063578  0.437347  0.437347  1
  Er  Er12  1  0.051519  0.650469  0.650469  1
  Er  Er13  1  0.810655  0.186849  0.810655  1
  Er  Er14  1  0.437347  0.437347  0.063578  1
  Er  Er15  1  0.190208  0.809250  0.190208  1
  In  In16  1  0.416726  0.749424  0.416726  1
  In  In17  1  0.416726  0.416726  0.749424  1
  In  In18  1  0.749424  0.416726  0.416726  1
  In  In19  1  0.416269  0.416269  0.416269  1
  Pt  Pt20  1  0.857622  0.427755  0.857622  1
  Pt  Pt21  1  0.857622  0.857622  0.427755  1
  Pt  Pt22  1  0.427755  0.857622  0.857622  1
  Rh  Rh23  1  0.857423  0.857423  0.857423  1
