# generated using pymatgen
data_Pr2Ni7As4
_symmetry_space_group_name_H-M   'P 1'
_cell_length_a   3.95742600
_cell_length_b   9.40656500
_cell_length_c   10.74729600
_cell_angle_alpha   90.00000000
_cell_angle_beta   90.00000000
_cell_angle_gamma   90.00000000
_symmetry_Int_Tables_number   1
_chemical_formula_structural   Pr2Ni7As4
_chemical_formula_sum   'Pr4 Ni14 As8'
_cell_volume   400.07652917
_cell_formula_units_Z   2
loop_
 _symmetry_equiv_pos_site_id
 _symmetry_equiv_pos_as_xyz
  1  'x, y, z'
loop_
 _atom_site_type_symbol
 _atom_site_label
 _atom_site_symmetry_multiplicity
 _atom_site_fract_x
 _atom_site_fract_y
 _atom_site_fract_z
 _atom_site_occupancy
  Pr  Pr0  1  0.500000  0.441908  0.512239  1
  Pr  Pr1  1  0.500000  0.057692  0.280111  1
  Pr  Pr2  1  0.000000  0.942308  0.780111  1
  Pr  Pr3  1  0.000000  0.558092  0.012239  1
  Ni  Ni4  1  0.500000  0.309876  0.058921  1
  Ni  Ni5  1  0.500000  0.731833  0.398448  1
  Ni  Ni6  1  0.500000  0.427709  0.823076  1
  Ni  Ni7  1  0.500000  0.061780  0.977709  1
  Ni  Ni8  1  0.500000  0.686751  0.765846  1
  Ni  Ni9  1  0.000000  0.276278  0.670951  1
  Ni  Ni10  1  0.000000  0.268167  0.898448  1
  Ni  Ni11  1  0.000000  0.690124  0.558921  1
  Ni  Ni12  1  0.500000  0.099478  0.577364  1
  Ni  Ni13  1  0.000000  0.313249  0.265846  1
  Ni  Ni14  1  0.000000  0.572291  0.323076  1
  Ni  Ni15  1  0.000000  0.900522  0.077364  1
  Ni  Ni16  1  0.000000  0.938220  0.477709  1
  Ni  Ni17  1  0.500000  0.723722  0.170951  1
  As  As18  1  0.000000  0.811652  0.284152  1
  As  As19  1  0.000000  0.188630  0.466244  1
  As  As20  1  0.500000  0.188348  0.784152  1
  As  As21  1  0.000000  0.156790  0.086693  1
  As  As22  1  0.500000  0.467756  0.225942  1
  As  As23  1  0.500000  0.811370  0.966244  1
  As  As24  1  0.500000  0.843210  0.586693  1
  As  As25  1  0.000000  0.532244  0.725942  1
