# generated using pymatgen
data_Nb6GaGeC2
_symmetry_space_group_name_H-M   'P 1'
_cell_length_a   5.60073811
_cell_length_b   5.60073890
_cell_length_c   8.44600400
_cell_angle_alpha   90.00000000
_cell_angle_beta   90.00000000
_cell_angle_gamma   145.28898381
_symmetry_Int_Tables_number   1
_chemical_formula_structural   Nb6GaGeC2
_chemical_formula_sum   'Nb6 Ga1 Ge1 C2'
_cell_volume   150.86482875
_cell_formula_units_Z   1
loop_
 _symmetry_equiv_pos_site_id
 _symmetry_equiv_pos_as_xyz
  1  'x, y, z'
loop_
 _atom_site_type_symbol
 _atom_site_label
 _atom_site_symmetry_multiplicity
 _atom_site_fract_x
 _atom_site_fract_y
 _atom_site_fract_z
 _atom_site_occupancy
  Nb  Nb0  1  0.630954  0.369047  0.051235  1
  Nb  Nb1  1  0.950550  0.049450  0.250000  1
  Nb  Nb2  1  0.630954  0.369047  0.448765  1
  Nb  Nb3  1  0.367555  0.632446  0.554164  1
  Nb  Nb4  1  0.052348  0.947652  0.750000  1
  Nb  Nb5  1  0.367555  0.632446  0.945835  1
  Ga  Ga6  1  0.254740  0.745261  0.250000  1
  Ge  Ge7  1  0.744853  0.255148  0.750000  1
  C  C8  1  0.000247  0.999753  0.999650  1
  C  C9  1  0.000247  0.999753  0.500350  1
