# generated using pymatgen
data_Ti5NbTe8
_symmetry_space_group_name_H-M   'P 1'
_cell_length_a   10.61373480
_cell_length_b   10.51231730
_cell_length_c   3.81262000
_cell_angle_alpha   90.00000000
_cell_angle_beta   90.00000000
_cell_angle_gamma   119.26273413
_symmetry_Int_Tables_number   1
_chemical_formula_structural   Ti5NbTe8
_chemical_formula_sum   'Ti5 Nb1 Te8'
_cell_volume   371.10738154
_cell_formula_units_Z   1
loop_
 _symmetry_equiv_pos_site_id
 _symmetry_equiv_pos_as_xyz
  1  'x, y, z'
loop_
 _atom_site_type_symbol
 _atom_site_label
 _atom_site_symmetry_multiplicity
 _atom_site_fract_x
 _atom_site_fract_y
 _atom_site_fract_z
 _atom_site_occupancy
  Ti  Ti0  1  0.124430  0.632946  0.750000  1
  Ti  Ti1  1  0.365592  0.492883  0.750000  1
  Ti  Ti2  1  0.509059  0.885852  0.750000  1
  Ti  Ti3  1  0.873632  0.362035  0.250000  1
  Ti  Ti4  1  0.633348  0.506026  0.250000  1
  Nb  Nb5  1  0.492597  0.119857  0.250000  1
  Te  Te6  1  0.670618  0.334590  0.750000  1
  Te  Te7  1  0.334292  0.671616  0.250000  1
  Te  Te8  1  0.284382  0.947636  0.750000  1
  Te  Te9  1  0.053874  0.343660  0.750000  1
  Te  Te10  1  0.651117  0.706484  0.750000  1
  Te  Te11  1  0.714676  0.048618  0.250000  1
  Te  Te12  1  0.945965  0.654006  0.250000  1
  Te  Te13  1  0.346419  0.293790  0.250000  1
