# generated using pymatgen
data_Tm4Ni13Pt
_symmetry_space_group_name_H-M   'P 1'
_cell_length_a   4.90197848
_cell_length_b   4.90197797
_cell_length_c   12.51931184
_cell_angle_alpha   78.70990107
_cell_angle_beta   78.70990387
_cell_angle_gamma   59.99999744
_symmetry_Int_Tables_number   1
_chemical_formula_structural   Tm4Ni13Pt
_chemical_formula_sum   'Tm4 Ni13 Pt1'
_cell_volume   253.78326962
_cell_formula_units_Z   1
loop_
 _symmetry_equiv_pos_site_id
 _symmetry_equiv_pos_as_xyz
  1  'x, y, z'
loop_
 _atom_site_type_symbol
 _atom_site_label
 _atom_site_symmetry_multiplicity
 _atom_site_fract_x
 _atom_site_fract_y
 _atom_site_fract_z
 _atom_site_occupancy
  Tm  Tm0  1  0.950119  0.950119  0.149644  1
  Tm  Tm1  1  0.049881  0.049881  0.850356  1
  Tm  Tm2  1  0.854574  0.854574  0.436277  1
  Tm  Tm3  1  0.145426  0.145426  0.563723  1
  Ni  Ni4  1  0.720723  0.720723  0.837829  1
  Ni  Ni5  1  0.279277  0.279277  0.162171  1
  Ni  Ni6  1  0.612581  0.612581  0.162256  1
  Ni  Ni7  1  0.387419  0.387419  0.837744  1
  Ni  Ni8  1  0.000000  0.500000  0.000000  1
  Ni  Ni9  1  0.500000  0.000000  0.000000  1
  Ni  Ni10  1  0.500000  0.500000  0.000000  1
  Ni  Ni11  1  0.390266  0.390266  0.323106  1
  Ni  Ni12  1  0.896360  0.390266  0.323106  1
  Ni  Ni13  1  0.390266  0.896360  0.323106  1
  Ni  Ni14  1  0.609734  0.609734  0.676894  1
  Ni  Ni15  1  0.103640  0.609734  0.676894  1
  Ni  Ni16  1  0.609734  0.103640  0.676894  1
  Pt  Pt17  1  0.500000  0.500000  0.500000  1
