# generated using pymatgen
data_CaYb6CeSb6
_symmetry_space_group_name_H-M   'P 1'
_cell_length_a   8.21016673
_cell_length_b   8.12357404
_cell_length_c   8.20236334
_cell_angle_alpha   70.76510067
_cell_angle_beta   70.32382973
_cell_angle_gamma   109.29349958
_symmetry_Int_Tables_number   1
_chemical_formula_structural   CaYb6CeSb6
_chemical_formula_sum   'Ca1 Yb6 Ce1 Sb6'
_cell_volume   422.20772291
_cell_formula_units_Z   1
loop_
 _symmetry_equiv_pos_site_id
 _symmetry_equiv_pos_as_xyz
  1  'x, y, z'
loop_
 _atom_site_type_symbol
 _atom_site_label
 _atom_site_symmetry_multiplicity
 _atom_site_fract_x
 _atom_site_fract_y
 _atom_site_fract_z
 _atom_site_occupancy
  Ca  Ca0  1  0.849780  0.000688  0.000050  1
  Yb  Yb1  1  0.000957  0.354012  0.498368  1
  Yb  Yb2  1  0.499353  0.499291  0.149876  1
  Yb  Yb3  1  0.649084  0.150702  0.351745  1
  Yb  Yb4  1  0.359928  0.002432  0.993592  1
  Yb  Yb5  1  0.493581  0.495831  0.647419  1
  Yb  Yb6  1  0.147311  0.643352  0.859171  1
  Ce  Ce7  1  0.000153  0.851076  0.499864  1
  Sb  Sb8  1  0.628655  0.872281  0.746309  1
  Sb  Sb9  1  0.875534  0.628998  0.254475  1
  Sb  Sb10  1  0.246579  0.119528  0.624558  1
  Sb  Sb11  1  0.754835  0.384228  0.869220  1
  Sb  Sb12  1  0.369617  0.753488  0.376343  1
  Sb  Sb13  1  0.124633  0.244092  0.129007  1
