# generated using pymatgen
data_DyHo7B24(IrRu)2
_symmetry_space_group_name_H-M   'P 1'
_cell_length_a   3.64697400
_cell_length_b   9.16626957
_cell_length_c   11.49042900
_cell_angle_alpha   90.05614077
_cell_angle_beta   90.00000000
_cell_angle_gamma   90.00000000
_symmetry_Int_Tables_number   1
_chemical_formula_structural   DyHo7B24(IrRu)2
_chemical_formula_sum   'Dy1 Ho7 B24 Ir2 Ru2'
_cell_volume   384.11505349
_cell_formula_units_Z   1
loop_
 _symmetry_equiv_pos_site_id
 _symmetry_equiv_pos_as_xyz
  1  'x, y, z'
loop_
 _atom_site_type_symbol
 _atom_site_label
 _atom_site_symmetry_multiplicity
 _atom_site_fract_x
 _atom_site_fract_y
 _atom_site_fract_z
 _atom_site_occupancy
  Dy  Dy0  1  0.000000  0.319388  0.411848  1
  Ho  Ho1  1  0.000000  0.680847  0.588173  1
  Ho  Ho2  1  0.000000  0.823438  0.085194  1
  Ho  Ho3  1  0.000000  0.176541  0.914799  1
  Ho  Ho4  1  0.000000  0.945795  0.372869  1
  Ho  Ho5  1  0.000000  0.054058  0.627146  1
  Ho  Ho6  1  0.000000  0.442513  0.125581  1
  Ho  Ho7  1  0.000000  0.557517  0.874407  1
  B  B8  1  0.500000  0.552983  0.433673  1
  B  B9  1  0.500000  0.447333  0.566499  1
  B  B10  1  0.500000  0.053921  0.066722  1
  B  B11  1  0.500000  0.946044  0.933219  1
  B  B12  1  0.500000  0.750187  0.420485  1
  B  B13  1  0.500000  0.249746  0.579775  1
  B  B14  1  0.500000  0.247602  0.079686  1
  B  B15  1  0.500000  0.752389  0.920253  1
  B  B16  1  0.500000  0.792769  0.266070  1
  B  B17  1  0.500000  0.207224  0.733986  1
  B  B18  1  0.500000  0.291589  0.233775  1
  B  B19  1  0.500000  0.708296  0.766041  1
  B  B20  1  0.500000  0.632034  0.184395  1
  B  B21  1  0.500000  0.368003  0.815599  1
  B  B22  1  0.500000  0.132194  0.314477  1
  B  B23  1  0.500000  0.867599  0.685403  1
  B  B24  1  0.500000  0.983580  0.212733  1
  B  B25  1  0.500000  0.016330  0.787234  1
  B  B26  1  0.500000  0.482048  0.286361  1
  B  B27  1  0.500000  0.518245  0.713532  1
  B  B28  1  0.500000  0.611660  0.030998  1
  B  B29  1  0.500000  0.388370  0.968984  1
  B  B30  1  0.500000  0.110387  0.469912  1
  B  B31  1  0.500000  0.889228  0.530185  1
  Ir  Ir32  1  0.000000  0.637721  0.322332  1
  Ir  Ir33  1  0.000000  0.362571  0.677761  1
  Ru  Ru34  1  0.000000  0.137806  0.178604  1
  Ru  Ru35  1  0.000000  0.862042  0.821291  1
