# generated using pymatgen
data_Sc2Co9Mo3As7
_symmetry_space_group_name_H-M   'P 1'
_cell_length_a   3.79184800
_cell_length_b   9.32918321
_cell_length_c   9.32918300
_cell_angle_alpha   119.99999573
_cell_angle_beta   90.00000000
_cell_angle_gamma   90.00000000
_symmetry_Int_Tables_number   1
_chemical_formula_structural   Sc2Co9Mo3As7
_chemical_formula_sum   'Sc2 Co9 Mo3 As7'
_cell_volume   285.80433007
_cell_formula_units_Z   1
loop_
 _symmetry_equiv_pos_site_id
 _symmetry_equiv_pos_as_xyz
  1  'x, y, z'
loop_
 _atom_site_type_symbol
 _atom_site_label
 _atom_site_symmetry_multiplicity
 _atom_site_fract_x
 _atom_site_fract_y
 _atom_site_fract_z
 _atom_site_occupancy
  Sc  Sc0  1  0.000000  0.666667  0.333333  1
  Sc  Sc1  1  0.500000  0.333333  0.666667  1
  Co  Co2  1  0.000000  0.568980  0.939533  1
  Co  Co3  1  0.000000  0.370554  0.431020  1
  Co  Co4  1  0.000000  0.060467  0.629446  1
  Co  Co5  1  0.000000  0.877170  0.161972  1
  Co  Co6  1  0.000000  0.284803  0.122830  1
  Co  Co7  1  0.000000  0.838028  0.715197  1
  Co  Co8  1  0.500000  0.950036  0.385215  1
  Co  Co9  1  0.500000  0.435178  0.049964  1
  Co  Co10  1  0.500000  0.614785  0.564822  1
  Mo  Mo11  1  0.500000  0.779537  0.903994  1
  Mo  Mo12  1  0.500000  0.124457  0.220463  1
  Mo  Mo13  1  0.500000  0.096006  0.875543  1
  As  As14  1  0.000000  0.000000  0.000000  1
  As  As15  1  0.500000  0.708616  0.126293  1
  As  As16  1  0.500000  0.417677  0.291384  1
  As  As17  1  0.500000  0.873707  0.582323  1
  As  As18  1  0.000000  0.580195  0.699234  1
  As  As19  1  0.000000  0.119040  0.419805  1
  As  As20  1  0.000000  0.300766  0.880960  1
