# generated using pymatgen
data_Ba6Ca2HoUSe12
_symmetry_space_group_name_H-M   'P 1'
_cell_length_a   8.90961681
_cell_length_b   8.90961594
_cell_length_c   8.90961600
_cell_angle_alpha   91.93757355
_cell_angle_beta   91.93757951
_cell_angle_gamma   91.93758123
_symmetry_Int_Tables_number   1
_chemical_formula_structural   Ba6Ca2HoUSe12
_chemical_formula_sum   'Ba6 Ca2 Ho1 U1 Se12'
_cell_volume   706.01539143
_cell_formula_units_Z   1
loop_
 _symmetry_equiv_pos_site_id
 _symmetry_equiv_pos_as_xyz
  1  'x, y, z'
loop_
 _atom_site_type_symbol
 _atom_site_label
 _atom_site_symmetry_multiplicity
 _atom_site_fract_x
 _atom_site_fract_y
 _atom_site_fract_z
 _atom_site_occupancy
  Ba  Ba0  1  0.869799  0.622913  0.258124  1
  Ba  Ba1  1  0.258124  0.869799  0.622913  1
  Ba  Ba2  1  0.622913  0.258124  0.869799  1
  Ba  Ba3  1  0.741876  0.130201  0.377087  1
  Ba  Ba4  1  0.377087  0.741876  0.130201  1
  Ba  Ba5  1  0.130201  0.377087  0.741876  1
  Ca  Ca6  1  0.255975  0.255975  0.255975  1
  Ca  Ca7  1  0.744025  0.744025  0.744025  1
  Ho  Ho8  1  0.500000  0.500000  0.500000  1
  U  U9  1  0.000000  0.000000  0.000000  1
  Se  Se10  1  0.197489  0.548848  0.408389  1
  Se  Se11  1  0.408389  0.197489  0.548848  1
  Se  Se12  1  0.548848  0.408389  0.197489  1
  Se  Se13  1  0.918301  0.044570  0.703451  1
  Se  Se14  1  0.703451  0.918301  0.044570  1
  Se  Se15  1  0.044570  0.703451  0.918301  1
  Se  Se16  1  0.802511  0.451152  0.591611  1
  Se  Se17  1  0.591611  0.802511  0.451152  1
  Se  Se18  1  0.451152  0.591611  0.802511  1
  Se  Se19  1  0.081699  0.955430  0.296549  1
  Se  Se20  1  0.296549  0.081699  0.955430  1
  Se  Se21  1  0.955430  0.296549  0.081699  1
