# generated using pymatgen
data_PrFeCuSi
_symmetry_space_group_name_H-M   'P 1'
_cell_length_a   8.85944017
_cell_length_b   8.85944023
_cell_length_c   4.04778500
_cell_angle_alpha   90.00000000
_cell_angle_beta   90.00000000
_cell_angle_gamma   153.43853898
_symmetry_Int_Tables_number   1
_chemical_formula_structural   PrFeCuSi
_chemical_formula_sum   'Pr2 Fe2 Cu2 Si2'
_cell_volume   142.06613531
_cell_formula_units_Z   2
loop_
 _symmetry_equiv_pos_site_id
 _symmetry_equiv_pos_as_xyz
  1  'x, y, z'
loop_
 _atom_site_type_symbol
 _atom_site_label
 _atom_site_symmetry_multiplicity
 _atom_site_fract_x
 _atom_site_fract_y
 _atom_site_fract_z
 _atom_site_occupancy
  Pr  Pr0  1  0.612775  0.387225  0.250000  1
  Pr  Pr1  1  0.387225  0.612775  0.750000  1
  Fe  Fe2  1  0.251034  0.748966  0.250000  1
  Fe  Fe3  1  0.748966  0.251034  0.750000  1
  Cu  Cu4  1  0.959138  0.040862  0.250000  1
  Cu  Cu5  1  0.040862  0.959138  0.750000  1
  Si  Si6  1  0.812571  0.187429  0.250000  1
  Si  Si7  1  0.187429  0.812571  0.750000  1
