# generated using pymatgen
data_Er16Lu4Ir7Pt5
_symmetry_space_group_name_H-M   'P 1'
_cell_length_a   10.88279485
_cell_length_b   10.88279485
_cell_length_c   6.27969510
_cell_angle_alpha   90.01458173
_cell_angle_beta   90.01458173
_cell_angle_gamma   89.76559934
_symmetry_Int_Tables_number   1
_chemical_formula_structural   Er16Lu4Ir7Pt5
_chemical_formula_sum   'Er16 Lu4 Ir7 Pt5'
_cell_volume   743.73082332
_cell_formula_units_Z   1
loop_
 _symmetry_equiv_pos_site_id
 _symmetry_equiv_pos_as_xyz
  1  'x, y, z'
loop_
 _atom_site_type_symbol
 _atom_site_label
 _atom_site_symmetry_multiplicity
 _atom_site_fract_x
 _atom_site_fract_y
 _atom_site_fract_z
 _atom_site_occupancy
  Er  Er0  1  0.294202  0.088529  0.371177  1
  Er  Er1  1  0.294378  0.910684  0.870470  1
  Er  Er2  1  0.704915  0.084947  0.870452  1
  Er  Er3  1  0.705437  0.910009  0.370512  1
  Er  Er4  1  0.584449  0.787985  0.874832  1
  Er  Er5  1  0.582347  0.208203  0.371484  1
  Er  Er6  1  0.415290  0.789495  0.374075  1
  Er  Er7  1  0.411398  0.208579  0.876326  1
  Er  Er8  1  0.212015  0.415551  0.625168  1
  Er  Er9  1  0.210505  0.584710  0.125925  1
  Er  Er10  1  0.791797  0.417653  0.128516  1
  Er  Er11  1  0.791421  0.588602  0.623674  1
  Er  Er12  1  0.911471  0.705798  0.128823  1
  Er  Er13  1  0.915053  0.295085  0.629548  1
  Er  Er14  1  0.089316  0.705622  0.629530  1
  Er  Er15  1  0.089991  0.294563  0.129488  1
  Lu  Lu16  1  0.999009  0.000021  0.498985  1
  Lu  Lu17  1  0.999979  0.000991  0.001015  1
  Lu  Lu18  1  0.498156  0.500398  0.000491  1
  Lu  Lu19  1  0.499602  0.501844  0.499509  1
  Ir  Ir20  1  0.652954  0.651736  0.249819  1
  Ir  Ir21  1  0.348264  0.347046  0.250181  1
  Ir  Ir22  1  0.346566  0.653434  0.750000  1
  Ir  Ir23  1  0.499811  0.999629  0.120444  1
  Ir  Ir24  1  0.499792  0.999695  0.622192  1
  Ir  Ir25  1  0.000305  0.500208  0.877808  1
  Ir  Ir26  1  0.000371  0.500189  0.379556  1
  Pt  Pt27  1  0.846622  0.153378  0.250000  1
  Pt  Pt28  1  0.848510  0.849794  0.751013  1
  Pt  Pt29  1  0.150206  0.151490  0.748987  1
  Pt  Pt30  1  0.151952  0.848048  0.250000  1
  Pt  Pt31  1  0.653916  0.346084  0.750000  1
