# generated using pymatgen
data_P4PtRhO14
_symmetry_space_group_name_H-M   'P 1'
_cell_length_a   4.82589778
_cell_length_b   6.93978062
_cell_length_c   8.10736618
_cell_angle_alpha   91.87251433
_cell_angle_beta   92.35538058
_cell_angle_gamma   106.34558010
_symmetry_Int_Tables_number   1
_chemical_formula_structural   P4PtRhO14
_chemical_formula_sum   'P4 Pt1 Rh1 O14'
_cell_volume   260.04929071
_cell_formula_units_Z   1
loop_
 _symmetry_equiv_pos_site_id
 _symmetry_equiv_pos_as_xyz
  1  'x, y, z'
loop_
 _atom_site_type_symbol
 _atom_site_label
 _atom_site_symmetry_multiplicity
 _atom_site_fract_x
 _atom_site_fract_y
 _atom_site_fract_z
 _atom_site_occupancy
  P  P0  1  0.530308  0.140343  0.765607  1
  P  P1  1  0.114212  0.747036  0.691815  1
  P  P2  1  0.885788  0.252964  0.308185  1
  P  P3  1  0.469692  0.859657  0.234393  1
  Pt  Pt4  1  0.000000  0.000000  0.000000  1
  Rh  Rh5  1  0.500000  0.500000  0.500000  1
  O  O6  1  0.380201  0.173680  0.924071  1
  O  O7  1  0.034026  0.751113  0.874624  1
  O  O8  1  0.801129  0.067420  0.796789  1
  O  O9  1  0.294378  0.596890  0.680228  1
  O  O10  1  0.629323  0.325850  0.665045  1
  O  O11  1  0.306978  0.967635  0.648464  1
  O  O12  1  0.859901  0.715278  0.563225  1
  O  O13  1  0.140099  0.284722  0.436775  1
  O  O14  1  0.693022  0.032365  0.351536  1
  O  O15  1  0.370677  0.674150  0.334955  1
  O  O16  1  0.705622  0.403110  0.319772  1
  O  O17  1  0.198871  0.932580  0.203211  1
  O  O18  1  0.965974  0.248887  0.125376  1
  O  O19  1  0.619799  0.826320  0.075929  1
