# generated using pymatgen
data_Na8Cd(Sn4Au)3
_symmetry_space_group_name_H-M   'P 1'
_cell_length_a   9.94202700
_cell_length_b   9.94202680
_cell_length_c   7.56839900
_cell_angle_alpha   90.00000000
_cell_angle_beta   90.00000000
_cell_angle_gamma   119.99999735
_symmetry_Int_Tables_number   1
_chemical_formula_structural   Na8Cd(Sn4Au)3
_chemical_formula_sum   'Na8 Cd1 Sn12 Au3'
_cell_volume   647.86501800
_cell_formula_units_Z   1
loop_
 _symmetry_equiv_pos_site_id
 _symmetry_equiv_pos_as_xyz
  1  'x, y, z'
loop_
 _atom_site_type_symbol
 _atom_site_label
 _atom_site_symmetry_multiplicity
 _atom_site_fract_x
 _atom_site_fract_y
 _atom_site_fract_z
 _atom_site_occupancy
  Na  Na0  1  0.534134  0.068267  0.248693  1
  Na  Na1  1  0.056031  0.528016  0.754903  1
  Na  Na2  1  0.471984  0.528016  0.754903  1
  Na  Na3  1  0.534134  0.465866  0.248693  1
  Na  Na4  1  0.471984  0.943969  0.754903  1
  Na  Na5  1  0.931733  0.465866  0.248693  1
  Na  Na6  1  0.000000  0.000000  0.750139  1
  Na  Na7  1  0.000000  0.000000  0.245541  1
  Cd  Cd8  1  0.333333  0.666667  0.436273  1
  Sn  Sn9  1  0.172247  0.827753  0.053674  1
  Sn  Sn10  1  0.827220  0.654439  0.553654  1
  Sn  Sn11  1  0.345561  0.172780  0.553654  1
  Sn  Sn12  1  0.828780  0.171220  0.948500  1
  Sn  Sn13  1  0.828780  0.657560  0.948500  1
  Sn  Sn14  1  0.827220  0.172780  0.553654  1
  Sn  Sn15  1  0.342440  0.171220  0.948500  1
  Sn  Sn16  1  0.655507  0.827753  0.053674  1
  Sn  Sn17  1  0.667868  0.833934  0.450488  1
  Sn  Sn18  1  0.166066  0.332132  0.450488  1
  Sn  Sn19  1  0.166066  0.833934  0.450488  1
  Sn  Sn20  1  0.172247  0.344493  0.053674  1
  Au  Au21  1  0.666667  0.333333  0.544783  1
  Au  Au22  1  0.666667  0.333333  0.953087  1
  Au  Au23  1  0.333333  0.666667  0.040443  1
