# generated using pymatgen
data_Zr6Zn7Au16S
_symmetry_space_group_name_H-M   'P 1'
_cell_length_a   9.13001258
_cell_length_b   9.13001250
_cell_length_c   9.13001400
_cell_angle_alpha   60.00000182
_cell_angle_beta   60.00000211
_cell_angle_gamma   59.99999903
_symmetry_Int_Tables_number   1
_chemical_formula_structural   Zr6Zn7Au16S
_chemical_formula_sum   'Zr6 Zn7 Au16 S1'
_cell_volume   538.14486871
_cell_formula_units_Z   1
loop_
 _symmetry_equiv_pos_site_id
 _symmetry_equiv_pos_as_xyz
  1  'x, y, z'
loop_
 _atom_site_type_symbol
 _atom_site_label
 _atom_site_symmetry_multiplicity
 _atom_site_fract_x
 _atom_site_fract_y
 _atom_site_fract_z
 _atom_site_occupancy
  Zr  Zr0  1  0.711625  0.288375  0.288375  1
  Zr  Zr1  1  0.288375  0.711625  0.711625  1
  Zr  Zr2  1  0.288375  0.711625  0.288375  1
  Zr  Zr3  1  0.711625  0.288375  0.711625  1
  Zr  Zr4  1  0.288375  0.288375  0.711625  1
  Zr  Zr5  1  0.711625  0.711625  0.288375  1
  Zn  Zn6  1  0.500000  0.000000  0.000000  1
  Zn  Zn7  1  0.000000  0.500000  0.500000  1
  Zn  Zn8  1  0.000000  0.500000  0.000000  1
  Zn  Zn9  1  0.500000  0.000000  0.500000  1
  Zn  Zn10  1  0.000000  0.000000  0.500000  1
  Zn  Zn11  1  0.500000  0.500000  0.000000  1
  Zn  Zn12  1  0.000000  0.000000  0.000000  1
  Au  Au13  1  0.118021  0.118021  0.118021  1
  Au  Au14  1  0.881979  0.881979  0.881979  1
  Au  Au15  1  0.118021  0.118021  0.645937  1
  Au  Au16  1  0.118021  0.645937  0.118021  1
  Au  Au17  1  0.881979  0.881979  0.354063  1
  Au  Au18  1  0.881979  0.354063  0.881979  1
  Au  Au19  1  0.645937  0.118021  0.118021  1
  Au  Au20  1  0.354063  0.881979  0.881979  1
  Au  Au21  1  0.342932  0.342932  0.342932  1
  Au  Au22  1  0.657068  0.657068  0.657068  1
  Au  Au23  1  0.342932  0.342932  0.971204  1
  Au  Au24  1  0.342932  0.971204  0.342932  1
  Au  Au25  1  0.657068  0.657068  0.028796  1
  Au  Au26  1  0.657068  0.028796  0.657068  1
  Au  Au27  1  0.971204  0.342932  0.342932  1
  Au  Au28  1  0.028796  0.657068  0.657068  1
  S  S29  1  0.500000  0.500000  0.500000  1
