# generated using pymatgen
data_La6Sm2PPd24
_symmetry_space_group_name_H-M   'P 1'
_cell_length_a   8.50845905
_cell_length_b   8.50845909
_cell_length_c   8.50845900
_cell_angle_alpha   90.00592590
_cell_angle_beta   89.99407410
_cell_angle_gamma   89.99407471
_symmetry_Int_Tables_number   1
_chemical_formula_structural   La6Sm2PPd24
_chemical_formula_sum   'La6 Sm2 P1 Pd24'
_cell_volume   615.96031350
_cell_formula_units_Z   1
loop_
 _symmetry_equiv_pos_site_id
 _symmetry_equiv_pos_as_xyz
  1  'x, y, z'
loop_
 _atom_site_type_symbol
 _atom_site_label
 _atom_site_symmetry_multiplicity
 _atom_site_fract_x
 _atom_site_fract_y
 _atom_site_fract_z
 _atom_site_occupancy
  La  La0  1  0.254434  0.253936  0.253936  1
  La  La1  1  0.745566  0.746064  0.746064  1
  La  La2  1  0.746064  0.745566  0.253936  1
  La  La3  1  0.746064  0.253936  0.745566  1
  La  La4  1  0.253936  0.254434  0.746064  1
  La  La5  1  0.253936  0.746064  0.254434  1
  Sm  Sm6  1  0.253491  0.746509  0.746509  1
  Sm  Sm7  1  0.746509  0.253491  0.253491  1
  P  P8  1  0.000000  0.000000  0.000000  1
  Pd  Pd9  1  0.256703  0.500839  0.998467  1
  Pd  Pd10  1  0.743297  0.499161  0.001533  1
  Pd  Pd11  1  0.998467  0.256703  0.499161  1
  Pd  Pd12  1  0.500839  0.256703  0.001533  1
  Pd  Pd13  1  0.001533  0.743297  0.500839  1
  Pd  Pd14  1  0.499161  0.743297  0.998467  1
  Pd  Pd15  1  0.500839  0.001533  0.256703  1
  Pd  Pd16  1  0.256703  0.998467  0.500839  1
  Pd  Pd17  1  0.499161  0.998467  0.743297  1
  Pd  Pd18  1  0.743297  0.001533  0.499161  1
  Pd  Pd19  1  0.998467  0.499161  0.256703  1
  Pd  Pd20  1  0.001533  0.500839  0.743297  1
  Pd  Pd21  1  0.251917  0.501540  0.501540  1
  Pd  Pd22  1  0.748083  0.498460  0.498460  1
  Pd  Pd23  1  0.501540  0.251917  0.498460  1
  Pd  Pd24  1  0.498460  0.748083  0.501540  1
  Pd  Pd25  1  0.501540  0.498460  0.251917  1
  Pd  Pd26  1  0.498460  0.501540  0.748083  1
  Pd  Pd27  1  0.278096  0.997610  0.997610  1
  Pd  Pd28  1  0.721904  0.002390  0.002390  1
  Pd  Pd29  1  0.997610  0.278096  0.002390  1
  Pd  Pd30  1  0.002390  0.721904  0.997610  1
  Pd  Pd31  1  0.997610  0.002390  0.278096  1
  Pd  Pd32  1  0.002390  0.997610  0.721904  1
