# generated using pymatgen
data_Er4Al18Pd2RuRh3
_symmetry_space_group_name_H-M   'P 1'
_cell_length_a   7.56486946
_cell_length_b   7.56486931
_cell_length_c   9.44704169
_cell_angle_alpha   89.90362621
_cell_angle_beta   89.90362877
_cell_angle_gamma   119.49431712
_symmetry_Int_Tables_number   1
_chemical_formula_structural   Er4Al18Pd2RuRh3
_chemical_formula_sum   'Er4 Al18 Pd2 Ru1 Rh3'
_cell_volume   470.56261779
_cell_formula_units_Z   1
loop_
 _symmetry_equiv_pos_site_id
 _symmetry_equiv_pos_as_xyz
  1  'x, y, z'
loop_
 _atom_site_type_symbol
 _atom_site_label
 _atom_site_symmetry_multiplicity
 _atom_site_fract_x
 _atom_site_fract_y
 _atom_site_fract_z
 _atom_site_occupancy
  Er  Er0  1  0.994724  0.670957  0.750221  1
  Er  Er1  1  0.005276  0.329043  0.249779  1
  Er  Er2  1  0.670957  0.994724  0.750221  1
  Er  Er3  1  0.329043  0.005276  0.249779  1
  Al  Al4  1  0.125758  0.125758  0.749958  1
  Al  Al5  1  0.874242  0.874242  0.250042  1
  Al  Al6  1  0.001137  0.330325  0.577324  1
  Al  Al7  1  0.998863  0.669675  0.422676  1
  Al  Al8  1  0.000648  0.664896  0.075148  1
  Al  Al9  1  0.335104  0.999352  0.924852  1
  Al  Al10  1  0.999352  0.335104  0.924852  1
  Al  Al11  1  0.664896  0.000648  0.075148  1
  Al  Al12  1  0.669675  0.998863  0.422676  1
  Al  Al13  1  0.330325  0.001137  0.577324  1
  Al  Al14  1  0.332039  0.332039  0.049983  1
  Al  Al15  1  0.667961  0.667961  0.950017  1
  Al  Al16  1  0.670851  0.670851  0.556335  1
  Al  Al17  1  0.329149  0.329149  0.443665  1
  Al  Al18  1  0.340947  0.548691  0.753522  1
  Al  Al19  1  0.659053  0.451309  0.246478  1
  Al  Al20  1  0.548691  0.340947  0.753522  1
  Al  Al21  1  0.451309  0.659053  0.246478  1
  Pd  Pd22  1  0.672431  0.327569  0.500000  1
  Pd  Pd23  1  0.327569  0.672431  0.500000  1
  Ru  Ru24  1  0.000000  0.000000  0.500000  1
  Rh  Rh25  1  0.328174  0.671826  0.000000  1
  Rh  Rh26  1  0.671826  0.328174  0.000000  1
  Rh  Rh27  1  0.000000  0.000000  0.000000  1
