# generated using pymatgen
data_Tm6Lu4TlSn5
_symmetry_space_group_name_H-M   'P 1'
_cell_length_a   8.84176100
_cell_length_b   8.84176228
_cell_length_c   6.38293400
_cell_angle_alpha   90.00000000
_cell_angle_beta   90.00000000
_cell_angle_gamma   119.83866261
_symmetry_Int_Tables_number   1
_chemical_formula_structural   Tm6Lu4TlSn5
_chemical_formula_sum   'Tm6 Lu4 Tl1 Sn5'
_cell_volume   432.84494425
_cell_formula_units_Z   1
loop_
 _symmetry_equiv_pos_site_id
 _symmetry_equiv_pos_as_xyz
  1  'x, y, z'
loop_
 _atom_site_type_symbol
 _atom_site_label
 _atom_site_symmetry_multiplicity
 _atom_site_fract_x
 _atom_site_fract_y
 _atom_site_fract_z
 _atom_site_occupancy
  Tm  Tm0  1  0.762042  0.762042  0.750000  1
  Tm  Tm1  1  0.237243  0.000507  0.750000  1
  Tm  Tm2  1  0.000507  0.237243  0.750000  1
  Tm  Tm3  1  0.237364  0.237364  0.250000  1
  Tm  Tm4  1  0.762176  0.999923  0.250000  1
  Tm  Tm5  1  0.999923  0.762176  0.250000  1
  Lu  Lu6  1  0.667340  0.333417  0.999035  1
  Lu  Lu7  1  0.333417  0.667340  0.999035  1
  Lu  Lu8  1  0.333417  0.667340  0.500965  1
  Lu  Lu9  1  0.667340  0.333417  0.500965  1
  Tl  Tl10  1  0.394825  0.394825  0.750000  1
  Sn  Sn11  1  0.603579  0.999898  0.750000  1
  Sn  Sn12  1  0.999898  0.603579  0.750000  1
  Sn  Sn13  1  0.604664  0.604664  0.250000  1
  Sn  Sn14  1  0.395974  0.000291  0.250000  1
  Sn  Sn15  1  0.000291  0.395974  0.250000  1
