# generated using pymatgen
data_Nd2TaNbN4
_symmetry_space_group_name_H-M   'P 1'
_cell_length_a   3.38968500
_cell_length_b   5.82961814
_cell_length_c   11.09760853
_cell_angle_alpha   90.19156745
_cell_angle_beta   90.00000000
_cell_angle_gamma   90.00000000
_symmetry_Int_Tables_number   1
_chemical_formula_structural   Nd2TaNbN4
_chemical_formula_sum   'Nd4 Ta2 Nb2 N8'
_cell_volume   219.29383497
_cell_formula_units_Z   2
loop_
 _symmetry_equiv_pos_site_id
 _symmetry_equiv_pos_as_xyz
  1  'x, y, z'
loop_
 _atom_site_type_symbol
 _atom_site_label
 _atom_site_symmetry_multiplicity
 _atom_site_fract_x
 _atom_site_fract_y
 _atom_site_fract_z
 _atom_site_occupancy
  Nd  Nd0  1  0.250000  0.587474  0.861218  1
  Nd  Nd1  1  0.750000  0.412526  0.138782  1
  Nd  Nd2  1  0.750000  0.915717  0.363412  1
  Nd  Nd3  1  0.250000  0.084283  0.636588  1
  Ta  Ta4  1  0.250000  0.916617  0.111702  1
  Ta  Ta5  1  0.750000  0.083383  0.888298  1
  Nb  Nb6  1  0.750000  0.580332  0.606966  1
  Nb  Nb7  1  0.250000  0.419668  0.393034  1
  N  N8  1  0.250000  0.664917  0.243395  1
  N  N9  1  0.750000  0.335083  0.756605  1
  N  N10  1  0.750000  0.839737  0.750284  1
  N  N11  1  0.250000  0.160263  0.249716  1
  N  N12  1  0.250000  0.730743  0.511467  1
  N  N13  1  0.750000  0.269257  0.488533  1
  N  N14  1  0.750000  0.779043  0.014852  1
  N  N15  1  0.250000  0.220957  0.985148  1
