# generated using pymatgen
data_CsMo(SO4)2
_symmetry_space_group_name_H-M   'P 1'
_cell_length_a   5.08300800
_cell_length_b   5.08295110
_cell_length_c   9.04066200
_cell_angle_alpha   89.99943526
_cell_angle_beta   89.99933861
_cell_angle_gamma   120.00069378
_symmetry_Int_Tables_number   1
_chemical_formula_structural   CsMo(SO4)2
_chemical_formula_sum   'Cs1 Mo1 S2 O8'
_cell_volume   202.28540683
_cell_formula_units_Z   1
loop_
 _symmetry_equiv_pos_site_id
 _symmetry_equiv_pos_as_xyz
  1  'x, y, z'
loop_
 _atom_site_type_symbol
 _atom_site_label
 _atom_site_symmetry_multiplicity
 _atom_site_fract_x
 _atom_site_fract_y
 _atom_site_fract_z
 _atom_site_occupancy
  Cs  Cs0  1  0.000000  0.000000  0.000000  1
  Mo  Mo1  1  0.000000  0.000000  0.500000  1
  S  S2  1  0.333344  0.666680  0.300758  1
  S  S3  1  0.666656  0.333321  0.699242  1
  O  O4  1  0.333339  0.666673  0.139099  1
  O  O5  1  0.290948  0.370406  0.356591  1
  O  O6  1  0.079473  0.709062  0.356592  1
  O  O7  1  0.629601  0.920540  0.356587  1
  O  O8  1  0.370399  0.079460  0.643413  1
  O  O9  1  0.920527  0.290938  0.643408  1
  O  O10  1  0.709052  0.629594  0.643409  1
  O  O11  1  0.666661  0.333328  0.860901  1
