# generated using pymatgen
data_Ho17Er(TmPb8)2
_symmetry_space_group_name_H-M   'P 1'
_cell_length_a   8.17192003
_cell_length_b   8.24309434
_cell_length_c   15.58512500
_cell_angle_alpha   90.00000000
_cell_angle_beta   90.00000000
_cell_angle_gamma   90.02141621
_symmetry_Int_Tables_number   1
_chemical_formula_structural   Ho17Er(TmPb8)2
_chemical_formula_sum   'Ho17 Er1 Tm2 Pb16'
_cell_volume   1049.84367929
_cell_formula_units_Z   1
loop_
 _symmetry_equiv_pos_site_id
 _symmetry_equiv_pos_as_xyz
  1  'x, y, z'
loop_
 _atom_site_type_symbol
 _atom_site_label
 _atom_site_symmetry_multiplicity
 _atom_site_fract_x
 _atom_site_fract_y
 _atom_site_fract_z
 _atom_site_occupancy
  Ho  Ho0  1  0.377399  0.841219  0.879032  1
  Ho  Ho1  1  0.877056  0.659011  0.620961  1
  Ho  Ho2  1  0.622701  0.158845  0.379037  1
  Ho  Ho3  1  0.122809  0.341081  0.121006  1
  Ho  Ho4  1  0.622701  0.158845  0.120963  1
  Ho  Ho5  1  0.122809  0.341081  0.378994  1
  Ho  Ho6  1  0.377399  0.841219  0.620968  1
  Ho  Ho7  1  0.877056  0.659011  0.879039  1
  Ho  Ho8  1  0.536850  0.323320  0.900120  1
  Ho  Ho9  1  0.036647  0.176454  0.599882  1
  Ho  Ho10  1  0.463205  0.676625  0.400088  1
  Ho  Ho11  1  0.963292  0.823449  0.099874  1
  Ho  Ho12  1  0.463205  0.676625  0.099912  1
  Ho  Ho13  1  0.963292  0.823449  0.400126  1
  Ho  Ho14  1  0.536850  0.323320  0.599880  1
  Ho  Ho15  1  0.036647  0.176454  0.900118  1
  Ho  Ho16  1  0.208611  0.504103  0.750000  1
  Er  Er17  1  0.791282  0.495814  0.250000  1
  Tm  Tm18  1  0.708768  0.995769  0.750000  1
  Tm  Tm19  1  0.291253  0.004183  0.250000  1
  Pb  Pb20  1  0.280705  0.032536  0.042703  1
  Pb  Pb21  1  0.780718  0.467491  0.457365  1
  Pb  Pb22  1  0.719282  0.967476  0.542685  1
  Pb  Pb23  1  0.219300  0.532557  0.957531  1
  Pb  Pb24  1  0.719282  0.967476  0.957315  1
  Pb  Pb25  1  0.219300  0.532557  0.542469  1
  Pb  Pb26  1  0.280705  0.032536  0.457297  1
  Pb  Pb27  1  0.780718  0.467491  0.042635  1
  Pb  Pb28  1  0.572084  0.626766  0.750000  1
  Pb  Pb29  1  0.071456  0.873800  0.750000  1
  Pb  Pb30  1  0.428275  0.373392  0.250000  1
  Pb  Pb31  1  0.928502  0.126420  0.250000  1
  Pb  Pb32  1  0.348447  0.153645  0.750000  1
  Pb  Pb33  1  0.848150  0.345616  0.750000  1
  Pb  Pb34  1  0.651592  0.845984  0.250000  1
  Pb  Pb35  1  0.151654  0.654378  0.250000  1
