# generated using pymatgen
data_Rb4P2PtS8
_symmetry_space_group_name_H-M   'P 1'
_cell_length_a   6.77649468
_cell_length_b   7.27132082
_cell_length_c   9.42672303
_cell_angle_alpha   86.91965840
_cell_angle_beta   81.73134459
_cell_angle_gamma   85.59574137
_symmetry_Int_Tables_number   1
_chemical_formula_structural   Rb4P2PtS8
_chemical_formula_sum   'Rb4 P2 Pt1 S8'
_cell_volume   457.87781663
_cell_formula_units_Z   1
loop_
 _symmetry_equiv_pos_site_id
 _symmetry_equiv_pos_as_xyz
  1  'x, y, z'
loop_
 _atom_site_type_symbol
 _atom_site_label
 _atom_site_symmetry_multiplicity
 _atom_site_fract_x
 _atom_site_fract_y
 _atom_site_fract_z
 _atom_site_occupancy
  Rb  Rb0  1  0.284179  0.332753  0.139990  1
  Rb  Rb1  1  0.745128  0.219335  0.479186  1
  Rb  Rb2  1  0.254872  0.780665  0.520814  1
  Rb  Rb3  1  0.715821  0.667247  0.860010  1
  P  P4  1  0.828443  0.735424  0.258604  1
  P  P5  1  0.171557  0.264576  0.741396  1
  Pt  Pt6  1  0.000000  0.000000  0.000000  1
  S  S7  1  0.692777  0.959017  0.147162  1
  S  S8  1  0.775128  0.489596  0.187230  1
  S  S9  1  0.122484  0.807447  0.181551  1
  S  S10  1  0.763637  0.744801  0.475446  1
  S  S11  1  0.236363  0.255199  0.524554  1
  S  S12  1  0.877516  0.192553  0.818449  1
  S  S13  1  0.224872  0.510404  0.812770  1
  S  S14  1  0.307223  0.040983  0.852838  1
