# generated using pymatgen
data_Li14ZrFeN8
_symmetry_space_group_name_H-M   'P 1'
_cell_length_a   6.92883800
_cell_length_b   6.92883800
_cell_length_c   4.93301600
_cell_angle_alpha   90.00000000
_cell_angle_beta   90.00000000
_cell_angle_gamma   90.00000000
_symmetry_Int_Tables_number   1
_chemical_formula_structural   Li14ZrFeN8
_chemical_formula_sum   'Li14 Zr1 Fe1 N8'
_cell_volume   236.82815896
_cell_formula_units_Z   1
loop_
 _symmetry_equiv_pos_site_id
 _symmetry_equiv_pos_as_xyz
  1  'x, y, z'
loop_
 _atom_site_type_symbol
 _atom_site_label
 _atom_site_symmetry_multiplicity
 _atom_site_fract_x
 _atom_site_fract_y
 _atom_site_fract_z
 _atom_site_occupancy
  Li  Li0  1  0.500000  0.000000  0.536577  1
  Li  Li1  1  0.240949  0.759051  0.000000  1
  Li  Li2  1  0.000000  0.500000  0.933341  1
  Li  Li3  1  0.759051  0.240949  0.000000  1
  Li  Li4  1  0.269343  0.730657  0.500000  1
  Li  Li5  1  0.000000  0.000000  0.000000  1
  Li  Li6  1  0.500000  0.000000  0.066659  1
  Li  Li7  1  0.730657  0.730657  0.500000  1
  Li  Li8  1  0.269343  0.269343  0.500000  1
  Li  Li9  1  0.240949  0.240949  0.000000  1
  Li  Li10  1  0.759051  0.759051  0.000000  1
  Li  Li11  1  0.730657  0.269343  0.500000  1
  Li  Li12  1  0.000000  0.500000  0.463423  1
  Li  Li13  1  0.500000  0.500000  0.500000  1
  Zr  Zr14  1  0.000000  0.000000  0.500000  1
  Fe  Fe15  1  0.500000  0.500000  0.000000  1
  N  N16  1  0.000000  0.251455  0.729776  1
  N  N17  1  0.291112  0.500000  0.210668  1
  N  N18  1  0.500000  0.291112  0.789332  1
  N  N19  1  0.000000  0.748545  0.729776  1
  N  N20  1  0.500000  0.708888  0.789332  1
  N  N21  1  0.748545  0.000000  0.270224  1
  N  N22  1  0.708888  0.500000  0.210668  1
  N  N23  1  0.251455  0.000000  0.270224  1
