# generated using pymatgen
data_Cs3Zn2O4
_symmetry_space_group_name_H-M   'P 1'
_cell_length_a   6.64338100
_cell_length_b   11.08995100
_cell_length_c   10.78234900
_cell_angle_alpha   90.00000000
_cell_angle_beta   90.00000000
_cell_angle_gamma   90.00000000
_symmetry_Int_Tables_number   1
_chemical_formula_structural   Cs3Zn2O4
_chemical_formula_sum   'Cs12 Zn8 O16'
_cell_volume   794.38708009
_cell_formula_units_Z   4
loop_
 _symmetry_equiv_pos_site_id
 _symmetry_equiv_pos_as_xyz
  1  'x, y, z'
loop_
 _atom_site_type_symbol
 _atom_site_label
 _atom_site_symmetry_multiplicity
 _atom_site_fract_x
 _atom_site_fract_y
 _atom_site_fract_z
 _atom_site_occupancy
  Cs  Cs0  1  0.621577  0.156713  0.412529  1
  Cs  Cs1  1  0.878423  0.843287  0.412529  1
  Cs  Cs2  1  0.621577  0.343287  0.087471  1
  Cs  Cs3  1  0.878423  0.656713  0.087471  1
  Cs  Cs4  1  0.378423  0.843287  0.587471  1
  Cs  Cs5  1  0.121577  0.156713  0.587471  1
  Cs  Cs6  1  0.378423  0.656713  0.912529  1
  Cs  Cs7  1  0.121577  0.343287  0.912529  1
  Cs  Cs8  1  0.750000  0.500000  0.403869  1
  Cs  Cs9  1  0.750000  0.000000  0.096131  1
  Cs  Cs10  1  0.250000  0.500000  0.596131  1
  Cs  Cs11  1  0.250000  0.000000  0.903869  1
  Zn  Zn12  1  0.750000  0.500000  0.730626  1
  Zn  Zn13  1  0.750000  0.000000  0.769374  1
  Zn  Zn14  1  0.250000  0.500000  0.269374  1
  Zn  Zn15  1  0.250000  0.000000  0.230626  1
  Zn  Zn16  1  0.673910  0.250000  0.750000  1
  Zn  Zn17  1  0.826090  0.750000  0.750000  1
  Zn  Zn18  1  0.326090  0.750000  0.250000  1
  Zn  Zn19  1  0.173910  0.250000  0.250000  1
  O  O20  1  0.852555  0.355538  0.643965  1
  O  O21  1  0.647445  0.644462  0.643965  1
  O  O22  1  0.852555  0.144462  0.856035  1
  O  O23  1  0.647445  0.855538  0.856035  1
  O  O24  1  0.147445  0.644462  0.356035  1
  O  O25  1  0.352555  0.355538  0.356035  1
  O  O26  1  0.147445  0.855538  0.143965  1
  O  O27  1  0.352555  0.144462  0.143965  1
  O  O28  1  0.543277  0.398425  0.816600  1
  O  O29  1  0.956723  0.601575  0.816600  1
  O  O30  1  0.543277  0.101575  0.683400  1
  O  O31  1  0.956723  0.898425  0.683400  1
  O  O32  1  0.456723  0.601575  0.183400  1
  O  O33  1  0.043277  0.398425  0.183400  1
  O  O34  1  0.456723  0.898425  0.316600  1
  O  O35  1  0.043277  0.101575  0.316600  1
