# generated using pymatgen
data_LiEr6Zn22As
_symmetry_space_group_name_H-M   'P 1'
_cell_length_a   9.03999497
_cell_length_b   9.03999502
_cell_length_c   9.03999500
_cell_angle_alpha   59.99999641
_cell_angle_beta   59.99999624
_cell_angle_gamma   60.00000189
_symmetry_Int_Tables_number   1
_chemical_formula_structural   LiEr6Zn22As
_chemical_formula_sum   'Li1 Er6 Zn22 As1'
_cell_volume   522.38362488
_cell_formula_units_Z   1
loop_
 _symmetry_equiv_pos_site_id
 _symmetry_equiv_pos_as_xyz
  1  'x, y, z'
loop_
 _atom_site_type_symbol
 _atom_site_label
 _atom_site_symmetry_multiplicity
 _atom_site_fract_x
 _atom_site_fract_y
 _atom_site_fract_z
 _atom_site_occupancy
  Li  Li0  1  0.000000  0.000000  0.000000  1
  Er  Er1  1  0.715950  0.284050  0.284050  1
  Er  Er2  1  0.715950  0.284050  0.715950  1
  Er  Er3  1  0.715950  0.715950  0.284050  1
  Er  Er4  1  0.284050  0.715950  0.715950  1
  Er  Er5  1  0.284050  0.715950  0.284050  1
  Er  Er6  1  0.284050  0.284050  0.715950  1
  Zn  Zn7  1  0.623899  0.125367  0.125367  1
  Zn  Zn8  1  0.125367  0.623899  0.125367  1
  Zn  Zn9  1  0.125367  0.125367  0.623899  1
  Zn  Zn10  1  0.125367  0.125367  0.125367  1
  Zn  Zn11  1  0.376101  0.874633  0.874633  1
  Zn  Zn12  1  0.874633  0.376101  0.874633  1
  Zn  Zn13  1  0.874633  0.874633  0.376101  1
  Zn  Zn14  1  0.874633  0.874633  0.874633  1
  Zn  Zn15  1  0.500000  0.000000  0.000000  1
  Zn  Zn16  1  0.500000  0.000000  0.500000  1
  Zn  Zn17  1  0.500000  0.500000  0.000000  1
  Zn  Zn18  1  0.000000  0.500000  0.500000  1
  Zn  Zn19  1  0.000000  0.500000  0.000000  1
  Zn  Zn20  1  0.000000  0.000000  0.500000  1
  Zn  Zn21  1  0.008427  0.330524  0.330524  1
  Zn  Zn22  1  0.330524  0.008427  0.330524  1
  Zn  Zn23  1  0.330524  0.330524  0.008427  1
  Zn  Zn24  1  0.330524  0.330524  0.330524  1
  Zn  Zn25  1  0.991573  0.669476  0.669476  1
  Zn  Zn26  1  0.669476  0.991573  0.669476  1
  Zn  Zn27  1  0.669476  0.669476  0.991573  1
  Zn  Zn28  1  0.669476  0.669476  0.669476  1
  As  As29  1  0.500000  0.500000  0.500000  1
