# generated using pymatgen
data_Ho2FeCoGe2C
_symmetry_space_group_name_H-M   'P 1'
_cell_length_a   5.66846962
_cell_length_b   5.66846954
_cell_length_c   6.81317433
_cell_angle_alpha   125.23126669
_cell_angle_beta   125.23126767
_cell_angle_gamma   40.40405000
_symmetry_Int_Tables_number   1
_chemical_formula_structural   Ho2FeCoGe2C
_chemical_formula_sum   'Ho2 Fe1 Co1 Ge2 C1'
_cell_volume   111.92335977
_cell_formula_units_Z   1
loop_
 _symmetry_equiv_pos_site_id
 _symmetry_equiv_pos_as_xyz
  1  'x, y, z'
loop_
 _atom_site_type_symbol
 _atom_site_label
 _atom_site_symmetry_multiplicity
 _atom_site_fract_x
 _atom_site_fract_y
 _atom_site_fract_z
 _atom_site_occupancy
  Ho  Ho0  1  0.557340  0.557340  0.288335  1
  Ho  Ho1  1  0.442427  0.442427  0.711638  1
  Fe  Fe2  1  0.193117  0.193117  0.081701  1
  Co  Co3  1  0.805536  0.805536  0.915802  1
  Ge  Ge4  1  0.837745  0.837745  0.297079  1
  Ge  Ge5  1  0.161424  0.161424  0.702730  1
  C  C6  1  0.002411  0.002411  0.002716  1
