# generated using pymatgen
data_Tb7Dy11(HoPb8)2
_symmetry_space_group_name_H-M   'P 1'
_cell_length_a   8.22518211
_cell_length_b   8.30550059
_cell_length_c   15.67341866
_cell_angle_alpha   89.99818988
_cell_angle_beta   90.04002718
_cell_angle_gamma   89.89395938
_symmetry_Int_Tables_number   1
_chemical_formula_structural   Tb7Dy11(HoPb8)2
_chemical_formula_sum   'Tb7 Dy11 Ho2 Pb16'
_cell_volume   1070.71582115
_cell_formula_units_Z   1
loop_
 _symmetry_equiv_pos_site_id
 _symmetry_equiv_pos_as_xyz
  1  'x, y, z'
loop_
 _atom_site_type_symbol
 _atom_site_label
 _atom_site_symmetry_multiplicity
 _atom_site_fract_x
 _atom_site_fract_y
 _atom_site_fract_z
 _atom_site_occupancy
  Tb  Tb0  1  0.034936  0.176612  0.599980  1
  Tb  Tb1  1  0.464679  0.676129  0.400252  1
  Tb  Tb2  1  0.964714  0.823668  0.099735  1
  Tb  Tb3  1  0.464558  0.675893  0.099783  1
  Tb  Tb4  1  0.965136  0.823431  0.400347  1
  Tb  Tb5  1  0.534905  0.323625  0.599866  1
  Tb  Tb6  1  0.035045  0.176619  0.900300  1
  Dy  Dy7  1  0.376351  0.841695  0.878644  1
  Dy  Dy8  1  0.875554  0.657882  0.621028  1
  Dy  Dy9  1  0.623651  0.158184  0.378639  1
  Dy  Dy10  1  0.123772  0.341876  0.120768  1
  Dy  Dy11  1  0.623243  0.158209  0.121153  1
  Dy  Dy12  1  0.124198  0.341972  0.379126  1
  Dy  Dy13  1  0.376297  0.841983  0.621608  1
  Dy  Dy14  1  0.876125  0.658165  0.879127  1
  Dy  Dy15  1  0.536699  0.324555  0.899611  1
  Dy  Dy16  1  0.208328  0.504254  0.750199  1
  Dy  Dy17  1  0.708487  0.995847  0.750172  1
  Ho  Ho18  1  0.791531  0.495593  0.249785  1
  Ho  Ho19  1  0.291166  0.004234  0.249929  1
  Pb  Pb20  1  0.282599  0.033871  0.042914  1
  Pb  Pb21  1  0.782268  0.465183  0.457069  1
  Pb  Pb22  1  0.717421  0.965961  0.543019  1
  Pb  Pb23  1  0.219003  0.533762  0.956813  1
  Pb  Pb24  1  0.716878  0.966536  0.956955  1
  Pb  Pb25  1  0.217440  0.534914  0.543032  1
  Pb  Pb26  1  0.282699  0.034176  0.457181  1
  Pb  Pb27  1  0.781775  0.464678  0.042388  1
  Pb  Pb28  1  0.571658  0.625671  0.750022  1
  Pb  Pb29  1  0.071188  0.873661  0.750025  1
  Pb  Pb30  1  0.428620  0.374051  0.249804  1
  Pb  Pb31  1  0.928833  0.126548  0.249967  1
  Pb  Pb32  1  0.347146  0.153965  0.750571  1
  Pb  Pb33  1  0.846507  0.346974  0.750201  1
  Pb  Pb34  1  0.653167  0.846370  0.250034  1
  Pb  Pb35  1  0.153419  0.653251  0.249957  1
