# generated using pymatgen
data_Sm3Y(OsO4)4
_symmetry_space_group_name_H-M   'P 1'
_cell_length_a   5.43824610
_cell_length_b   7.76667893
_cell_length_c   7.51917537
_cell_angle_alpha   79.08911269
_cell_angle_beta   91.15886943
_cell_angle_gamma   94.08835731
_symmetry_Int_Tables_number   1
_chemical_formula_structural   Sm3Y(OsO4)4
_chemical_formula_sum   'Sm3 Y1 Os4 O16'
_cell_volume   311.04622611
_cell_formula_units_Z   1
loop_
 _symmetry_equiv_pos_site_id
 _symmetry_equiv_pos_as_xyz
  1  'x, y, z'
loop_
 _atom_site_type_symbol
 _atom_site_label
 _atom_site_symmetry_multiplicity
 _atom_site_fract_x
 _atom_site_fract_y
 _atom_site_fract_z
 _atom_site_occupancy
  Sm  Sm0  1  0.263937  0.117173  0.609345  1
  Sm  Sm1  1  0.737158  0.880590  0.390658  1
  Sm  Sm2  1  0.193971  0.174860  0.097779  1
  Y  Y3  1  0.806567  0.827044  0.899415  1
  Os  Os4  1  0.246020  0.661720  0.207375  1
  Os  Os5  1  0.755645  0.338876  0.791864  1
  Os  Os6  1  0.717317  0.337865  0.298824  1
  Os  Os7  1  0.284558  0.662196  0.701864  1
  O  O8  1  0.050839  0.471241  0.717534  1
  O  O9  1  0.952271  0.528195  0.283172  1
  O  O10  1  0.624797  0.331965  0.548088  1
  O  O11  1  0.373872  0.669904  0.451520  1
  O  O12  1  0.836599  0.324289  0.052408  1
  O  O13  1  0.154181  0.677067  0.947245  1
  O  O14  1  0.414484  0.444204  0.200667  1
  O  O15  1  0.588386  0.557821  0.801209  1
  O  O16  1  0.051688  0.883256  0.175651  1
  O  O17  1  0.945113  0.113816  0.823854  1
  O  O18  1  0.494507  0.114557  0.323600  1
  O  O19  1  0.507916  0.884003  0.680969  1
  O  O20  1  0.456651  0.200860  0.864930  1
  O  O21  1  0.545290  0.799242  0.129060  1
  O  O22  1  0.973579  0.165338  0.379657  1
  O  O23  1  0.024653  0.833917  0.623311  1
