# generated using pymatgen
data_Pr19TmSi15Pd
_symmetry_space_group_name_H-M   'P 1'
_cell_length_a   7.92660030
_cell_length_b   7.92350091
_cell_length_c   15.31594500
_cell_angle_alpha   89.97172632
_cell_angle_beta   89.61570499
_cell_angle_gamma   90.11475373
_symmetry_Int_Tables_number   1
_chemical_formula_structural   Pr19TmSi15Pd
_chemical_formula_sum   'Pr19 Tm1 Si15 Pd1'
_cell_volume   961.91605556
_cell_formula_units_Z   1
loop_
 _symmetry_equiv_pos_site_id
 _symmetry_equiv_pos_as_xyz
  1  'x, y, z'
loop_
 _atom_site_type_symbol
 _atom_site_label
 _atom_site_symmetry_multiplicity
 _atom_site_fract_x
 _atom_site_fract_y
 _atom_site_fract_z
 _atom_site_occupancy
  Pr  Pr0  1  0.189955  0.807078  0.249481  1
  Pr  Pr1  1  0.808106  0.185995  0.751282  1
  Pr  Pr2  1  0.693299  0.688466  0.498588  1
  Pr  Pr3  1  0.374367  0.010175  0.447255  1
  Pr  Pr4  1  0.491408  0.871460  0.699096  1
  Pr  Pr5  1  0.509063  0.124044  0.196273  1
  Pr  Pr6  1  0.876556  0.487728  0.300052  1
  Pr  Pr7  1  0.123105  0.512088  0.802619  1
  Pr  Pr8  1  0.627153  0.988200  0.949788  1
  Pr  Pr9  1  0.001666  0.378610  0.550457  1
  Pr  Pr10  1  0.988540  0.624916  0.052018  1
  Pr  Pr11  1  0.134817  0.986057  0.876633  1
  Pr  Pr12  1  0.517615  0.631148  0.125208  1
  Pr  Pr13  1  0.476701  0.367690  0.628719  1
  Pr  Pr14  1  0.629155  0.518019  0.874975  1
  Pr  Pr15  1  0.371800  0.481567  0.372181  1
  Pr  Pr16  1  0.871941  0.020610  0.376412  1
  Pr  Pr17  1  0.981845  0.127127  0.123398  1
  Pr  Pr18  1  0.020270  0.874013  0.623378  1
  Tm  Tm19  1  0.310490  0.309766  0.999358  1
  Si  Si20  1  0.330507  0.691199  0.952700  1
  Si  Si21  1  0.662174  0.303794  0.452445  1
  Si  Si22  1  0.693772  0.332708  0.048003  1
  Si  Si23  1  0.305694  0.668177  0.547615  1
  Si  Si24  1  0.804992  0.832389  0.203139  1
  Si  Si25  1  0.167702  0.196400  0.296180  1
  Si  Si26  1  0.835939  0.803750  0.798106  1
  Si  Si27  1  0.288993  0.927579  0.058372  1
  Si  Si28  1  0.578169  0.787379  0.309508  1
  Si  Si29  1  0.426313  0.212422  0.818744  1
  Si  Si30  1  0.786117  0.578886  0.690433  1
  Si  Si31  1  0.214241  0.419407  0.185826  1
  Si  Si32  1  0.705390  0.076043  0.559541  1
  Si  Si33  1  0.926904  0.290554  0.941994  1
  Si  Si34  1  0.079434  0.714002  0.440868  1
  Pd  Pd35  1  0.195807  0.170556  0.699350  1
