# generated using pymatgen
data_Dy(SiTc2)2
_symmetry_space_group_name_H-M   'P 1'
_cell_length_a   7.36697600
_cell_length_b   7.36697600
_cell_length_c   4.12946600
_cell_angle_alpha   90.00000000
_cell_angle_beta   90.00000000
_cell_angle_gamma   90.00000000
_symmetry_Int_Tables_number   1
_chemical_formula_structural   Dy(SiTc2)2
_chemical_formula_sum   'Dy2 Si4 Tc8'
_cell_volume   224.11576371
_cell_formula_units_Z   2
loop_
 _symmetry_equiv_pos_site_id
 _symmetry_equiv_pos_as_xyz
  1  'x, y, z'
loop_
 _atom_site_type_symbol
 _atom_site_label
 _atom_site_symmetry_multiplicity
 _atom_site_fract_x
 _atom_site_fract_y
 _atom_site_fract_z
 _atom_site_occupancy
  Dy  Dy0  1  0.500000  0.500000  0.500000  1
  Dy  Dy1  1  0.000000  0.000000  0.000000  1
  Si  Si2  1  0.791096  0.208904  0.500000  1
  Si  Si3  1  0.208904  0.791096  0.500000  1
  Si  Si4  1  0.291096  0.291096  0.000000  1
  Si  Si5  1  0.708904  0.708904  0.000000  1
  Tc  Tc6  1  0.656415  0.906718  0.500000  1
  Tc  Tc7  1  0.343585  0.093282  0.500000  1
  Tc  Tc8  1  0.156415  0.593282  0.000000  1
  Tc  Tc9  1  0.843585  0.406718  0.000000  1
  Tc  Tc10  1  0.906718  0.656415  0.500000  1
  Tc  Tc11  1  0.093282  0.343585  0.500000  1
  Tc  Tc12  1  0.593282  0.156415  0.000000  1
  Tc  Tc13  1  0.406718  0.843585  0.000000  1
