# generated using pymatgen
data_Sm2FeOsBr
_symmetry_space_group_name_H-M   'P 1'
_cell_length_a   4.12753900
_cell_length_b   4.12753871
_cell_length_c   16.77515700
_cell_angle_alpha   90.00000000
_cell_angle_beta   90.00000000
_cell_angle_gamma   120.00001038
_symmetry_Int_Tables_number   1
_chemical_formula_structural   Sm2FeOsBr
_chemical_formula_sum   'Sm4 Fe2 Os2 Br2'
_cell_volume   247.50245990
_cell_formula_units_Z   2
loop_
 _symmetry_equiv_pos_site_id
 _symmetry_equiv_pos_as_xyz
  1  'x, y, z'
loop_
 _atom_site_type_symbol
 _atom_site_label
 _atom_site_symmetry_multiplicity
 _atom_site_fract_x
 _atom_site_fract_y
 _atom_site_fract_z
 _atom_site_occupancy
  Sm  Sm0  1  0.000000  0.000000  0.110440  1
  Sm  Sm1  1  0.000000  0.000000  0.389560  1
  Sm  Sm2  1  0.000000  0.000000  0.609677  1
  Sm  Sm3  1  0.000000  0.000000  0.890323  1
  Fe  Fe4  1  0.666666  0.333334  0.506762  1
  Fe  Fe5  1  0.666666  0.333334  0.993238  1
  Os  Os6  1  0.333334  0.666668  0.005581  1
  Os  Os7  1  0.333334  0.666668  0.494419  1
  Br  Br8  1  0.666666  0.333334  0.250000  1
  Br  Br9  1  0.333334  0.666668  0.750000  1
