# generated using pymatgen
data_Ca12Ga3Si5Pd8
_symmetry_space_group_name_H-M   'P 1'
_cell_length_a   5.76109400
_cell_length_b   8.03979377
_cell_length_c   13.55820500
_cell_angle_alpha   90.15591427
_cell_angle_beta   90.00000000
_cell_angle_gamma   90.00000000
_symmetry_Int_Tables_number   1
_chemical_formula_structural   Ca12Ga3Si5Pd8
_chemical_formula_sum   'Ca12 Ga3 Si5 Pd8'
_cell_volume   627.98671757
_cell_formula_units_Z   1
loop_
 _symmetry_equiv_pos_site_id
 _symmetry_equiv_pos_as_xyz
  1  'x, y, z'
loop_
 _atom_site_type_symbol
 _atom_site_label
 _atom_site_symmetry_multiplicity
 _atom_site_fract_x
 _atom_site_fract_y
 _atom_site_fract_z
 _atom_site_occupancy
  Ca  Ca0  1  0.137033  0.610426  0.105718  1
  Ca  Ca1  1  0.137033  0.889574  0.894282  1
  Ca  Ca2  1  0.868530  0.113385  0.395057  1
  Ca  Ca3  1  0.868530  0.386615  0.604943  1
  Ca  Ca4  1  0.863574  0.390069  0.894268  1
  Ca  Ca5  1  0.863574  0.109931  0.105732  1
  Ca  Ca6  1  0.135658  0.890505  0.605382  1
  Ca  Ca7  1  0.135658  0.609495  0.394618  1
  Ca  Ca8  1  0.350547  0.256019  0.250692  1
  Ca  Ca9  1  0.350547  0.243981  0.749308  1
  Ca  Ca10  1  0.650005  0.756263  0.250454  1
  Ca  Ca11  1  0.650005  0.743737  0.749546  1
  Ga  Ga12  1  0.368186  0.250000  0.000000  1
  Ga  Ga13  1  0.625408  0.750000  0.500000  1
  Ga  Ga14  1  0.633042  0.750000  0.000000  1
  Si  Si15  1  0.377321  0.250000  0.500000  1
  Si  Si16  1  0.837868  0.405881  0.250885  1
  Si  Si17  1  0.837868  0.094119  0.749115  1
  Si  Si18  1  0.163250  0.903147  0.251978  1
  Si  Si19  1  0.163250  0.596853  0.748022  1
  Pd  Pd20  1  0.627699  0.468049  0.093064  1
  Pd  Pd21  1  0.627699  0.031951  0.906936  1
  Pd  Pd22  1  0.371143  0.977156  0.409616  1
  Pd  Pd23  1  0.371143  0.522844  0.590384  1
  Pd  Pd24  1  0.371098  0.531668  0.906538  1
  Pd  Pd25  1  0.371098  0.968332  0.093462  1
  Pd  Pd26  1  0.621616  0.040358  0.590942  1
  Pd  Pd27  1  0.621616  0.459642  0.409058  1
