# generated using pymatgen
data_LaI29
_symmetry_space_group_name_H-M   'P 1'
_cell_length_a   9.51887100
_cell_length_b   9.47905825
_cell_length_c   21.70284464
_cell_angle_alpha   68.13629843
_cell_angle_beta   90.00000000
_cell_angle_gamma   90.00000000
_symmetry_Int_Tables_number   1
_chemical_formula_structural   LaI29
_chemical_formula_sum   'La1 I29'
_cell_volume   1817.39419217
_cell_formula_units_Z   1
loop_
 _symmetry_equiv_pos_site_id
 _symmetry_equiv_pos_as_xyz
  1  'x, y, z'
loop_
 _atom_site_type_symbol
 _atom_site_label
 _atom_site_symmetry_multiplicity
 _atom_site_fract_x
 _atom_site_fract_y
 _atom_site_fract_z
 _atom_site_occupancy
  La  La0  1  0.408929  0.000000  0.250000  1
  I  I1  1  0.833937  0.747150  0.588639  1
  I  I2  1  0.091981  0.147510  0.392750  1
  I  I3  1  0.684455  0.000000  0.750000  1
  I  I4  1  0.833937  0.252850  0.911361  1
  I  I5  1  0.091981  0.852490  0.107250  1
  I  I6  1  0.084714  0.503181  0.862832  1
  I  I7  1  0.668544  0.763321  0.325671  1
  I  I8  1  0.077079  0.976887  0.564790  1
  I  I9  1  0.449047  0.317142  0.465230  1
  I  I10  1  0.265908  0.697447  0.269240  1
  I  I11  1  0.265908  0.302553  0.230760  1
  I  I12  1  0.077079  0.023113  0.935210  1
  I  I13  1  0.319483  0.301561  0.673078  1
  I  I14  1  0.897767  0.619987  0.119814  1
  I  I15  1  0.881695  0.245567  0.693803  1
  I  I16  1  0.319483  0.698439  0.826922  1
  I  I17  1  0.897767  0.380013  0.380186  1
  I  I18  1  0.668544  0.236679  0.174329  1
  I  I19  1  0.593975  0.066436  0.539390  1
  I  I20  1  0.326140  0.916242  0.403316  1
  I  I21  1  0.881695  0.754433  0.806197  1
  I  I22  1  0.084714  0.496819  0.637168  1
  I  I23  1  0.591098  0.439267  0.883939  1
  I  I24  1  0.326140  0.083758  0.096684  1
  I  I25  1  0.871941  0.057136  0.140733  1
  I  I26  1  0.591098  0.560733  0.616061  1
  I  I27  1  0.593975  0.933564  0.960610  1
  I  I28  1  0.449047  0.682858  0.034770  1
  I  I29  1  0.871941  0.942864  0.359267  1
