# generated using pymatgen
data_TbDyY4(IrI3)2
_symmetry_space_group_name_H-M   'P 1'
_cell_length_a   4.30478300
_cell_length_b   8.87979883
_cell_length_c   12.32936599
_cell_angle_alpha   86.55033418
_cell_angle_beta   90.00000000
_cell_angle_gamma   90.00000000
_symmetry_Int_Tables_number   1
_chemical_formula_structural   TbDyY4(IrI3)2
_chemical_formula_sum   'Tb1 Dy1 Y4 Ir2 I6'
_cell_volume   470.44352905
_cell_formula_units_Z   1
loop_
 _symmetry_equiv_pos_site_id
 _symmetry_equiv_pos_as_xyz
  1  'x, y, z'
loop_
 _atom_site_type_symbol
 _atom_site_label
 _atom_site_symmetry_multiplicity
 _atom_site_fract_x
 _atom_site_fract_y
 _atom_site_fract_z
 _atom_site_occupancy
  Tb  Tb0  1  0.750000  0.140641  0.129266  1
  Dy  Dy1  1  0.250000  0.859950  0.870897  1
  Y  Y2  1  0.750000  0.096269  0.684368  1
  Y  Y3  1  0.250000  0.903576  0.315736  1
  Y  Y4  1  0.250000  0.250284  0.900201  1
  Y  Y5  1  0.750000  0.749621  0.099661  1
  Ir  Ir6  1  0.750000  0.048040  0.908450  1
  Ir  Ir7  1  0.250000  0.951458  0.091320  1
  I  I8  1  0.250000  0.427762  0.132800  1
  I  I9  1  0.750000  0.572422  0.867185  1
  I  I10  1  0.250000  0.348746  0.639132  1
  I  I11  1  0.750000  0.651250  0.360873  1
  I  I12  1  0.750000  0.141276  0.394262  1
  I  I13  1  0.250000  0.858705  0.605849  1
