# generated using pymatgen
data_TbSm3(In2Pd3)4
_symmetry_space_group_name_H-M   'P 1'
_cell_length_a   4.64754300
_cell_length_b   9.88418700
_cell_length_c   10.39549000
_cell_angle_alpha   89.99720305
_cell_angle_beta   90.00000000
_cell_angle_gamma   90.00000000
_symmetry_Int_Tables_number   1
_chemical_formula_structural   TbSm3(In2Pd3)4
_chemical_formula_sum   'Tb1 Sm3 In8 Pd12'
_cell_volume   477.53953768
_cell_formula_units_Z   1
loop_
 _symmetry_equiv_pos_site_id
 _symmetry_equiv_pos_as_xyz
  1  'x, y, z'
loop_
 _atom_site_type_symbol
 _atom_site_label
 _atom_site_symmetry_multiplicity
 _atom_site_fract_x
 _atom_site_fract_y
 _atom_site_fract_z
 _atom_site_occupancy
  Tb  Tb0  1  0.750000  0.945694  0.775473  1
  Sm  Sm1  1  0.250000  0.445769  0.725620  1
  Sm  Sm2  1  0.250000  0.054244  0.225506  1
  Sm  Sm3  1  0.750000  0.554241  0.274434  1
  In  In4  1  0.250000  0.885875  0.513906  1
  In  In5  1  0.250000  0.614163  0.013594  1
  In  In6  1  0.750000  0.113973  0.486796  1
  In  In7  1  0.750000  0.385851  0.986275  1
  In  In8  1  0.250000  0.162720  0.894718  1
  In  In9  1  0.250000  0.336820  0.395116  1
  In  In10  1  0.750000  0.836958  0.104654  1
  In  In11  1  0.750000  0.663604  0.605245  1
  Pd  Pd12  1  0.250000  0.142982  0.624365  1
  Pd  Pd13  1  0.250000  0.356450  0.124069  1
  Pd  Pd14  1  0.750000  0.856492  0.375917  1
  Pd  Pd15  1  0.750000  0.644089  0.875760  1
  Pd  Pd16  1  0.250000  0.744895  0.740559  1
  Pd  Pd17  1  0.250000  0.756268  0.240548  1
  Pd  Pd18  1  0.750000  0.256213  0.259388  1
  Pd  Pd19  1  0.750000  0.242743  0.759543  1
  Pd  Pd20  1  0.250000  0.896343  0.972602  1
  Pd  Pd21  1  0.250000  0.603955  0.473448  1
  Pd  Pd22  1  0.750000  0.103490  0.025879  1
  Pd  Pd23  1  0.750000  0.396169  0.526585  1
