# generated using pymatgen
data_V3Si3Rh10
_symmetry_space_group_name_H-M   'P 1'
_cell_length_a   3.94246100
_cell_length_b   5.35079601
_cell_length_c   10.33857346
_cell_angle_alpha   88.67077962
_cell_angle_beta   90.00000000
_cell_angle_gamma   90.00000000
_symmetry_Int_Tables_number   1
_chemical_formula_structural   V3Si3Rh10
_chemical_formula_sum   'V3 Si3 Rh10'
_cell_volume   218.03666864
_cell_formula_units_Z   1
loop_
 _symmetry_equiv_pos_site_id
 _symmetry_equiv_pos_as_xyz
  1  'x, y, z'
loop_
 _atom_site_type_symbol
 _atom_site_label
 _atom_site_symmetry_multiplicity
 _atom_site_fract_x
 _atom_site_fract_y
 _atom_site_fract_z
 _atom_site_occupancy
  V  V0  1  0.500000  0.170970  0.644659  1
  V  V1  1  0.500000  0.844543  0.355893  1
  V  V2  1  0.500000  0.658980  0.858636  1
  Si  Si3  1  0.500000  0.358129  0.150013  1
  Si  Si4  1  0.000000  0.492879  0.503712  1
  Si  Si5  1  0.000000  0.959815  0.991204  1
  Rh  Rh6  1  0.500000  0.318125  0.395742  1
  Rh  Rh7  1  0.500000  0.688255  0.604052  1
  Rh  Rh8  1  0.500000  0.807222  0.105498  1
  Rh  Rh9  1  0.500000  0.175321  0.894933  1
  Rh  Rh10  1  0.000000  0.422984  0.741759  1
  Rh  Rh11  1  0.000000  0.610480  0.273234  1
  Rh  Rh12  1  0.000000  0.922567  0.756687  1
  Rh  Rh13  1  0.000000  0.101911  0.221218  1
  Rh  Rh14  1  0.000000  0.469832  0.009260  1
  Rh  Rh15  1  0.000000  0.997987  0.493502  1
