# generated using pymatgen
data_Hf3TiNbSi3
_symmetry_space_group_name_H-M   'P 1'
_cell_length_a   7.77904300
_cell_length_b   7.77904461
_cell_length_c   5.30644100
_cell_angle_alpha   90.00000000
_cell_angle_beta   90.00000000
_cell_angle_gamma   119.99998891
_symmetry_Int_Tables_number   1
_chemical_formula_structural   Hf3TiNbSi3
_chemical_formula_sum   'Hf6 Ti2 Nb2 Si6'
_cell_volume   278.09069283
_cell_formula_units_Z   2
loop_
 _symmetry_equiv_pos_site_id
 _symmetry_equiv_pos_as_xyz
  1  'x, y, z'
loop_
 _atom_site_type_symbol
 _atom_site_label
 _atom_site_symmetry_multiplicity
 _atom_site_fract_x
 _atom_site_fract_y
 _atom_site_fract_z
 _atom_site_occupancy
  Hf  Hf0  1  0.748176  0.748176  0.753031  1
  Hf  Hf1  1  0.251824  0.000000  0.753031  1
  Hf  Hf2  1  0.000000  0.251824  0.753031  1
  Hf  Hf3  1  0.251824  0.251824  0.246969  1
  Hf  Hf4  1  0.748176  0.000000  0.246969  1
  Hf  Hf5  1  0.000000  0.748176  0.246969  1
  Ti  Ti6  1  0.333333  0.666667  0.500000  1
  Ti  Ti7  1  0.666667  0.333333  0.500000  1
  Nb  Nb8  1  0.666667  0.333333  0.000000  1
  Nb  Nb9  1  0.333333  0.666667  0.000000  1
  Si  Si10  1  0.396046  0.396046  0.745157  1
  Si  Si11  1  0.603954  0.000000  0.745157  1
  Si  Si12  1  0.000000  0.603954  0.745157  1
  Si  Si13  1  0.603954  0.603954  0.254843  1
  Si  Si14  1  0.396046  0.000000  0.254843  1
  Si  Si15  1  0.000000  0.396046  0.254843  1
