# generated using pymatgen
data_Sc22Fe2Ir5Pt
_symmetry_space_group_name_H-M   'P 1'
_cell_length_a   9.45893290
_cell_length_b   9.45893273
_cell_length_c   9.48569500
_cell_angle_alpha   59.90636640
_cell_angle_beta   59.90636700
_cell_angle_gamma   59.60962874
_symmetry_Int_Tables_number   1
_chemical_formula_structural   Sc22Fe2Ir5Pt
_chemical_formula_sum   'Sc22 Fe2 Ir5 Pt1'
_cell_volume   597.48676345
_cell_formula_units_Z   1
loop_
 _symmetry_equiv_pos_site_id
 _symmetry_equiv_pos_as_xyz
  1  'x, y, z'
loop_
 _atom_site_type_symbol
 _atom_site_label
 _atom_site_symmetry_multiplicity
 _atom_site_fract_x
 _atom_site_fract_y
 _atom_site_fract_z
 _atom_site_occupancy
  Sc  Sc0  1  0.808790  0.808790  0.191210  1
  Sc  Sc1  1  0.191720  0.808280  0.191025  1
  Sc  Sc2  1  0.808280  0.191720  0.191025  1
  Sc  Sc3  1  0.191210  0.191210  0.808790  1
  Sc  Sc4  1  0.808280  0.191720  0.808975  1
  Sc  Sc5  1  0.191720  0.808280  0.808975  1
  Sc  Sc6  1  0.613845  0.613845  0.156803  1
  Sc  Sc7  1  0.611675  0.155797  0.616263  1
  Sc  Sc8  1  0.155797  0.611675  0.616263  1
  Sc  Sc9  1  0.613845  0.613845  0.615506  1
  Sc  Sc10  1  0.386155  0.386155  0.843197  1
  Sc  Sc11  1  0.388325  0.844203  0.383737  1
  Sc  Sc12  1  0.844203  0.388325  0.383737  1
  Sc  Sc13  1  0.386155  0.386155  0.384494  1
  Sc  Sc14  1  0.839296  0.839296  0.474706  1
  Sc  Sc15  1  0.840179  0.474392  0.842714  1
  Sc  Sc16  1  0.474392  0.840179  0.842714  1
  Sc  Sc17  1  0.839296  0.839296  0.846700  1
  Sc  Sc18  1  0.160704  0.160704  0.525294  1
  Sc  Sc19  1  0.159821  0.525608  0.157286  1
  Sc  Sc20  1  0.525608  0.159821  0.157286  1
  Sc  Sc21  1  0.160704  0.160704  0.153300  1
  Fe  Fe22  1  0.000000  0.000000  0.000000  1
  Fe  Fe23  1  0.500000  0.500000  0.500000  1
  Ir  Ir24  1  0.500000  0.000000  0.500000  1
  Ir  Ir25  1  0.000000  0.500000  0.500000  1
  Ir  Ir26  1  0.500000  0.500000  0.000000  1
  Ir  Ir27  1  0.000000  0.500000  0.000000  1
  Ir  Ir28  1  0.500000  0.000000  0.000000  1
  Pt  Pt29  1  0.000000  0.000000  0.500000  1
