# generated using pymatgen
data_Tb6Ho2Sc12Si15Ag
_symmetry_space_group_name_H-M   'P 1'
_cell_length_a   7.14147135
_cell_length_b   7.38180867
_cell_length_c   14.09120865
_cell_angle_alpha   89.84205169
_cell_angle_beta   89.61478052
_cell_angle_gamma   90.22204001
_symmetry_Int_Tables_number   1
_chemical_formula_structural   Tb6Ho2Sc12Si15Ag
_chemical_formula_sum   'Tb6 Ho2 Sc12 Si15 Ag1'
_cell_volume   742.82065269
_cell_formula_units_Z   1
loop_
 _symmetry_equiv_pos_site_id
 _symmetry_equiv_pos_as_xyz
  1  'x, y, z'
loop_
 _atom_site_type_symbol
 _atom_site_label
 _atom_site_symmetry_multiplicity
 _atom_site_fract_x
 _atom_site_fract_y
 _atom_site_fract_z
 _atom_site_occupancy
  Tb  Tb0  1  0.011947  0.175028  0.098045  1
  Tb  Tb1  1  0.988086  0.826706  0.903631  1
  Tb  Tb2  1  0.487525  0.676225  0.903822  1
  Tb  Tb3  1  0.989205  0.830938  0.597595  1
  Tb  Tb4  1  0.511905  0.324368  0.096480  1
  Tb  Tb5  1  0.008631  0.171487  0.398939  1
  Ho  Ho6  1  0.511754  0.322479  0.399933  1
  Ho  Ho7  1  0.494417  0.678265  0.600218  1
  Sc  Sc8  1  0.163656  0.501839  0.753226  1
  Sc  Sc9  1  0.837099  0.498610  0.251125  1
  Sc  Sc10  1  0.337354  0.999927  0.248971  1
  Sc  Sc11  1  0.665499  0.996150  0.751185  1
  Sc  Sc12  1  0.342684  0.173574  0.626883  1
  Sc  Sc13  1  0.664289  0.822932  0.374025  1
  Sc  Sc14  1  0.166971  0.674557  0.371984  1
  Sc  Sc15  1  0.669545  0.824404  0.124751  1
  Sc  Sc16  1  0.825592  0.326023  0.625082  1
  Sc  Sc17  1  0.329053  0.175208  0.875950  1
  Sc  Sc18  1  0.830656  0.322936  0.875750  1
  Sc  Sc19  1  0.168880  0.676135  0.125297  1
  Si  Si20  1  0.036870  0.122762  0.749560  1
  Si  Si21  1  0.964283  0.881810  0.249099  1
  Si  Si22  1  0.466079  0.615777  0.248440  1
  Si  Si23  1  0.534865  0.385707  0.752052  1
  Si  Si24  1  0.286556  0.874610  0.750508  1
  Si  Si25  1  0.711270  0.126515  0.248741  1
  Si  Si26  1  0.214431  0.371772  0.248971  1
  Si  Si27  1  0.788620  0.627064  0.751988  1
  Si  Si28  1  0.834072  0.537152  0.459232  1
  Si  Si29  1  0.338443  0.961357  0.461179  1
  Si  Si30  1  0.844182  0.535765  0.039018  1
  Si  Si31  1  0.658465  0.036134  0.537714  1
  Si  Si32  1  0.154759  0.464405  0.961747  1
  Si  Si33  1  0.656691  0.035383  0.960539  1
  Si  Si34  1  0.342593  0.964183  0.039734  1
  Ag  Ag35  1  0.163074  0.461815  0.538583  1
