# generated using pymatgen
data_Nd2P(PdPt)4
_symmetry_space_group_name_H-M   'P 1'
_cell_length_a   9.12650267
_cell_length_b   9.13299142
_cell_length_c   4.37589900
_cell_angle_alpha   90.00000000
_cell_angle_beta   90.00000000
_cell_angle_gamma   145.67171114
_symmetry_Int_Tables_number   1
_chemical_formula_structural   Nd2P(PdPt)4
_chemical_formula_sum   'Nd2 P1 Pd4 Pt4'
_cell_volume   205.68986377
_cell_formula_units_Z   1
loop_
 _symmetry_equiv_pos_site_id
 _symmetry_equiv_pos_as_xyz
  1  'x, y, z'
loop_
 _atom_site_type_symbol
 _atom_site_label
 _atom_site_symmetry_multiplicity
 _atom_site_fract_x
 _atom_site_fract_y
 _atom_site_fract_z
 _atom_site_occupancy
  Nd  Nd0  1  0.620405  0.371170  0.500000  1
  Nd  Nd1  1  0.370673  0.619757  0.500000  1
  P  P2  1  0.221173  0.220728  0.000000  1
  Pd  Pd3  1  0.111616  0.889885  0.000000  1
  Pd  Pd4  1  0.196404  0.791575  0.500000  1
  Pd  Pd5  1  0.791431  0.195490  0.500000  1
  Pd  Pd6  1  0.003911  0.003920  0.500000  1
  Pt  Pt7  1  0.892618  0.115180  0.000000  1
  Pt  Pt8  1  0.488057  0.980652  0.000000  1
  Pt  Pt9  1  0.982783  0.488963  0.000000  1
  Pt  Pt10  1  0.634526  0.636279  0.000000  1
