# generated using pymatgen
data_CsNaZr6BBr15
_symmetry_space_group_name_H-M   'P 1'
_cell_length_a   10.39767500
_cell_length_b   14.88782300
_cell_length_c   19.96680100
_cell_angle_alpha   90.00000000
_cell_angle_beta   90.00000000
_cell_angle_gamma   90.00000000
_symmetry_Int_Tables_number   1
_chemical_formula_structural   CsNaZr6BBr15
_chemical_formula_sum   'Cs4 Na4 Zr24 B4 Br60'
_cell_volume   3090.83573669
_cell_formula_units_Z   4
loop_
 _symmetry_equiv_pos_site_id
 _symmetry_equiv_pos_as_xyz
  1  'x, y, z'
loop_
 _atom_site_type_symbol
 _atom_site_label
 _atom_site_symmetry_multiplicity
 _atom_site_fract_x
 _atom_site_fract_y
 _atom_site_fract_z
 _atom_site_occupancy
  Cs  Cs0  1  0.405559  0.500000  0.750000  1
  Cs  Cs1  1  0.594441  0.500000  0.250000  1
  Cs  Cs2  1  0.000000  0.000000  0.500000  1
  Cs  Cs3  1  0.000000  0.000000  0.000000  1
  Na  Na4  1  0.844238  0.250936  0.750000  1
  Na  Na5  1  0.155762  0.749064  0.250000  1
  Na  Na6  1  0.844238  0.749064  0.750000  1
  Na  Na7  1  0.155762  0.250936  0.250000  1
  Zr  Zr8  1  0.575853  0.000000  0.750000  1
  Zr  Zr9  1  0.424147  0.000000  0.250000  1
  Zr  Zr10  1  0.078592  0.500000  0.109815  1
  Zr  Zr11  1  0.921408  0.500000  0.890185  1
  Zr  Zr12  1  0.078592  0.500000  0.390185  1
  Zr  Zr13  1  0.921408  0.500000  0.609815  1
  Zr  Zr14  1  0.151526  0.387650  0.528575  1
  Zr  Zr15  1  0.848474  0.612350  0.471425  1
  Zr  Zr16  1  0.151526  0.612350  0.971425  1
  Zr  Zr17  1  0.848474  0.387650  0.471425  1
  Zr  Zr18  1  0.848474  0.387650  0.028575  1
  Zr  Zr19  1  0.151526  0.612350  0.528575  1
  Zr  Zr20  1  0.848474  0.612350  0.028575  1
  Zr  Zr21  1  0.151526  0.387650  0.971425  1
  Zr  Zr22  1  0.350546  0.112735  0.666015  1
  Zr  Zr23  1  0.649454  0.887265  0.333985  1
  Zr  Zr24  1  0.350546  0.887265  0.833985  1
  Zr  Zr25  1  0.649454  0.112735  0.333985  1
  Zr  Zr26  1  0.649454  0.112735  0.166015  1
  Zr  Zr27  1  0.350546  0.887265  0.666015  1
  Zr  Zr28  1  0.649454  0.887265  0.166015  1
  Zr  Zr29  1  0.350546  0.112735  0.833985  1
  Zr  Zr30  1  0.128195  0.000000  0.750000  1
  Zr  Zr31  1  0.871805  0.000000  0.250000  1
  B  B32  1  0.352613  0.000000  0.750000  1
  B  B33  1  0.647387  0.000000  0.250000  1
  B  B34  1  0.000000  0.500000  0.500000  1
  B  B35  1  0.000000  0.500000  0.000000  1
  Br  Br36  1  0.000000  0.245370  0.500000  1
  Br  Br37  1  0.000000  0.754630  0.500000  1
  Br  Br38  1  0.000000  0.754630  0.000000  1
  Br  Br39  1  0.000000  0.245370  0.000000  1
  Br  Br40  1  0.082707  0.374176  0.659649  1
  Br  Br41  1  0.917293  0.625824  0.340351  1
  Br  Br42  1  0.082707  0.625824  0.840351  1
  Br  Br43  1  0.917293  0.374176  0.340351  1
  Br  Br44  1  0.917293  0.374176  0.159649  1
  Br  Br45  1  0.082707  0.625824  0.659649  1
  Br  Br46  1  0.917293  0.625824  0.159649  1
  Br  Br47  1  0.082707  0.374176  0.840351  1
  Br  Br48  1  0.345777  0.500000  0.563162  1
  Br  Br49  1  0.654223  0.500000  0.436838  1
  Br  Br50  1  0.345777  0.500000  0.936838  1
  Br  Br51  1  0.654223  0.500000  0.063162  1
  Br  Br52  1  0.356990  0.255495  0.750000  1
  Br  Br53  1  0.643010  0.744505  0.250000  1
  Br  Br54  1  0.356990  0.744505  0.750000  1
  Br  Br55  1  0.643010  0.255495  0.250000  1
  Br  Br56  1  0.340271  0.250955  0.563681  1
  Br  Br57  1  0.659729  0.749045  0.436319  1
  Br  Br58  1  0.340271  0.749045  0.936319  1
  Br  Br59  1  0.659729  0.250955  0.436319  1
  Br  Br60  1  0.659729  0.250955  0.063681  1
  Br  Br61  1  0.340271  0.749045  0.563681  1
  Br  Br62  1  0.659729  0.749045  0.063681  1
  Br  Br63  1  0.340271  0.250955  0.936319  1
  Br  Br64  1  0.089298  0.127854  0.656393  1
  Br  Br65  1  0.910702  0.872146  0.343607  1
  Br  Br66  1  0.089298  0.872146  0.843607  1
  Br  Br67  1  0.910702  0.127854  0.343607  1
  Br  Br68  1  0.910702  0.127854  0.156393  1
  Br  Br69  1  0.089298  0.872146  0.656393  1
  Br  Br70  1  0.910702  0.872146  0.156393  1
  Br  Br71  1  0.089298  0.127854  0.843607  1
  Br  Br72  1  0.259717  0.370256  0.095621  1
  Br  Br73  1  0.740283  0.629744  0.904379  1
  Br  Br74  1  0.259717  0.629744  0.404379  1
  Br  Br75  1  0.740283  0.370256  0.904379  1
  Br  Br76  1  0.740283  0.370256  0.595621  1
  Br  Br77  1  0.259717  0.629744  0.095621  1
  Br  Br78  1  0.740283  0.629744  0.595621  1
  Br  Br79  1  0.259717  0.370256  0.404379  1
  Br  Br80  1  0.850912  0.000000  0.750000  1
  Br  Br81  1  0.149088  0.000000  0.250000  1
  Br  Br82  1  0.350192  0.000000  0.559339  1
  Br  Br83  1  0.649808  0.000000  0.440661  1
  Br  Br84  1  0.350192  0.000000  0.940661  1
  Br  Br85  1  0.649808  0.000000  0.059339  1
  Br  Br86  1  0.610806  0.128828  0.654332  1
  Br  Br87  1  0.389194  0.871172  0.345668  1
  Br  Br88  1  0.610806  0.871172  0.845668  1
  Br  Br89  1  0.389194  0.128828  0.345668  1
  Br  Br90  1  0.389194  0.128828  0.154332  1
  Br  Br91  1  0.610806  0.871172  0.654332  1
  Br  Br92  1  0.389194  0.871172  0.154332  1
  Br  Br93  1  0.610806  0.128828  0.845668  1
  Br  Br94  1  0.812921  0.500000  0.750000  1
  Br  Br95  1  0.187079  0.500000  0.250000  1
