# generated using pymatgen
data_Li2Tb13Er3(InRh2)2
_symmetry_space_group_name_H-M   'P 1'
_cell_length_a   9.66566996
_cell_length_b   9.65778624
_cell_length_c   9.67867649
_cell_angle_alpha   59.99189960
_cell_angle_beta   59.98108169
_cell_angle_gamma   59.89451329
_symmetry_Int_Tables_number   1
_chemical_formula_structural   Li2Tb13Er3(InRh2)2
_chemical_formula_sum   'Li2 Tb13 Er3 In2 Rh4'
_cell_volume   638.22605055
_cell_formula_units_Z   1
loop_
 _symmetry_equiv_pos_site_id
 _symmetry_equiv_pos_as_xyz
  1  'x, y, z'
loop_
 _atom_site_type_symbol
 _atom_site_label
 _atom_site_symmetry_multiplicity
 _atom_site_fract_x
 _atom_site_fract_y
 _atom_site_fract_z
 _atom_site_occupancy
  Li  Li0  1  0.427679  0.427706  0.424767  1
  Li  Li1  1  0.427658  0.427264  0.720949  1
  Tb  Tb2  1  0.652355  0.044053  0.651181  1
  Tb  Tb3  1  0.063826  0.064434  0.436672  1
  Tb  Tb4  1  0.438387  0.437698  0.061776  1
  Tb  Tb5  1  0.651695  0.650575  0.648624  1
  Tb  Tb6  1  0.812264  0.186610  0.188375  1
  Tb  Tb7  1  0.187247  0.812310  0.811978  1
  Tb  Tb8  1  0.043433  0.652338  0.651088  1
  Tb  Tb9  1  0.437287  0.063953  0.061944  1
  Tb  Tb10  1  0.436018  0.063500  0.436764  1
  Tb  Tb11  1  0.063844  0.436728  0.062406  1
  Tb  Tb12  1  0.650702  0.650583  0.050185  1
  Tb  Tb13  1  0.186698  0.812296  0.189097  1
  Tb  Tb14  1  0.063307  0.435546  0.437099  1
  Er  Er15  1  0.807932  0.808775  0.192040  1
  Er  Er16  1  0.812043  0.187737  0.811998  1
  Er  Er17  1  0.182499  0.182979  0.818199  1
  In  In18  1  0.416098  0.743409  0.420684  1
  In  In19  1  0.743377  0.415916  0.420983  1
  Rh  Rh20  1  0.857171  0.425485  0.857708  1
  Rh  Rh21  1  0.856077  0.857076  0.860693  1
  Rh  Rh22  1  0.856091  0.855974  0.426911  1
  Rh  Rh23  1  0.426316  0.857059  0.857879  1
