# generated using pymatgen
data_DyY2In3Pt2Rh
_symmetry_space_group_name_H-M   'P 1'
_cell_length_a   7.71834800
_cell_length_b   7.68896220
_cell_length_c   3.81636300
_cell_angle_alpha   90.00000000
_cell_angle_beta   90.00000000
_cell_angle_gamma   120.12650541
_symmetry_Int_Tables_number   1
_chemical_formula_structural   DyY2In3Pt2Rh
_chemical_formula_sum   'Dy1 Y2 In3 Pt2 Rh1'
_cell_volume   195.89229729
_cell_formula_units_Z   1
loop_
 _symmetry_equiv_pos_site_id
 _symmetry_equiv_pos_as_xyz
  1  'x, y, z'
loop_
 _atom_site_type_symbol
 _atom_site_label
 _atom_site_symmetry_multiplicity
 _atom_site_fract_x
 _atom_site_fract_y
 _atom_site_fract_z
 _atom_site_occupancy
  Dy  Dy0  1  0.404430  0.000000  0.500000  1
  Y  Y1  1  0.000122  0.404820  0.500000  1
  Y  Y2  1  0.595302  0.595180  0.500000  1
  In  In3  1  0.257181  0.257837  0.000000  1
  In  In4  1  0.999344  0.742163  0.000000  1
  In  In5  1  0.743937  0.000000  0.000000  1
  Pt  Pt6  1  0.334025  0.670120  0.000000  1
  Pt  Pt7  1  0.663906  0.329880  0.000000  1
  Rh  Rh8  1  0.001754  0.000000  0.500000  1
