# generated using pymatgen
data_Nd2Ga12Cu
_symmetry_space_group_name_H-M   'P 1'
_cell_length_a   6.18577000
_cell_length_b   6.18577000
_cell_length_c   15.29680500
_cell_angle_alpha   90.00000000
_cell_angle_beta   90.00000000
_cell_angle_gamma   90.00000000
_symmetry_Int_Tables_number   1
_chemical_formula_structural   Nd2Ga12Cu
_chemical_formula_sum   'Nd4 Ga24 Cu2'
_cell_volume   585.31312986
_cell_formula_units_Z   2
loop_
 _symmetry_equiv_pos_site_id
 _symmetry_equiv_pos_as_xyz
  1  'x, y, z'
loop_
 _atom_site_type_symbol
 _atom_site_label
 _atom_site_symmetry_multiplicity
 _atom_site_fract_x
 _atom_site_fract_y
 _atom_site_fract_z
 _atom_site_occupancy
  Nd  Nd0  1  0.000000  0.500000  0.754326  1
  Nd  Nd1  1  0.500000  0.000000  0.754326  1
  Nd  Nd2  1  0.000000  0.500000  0.245674  1
  Nd  Nd3  1  0.500000  0.000000  0.245674  1
  Ga  Ga4  1  0.670818  0.170818  0.429775  1
  Ga  Ga5  1  0.670818  0.829182  0.570225  1
  Ga  Ga6  1  0.170818  0.670818  0.570225  1
  Ga  Ga7  1  0.829182  0.329182  0.570225  1
  Ga  Ga8  1  0.500000  0.500000  0.180203  1
  Ga  Ga9  1  0.500000  0.500000  0.819797  1
  Ga  Ga10  1  0.000000  0.000000  0.819797  1
  Ga  Ga11  1  0.000000  0.000000  0.180203  1
  Ga  Ga12  1  0.500000  0.500000  0.342004  1
  Ga  Ga13  1  0.500000  0.500000  0.657996  1
  Ga  Ga14  1  0.000000  0.000000  0.657996  1
  Ga  Ga15  1  0.000000  0.000000  0.342004  1
  Ga  Ga16  1  0.249933  0.749933  0.914855  1
  Ga  Ga17  1  0.250067  0.249933  0.914855  1
  Ga  Ga18  1  0.749933  0.750067  0.914855  1
  Ga  Ga19  1  0.249933  0.250067  0.085145  1
  Ga  Ga20  1  0.750067  0.749933  0.085145  1
  Ga  Ga21  1  0.750067  0.250067  0.914855  1
  Ga  Ga22  1  0.749933  0.249933  0.085145  1
  Ga  Ga23  1  0.250067  0.750067  0.085145  1
  Ga  Ga24  1  0.329182  0.829182  0.429775  1
  Ga  Ga25  1  0.170818  0.329182  0.429775  1
  Ga  Ga26  1  0.829182  0.670818  0.429775  1
  Ga  Ga27  1  0.329182  0.170818  0.570225  1
  Cu  Cu28  1  0.500000  0.000000  0.000000  1
  Cu  Cu29  1  0.000000  0.500000  0.000000  1
