# generated using pymatgen
data_Ho8Tm2Ga3Bi2Pt
_symmetry_space_group_name_H-M   'P 1'
_cell_length_a   8.59919180
_cell_length_b   8.59919271
_cell_length_c   8.72234786
_cell_angle_alpha   124.60960038
_cell_angle_beta   124.60959501
_cell_angle_gamma   81.24369082
_symmetry_Int_Tables_number   1
_chemical_formula_structural   Ho8Tm2Ga3Bi2Pt
_chemical_formula_sum   'Ho8 Tm2 Ga3 Bi2 Pt1'
_cell_volume   422.86552349
_cell_formula_units_Z   1
loop_
 _symmetry_equiv_pos_site_id
 _symmetry_equiv_pos_as_xyz
  1  'x, y, z'
loop_
 _atom_site_type_symbol
 _atom_site_label
 _atom_site_symmetry_multiplicity
 _atom_site_fract_x
 _atom_site_fract_y
 _atom_site_fract_z
 _atom_site_occupancy
  Ho  Ho0  1  0.785641  0.295518  0.800031  1
  Ho  Ho1  1  0.204482  0.714359  0.199969  1
  Ho  Ho2  1  0.485611  0.995487  0.199969  1
  Ho  Ho3  1  0.299489  0.468809  0.500000  1
  Ho  Ho4  1  0.031191  0.200511  0.500000  1
  Ho  Ho5  1  0.504513  0.014389  0.800031  1
  Ho  Ho6  1  0.702570  0.514535  0.500000  1
  Ho  Ho7  1  0.985465  0.797430  0.500000  1
  Tm  Tm8  1  0.997568  0.999384  0.996953  1
  Tm  Tm9  1  0.500616  0.502432  0.003047  1
  Ga  Ga10  1  0.142686  0.644553  0.787239  1
  Ga  Ga11  1  0.855447  0.357314  0.212761  1
  Ga  Ga12  1  0.639599  0.860401  0.500000  1
  Bi  Bi13  1  0.246772  0.253228  0.000000  1
  Bi  Bi14  1  0.746772  0.753228  0.000000  1
  Pt  Pt15  1  0.371575  0.128425  0.500000  1
