# generated using pymatgen
data_MgTi2(TcP)3
_symmetry_space_group_name_H-M   'P 1'
_cell_length_a   6.71894526
_cell_length_b   6.71894466
_cell_length_c   3.28659000
_cell_angle_alpha   90.00000000
_cell_angle_beta   90.00000000
_cell_angle_gamma   121.42875914
_symmetry_Int_Tables_number   1
_chemical_formula_structural   MgTi2(TcP)3
_chemical_formula_sum   'Mg1 Ti2 Tc3 P3'
_cell_volume   126.60298094
_cell_formula_units_Z   1
loop_
 _symmetry_equiv_pos_site_id
 _symmetry_equiv_pos_as_xyz
  1  'x, y, z'
loop_
 _atom_site_type_symbol
 _atom_site_label
 _atom_site_symmetry_multiplicity
 _atom_site_fract_x
 _atom_site_fract_y
 _atom_site_fract_z
 _atom_site_occupancy
  Mg  Mg0  1  0.399870  0.399870  0.500000  1
  Ti  Ti1  1  0.600735  0.006463  0.500000  1
  Ti  Ti2  1  0.006463  0.600735  0.500000  1
  Tc  Tc3  1  0.995561  0.253462  0.000000  1
  Tc  Tc4  1  0.253462  0.995561  0.000000  1
  Tc  Tc5  1  0.742323  0.742323  0.000000  1
  P  P6  1  0.670270  0.334082  0.000000  1
  P  P7  1  0.334082  0.670270  0.000000  1
  P  P8  1  0.997235  0.997235  0.500000  1
