# generated using pymatgen
data_Ba4SiSn3Pd4
_symmetry_space_group_name_H-M   'P 1'
_cell_length_a   7.10474660
_cell_length_b   7.10474660
_cell_length_c   7.10474660
_cell_angle_alpha   90.54351791
_cell_angle_beta   90.54351791
_cell_angle_gamma   90.54351791
_symmetry_Int_Tables_number   1
_chemical_formula_structural   Ba4SiSn3Pd4
_chemical_formula_sum   'Ba4 Si1 Sn3 Pd4'
_cell_volume   358.58059232
_cell_formula_units_Z   1
loop_
 _symmetry_equiv_pos_site_id
 _symmetry_equiv_pos_as_xyz
  1  'x, y, z'
loop_
 _atom_site_type_symbol
 _atom_site_label
 _atom_site_symmetry_multiplicity
 _atom_site_fract_x
 _atom_site_fract_y
 _atom_site_fract_z
 _atom_site_occupancy
  Ba  Ba0  1  0.361896  0.857269  0.646837  1
  Ba  Ba1  1  0.857269  0.646837  0.361896  1
  Ba  Ba2  1  0.646837  0.361896  0.857269  1
  Ba  Ba3  1  0.140022  0.140022  0.140022  1
  Si  Si4  1  0.841037  0.841037  0.841037  1
  Sn  Sn5  1  0.665799  0.155928  0.338733  1
  Sn  Sn6  1  0.155928  0.338733  0.665799  1
  Sn  Sn7  1  0.338733  0.665799  0.155928  1
  Pd  Pd8  1  0.063495  0.610519  0.905656  1
  Pd  Pd9  1  0.610519  0.905656  0.063495  1
  Pd  Pd10  1  0.905656  0.063495  0.610519  1
  Pd  Pd11  1  0.412811  0.412811  0.412811  1
