# generated using pymatgen
data_Li3Yb2YSn3
_symmetry_space_group_name_H-M   'P 1'
_cell_length_a   4.85083400
_cell_length_b   4.85083446
_cell_length_c   10.75714300
_cell_angle_alpha   90.00000000
_cell_angle_beta   90.00000000
_cell_angle_gamma   119.99999689
_symmetry_Int_Tables_number   1
_chemical_formula_structural   Li3Yb2YSn3
_chemical_formula_sum   'Li3 Yb2 Y1 Sn3'
_cell_volume   219.21004637
_cell_formula_units_Z   1
loop_
 _symmetry_equiv_pos_site_id
 _symmetry_equiv_pos_as_xyz
  1  'x, y, z'
loop_
 _atom_site_type_symbol
 _atom_site_label
 _atom_site_symmetry_multiplicity
 _atom_site_fract_x
 _atom_site_fract_y
 _atom_site_fract_z
 _atom_site_occupancy
  Li  Li0  1  0.333333  0.666666  0.000000  1
  Li  Li1  1  0.666668  0.333334  0.302552  1
  Li  Li2  1  0.666668  0.333334  0.697448  1
  Yb  Yb3  1  0.000000  0.000000  0.161234  1
  Yb  Yb4  1  0.000000  0.000000  0.838766  1
  Y  Y5  1  0.000000  0.000000  0.500000  1
  Sn  Sn6  1  0.666668  0.333334  0.000000  1
  Sn  Sn7  1  0.333333  0.666666  0.353454  1
  Sn  Sn8  1  0.333333  0.666666  0.646545  1
