# generated using pymatgen
data_La3(Ga2Ge)2
_symmetry_space_group_name_H-M   'P 1'
_cell_length_a   4.35779698
_cell_length_b   4.40737583
_cell_length_c   22.44469534
_cell_angle_alpha   84.36544359
_cell_angle_beta   84.42902870
_cell_angle_gamma   90.00000272
_symmetry_Int_Tables_number   1
_chemical_formula_structural   La3(Ga2Ge)2
_chemical_formula_sum   'La6 Ga8 Ge4'
_cell_volume   426.95400081
_cell_formula_units_Z   2
loop_
 _symmetry_equiv_pos_site_id
 _symmetry_equiv_pos_as_xyz
  1  'x, y, z'
loop_
 _atom_site_type_symbol
 _atom_site_label
 _atom_site_symmetry_multiplicity
 _atom_site_fract_x
 _atom_site_fract_y
 _atom_site_fract_z
 _atom_site_occupancy
  La  La0  1  0.958080  0.708080  0.083840  1
  La  La1  1  0.291107  0.041107  0.417787  1
  La  La2  1  0.624352  0.374352  0.751295  1
  La  La3  1  0.375996  0.625996  0.248009  1
  La  La4  1  0.708826  0.958826  0.582348  1
  La  La5  1  0.041273  0.291273  0.917453  1
  Ga  Ga6  1  0.820218  0.570218  0.359564  1
  Ga  Ga7  1  0.153195  0.903195  0.693611  1
  Ga  Ga8  1  0.431060  0.181060  0.137880  1
  Ga  Ga9  1  0.764865  0.514865  0.470270  1
  Ga  Ga10  1  0.097800  0.847800  0.804400  1
  Ga  Ga11  1  0.846797  0.096797  0.306407  1
  Ga  Ga12  1  0.179778  0.429778  0.640444  1
  Ga  Ga13  1  0.513386  0.763386  0.973229  1
  Ge  Ge14  1  0.902644  0.152644  0.194714  1
  Ge  Ge15  1  0.235488  0.485488  0.529024  1
  Ge  Ge16  1  0.568739  0.818739  0.862521  1
  Ge  Ge17  1  0.486397  0.236397  0.027204  1
