# generated using pymatgen
data_NbRe3(TcAs7)2
_symmetry_space_group_name_H-M   'P 1'
_cell_length_a   7.68420074
_cell_length_b   7.68414340
_cell_length_c   7.68074910
_cell_angle_alpha   109.90733633
_cell_angle_beta   109.21341178
_cell_angle_gamma   109.31287619
_symmetry_Int_Tables_number   1
_chemical_formula_structural   NbRe3(TcAs7)2
_chemical_formula_sum   'Nb1 Re3 Tc2 As14'
_cell_volume   349.02361959
_cell_formula_units_Z   1
loop_
 _symmetry_equiv_pos_site_id
 _symmetry_equiv_pos_as_xyz
  1  'x, y, z'
loop_
 _atom_site_type_symbol
 _atom_site_label
 _atom_site_symmetry_multiplicity
 _atom_site_fract_x
 _atom_site_fract_y
 _atom_site_fract_z
 _atom_site_occupancy
  Nb  Nb0  1  0.999896  0.657901  0.657797  1
  Re  Re1  1  0.340526  0.340602  0.999682  1
  Re  Re2  1  0.659080  0.659148  0.999679  1
  Re  Re3  1  0.659215  0.999914  0.659124  1
  Tc  Tc4  1  0.341117  0.999801  0.340921  1
  Tc  Tc5  1  0.999931  0.334196  0.334125  1
  As  As6  1  0.746833  0.499940  0.246775  1
  As  As7  1  0.499855  0.748872  0.248728  1
  As  As8  1  0.499936  0.248785  0.748717  1
  As  As9  1  0.747151  0.247010  0.499904  1
  As  As10  1  0.252898  0.752752  0.499900  1
  As  As11  1  0.252483  0.499989  0.752475  1
  As  As12  1  0.000559  0.001015  0.331683  1
  As  As13  1  0.669199  0.001123  0.001180  1
  As  As14  1  0.000525  0.669848  0.003901  1
  As  As15  1  0.330668  0.331126  0.331685  1
  As  As16  1  0.000050  0.331983  0.001176  1
  As  As17  1  0.666226  0.669524  0.669326  1
  As  As18  1  0.334052  0.003374  0.003903  1
  As  As19  1  0.999798  0.003097  0.669318  1
