# generated using pymatgen
data_DyY7Tc3B24Ru
_symmetry_space_group_name_H-M   'P 1'
_cell_length_a   3.68588400
_cell_length_b   9.17577257
_cell_length_c   11.56637001
_cell_angle_alpha   89.91558491
_cell_angle_beta   90.00000000
_cell_angle_gamma   90.00000000
_symmetry_Int_Tables_number   1
_chemical_formula_structural   DyY7Tc3B24Ru
_chemical_formula_sum   'Dy1 Y7 Tc3 B24 Ru1'
_cell_volume   391.18384762
_cell_formula_units_Z   1
loop_
 _symmetry_equiv_pos_site_id
 _symmetry_equiv_pos_as_xyz
  1  'x, y, z'
loop_
 _atom_site_type_symbol
 _atom_site_label
 _atom_site_symmetry_multiplicity
 _atom_site_fract_x
 _atom_site_fract_y
 _atom_site_fract_z
 _atom_site_occupancy
  Dy  Dy0  1  0.000000  0.557915  0.869105  1
  Y  Y1  1  0.000000  0.323872  0.413930  1
  Y  Y2  1  0.000000  0.675042  0.583925  1
  Y  Y3  1  0.000000  0.823299  0.087236  1
  Y  Y4  1  0.000000  0.177738  0.914690  1
  Y  Y5  1  0.000000  0.942701  0.370157  1
  Y  Y6  1  0.000000  0.057560  0.630652  1
  Y  Y7  1  0.000000  0.443059  0.130134  1
  Tc  Tc8  1  0.000000  0.638055  0.320675  1
  Tc  Tc9  1  0.000000  0.361963  0.679854  1
  Tc  Tc10  1  0.000000  0.137718  0.178290  1
  B  B11  1  0.500000  0.553089  0.432723  1
  B  B12  1  0.500000  0.446591  0.566825  1
  B  B13  1  0.500000  0.053170  0.066929  1
  B  B14  1  0.500000  0.946040  0.932767  1
  B  B15  1  0.500000  0.748214  0.418653  1
  B  B16  1  0.500000  0.251179  0.581444  1
  B  B17  1  0.500000  0.248828  0.081358  1
  B  B18  1  0.500000  0.751830  0.918334  1
  B  B19  1  0.500000  0.791586  0.265512  1
  B  B20  1  0.500000  0.208578  0.735186  1
  B  B21  1  0.500000  0.291460  0.234554  1
  B  B22  1  0.500000  0.709417  0.765350  1
  B  B23  1  0.500000  0.631250  0.185650  1
  B  B24  1  0.500000  0.369054  0.814785  1
  B  B25  1  0.500000  0.130653  0.313930  1
  B  B26  1  0.500000  0.868734  0.685906  1
  B  B27  1  0.500000  0.982190  0.211813  1
  B  B28  1  0.500000  0.016415  0.788490  1
  B  B29  1  0.500000  0.482545  0.287966  1
  B  B30  1  0.500000  0.517311  0.711575  1
  B  B31  1  0.500000  0.602560  0.028179  1
  B  B32  1  0.500000  0.399040  0.971448  1
  B  B33  1  0.500000  0.101907  0.471970  1
  B  B34  1  0.500000  0.897678  0.528904  1
  Ru  Ru35  1  0.000000  0.861760  0.821102  1
