# generated using pymatgen
data_LaNdGd4Ta2O14
_symmetry_space_group_name_H-M   'P 1'
_cell_length_a   6.57822544
_cell_length_b   6.57822544
_cell_length_c   7.67655801
_cell_angle_alpha   89.99598839
_cell_angle_beta   90.00400875
_cell_angle_gamma   109.46318478
_symmetry_Int_Tables_number   1
_chemical_formula_structural   LaNdGd4Ta2O14
_chemical_formula_sum   'La1 Nd1 Gd4 Ta2 O14'
_cell_volume   313.20544942
_cell_formula_units_Z   1
loop_
 _symmetry_equiv_pos_site_id
 _symmetry_equiv_pos_as_xyz
  1  'x, y, z'
loop_
 _atom_site_type_symbol
 _atom_site_label
 _atom_site_symmetry_multiplicity
 _atom_site_fract_x
 _atom_site_fract_y
 _atom_site_fract_z
 _atom_site_occupancy
  La  La0  1  0.500000  0.500000  0.500000  1
  Nd  Nd1  1  0.500000  0.500000  0.000000  1
  Gd  Gd2  1  0.000218  0.532603  0.249219  1
  Gd  Gd3  1  0.999782  0.467397  0.750781  1
  Gd  Gd4  1  0.532603  0.000218  0.750781  1
  Gd  Gd5  1  0.467397  0.999782  0.249219  1
  Ta  Ta6  1  0.000000  0.000000  0.500000  1
  Ta  Ta7  1  0.000000  0.000000  0.000000  1
  O  O8  1  0.940733  0.059267  0.750048  1
  O  O9  1  0.059267  0.940733  0.249952  1
  O  O10  1  0.359124  0.640876  0.247805  1
  O  O11  1  0.640876  0.359124  0.752195  1
  O  O12  1  0.366002  0.633998  0.752697  1
  O  O13  1  0.633998  0.366002  0.247303  1
  O  O14  1  0.317679  0.069382  0.969309  1
  O  O15  1  0.682712  0.932830  0.469011  1
  O  O16  1  0.317288  0.067170  0.530989  1
  O  O17  1  0.682321  0.930618  0.030691  1
  O  O18  1  0.067170  0.317288  0.469011  1
  O  O19  1  0.930618  0.682321  0.969309  1
  O  O20  1  0.932830  0.682712  0.530989  1
  O  O21  1  0.069382  0.317679  0.030691  1
