# generated using pymatgen
data_Tm12InSi4Os
_symmetry_space_group_name_H-M   'P 1'
_cell_length_a   8.35932709
_cell_length_b   8.35932577
_cell_length_c   8.35932600
_cell_angle_alpha   112.02337263
_cell_angle_beta   111.54778366
_cell_angle_gamma   104.93589631
_symmetry_Int_Tables_number   1
_chemical_formula_structural   Tm12InSi4Os
_chemical_formula_sum   'Tm12 In1 Si4 Os1'
_cell_volume   447.56846186
_cell_formula_units_Z   1
loop_
 _symmetry_equiv_pos_site_id
 _symmetry_equiv_pos_as_xyz
  1  'x, y, z'
loop_
 _atom_site_type_symbol
 _atom_site_label
 _atom_site_symmetry_multiplicity
 _atom_site_fract_x
 _atom_site_fract_y
 _atom_site_fract_z
 _atom_site_occupancy
  Tm  Tm0  1  0.577332  0.268345  0.308987  1
  Tm  Tm1  1  0.174935  0.236322  0.411257  1
  Tm  Tm2  1  0.174935  0.763678  0.938616  1
  Tm  Tm3  1  0.680409  0.478498  0.798089  1
  Tm  Tm4  1  0.680409  0.882322  0.201911  1
  Tm  Tm5  1  0.959358  0.268345  0.691013  1
  Tm  Tm6  1  0.040642  0.731655  0.308987  1
  Tm  Tm7  1  0.319591  0.117678  0.798089  1
  Tm  Tm8  1  0.319591  0.521502  0.201911  1
  Tm  Tm9  1  0.825065  0.236322  0.061384  1
  Tm  Tm10  1  0.825065  0.763678  0.588743  1
  Tm  Tm11  1  0.422668  0.731655  0.691013  1
  In  In12  1  0.500000  0.000000  0.500000  1
  Si  Si13  1  0.882062  0.882062  0.000000  1
  Si  Si14  1  0.364545  0.500000  0.864545  1
  Si  Si15  1  0.635455  0.500000  0.135455  1
  Si  Si16  1  0.117938  0.117938  0.000000  1
  Os  Os17  1  0.000000  0.500000  0.500000  1
