# generated using pymatgen
data_Nd10Co2Br15
_symmetry_space_group_name_H-M   'P 1'
_cell_length_a   9.53317613
_cell_length_b   10.45839462
_cell_length_c   11.19167503
_cell_angle_alpha   92.02318792
_cell_angle_beta   114.25424798
_cell_angle_gamma   110.66318280
_symmetry_Int_Tables_number   1
_chemical_formula_structural   Nd10Co2Br15
_chemical_formula_sum   'Nd10 Co2 Br15'
_cell_volume   930.39904168
_cell_formula_units_Z   1
loop_
 _symmetry_equiv_pos_site_id
 _symmetry_equiv_pos_as_xyz
  1  'x, y, z'
loop_
 _atom_site_type_symbol
 _atom_site_label
 _atom_site_symmetry_multiplicity
 _atom_site_fract_x
 _atom_site_fract_y
 _atom_site_fract_z
 _atom_site_occupancy
  Nd  Nd0  1  0.802583  0.404107  0.271877  1
  Nd  Nd1  1  0.197417  0.595893  0.728123  1
  Nd  Nd2  1  0.670430  0.750161  0.822136  1
  Nd  Nd3  1  0.329570  0.249839  0.177864  1
  Nd  Nd4  1  0.528770  0.705171  0.103866  1
  Nd  Nd5  1  0.471230  0.294829  0.896134  1
  Nd  Nd6  1  0.594888  0.045497  0.339802  1
  Nd  Nd7  1  0.405112  0.954503  0.660198  1
  Nd  Nd8  1  0.733719  0.079519  0.050137  1
  Nd  Nd9  1  0.266281  0.920481  0.949863  1
  Co  Co10  1  0.466726  0.828032  0.881214  1
  Co  Co11  1  0.533274  0.171968  0.118786  1
  Br  Br12  1  0.000000  0.000000  0.000000  1
  Br  Br13  1  0.639328  0.885723  0.586692  1
  Br  Br14  1  0.360672  0.114277  0.413308  1
  Br  Br15  1  0.887643  0.305107  0.526612  1
  Br  Br16  1  0.112357  0.694893  0.473388  1
  Br  Br17  1  0.299464  0.766668  0.187824  1
  Br  Br18  1  0.700536  0.233332  0.812176  1
  Br  Br19  1  0.062623  0.341496  0.224987  1
  Br  Br20  1  0.166783  0.057826  0.698628  1
  Br  Br21  1  0.833217  0.942174  0.301372  1
  Br  Br22  1  0.244143  0.414531  0.947210  1
  Br  Br23  1  0.755857  0.585469  0.052790  1
  Br  Br24  1  0.407343  0.468688  0.668493  1
  Br  Br25  1  0.592657  0.531312  0.331507  1
  Br  Br26  1  0.937377  0.658504  0.775013  1
