# generated using pymatgen
data_Sm3Zn2Pt3Au
_symmetry_space_group_name_H-M   'P 1'
_cell_length_a   3.93164500
_cell_length_b   7.56569535
_cell_length_c   7.41715571
_cell_angle_alpha   120.66471790
_cell_angle_beta   90.00000000
_cell_angle_gamma   90.00000000
_symmetry_Int_Tables_number   1
_chemical_formula_structural   Sm3Zn2Pt3Au
_chemical_formula_sum   'Sm3 Zn2 Pt3 Au1'
_cell_volume   189.77677617
_cell_formula_units_Z   1
loop_
 _symmetry_equiv_pos_site_id
 _symmetry_equiv_pos_as_xyz
  1  'x, y, z'
loop_
 _atom_site_type_symbol
 _atom_site_label
 _atom_site_symmetry_multiplicity
 _atom_site_fract_x
 _atom_site_fract_y
 _atom_site_fract_z
 _atom_site_occupancy
  Sm  Sm0  1  0.000000  0.406637  0.000000  1
  Sm  Sm1  1  0.000000  0.600786  0.608123  1
  Sm  Sm2  1  0.000000  0.992664  0.391877  1
  Zn  Zn3  1  0.500000  0.253987  0.252080  1
  Zn  Zn4  1  0.500000  0.001907  0.747920  1
  Pt  Pt5  1  0.500000  0.661263  0.349214  1
  Pt  Pt6  1  0.500000  0.312049  0.650786  1
  Pt  Pt7  1  0.000000  0.026998  0.000000  1
  Au  Au8  1  0.500000  0.743809  0.000000  1
