# generated using pymatgen
data_TbErB6Ir
_symmetry_space_group_name_H-M   'P 1'
_cell_length_a   3.64161500
_cell_length_b   9.17396300
_cell_length_c   11.53078400
_cell_angle_alpha   90.00000000
_cell_angle_beta   90.00000000
_cell_angle_gamma   90.00000000
_symmetry_Int_Tables_number   1
_chemical_formula_structural   TbErB6Ir
_chemical_formula_sum   'Tb4 Er4 B24 Ir4'
_cell_volume   385.22090775
_cell_formula_units_Z   4
loop_
 _symmetry_equiv_pos_site_id
 _symmetry_equiv_pos_as_xyz
  1  'x, y, z'
loop_
 _atom_site_type_symbol
 _atom_site_label
 _atom_site_symmetry_multiplicity
 _atom_site_fract_x
 _atom_site_fract_y
 _atom_site_fract_z
 _atom_site_occupancy
  Tb  Tb0  1  0.000000  0.321789  0.413314  1
  Tb  Tb1  1  0.000000  0.678211  0.586686  1
  Tb  Tb2  1  0.000000  0.821789  0.086686  1
  Tb  Tb3  1  0.000000  0.178211  0.913314  1
  Er  Er4  1  0.000000  0.944184  0.374226  1
  Er  Er5  1  0.000000  0.055816  0.625774  1
  Er  Er6  1  0.000000  0.444184  0.125774  1
  Er  Er7  1  0.000000  0.555816  0.874226  1
  B  B8  1  0.500000  0.553955  0.433578  1
  B  B9  1  0.500000  0.446045  0.566422  1
  B  B10  1  0.500000  0.053955  0.066422  1
  B  B11  1  0.500000  0.946045  0.933578  1
  B  B12  1  0.500000  0.750160  0.420201  1
  B  B13  1  0.500000  0.249840  0.579799  1
  B  B14  1  0.500000  0.250160  0.079799  1
  B  B15  1  0.500000  0.749840  0.920201  1
  B  B16  1  0.500000  0.793087  0.265413  1
  B  B17  1  0.500000  0.206913  0.734587  1
  B  B18  1  0.500000  0.293087  0.234587  1
  B  B19  1  0.500000  0.706913  0.765413  1
  B  B20  1  0.500000  0.631652  0.183931  1
  B  B21  1  0.500000  0.368348  0.816069  1
  B  B22  1  0.500000  0.131652  0.316069  1
  B  B23  1  0.500000  0.868348  0.683931  1
  B  B24  1  0.500000  0.982382  0.213550  1
  B  B25  1  0.500000  0.017618  0.786450  1
  B  B26  1  0.500000  0.482382  0.286450  1
  B  B27  1  0.500000  0.517618  0.713550  1
  B  B28  1  0.500000  0.608025  0.029443  1
  B  B29  1  0.500000  0.391975  0.970557  1
  B  B30  1  0.500000  0.108025  0.470557  1
  B  B31  1  0.500000  0.891975  0.529443  1
  Ir  Ir32  1  0.000000  0.638860  0.320541  1
  Ir  Ir33  1  0.000000  0.361140  0.679459  1
  Ir  Ir34  1  0.000000  0.138860  0.179459  1
  Ir  Ir35  1  0.000000  0.861140  0.820541  1
