# generated using pymatgen
data_Tb9Ho(CoBi2)2
_symmetry_space_group_name_H-M   'P 1'
_cell_length_a   8.06986093
_cell_length_b   8.89425585
_cell_length_c   12.47095902
_cell_angle_alpha   89.96416769
_cell_angle_beta   90.07135037
_cell_angle_gamma   89.96551931
_symmetry_Int_Tables_number   1
_chemical_formula_structural   Tb9Ho(CoBi2)2
_chemical_formula_sum   'Tb18 Ho2 Co4 Bi8'
_cell_volume   895.10713690
_cell_formula_units_Z   2
loop_
 _symmetry_equiv_pos_site_id
 _symmetry_equiv_pos_as_xyz
  1  'x, y, z'
loop_
 _atom_site_type_symbol
 _atom_site_label
 _atom_site_symmetry_multiplicity
 _atom_site_fract_x
 _atom_site_fract_y
 _atom_site_fract_z
 _atom_site_occupancy
  Tb  Tb0  1  0.848044  0.750079  0.801458  1
  Tb  Tb1  1  0.151956  0.249921  0.198542  1
  Tb  Tb2  1  0.348669  0.249605  0.698020  1
  Tb  Tb3  1  0.651331  0.750395  0.301980  1
  Tb  Tb4  1  0.380028  0.750788  0.689586  1
  Tb  Tb5  1  0.619972  0.249212  0.310414  1
  Tb  Tb6  1  0.879874  0.250108  0.809643  1
  Tb  Tb7  1  0.120126  0.749892  0.190357  1
  Tb  Tb8  1  0.953893  0.750645  0.502440  1
  Tb  Tb9  1  0.046107  0.249355  0.497560  1
  Tb  Tb10  1  0.454148  0.249944  0.997656  1
  Tb  Tb11  1  0.545852  0.750056  0.002344  1
  Tb  Tb12  1  0.176934  0.965971  0.936948  1
  Tb  Tb13  1  0.323010  0.533885  0.437048  1
  Tb  Tb14  1  0.823066  0.034029  0.063052  1
  Tb  Tb15  1  0.676990  0.466115  0.562952  1
  Tb  Tb16  1  0.823025  0.465968  0.062973  1
  Tb  Tb17  1  0.176975  0.534032  0.937027  1
  Ho  Ho18  1  0.674605  0.034168  0.562815  1
  Ho  Ho19  1  0.325395  0.965832  0.437185  1
  Co  Co20  1  0.558652  0.751164  0.507884  1
  Co  Co21  1  0.441348  0.248836  0.492116  1
  Co  Co22  1  0.059351  0.249984  0.991786  1
  Co  Co23  1  0.940649  0.750016  0.008214  1
  Bi  Bi24  1  0.570966  0.492156  0.825452  1
  Bi  Bi25  1  0.429034  0.507844  0.174548  1
  Bi  Bi26  1  0.071204  0.507924  0.674289  1
  Bi  Bi27  1  0.428666  0.992031  0.174668  1
  Bi  Bi28  1  0.928796  0.492076  0.325711  1
  Bi  Bi29  1  0.571334  0.007969  0.825332  1
  Bi  Bi30  1  0.930060  0.007703  0.325808  1
  Bi  Bi31  1  0.069940  0.992297  0.674192  1
