# generated using pymatgen
data_Yb2Er2Pt3RhO14
_symmetry_space_group_name_H-M   'P 1'
_cell_length_a   7.20254975
_cell_length_b   7.23133639
_cell_length_c   7.23133687
_cell_angle_alpha   60.08584281
_cell_angle_beta   60.09743400
_cell_angle_gamma   60.09741874
_symmetry_Int_Tables_number   1
_chemical_formula_structural   Yb2Er2Pt3RhO14
_chemical_formula_sum   'Yb2 Er2 Pt3 Rh1 O14'
_cell_volume   266.88747235
_cell_formula_units_Z   1
loop_
 _symmetry_equiv_pos_site_id
 _symmetry_equiv_pos_as_xyz
  1  'x, y, z'
loop_
 _atom_site_type_symbol
 _atom_site_label
 _atom_site_symmetry_multiplicity
 _atom_site_fract_x
 _atom_site_fract_y
 _atom_site_fract_z
 _atom_site_occupancy
  Yb  Yb0  1  0.625000  0.625000  0.125000  1
  Yb  Yb1  1  0.625000  0.125000  0.625000  1
  Er  Er2  1  0.625000  0.625000  0.625000  1
  Er  Er3  1  0.125000  0.625000  0.625000  1
  Pt  Pt4  1  0.625000  0.125000  0.125000  1
  Pt  Pt5  1  0.125000  0.625000  0.125000  1
  Pt  Pt6  1  0.125000  0.125000  0.625000  1
  Rh  Rh7  1  0.125000  0.125000  0.125000  1
  O  O8  1  0.036151  0.463723  0.463723  1
  O  O9  1  0.788660  0.787914  0.218152  1
  O  O10  1  0.794432  0.206300  0.206300  1
  O  O11  1  0.756294  0.743892  0.743892  1
  O  O12  1  0.047935  0.458823  0.034844  1
  O  O13  1  0.461340  0.031848  0.462086  1
  O  O14  1  0.047935  0.034844  0.458823  1
  O  O15  1  0.493706  0.506108  0.506108  1
  O  O16  1  0.202065  0.215156  0.791177  1
  O  O17  1  0.202065  0.791177  0.215156  1
  O  O18  1  0.788660  0.218152  0.787914  1
  O  O19  1  0.455568  0.043700  0.043700  1
  O  O20  1  0.461340  0.462086  0.031848  1
  O  O21  1  0.213849  0.786277  0.786277  1
