# generated using pymatgen
data_U8Tc3B24Mo
_symmetry_space_group_name_H-M   'P 1'
_cell_length_a   3.65584100
_cell_length_b   9.27502369
_cell_length_c   11.36730520
_cell_angle_alpha   90.01144758
_cell_angle_beta   90.00000000
_cell_angle_gamma   90.00000000
_symmetry_Int_Tables_number   1
_chemical_formula_structural   U8Tc3B24Mo
_chemical_formula_sum   'U8 Tc3 B24 Mo1'
_cell_volume   385.44271220
_cell_formula_units_Z   1
loop_
 _symmetry_equiv_pos_site_id
 _symmetry_equiv_pos_as_xyz
  1  'x, y, z'
loop_
 _atom_site_type_symbol
 _atom_site_label
 _atom_site_symmetry_multiplicity
 _atom_site_fract_x
 _atom_site_fract_y
 _atom_site_fract_z
 _atom_site_occupancy
  U  U0  1  0.000000  0.337257  0.407696  1
  U  U1  1  0.000000  0.664062  0.592996  1
  U  U2  1  0.000000  0.836434  0.092166  1
  U  U3  1  0.000000  0.163542  0.907221  1
  U  U4  1  0.000000  0.956398  0.394995  1
  U  U5  1  0.000000  0.043356  0.604475  1
  U  U6  1  0.000000  0.455880  0.104866  1
  U  U7  1  0.000000  0.543999  0.895513  1
  Tc  Tc8  1  0.000000  0.643766  0.320449  1
  Tc  Tc9  1  0.000000  0.355677  0.679861  1
  Tc  Tc10  1  0.000000  0.144648  0.179852  1
  B  B11  1  0.500000  0.549923  0.433045  1
  B  B12  1  0.500000  0.450413  0.567303  1
  B  B13  1  0.500000  0.050234  0.067541  1
  B  B14  1  0.500000  0.950715  0.933587  1
  B  B15  1  0.500000  0.742536  0.423343  1
  B  B16  1  0.500000  0.257588  0.576267  1
  B  B17  1  0.500000  0.242746  0.076424  1
  B  B18  1  0.500000  0.756746  0.924768  1
  B  B19  1  0.500000  0.803791  0.273047  1
  B  B20  1  0.500000  0.196792  0.726540  1
  B  B21  1  0.500000  0.303967  0.226892  1
  B  B22  1  0.500000  0.695277  0.772813  1
  B  B23  1  0.500000  0.644525  0.188614  1
  B  B24  1  0.500000  0.355299  0.811595  1
  B  B25  1  0.500000  0.144973  0.311734  1
  B  B26  1  0.500000  0.854561  0.687096  1
  B  B27  1  0.500000  0.985895  0.218849  1
  B  B28  1  0.500000  0.015273  0.780815  1
  B  B29  1  0.500000  0.485714  0.281280  1
  B  B30  1  0.500000  0.513656  0.718731  1
  B  B31  1  0.500000  0.642485  0.040363  1
  B  B32  1  0.500000  0.356532  0.960262  1
  B  B33  1  0.500000  0.143652  0.460216  1
  B  B34  1  0.500000  0.856557  0.538861  1
  Mo  Mo35  1  0.000000  0.855129  0.819925  1
