# generated using pymatgen
data_Rb2Yb2(GeO3)3
_symmetry_space_group_name_H-M   'P 1'
_cell_length_a   7.62819700
_cell_length_b   6.76969228
_cell_length_c   12.44568500
_cell_angle_alpha   60.55729839
_cell_angle_beta   90.00000000
_cell_angle_gamma   90.00000000
_symmetry_Int_Tables_number   1
_chemical_formula_structural   Rb2Yb2(GeO3)3
_chemical_formula_sum   'Rb4 Yb4 Ge6 O18'
_cell_volume   559.69553955
_cell_formula_units_Z   2
loop_
 _symmetry_equiv_pos_site_id
 _symmetry_equiv_pos_as_xyz
  1  'x, y, z'
loop_
 _atom_site_type_symbol
 _atom_site_label
 _atom_site_symmetry_multiplicity
 _atom_site_fract_x
 _atom_site_fract_y
 _atom_site_fract_z
 _atom_site_occupancy
  Rb  Rb0  1  0.387315  0.441729  0.771939  1
  Rb  Rb1  1  0.612685  0.441729  0.271939  1
  Rb  Rb2  1  0.653292  0.817339  0.900361  1
  Rb  Rb3  1  0.346708  0.817339  0.400361  1
  Yb  Yb4  1  0.830443  0.862950  0.585434  1
  Yb  Yb5  1  0.169557  0.862950  0.085434  1
  Yb  Yb6  1  0.925077  0.335626  0.858516  1
  Yb  Yb7  1  0.074923  0.335626  0.358516  1
  Ge  Ge8  1  0.584030  0.114509  0.090932  1
  Ge  Ge9  1  0.415970  0.114509  0.590932  1
  Ge  Ge10  1  0.243391  0.422231  0.051725  1
  Ge  Ge11  1  0.756609  0.422231  0.551725  1
  Ge  Ge12  1  0.116752  0.879572  0.815269  1
  Ge  Ge13  1  0.883248  0.879572  0.315269  1
  O  O14  1  0.858296  0.476673  0.658903  1
  O  O15  1  0.141704  0.476673  0.158903  1
  O  O16  1  0.465298  0.336606  0.102798  1
  O  O17  1  0.534702  0.336606  0.602798  1
  O  O18  1  0.453068  0.872934  0.142947  1
  O  O19  1  0.546932  0.872934  0.642947  1
  O  O20  1  0.011596  0.985753  0.900932  1
  O  O21  1  0.988404  0.985753  0.400932  1
  O  O22  1  0.853047  0.251443  0.500148  1
  O  O23  1  0.146953  0.251443  0.000148  1
  O  O24  1  0.664338  0.225427  0.941295  1
  O  O25  1  0.335662  0.225427  0.441295  1
  O  O26  1  0.978875  0.729499  0.768368  1
  O  O27  1  0.021125  0.729499  0.268368  1
  O  O28  1  0.289123  0.700985  0.919057  1
  O  O29  1  0.710877  0.700985  0.419057  1
  O  O30  1  0.760496  0.100624  0.192815  1
  O  O31  1  0.239504  0.100624  0.692815  1
