# generated using pymatgen
data_Ho2Si5PdPt2
_symmetry_space_group_name_H-M   'P 1'
_cell_length_a   8.16720210
_cell_length_b   8.16720113
_cell_length_c   8.16720169
_cell_angle_alpha   136.79410370
_cell_angle_beta   104.50297343
_cell_angle_gamma   91.18448141
_symmetry_Int_Tables_number   1
_chemical_formula_structural   Ho2Si5PdPt2
_chemical_formula_sum   'Ho4 Si10 Pd2 Pt4'
_cell_volume   343.69344218
_cell_formula_units_Z   2
loop_
 _symmetry_equiv_pos_site_id
 _symmetry_equiv_pos_as_xyz
  1  'x, y, z'
loop_
 _atom_site_type_symbol
 _atom_site_label
 _atom_site_symmetry_multiplicity
 _atom_site_fract_x
 _atom_site_fract_y
 _atom_site_fract_z
 _atom_site_occupancy
  Ho  Ho0  1  0.599720  0.370578  0.229141  1
  Ho  Ho1  1  0.400280  0.629422  0.770859  1
  Ho  Ho2  1  0.141437  0.870578  0.270859  1
  Ho  Ho3  1  0.858563  0.129422  0.729141  1
  Si  Si4  1  0.500000  0.250000  0.750000  1
  Si  Si5  1  0.500000  0.750000  0.250000  1
  Si  Si6  1  0.227177  0.477177  0.250000  1
  Si  Si7  1  0.772823  0.022823  0.250000  1
  Si  Si8  1  0.772823  0.522823  0.750000  1
  Si  Si9  1  0.227177  0.977177  0.750000  1
  Si  Si10  1  0.960503  0.612261  0.348242  1
  Si  Si11  1  0.039497  0.387739  0.651758  1
  Si  Si12  1  0.264018  0.112261  0.151758  1
  Si  Si13  1  0.735982  0.887739  0.848242  1
  Pd  Pd14  1  0.000000  0.750000  0.750000  1
  Pd  Pd15  1  0.000000  0.250000  0.250000  1
  Pt  Pt16  1  0.525019  0.137865  0.387154  1
  Pt  Pt17  1  0.474981  0.862135  0.612846  1
  Pt  Pt18  1  0.750711  0.637865  0.112846  1
  Pt  Pt19  1  0.249289  0.362135  0.887154  1
