# generated using pymatgen
data_Ac3La(InSi2)2
_symmetry_space_group_name_H-M   'P 1'
_cell_length_a   4.54698300
_cell_length_b   7.97541434
_cell_length_c   15.24958050
_cell_angle_alpha   90.49349481
_cell_angle_beta   90.00000000
_cell_angle_gamma   90.00000000
_symmetry_Int_Tables_number   1
_chemical_formula_structural   Ac3La(InSi2)2
_chemical_formula_sum   'Ac6 La2 In4 Si8'
_cell_volume   552.99139452
_cell_formula_units_Z   2
loop_
 _symmetry_equiv_pos_site_id
 _symmetry_equiv_pos_as_xyz
  1  'x, y, z'
loop_
 _atom_site_type_symbol
 _atom_site_label
 _atom_site_symmetry_multiplicity
 _atom_site_fract_x
 _atom_site_fract_y
 _atom_site_fract_z
 _atom_site_occupancy
  Ac  Ac0  1  0.500000  0.749935  0.037007  1
  Ac  Ac1  1  0.500000  0.250065  0.962993  1
  Ac  Ac2  1  0.500000  0.248899  0.466333  1
  Ac  Ac3  1  0.500000  0.751101  0.533667  1
  Ac  Ac4  1  0.500000  0.614622  0.281734  1
  Ac  Ac5  1  0.500000  0.385378  0.718266  1
  La  La6  1  0.500000  0.115980  0.215418  1
  La  La7  1  0.500000  0.884020  0.784582  1
  In  In8  1  0.000000  0.943397  0.370928  1
  In  In9  1  0.000000  0.056603  0.629072  1
  In  In10  1  0.000000  0.428174  0.125566  1
  In  In11  1  0.000000  0.571826  0.874434  1
  Si  Si12  1  0.000000  0.544634  0.423528  1
  Si  Si13  1  0.000000  0.455366  0.576472  1
  Si  Si14  1  0.000000  0.054852  0.076583  1
  Si  Si15  1  0.000000  0.945148  0.923417  1
  Si  Si16  1  0.000000  0.840811  0.186521  1
  Si  Si17  1  0.000000  0.159189  0.813479  1
  Si  Si18  1  0.000000  0.319144  0.314922  1
  Si  Si19  1  0.000000  0.680856  0.685078  1
