# generated using pymatgen
data_Li2NdTm2Al7
_symmetry_space_group_name_H-M   'P 1'
_cell_length_a   9.30600920
_cell_length_b   9.30600935
_cell_length_c   9.30600964
_cell_angle_alpha   34.57743792
_cell_angle_beta   34.57743901
_cell_angle_gamma   34.57743222
_symmetry_Int_Tables_number   1
_chemical_formula_structural   Li2NdTm2Al7
_chemical_formula_sum   'Li2 Nd1 Tm2 Al7'
_cell_volume   231.59740202
_cell_formula_units_Z   1
loop_
 _symmetry_equiv_pos_site_id
 _symmetry_equiv_pos_as_xyz
  1  'x, y, z'
loop_
 _atom_site_type_symbol
 _atom_site_label
 _atom_site_symmetry_multiplicity
 _atom_site_fract_x
 _atom_site_fract_y
 _atom_site_fract_z
 _atom_site_occupancy
  Li  Li0  1  0.335155  0.335155  0.335155  1
  Li  Li1  1  0.664845  0.664845  0.664845  1
  Nd  Nd2  1  0.000000  0.000000  0.000000  1
  Tm  Tm3  1  0.141648  0.141648  0.141648  1
  Tm  Tm4  1  0.858352  0.858352  0.858352  1
  Al  Al5  1  0.586259  0.586259  0.076856  1
  Al  Al6  1  0.413741  0.923144  0.413741  1
  Al  Al7  1  0.586259  0.076856  0.586259  1
  Al  Al8  1  0.076856  0.586259  0.586259  1
  Al  Al9  1  0.413741  0.413741  0.923144  1
  Al  Al10  1  0.500000  0.500000  0.500000  1
  Al  Al11  1  0.923144  0.413741  0.413741  1
