# generated using pymatgen
data_KScB14
_symmetry_space_group_name_H-M   'P 1'
_cell_length_a   7.50318851
_cell_length_b   7.50318722
_cell_length_c   7.50284222
_cell_angle_alpha   132.82852470
_cell_angle_beta   112.36103269
_cell_angle_gamma   86.54875847
_symmetry_Int_Tables_number   1
_chemical_formula_structural   KScB14
_chemical_formula_sum   'K2 Sc2 B28'
_cell_volume   273.95143509
_cell_formula_units_Z   2
loop_
 _symmetry_equiv_pos_site_id
 _symmetry_equiv_pos_as_xyz
  1  'x, y, z'
loop_
 _atom_site_type_symbol
 _atom_site_label
 _atom_site_symmetry_multiplicity
 _atom_site_fract_x
 _atom_site_fract_y
 _atom_site_fract_z
 _atom_site_occupancy
  K  K0  1  0.098936  0.749898  0.348834  1
  K  K1  1  0.901064  0.250102  0.651166  1
  Sc  Sc2  1  0.500000  0.500000  0.500000  1
  Sc  Sc3  1  0.500000  0.000000  0.000000  1
  B  B4  1  0.895411  0.215672  0.995908  1
  B  B5  1  0.469552  0.179919  0.799684  1
  B  B6  1  0.880234  0.169869  0.200316  1
  B  B7  1  0.719765  0.399503  0.004092  1
  B  B8  1  0.586909  0.419239  0.167593  1
  B  B9  1  0.749309  0.370364  0.378929  1
  B  B10  1  0.310461  0.336093  0.974484  1
  B  B11  1  0.719756  0.715608  0.320186  1
  B  B12  1  0.880281  0.679780  0.710199  1
  B  B13  1  0.469580  0.670083  0.289801  1
  B  B14  1  0.104579  0.100431  0.320186  1
  B  B15  1  0.895421  0.899569  0.679814  1
  B  B16  1  0.530420  0.329917  0.710199  1
  B  B17  1  0.119719  0.320220  0.289801  1
  B  B18  1  0.280244  0.284392  0.679814  1
  B  B19  1  0.751646  0.919317  0.832407  1
  B  B20  1  0.491435  0.870379  0.621071  1
  B  B21  1  0.861609  0.835977  0.025516  1
  B  B22  1  0.689539  0.663907  0.025516  1
  B  B23  1  0.250691  0.629636  0.621071  1
  B  B24  1  0.413091  0.580761  0.832407  1
  B  B25  1  0.280235  0.600497  0.995908  1
  B  B26  1  0.119766  0.830131  0.799684  1
  B  B27  1  0.530448  0.820081  0.200316  1
  B  B28  1  0.104589  0.784328  0.004092  1
  B  B29  1  0.138391  0.164023  0.974484  1
  B  B30  1  0.508565  0.129621  0.378929  1
  B  B31  1  0.248354  0.080683  0.167593  1
