# generated using pymatgen
data_ErLuPb4
_symmetry_space_group_name_H-M   'P 1'
_cell_length_a   8.45450895
_cell_length_b   8.45450844
_cell_length_c   4.52541200
_cell_angle_alpha   90.00000000
_cell_angle_beta   90.00000000
_cell_angle_gamma   148.25669171
_symmetry_Int_Tables_number   1
_chemical_formula_structural   ErLuPb4
_chemical_formula_sum   'Er1 Lu1 Pb4'
_cell_volume   170.18263063
_cell_formula_units_Z   1
loop_
 _symmetry_equiv_pos_site_id
 _symmetry_equiv_pos_as_xyz
  1  'x, y, z'
loop_
 _atom_site_type_symbol
 _atom_site_label
 _atom_site_symmetry_multiplicity
 _atom_site_fract_x
 _atom_site_fract_y
 _atom_site_fract_z
 _atom_site_occupancy
  Er  Er0  1  0.093814  0.906185  0.750001  1
  Lu  Lu1  1  0.905903  0.094096  0.250000  1
  Pb  Pb2  1  0.569692  0.430307  0.250000  1
  Pb  Pb3  1  0.251618  0.748381  0.250000  1
  Pb  Pb4  1  0.748919  0.251080  0.750001  1
  Pb  Pb5  1  0.430051  0.569948  0.750001  1
