# generated using pymatgen
data_Dy6Ho14Cd6OsRu
_symmetry_space_group_name_H-M   'P 1'
_cell_length_a   9.55918300
_cell_length_b   9.55918211
_cell_length_c   9.86484100
_cell_angle_alpha   90.00000000
_cell_angle_beta   90.00000000
_cell_angle_gamma   120.00000654
_symmetry_Int_Tables_number   1
_chemical_formula_structural   Dy6Ho14Cd6OsRu
_chemical_formula_sum   'Dy6 Ho14 Cd6 Os1 Ru1'
_cell_volume   780.66049726
_cell_formula_units_Z   1
loop_
 _symmetry_equiv_pos_site_id
 _symmetry_equiv_pos_as_xyz
  1  'x, y, z'
loop_
 _atom_site_type_symbol
 _atom_site_label
 _atom_site_symmetry_multiplicity
 _atom_site_fract_x
 _atom_site_fract_y
 _atom_site_fract_z
 _atom_site_occupancy
  Dy  Dy0  1  0.539534  0.460466  0.250000  1
  Dy  Dy1  1  0.539534  0.079070  0.250000  1
  Dy  Dy2  1  0.920930  0.460466  0.250000  1
  Dy  Dy3  1  0.459212  0.540788  0.750000  1
  Dy  Dy4  1  0.459212  0.918423  0.750000  1
  Dy  Dy5  1  0.081577  0.540788  0.750000  1
  Ho  Ho6  1  0.000000  0.000000  0.499701  1
  Ho  Ho7  1  0.000000  0.000000  0.000299  1
  Ho  Ho8  1  0.210071  0.789929  0.440868  1
  Ho  Ho9  1  0.210071  0.420142  0.440868  1
  Ho  Ho10  1  0.579858  0.789929  0.440868  1
  Ho  Ho11  1  0.789791  0.210209  0.559700  1
  Ho  Ho12  1  0.789791  0.579579  0.559700  1
  Ho  Ho13  1  0.420421  0.210209  0.559700  1
  Ho  Ho14  1  0.789791  0.210209  0.940300  1
  Ho  Ho15  1  0.789791  0.579579  0.940300  1
  Ho  Ho16  1  0.420421  0.210209  0.940300  1
  Ho  Ho17  1  0.210071  0.789929  0.059132  1
  Ho  Ho18  1  0.210071  0.420142  0.059132  1
  Ho  Ho19  1  0.579858  0.789929  0.059132  1
  Cd  Cd20  1  0.885944  0.114056  0.250000  1
  Cd  Cd21  1  0.885944  0.771889  0.250000  1
  Cd  Cd22  1  0.228111  0.114056  0.250000  1
  Cd  Cd23  1  0.113917  0.886083  0.750000  1
  Cd  Cd24  1  0.113917  0.227832  0.750000  1
  Cd  Cd25  1  0.772168  0.886083  0.750000  1
  Os  Os26  1  0.333333  0.666667  0.250000  1
  Ru  Ru27  1  0.666667  0.333333  0.750000  1
