# generated using pymatgen
data_LiHf3SiNi4As3
_symmetry_space_group_name_H-M   'P 1'
_cell_length_a   3.81659200
_cell_length_b   6.45345350
_cell_length_c   7.25070733
_cell_angle_alpha   90.47221328
_cell_angle_beta   90.00000000
_cell_angle_gamma   90.00000000
_symmetry_Int_Tables_number   1
_chemical_formula_structural   LiHf3SiNi4As3
_chemical_formula_sum   'Li1 Hf3 Si1 Ni4 As3'
_cell_volume   178.58029922
_cell_formula_units_Z   1
loop_
 _symmetry_equiv_pos_site_id
 _symmetry_equiv_pos_as_xyz
  1  'x, y, z'
loop_
 _atom_site_type_symbol
 _atom_site_label
 _atom_site_symmetry_multiplicity
 _atom_site_fract_x
 _atom_site_fract_y
 _atom_site_fract_z
 _atom_site_occupancy
  Li  Li0  1  0.250000  0.480979  0.189163  1
  Hf  Hf1  1  0.750000  0.524828  0.814039  1
  Hf  Hf2  1  0.750000  0.020840  0.684370  1
  Hf  Hf3  1  0.250000  0.975866  0.313443  1
  Si  Si4  1  0.250000  0.731874  0.617144  1
  Ni  Ni5  1  0.250000  0.859542  0.928730  1
  Ni  Ni6  1  0.750000  0.128751  0.061841  1
  Ni  Ni7  1  0.750000  0.648943  0.446480  1
  Ni  Ni8  1  0.250000  0.365879  0.558888  1
  As  As9  1  0.750000  0.270926  0.377322  1
  As  As10  1  0.750000  0.750033  0.121224  1
  As  As11  1  0.250000  0.241541  0.887355  1
