# generated using pymatgen
data_Ho3TmFe5Os3
_symmetry_space_group_name_H-M   'P 1'
_cell_length_a   5.23313042
_cell_length_b   5.22175353
_cell_length_c   9.00651278
_cell_angle_alpha   72.76803997
_cell_angle_beta   90.82485569
_cell_angle_gamma   120.27942435
_symmetry_Int_Tables_number   1
_chemical_formula_structural   Ho3TmFe5Os3
_chemical_formula_sum   'Ho3 Tm1 Fe5 Os3'
_cell_volume   200.26091798
_cell_formula_units_Z   1
loop_
 _symmetry_equiv_pos_site_id
 _symmetry_equiv_pos_as_xyz
  1  'x, y, z'
loop_
 _atom_site_type_symbol
 _atom_site_label
 _atom_site_symmetry_multiplicity
 _atom_site_fract_x
 _atom_site_fract_y
 _atom_site_fract_z
 _atom_site_occupancy
  Ho  Ho0  1  0.375786  0.749656  0.873829  1
  Ho  Ho1  1  0.998763  0.998946  0.999277  1
  Ho  Ho2  1  0.499498  0.000503  0.500924  1
  Tm  Tm3  1  0.876291  0.750965  0.375785  1
  Fe  Fe4  1  0.937517  0.875125  0.686907  1
  Fe  Fe5  1  0.183729  0.369551  0.443166  1
  Fe  Fe6  1  0.691104  0.380298  0.931725  1
  Fe  Fe7  1  0.937299  0.374605  0.188149  1
  Fe  Fe8  1  0.437905  0.375570  0.686890  1
  Os  Os9  1  0.437313  0.374207  0.188371  1
  Os  Os10  1  0.937475  0.375939  0.686601  1
  Os  Os11  1  0.437318  0.874637  0.188381  1
