# generated using pymatgen
data_KTeIO6
_symmetry_space_group_name_H-M   'P 1'
_cell_length_a   7.43483600
_cell_length_b   7.63440424
_cell_length_c   10.83846784
_cell_angle_alpha   68.78413955
_cell_angle_beta   90.00000000
_cell_angle_gamma   90.00000000
_symmetry_Int_Tables_number   1
_chemical_formula_structural   KTeIO6
_chemical_formula_sum   'K4 Te4 I4 O24'
_cell_volume   573.50150360
_cell_formula_units_Z   4
loop_
 _symmetry_equiv_pos_site_id
 _symmetry_equiv_pos_as_xyz
  1  'x, y, z'
loop_
 _atom_site_type_symbol
 _atom_site_label
 _atom_site_symmetry_multiplicity
 _atom_site_fract_x
 _atom_site_fract_y
 _atom_site_fract_z
 _atom_site_occupancy
  K  K0  1  0.251769  0.084758  0.089505  1
  K  K1  1  0.751769  0.915242  0.410495  1
  K  K2  1  0.748231  0.915242  0.910495  1
  K  K3  1  0.248231  0.084758  0.589505  1
  Te  Te4  1  0.999566  0.500466  0.749726  1
  Te  Te5  1  0.499566  0.499534  0.750274  1
  Te  Te6  1  0.000434  0.499534  0.250274  1
  Te  Te7  1  0.500434  0.500466  0.249726  1
  I  I8  1  0.250463  0.677328  0.463395  1
  I  I9  1  0.249537  0.677328  0.963395  1
  I  I10  1  0.749537  0.322672  0.536605  1
  I  I11  1  0.750463  0.322672  0.036605  1
  O  O12  1  0.930721  0.282078  0.909234  1
  O  O13  1  0.069279  0.717922  0.090766  1
  O  O14  1  0.000357  0.338517  0.149515  1
  O  O15  1  0.249369  0.423414  0.807941  1
  O  O16  1  0.000609  0.661274  0.350599  1
  O  O17  1  0.999643  0.661483  0.850485  1
  O  O18  1  0.749336  0.075699  0.628478  1
  O  O19  1  0.499643  0.338517  0.649515  1
  O  O20  1  0.250664  0.924301  0.371522  1
  O  O21  1  0.500357  0.661483  0.350485  1
  O  O22  1  0.430721  0.717922  0.590766  1
  O  O23  1  0.750664  0.075699  0.128478  1
  O  O24  1  0.499391  0.661274  0.850599  1
  O  O25  1  0.750631  0.576586  0.192059  1
  O  O26  1  0.250631  0.423414  0.307941  1
  O  O27  1  0.749369  0.576586  0.692059  1
  O  O28  1  0.249336  0.924301  0.871522  1
  O  O29  1  0.500609  0.338726  0.149401  1
  O  O30  1  0.431241  0.718330  0.089728  1
  O  O31  1  0.931241  0.281670  0.410272  1
  O  O32  1  0.568759  0.281670  0.910272  1
  O  O33  1  0.068759  0.718330  0.589728  1
  O  O34  1  0.999391  0.338726  0.649401  1
  O  O35  1  0.569279  0.282078  0.409234  1
