# generated using pymatgen
data_Sc7Co16P12Rh
_symmetry_space_group_name_H-M   'P 1'
_cell_length_a   12.04332799
_cell_length_b   12.04332759
_cell_length_c   3.63492000
_cell_angle_alpha   90.00000000
_cell_angle_beta   90.00000000
_cell_angle_gamma   120.13204090
_symmetry_Int_Tables_number   1
_chemical_formula_structural   Sc7Co16P12Rh
_chemical_formula_sum   'Sc7 Co16 P12 Rh1'
_cell_volume   455.97299373
_cell_formula_units_Z   1
loop_
 _symmetry_equiv_pos_site_id
 _symmetry_equiv_pos_as_xyz
  1  'x, y, z'
loop_
 _atom_site_type_symbol
 _atom_site_label
 _atom_site_symmetry_multiplicity
 _atom_site_fract_x
 _atom_site_fract_y
 _atom_site_fract_z
 _atom_site_occupancy
  Sc  Sc0  1  0.813568  0.813568  0.500000  1
  Sc  Sc1  1  0.998064  0.181406  0.500000  1
  Sc  Sc2  1  0.557883  0.000153  0.000000  1
  Sc  Sc3  1  0.334128  0.667756  0.000000  1
  Sc  Sc4  1  0.667756  0.334128  0.000000  1
  Sc  Sc5  1  0.000153  0.557883  0.000000  1
  Sc  Sc6  1  0.181406  0.998064  0.500000  1
  Co  Co7  1  0.625477  0.817522  0.000000  1
  Co  Co8  1  0.372921  0.198898  0.000000  1
  Co  Co9  1  0.997594  0.721715  0.500000  1
  Co  Co10  1  0.281421  0.281421  0.500000  1
  Co  Co11  1  0.875135  0.354995  0.500000  1
  Co  Co12  1  0.721715  0.997594  0.500000  1
  Co  Co13  1  0.817522  0.625477  0.000000  1
  Co  Co14  1  0.178575  0.807738  0.000000  1
  Co  Co15  1  0.354995  0.875135  0.500000  1
  Co  Co16  1  0.127790  0.479700  0.500000  1
  Co  Co17  1  0.641854  0.515474  0.500000  1
  Co  Co18  1  0.001555  0.001555  0.000000  1
  Co  Co19  1  0.515474  0.641854  0.500000  1
  Co  Co20  1  0.479700  0.127790  0.500000  1
  Co  Co21  1  0.198898  0.372921  0.000000  1
  Co  Co22  1  0.807738  0.178575  0.000000  1
  P  P23  1  0.003515  0.351683  0.000000  1
  P  P24  1  0.825741  0.515233  0.500000  1
  P  P25  1  0.690902  0.173673  0.500000  1
  P  P26  1  0.177422  0.177422  0.000000  1
  P  P27  1  0.643225  0.643225  0.000000  1
  P  P28  1  0.823449  0.998657  0.000000  1
  P  P29  1  0.515233  0.825741  0.500000  1
  P  P30  1  0.173673  0.690902  0.500000  1
  P  P31  1  0.351683  0.003515  0.000000  1
  P  P32  1  0.481684  0.313002  0.500000  1
  P  P33  1  0.998657  0.823449  0.000000  1
  P  P34  1  0.313002  0.481684  0.500000  1
  Rh  Rh35  1  0.450490  0.450490  0.000000  1
