# generated using pymatgen
data_Pa8Si13Pt3
_symmetry_space_group_name_H-M   'P 1'
_cell_length_a   8.17100200
_cell_length_b   8.17100397
_cell_length_c   7.98424200
_cell_angle_alpha   90.00000000
_cell_angle_beta   90.00000000
_cell_angle_gamma   120.00000013
_symmetry_Int_Tables_number   1
_chemical_formula_structural   Pa8Si13Pt3
_chemical_formula_sum   'Pa8 Si13 Pt3'
_cell_volume   461.65236107
_cell_formula_units_Z   1
loop_
 _symmetry_equiv_pos_site_id
 _symmetry_equiv_pos_as_xyz
  1  'x, y, z'
loop_
 _atom_site_type_symbol
 _atom_site_label
 _atom_site_symmetry_multiplicity
 _atom_site_fract_x
 _atom_site_fract_y
 _atom_site_fract_z
 _atom_site_occupancy
  Pa  Pa0  1  0.000000  0.000000  0.751124  1
  Pa  Pa1  1  0.000000  0.000000  0.248849  1
  Pa  Pa2  1  0.496428  0.503572  0.758863  1
  Pa  Pa3  1  0.496428  0.992858  0.758863  1
  Pa  Pa4  1  0.007142  0.503572  0.758863  1
  Pa  Pa5  1  0.496969  0.503031  0.241262  1
  Pa  Pa6  1  0.006063  0.503031  0.241262  1
  Pa  Pa7  1  0.496969  0.993937  0.241262  1
  Si  Si8  1  0.836817  0.163183  0.999817  1
  Si  Si9  1  0.836817  0.673635  0.999817  1
  Si  Si10  1  0.326365  0.163183  0.999817  1
  Si  Si11  1  0.835114  0.164886  0.500321  1
  Si  Si12  1  0.835114  0.670227  0.500321  1
  Si  Si13  1  0.329773  0.164886  0.500321  1
  Si  Si14  1  0.164541  0.835459  0.499696  1
  Si  Si15  1  0.670918  0.835459  0.499696  1
  Si  Si16  1  0.164541  0.329082  0.499696  1
  Si  Si17  1  0.168634  0.831366  0.000222  1
  Si  Si18  1  0.662731  0.831366  0.000222  1
  Si  Si19  1  0.168634  0.337269  0.000222  1
  Si  Si20  1  0.333333  0.666667  0.000594  1
  Pt  Pt21  1  0.666667  0.333333  0.998983  1
  Pt  Pt22  1  0.666667  0.333333  0.500556  1
  Pt  Pt23  1  0.333333  0.666667  0.499352  1
