# generated using pymatgen
data_Yb4Si2GePd27
_symmetry_space_group_name_H-M   'P 1'
_cell_length_a   8.87339501
_cell_length_b   8.87339501
_cell_length_c   7.07433915
_cell_angle_alpha   90.40344775
_cell_angle_beta   90.40344775
_cell_angle_gamma   88.71808766
_symmetry_Int_Tables_number   1
_chemical_formula_structural   Yb4Si2GePd27
_chemical_formula_sum   'Yb4 Si2 Ge1 Pd27'
_cell_volume   556.84680941
_cell_formula_units_Z   1
loop_
 _symmetry_equiv_pos_site_id
 _symmetry_equiv_pos_as_xyz
  1  'x, y, z'
loop_
 _atom_site_type_symbol
 _atom_site_label
 _atom_site_symmetry_multiplicity
 _atom_site_fract_x
 _atom_site_fract_y
 _atom_site_fract_z
 _atom_site_occupancy
  Yb  Yb0  1  0.510836  0.010836  0.937189  1
  Yb  Yb1  1  0.989164  0.489164  0.062811  1
  Yb  Yb2  1  0.002459  0.997541  0.500000  1
  Yb  Yb3  1  0.497541  0.502459  0.500000  1
  Si  Si4  1  0.505678  0.005678  0.442313  1
  Si  Si5  1  0.994322  0.494322  0.557687  1
  Ge  Ge6  1  0.250000  0.750000  0.000000  1
  Pd  Pd7  1  0.339505  0.839505  0.600565  1
  Pd  Pd8  1  0.333865  0.167065  0.619984  1
  Pd  Pd9  1  0.667065  0.833865  0.619984  1
  Pd  Pd10  1  0.667534  0.167534  0.617742  1
  Pd  Pd11  1  0.160495  0.660495  0.399435  1
  Pd  Pd12  1  0.166135  0.332935  0.380016  1
  Pd  Pd13  1  0.832935  0.666135  0.380016  1
  Pd  Pd14  1  0.832466  0.332466  0.382258  1
  Pd  Pd15  1  0.500231  0.772272  0.252723  1
  Pd  Pd16  1  0.496643  0.235586  0.255545  1
  Pd  Pd17  1  0.272272  0.000231  0.252723  1
  Pd  Pd18  1  0.735586  0.996643  0.255545  1
  Pd  Pd19  1  0.999769  0.727728  0.747277  1
  Pd  Pd20  1  0.003357  0.264414  0.744455  1
  Pd  Pd21  1  0.227728  0.499769  0.747277  1
  Pd  Pd22  1  0.764414  0.503357  0.744455  1
  Pd  Pd23  1  0.497507  0.355254  0.852683  1
  Pd  Pd24  1  0.487615  0.665612  0.860147  1
  Pd  Pd25  1  0.855254  0.997507  0.852683  1
  Pd  Pd26  1  0.165612  0.987615  0.860147  1
  Pd  Pd27  1  0.002493  0.144746  0.147317  1
  Pd  Pd28  1  0.012385  0.834388  0.139853  1
  Pd  Pd29  1  0.644746  0.502493  0.147317  1
  Pd  Pd30  1  0.334388  0.512385  0.139853  1
  Pd  Pd31  1  0.250000  0.250000  0.000000  1
  Pd  Pd32  1  0.750000  0.750000  0.000000  1
  Pd  Pd33  1  0.750000  0.250000  0.000000  1
