# generated using pymatgen
data_TbY17(LuSn8)2
_symmetry_space_group_name_H-M   'P 1'
_cell_length_a   8.03533616
_cell_length_b   8.17830920
_cell_length_c   15.49509700
_cell_angle_alpha   90.00455378
_cell_angle_beta   89.96921773
_cell_angle_gamma   89.98823267
_symmetry_Int_Tables_number   1
_chemical_formula_structural   TbY17(LuSn8)2
_chemical_formula_sum   'Tb1 Y17 Lu2 Sn16'
_cell_volume   1018.26731164
_cell_formula_units_Z   1
loop_
 _symmetry_equiv_pos_site_id
 _symmetry_equiv_pos_as_xyz
  1  'x, y, z'
loop_
 _atom_site_type_symbol
 _atom_site_label
 _atom_site_symmetry_multiplicity
 _atom_site_fract_x
 _atom_site_fract_y
 _atom_site_fract_z
 _atom_site_occupancy
  Tb  Tb0  1  0.019977  0.179419  0.902955  1
  Y  Y1  1  0.367138  0.836800  0.877826  1
  Y  Y2  1  0.867504  0.663420  0.621959  1
  Y  Y3  1  0.632338  0.163200  0.377513  1
  Y  Y4  1  0.132580  0.336710  0.122503  1
  Y  Y5  1  0.632700  0.163256  0.122574  1
  Y  Y6  1  0.132314  0.336701  0.377522  1
  Y  Y7  1  0.367463  0.836695  0.622011  1
  Y  Y8  1  0.867382  0.663227  0.877866  1
  Y  Y9  1  0.520777  0.320743  0.902712  1
  Y  Y10  1  0.021070  0.179428  0.597427  1
  Y  Y11  1  0.479166  0.679438  0.402433  1
  Y  Y12  1  0.979364  0.820336  0.097498  1
  Y  Y13  1  0.479443  0.679560  0.097505  1
  Y  Y14  1  0.979080  0.820604  0.402455  1
  Y  Y15  1  0.520863  0.320691  0.597160  1
  Y  Y16  1  0.198628  0.502487  0.749924  1
  Y  Y17  1  0.698639  0.997404  0.749850  1
  Lu  Lu18  1  0.801216  0.497273  0.250047  1
  Lu  Lu19  1  0.301303  0.002710  0.250041  1
  Sn  Sn20  1  0.293305  0.035579  0.042778  1
  Sn  Sn21  1  0.792741  0.464197  0.457372  1
  Sn  Sn22  1  0.707168  0.963994  0.541380  1
  Sn  Sn23  1  0.207099  0.536480  0.958716  1
  Sn  Sn24  1  0.706515  0.963335  0.958771  1
  Sn  Sn25  1  0.207039  0.536237  0.541335  1
  Sn  Sn26  1  0.292785  0.035738  0.457375  1
  Sn  Sn27  1  0.793097  0.463911  0.042474  1
  Sn  Sn28  1  0.565342  0.618434  0.749973  1
  Sn  Sn29  1  0.065188  0.881775  0.750121  1
  Sn  Sn30  1  0.435971  0.381546  0.250008  1
  Sn  Sn31  1  0.936035  0.118487  0.250044  1
  Sn  Sn32  1  0.329994  0.147268  0.749993  1
  Sn  Sn33  1  0.829544  0.352905  0.749903  1
  Sn  Sn34  1  0.669683  0.850969  0.249980  1
  Sn  Sn35  1  0.169550  0.649046  0.249995  1
