# generated using pymatgen
data_Sr(BC3)2
_symmetry_space_group_name_H-M   'P 1'
_cell_length_a   6.60660463
_cell_length_b   5.21343611
_cell_length_c   5.46441889
_cell_angle_alpha   76.40526622
_cell_angle_beta   50.08664431
_cell_angle_gamma   53.50810348
_symmetry_Int_Tables_number   1
_chemical_formula_structural   Sr(BC3)2
_chemical_formula_sum   'Sr1 B2 C6'
_cell_volume   112.73358388
_cell_formula_units_Z   1
loop_
 _symmetry_equiv_pos_site_id
 _symmetry_equiv_pos_as_xyz
  1  'x, y, z'
loop_
 _atom_site_type_symbol
 _atom_site_label
 _atom_site_symmetry_multiplicity
 _atom_site_fract_x
 _atom_site_fract_y
 _atom_site_fract_z
 _atom_site_occupancy
  Sr  Sr0  1  0.999413  0.999413  0.000587  1
  B  B1  1  0.090121  0.577981  0.422019  1
  B  B2  1  0.577981  0.090121  0.909879  1
  C  C3  1  0.082016  0.082016  0.417984  1
  C  C4  1  0.582016  0.582016  0.917984  1
  C  C5  1  0.921454  0.921454  0.578546  1
  C  C6  1  0.421454  0.421454  0.078546  1
  C  C7  1  0.913235  0.412363  0.587637  1
  C  C8  1  0.412363  0.913235  0.086765  1
