# generated using pymatgen
data_Tb4ErIn4PdAu
_symmetry_space_group_name_H-M   'P 1'
_cell_length_a   3.66249100
_cell_length_b   8.21281477
_cell_length_c   18.40706808
_cell_angle_alpha   90.05796769
_cell_angle_beta   90.00000000
_cell_angle_gamma   90.00000000
_symmetry_Int_Tables_number   1
_chemical_formula_structural   Tb4ErIn4PdAu
_chemical_formula_sum   'Tb8 Er2 In8 Pd2 Au2'
_cell_volume   553.67254734
_cell_formula_units_Z   2
loop_
 _symmetry_equiv_pos_site_id
 _symmetry_equiv_pos_as_xyz
  1  'x, y, z'
loop_
 _atom_site_type_symbol
 _atom_site_label
 _atom_site_symmetry_multiplicity
 _atom_site_fract_x
 _atom_site_fract_y
 _atom_site_fract_z
 _atom_site_occupancy
  Tb  Tb0  1  0.000000  0.500000  0.500000  1
  Tb  Tb1  1  0.000000  0.000000  0.000000  1
  Tb  Tb2  1  0.000000  0.745714  0.285503  1
  Tb  Tb3  1  0.000000  0.254286  0.714497  1
  Tb  Tb4  1  0.000000  0.768642  0.779864  1
  Tb  Tb5  1  0.000000  0.231358  0.220136  1
  Tb  Tb6  1  0.000000  0.619383  0.080455  1
  Tb  Tb7  1  0.000000  0.380617  0.919545  1
  Er  Er8  1  0.000000  0.884400  0.583049  1
  Er  Er9  1  0.000000  0.115600  0.416951  1
  In  In10  1  0.500000  0.711281  0.931937  1
  In  In11  1  0.500000  0.288719  0.068063  1
  In  In12  1  0.500000  0.794281  0.435202  1
  In  In13  1  0.500000  0.205719  0.564798  1
  In  In14  1  0.500000  0.585967  0.647028  1
  In  In15  1  0.500000  0.414033  0.352972  1
  In  In16  1  0.500000  0.920793  0.149829  1
  In  In17  1  0.500000  0.079207  0.850171  1
  Pd  Pd18  1  0.500000  0.973838  0.694537  1
  Pd  Pd19  1  0.500000  0.026162  0.305463  1
  Au  Au20  1  0.500000  0.527718  0.198563  1
  Au  Au21  1  0.500000  0.472282  0.801437  1
