# generated using pymatgen
data_Er2Fe5Co7SiP6
_symmetry_space_group_name_H-M   'P 1'
_cell_length_a   8.98413525
_cell_length_b   8.97209649
_cell_length_c   3.61323300
_cell_angle_alpha   90.00000000
_cell_angle_beta   90.00000000
_cell_angle_gamma   119.93288547
_symmetry_Int_Tables_number   1
_chemical_formula_structural   Er2Fe5Co7SiP6
_chemical_formula_sum   'Er2 Fe5 Co7 Si1 P6'
_cell_volume   252.40045202
_cell_formula_units_Z   1
loop_
 _symmetry_equiv_pos_site_id
 _symmetry_equiv_pos_as_xyz
  1  'x, y, z'
loop_
 _atom_site_type_symbol
 _atom_site_label
 _atom_site_symmetry_multiplicity
 _atom_site_fract_x
 _atom_site_fract_y
 _atom_site_fract_z
 _atom_site_occupancy
  Er  Er0  1  0.666573  0.333474  0.500000  1
  Er  Er1  1  0.333884  0.667239  0.000000  1
  Fe  Fe2  1  0.386725  0.435923  0.500000  1
  Fe  Fe3  1  0.565623  0.951664  0.500000  1
  Fe  Fe4  1  0.220307  0.096156  0.500000  1
  Fe  Fe5  1  0.873916  0.775337  0.500000  1
  Fe  Fe6  1  0.902566  0.124356  0.500000  1
  Co  Co7  1  0.122258  0.838219  0.000000  1
  Co  Co8  1  0.719230  0.877802  0.000000  1
  Co  Co9  1  0.937191  0.371656  0.000000  1
  Co  Co10  1  0.629419  0.567951  0.000000  1
  Co  Co11  1  0.432325  0.062501  0.000000  1
  Co  Co12  1  0.049406  0.612935  0.500000  1
  Co  Co13  1  0.159258  0.282096  0.000000  1
  Si  Si14  1  0.000857  0.999399  0.000000  1
  P  P15  1  0.596743  0.711716  0.500000  1
  P  P16  1  0.703065  0.111791  0.000000  1
  P  P17  1  0.887423  0.592389  0.000000  1
  P  P18  1  0.408015  0.297009  0.000000  1
  P  P19  1  0.291229  0.888321  0.500000  1
  P  P20  1  0.113983  0.402070  0.500000  1
