# generated using pymatgen
data_Sm3Dy(Si3Ni5)4
_symmetry_space_group_name_H-M   'P 1'
_cell_length_a   3.82410700
_cell_length_b   6.61362745
_cell_length_c   18.86697125
_cell_angle_alpha   89.95807089
_cell_angle_beta   90.00000000
_cell_angle_gamma   90.00000000
_symmetry_Int_Tables_number   1
_chemical_formula_structural   Sm3Dy(Si3Ni5)4
_chemical_formula_sum   'Sm3 Dy1 Si12 Ni20'
_cell_volume   477.16857429
_cell_formula_units_Z   1
loop_
 _symmetry_equiv_pos_site_id
 _symmetry_equiv_pos_as_xyz
  1  'x, y, z'
loop_
 _atom_site_type_symbol
 _atom_site_label
 _atom_site_symmetry_multiplicity
 _atom_site_fract_x
 _atom_site_fract_y
 _atom_site_fract_z
 _atom_site_occupancy
  Sm  Sm0  1  0.250000  0.875902  0.356345  1
  Sm  Sm1  1  0.750000  0.124126  0.644133  1
  Sm  Sm2  1  0.750000  0.375388  0.143121  1
  Dy  Dy3  1  0.250000  0.623610  0.856075  1
  Si  Si4  1  0.250000  0.074333  0.085175  1
  Si  Si5  1  0.750000  0.921146  0.913192  1
  Si  Si6  1  0.750000  0.573654  0.413724  1
  Si  Si7  1  0.250000  0.426540  0.586854  1
  Si  Si8  1  0.250000  0.658847  0.072825  1
  Si  Si9  1  0.750000  0.344140  0.926267  1
  Si  Si10  1  0.750000  0.158570  0.427415  1
  Si  Si11  1  0.250000  0.841117  0.573331  1
  Si  Si12  1  0.250000  0.379838  0.263569  1
  Si  Si13  1  0.750000  0.620456  0.737598  1
  Si  Si14  1  0.750000  0.880402  0.235948  1
  Si  Si15  1  0.250000  0.120005  0.764190  1
  Ni  Ni16  1  0.250000  0.070644  0.206713  1
  Ni  Ni17  1  0.750000  0.928869  0.793460  1
  Ni  Ni18  1  0.750000  0.570919  0.292560  1
  Ni  Ni19  1  0.250000  0.430254  0.708125  1
  Ni  Ni20  1  0.250000  0.611930  0.483950  1
  Ni  Ni21  1  0.750000  0.388231  0.516594  1
  Ni  Ni22  1  0.750000  0.111952  0.014666  1
  Ni  Ni23  1  0.250000  0.885075  0.982676  1
  Ni  Ni24  1  0.250000  0.687664  0.198902  1
  Ni  Ni25  1  0.750000  0.314333  0.801478  1
  Ni  Ni26  1  0.750000  0.187698  0.300966  1
  Ni  Ni27  1  0.250000  0.812167  0.700040  1
  Ni  Ni28  1  0.250000  0.353868  0.384542  1
  Ni  Ni29  1  0.750000  0.645601  0.616357  1
  Ni  Ni30  1  0.750000  0.854830  0.114881  1
  Ni  Ni31  1  0.250000  0.146690  0.884868  1
  Ni  Ni32  1  0.250000  0.365739  0.004793  1
  Ni  Ni33  1  0.750000  0.635590  0.993918  1
  Ni  Ni34  1  0.750000  0.863612  0.494766  1
  Ni  Ni35  1  0.250000  0.136264  0.505985  1
