# generated using pymatgen
data_Zr4Ti2BBr12
_symmetry_space_group_name_H-M   'P 1'
_cell_length_a   8.62299128
_cell_length_b   8.66382197
_cell_length_c   8.57704963
_cell_angle_alpha   106.61936147
_cell_angle_beta   107.00389589
_cell_angle_gamma   106.97830344
_symmetry_Int_Tables_number   1
_chemical_formula_structural   Zr4Ti2BBr12
_chemical_formula_sum   'Zr4 Ti2 B1 Br12'
_cell_volume   535.55912751
_cell_formula_units_Z   1
loop_
 _symmetry_equiv_pos_site_id
 _symmetry_equiv_pos_as_xyz
  1  'x, y, z'
loop_
 _atom_site_type_symbol
 _atom_site_label
 _atom_site_symmetry_multiplicity
 _atom_site_fract_x
 _atom_site_fract_y
 _atom_site_fract_z
 _atom_site_occupancy
  Zr  Zr0  1  0.097495  0.028712  0.291517  1
  Zr  Zr1  1  0.904554  0.970513  0.709834  1
  Zr  Zr2  1  0.707449  0.903216  0.970847  1
  Zr  Zr3  1  0.029386  0.289860  0.095032  1
  Ti  Ti4  1  0.975338  0.732151  0.911647  1
  Ti  Ti5  1  0.269984  0.087695  0.026339  1
  B  B6  1  0.997111  0.001836  0.001546  1
  Br  Br7  1  0.921168  0.304614  0.770949  1
  Br  Br8  1  0.691595  0.224007  0.079012  1
  Br  Br9  1  0.439578  0.138557  0.353582  1
  Br  Br10  1  0.866612  0.636251  0.571914  1
  Br  Br11  1  0.229078  0.078446  0.697782  1
  Br  Br12  1  0.648515  0.562989  0.860869  1
  Br  Br13  1  0.365967  0.425243  0.133934  1
  Br  Br14  1  0.775610  0.917472  0.313343  1
  Br  Br15  1  0.144217  0.365885  0.445396  1
  Br  Br16  1  0.554828  0.856090  0.630308  1
  Br  Br17  1  0.304143  0.787999  0.925656  1
  Br  Br18  1  0.077375  0.688464  0.210493  1
