# generated using pymatgen
data_YbHo2Ni19B10
_symmetry_space_group_name_H-M   'P 1'
_cell_length_a   7.86070625
_cell_length_b   7.86070715
_cell_length_c   5.75494515
_cell_angle_alpha   88.88159719
_cell_angle_beta   88.88159101
_cell_angle_gamma   67.13314659
_symmetry_Int_Tables_number   1
_chemical_formula_structural   YbHo2Ni19B10
_chemical_formula_sum   'Yb1 Ho2 Ni19 B10'
_cell_volume   327.56559494
_cell_formula_units_Z   1
loop_
 _symmetry_equiv_pos_site_id
 _symmetry_equiv_pos_as_xyz
  1  'x, y, z'
loop_
 _atom_site_type_symbol
 _atom_site_label
 _atom_site_symmetry_multiplicity
 _atom_site_fract_x
 _atom_site_fract_y
 _atom_site_fract_z
 _atom_site_occupancy
  Yb  Yb0  1  0.000000  0.000000  0.000000  1
  Ho  Ho1  1  0.626200  0.626200  0.614614  1
  Ho  Ho2  1  0.373800  0.373800  0.385386  1
  Ni  Ni3  1  0.622335  0.622335  0.127606  1
  Ni  Ni4  1  0.377665  0.377665  0.872394  1
  Ni  Ni5  1  0.837705  0.837705  0.705827  1
  Ni  Ni6  1  0.162295  0.162295  0.294173  1
  Ni  Ni7  1  0.818981  0.818981  0.270680  1
  Ni  Ni8  1  0.181019  0.181019  0.729320  1
  Ni  Ni9  1  0.000000  0.000000  0.500000  1
  Ni  Ni10  1  0.623968  0.121685  0.073716  1
  Ni  Ni11  1  0.376032  0.878315  0.926284  1
  Ni  Ni12  1  0.878315  0.376032  0.926284  1
  Ni  Ni13  1  0.121685  0.623968  0.073716  1
  Ni  Ni14  1  0.289213  0.769239  0.300968  1
  Ni  Ni15  1  0.710787  0.230761  0.699032  1
  Ni  Ni16  1  0.230761  0.710787  0.699032  1
  Ni  Ni17  1  0.769239  0.289213  0.300968  1
  Ni  Ni18  1  0.482594  0.954240  0.302145  1
  Ni  Ni19  1  0.517406  0.045760  0.697855  1
  Ni  Ni20  1  0.045760  0.517406  0.697855  1
  Ni  Ni21  1  0.954240  0.482594  0.302145  1
  B  B22  1  0.700246  0.065246  0.430371  1
  B  B23  1  0.299754  0.934754  0.569629  1
  B  B24  1  0.934754  0.299754  0.569629  1
  B  B25  1  0.065246  0.700246  0.430371  1
  B  B26  1  0.349448  0.142353  0.025453  1
  B  B27  1  0.650552  0.857647  0.974547  1
  B  B28  1  0.857647  0.650552  0.974547  1
  B  B29  1  0.142353  0.349448  0.025453  1
  B  B30  1  0.615751  0.384249  0.000000  1
  B  B31  1  0.384249  0.615751  0.000000  1
