# generated using pymatgen
data_Ti3Co4P4W
_symmetry_space_group_name_H-M   'P 1'
_cell_length_a   3.55935500
_cell_length_b   6.01212835
_cell_length_c   6.84798114
_cell_angle_alpha   90.24959169
_cell_angle_beta   90.00000000
_cell_angle_gamma   90.00000000
_symmetry_Int_Tables_number   1
_chemical_formula_structural   Ti3Co4P4W
_chemical_formula_sum   'Ti3 Co4 P4 W1'
_cell_volume   146.54060631
_cell_formula_units_Z   1
loop_
 _symmetry_equiv_pos_site_id
 _symmetry_equiv_pos_as_xyz
  1  'x, y, z'
loop_
 _atom_site_type_symbol
 _atom_site_label
 _atom_site_symmetry_multiplicity
 _atom_site_fract_x
 _atom_site_fract_y
 _atom_site_fract_z
 _atom_site_occupancy
  Ti  Ti0  1  0.250000  0.473026  0.177287  1
  Ti  Ti1  1  0.750000  0.025401  0.674096  1
  Ti  Ti2  1  0.750000  0.525648  0.823221  1
  Co  Co3  1  0.250000  0.858895  0.937716  1
  Co  Co4  1  0.250000  0.357837  0.561996  1
  Co  Co5  1  0.750000  0.143869  0.062206  1
  Co  Co6  1  0.750000  0.639565  0.437565  1
  P  P7  1  0.250000  0.231703  0.876898  1
  P  P8  1  0.250000  0.730484  0.620942  1
  P  P9  1  0.750000  0.771103  0.121847  1
  P  P10  1  0.750000  0.269864  0.376022  1
  W  W11  1  0.250000  0.972607  0.330204  1
