# generated using pymatgen
data_Nb6Fe3Co(ReC)2
_symmetry_space_group_name_H-M   'P 1'
_cell_length_a   8.18860616
_cell_length_b   8.18968288
_cell_length_c   8.18968283
_cell_angle_alpha   59.95496914
_cell_angle_beta   60.00434847
_cell_angle_gamma   60.00434460
_symmetry_Int_Tables_number   1
_chemical_formula_structural   Nb6Fe3Co(ReC)2
_chemical_formula_sum   'Nb12 Fe6 Co2 Re4 C4'
_cell_volume   388.24837465
_cell_formula_units_Z   2
loop_
 _symmetry_equiv_pos_site_id
 _symmetry_equiv_pos_as_xyz
  1  'x, y, z'
loop_
 _atom_site_type_symbol
 _atom_site_label
 _atom_site_symmetry_multiplicity
 _atom_site_fract_x
 _atom_site_fract_y
 _atom_site_fract_z
 _atom_site_occupancy
  Nb  Nb0  1  0.693437  0.307297  0.692780  1
  Nb  Nb1  1  0.943447  0.557064  0.557064  1
  Nb  Nb2  1  0.556548  0.943606  0.943606  1
  Nb  Nb3  1  0.943514  0.557220  0.942703  1
  Nb  Nb4  1  0.556927  0.556756  0.943198  1
  Nb  Nb5  1  0.943514  0.942703  0.557220  1
  Nb  Nb6  1  0.693437  0.692780  0.307297  1
  Nb  Nb7  1  0.307575  0.692936  0.692936  1
  Nb  Nb8  1  0.693759  0.306394  0.306394  1
  Nb  Nb9  1  0.306881  0.306802  0.693244  1
  Nb  Nb10  1  0.556927  0.943198  0.556756  1
  Nb  Nb11  1  0.306881  0.693244  0.306802  1
  Fe  Fe12  1  0.326311  0.326331  0.326331  1
  Fe  Fe13  1  0.228972  0.923669  0.923669  1
  Fe  Fe14  1  0.923822  0.228850  0.923743  1
  Fe  Fe15  1  0.923822  0.923743  0.228850  1
  Fe  Fe16  1  0.326416  0.021150  0.326257  1
  Fe  Fe17  1  0.326416  0.326257  0.021150  1
  Co  Co18  1  0.017025  0.327792  0.327792  1
  Co  Co19  1  0.922608  0.922208  0.922208  1
  Re  Re20  1  0.124935  0.124716  0.124716  1
  Re  Re21  1  0.624366  0.125284  0.125284  1
  Re  Re22  1  0.125899  0.625000  0.125000  1
  Re  Re23  1  0.125899  0.125000  0.625000  1
  C  C24  1  0.625106  0.624891  0.624891  1
  C  C25  1  0.124888  0.625109  0.625109  1
  C  C26  1  0.625334  0.125000  0.625000  1
  C  C27  1  0.625334  0.625000  0.125000  1
