# generated using pymatgen
data_Ce4Lu3ScRu8
_symmetry_space_group_name_H-M   'P 1'
_cell_length_a   6.73695800
_cell_length_b   4.75841300
_cell_length_c   9.57392400
_cell_angle_alpha   90.00000000
_cell_angle_beta   89.99926860
_cell_angle_gamma   90.00000000
_symmetry_Int_Tables_number   1
_chemical_formula_structural   Ce4Lu3ScRu8
_chemical_formula_sum   'Ce4 Lu3 Sc1 Ru8'
_cell_volume   306.91346957
_cell_formula_units_Z   1
loop_
 _symmetry_equiv_pos_site_id
 _symmetry_equiv_pos_as_xyz
  1  'x, y, z'
loop_
 _atom_site_type_symbol
 _atom_site_label
 _atom_site_symmetry_multiplicity
 _atom_site_fract_x
 _atom_site_fract_y
 _atom_site_fract_z
 _atom_site_occupancy
  Ce  Ce0  1  0.749659  0.250050  0.121939  1
  Ce  Ce1  1  0.249761  0.750063  0.374842  1
  Ce  Ce2  1  0.750297  0.250079  0.628207  1
  Ce  Ce3  1  0.250247  0.749956  0.875070  1
  Lu  Lu4  1  0.249791  0.249974  0.124531  1
  Lu  Lu5  1  0.749808  0.749986  0.374934  1
  Lu  Lu6  1  0.250162  0.249968  0.625415  1
  Sc  Sc7  1  0.750191  0.750013  0.875309  1
  Ru  Ru8  1  0.503769  0.749837  0.119845  1
  Ru  Ru9  1  0.996081  0.750101  0.119743  1
  Ru  Ru10  1  0.499758  0.249927  0.374748  1
  Ru  Ru11  1  0.000053  0.249903  0.374816  1
  Ru  Ru12  1  0.996380  0.750059  0.630098  1
  Ru  Ru13  1  0.503810  0.749918  0.630072  1
  Ru  Ru14  1  0.991943  0.250109  0.875285  1
  Ru  Ru15  1  0.508288  0.250055  0.875147  1
