# generated using pymatgen
data_Ti3SiGe2MoRh2
_symmetry_space_group_name_H-M   'P 1'
_cell_length_a   7.53523826
_cell_length_b   7.53523896
_cell_length_c   7.53523795
_cell_angle_alpha   126.19369564
_cell_angle_beta   125.46684578
_cell_angle_gamma   80.16865371
_symmetry_Int_Tables_number   1
_chemical_formula_structural   Ti3SiGe2MoRh2
_chemical_formula_sum   'Ti6 Si2 Ge4 Mo2 Rh4'
_cell_volume   271.43171878
_cell_formula_units_Z   2
loop_
 _symmetry_equiv_pos_site_id
 _symmetry_equiv_pos_as_xyz
  1  'x, y, z'
loop_
 _atom_site_type_symbol
 _atom_site_label
 _atom_site_symmetry_multiplicity
 _atom_site_fract_x
 _atom_site_fract_y
 _atom_site_fract_z
 _atom_site_occupancy
  Ti  Ti0  1  0.958065  0.732261  0.274195  1
  Ti  Ti1  1  0.041935  0.316130  0.774195  1
  Ti  Ti2  1  0.246283  0.162878  0.416595  1
  Ti  Ti3  1  0.753717  0.170314  0.916595  1
  Ti  Ti4  1  0.562930  0.351686  0.288755  1
  Ti  Ti5  1  0.437070  0.725826  0.788755  1
  Si  Si6  1  0.779079  0.798393  0.519313  1
  Si  Si7  1  0.220921  0.740234  0.019313  1
  Ge  Ge8  1  0.336035  0.068551  0.744319  1
  Ge  Ge9  1  0.663965  0.408284  0.732516  1
  Ge  Ge10  1  0.175768  0.408284  0.244319  1
  Ge  Ge11  1  0.824232  0.068551  0.232516  1
  Mo  Mo12  1  0.500000  0.499490  0.999490  1
  Mo  Mo13  1  0.000000  0.499490  0.499490  1
  Rh  Rh14  1  0.162242  0.997859  0.909400  1
  Rh  Rh15  1  0.837758  0.747158  0.835617  1
  Rh  Rh16  1  0.411541  0.747158  0.409400  1
  Rh  Rh17  1  0.588459  0.997859  0.335617  1
