# generated using pymatgen
data_Li(NbPd4)3
_symmetry_space_group_name_H-M   'P 1'
_cell_length_a   5.60885700
_cell_length_b   5.60885705
_cell_length_c   9.11279800
_cell_angle_alpha   90.00000000
_cell_angle_beta   90.00000000
_cell_angle_gamma   119.99999378
_symmetry_Int_Tables_number   1
_chemical_formula_structural   Li(NbPd4)3
_chemical_formula_sum   'Li1 Nb3 Pd12'
_cell_volume   248.27394321
_cell_formula_units_Z   1
loop_
 _symmetry_equiv_pos_site_id
 _symmetry_equiv_pos_as_xyz
  1  'x, y, z'
loop_
 _atom_site_type_symbol
 _atom_site_label
 _atom_site_symmetry_multiplicity
 _atom_site_fract_x
 _atom_site_fract_y
 _atom_site_fract_z
 _atom_site_occupancy
  Li  Li0  1  0.333333  0.666667  0.250000  1
  Nb  Nb1  1  0.000000  0.000000  0.492548  1
  Nb  Nb2  1  0.000000  0.000000  0.007452  1
  Nb  Nb3  1  0.666667  0.333333  0.750000  1
  Pd  Pd4  1  0.501075  0.498925  0.500840  1
  Pd  Pd5  1  0.501075  0.002150  0.500840  1
  Pd  Pd6  1  0.997850  0.498925  0.500840  1
  Pd  Pd7  1  0.501075  0.498925  0.999160  1
  Pd  Pd8  1  0.501075  0.002150  0.999160  1
  Pd  Pd9  1  0.997850  0.498925  0.999160  1
  Pd  Pd10  1  0.832032  0.167968  0.250000  1
  Pd  Pd11  1  0.832032  0.664062  0.250000  1
  Pd  Pd12  1  0.335938  0.167968  0.250000  1
  Pd  Pd13  1  0.165693  0.834307  0.750000  1
  Pd  Pd14  1  0.165693  0.331385  0.750000  1
  Pd  Pd15  1  0.668615  0.834307  0.750000  1
