# generated using pymatgen
data_Dy5(RhO6)2
_symmetry_space_group_name_H-M   'P 1'
_cell_length_a   6.85869563
_cell_length_b   6.85869508
_cell_length_c   7.28469440
_cell_angle_alpha   74.47251115
_cell_angle_beta   74.47251427
_cell_angle_gamma   51.18622565
_symmetry_Int_Tables_number   1
_chemical_formula_structural   Dy5(RhO6)2
_chemical_formula_sum   'Dy5 Rh2 O12'
_cell_volume   254.98158588
_cell_formula_units_Z   1
loop_
 _symmetry_equiv_pos_site_id
 _symmetry_equiv_pos_as_xyz
  1  'x, y, z'
loop_
 _atom_site_type_symbol
 _atom_site_label
 _atom_site_symmetry_multiplicity
 _atom_site_fract_x
 _atom_site_fract_y
 _atom_site_fract_z
 _atom_site_occupancy
  Dy  Dy0  1  0.302051  0.302051  0.359948  1
  Dy  Dy1  1  0.697949  0.697949  0.640052  1
  Dy  Dy2  1  0.309352  0.309352  0.829251  1
  Dy  Dy3  1  0.690648  0.690648  0.170749  1
  Dy  Dy4  1  0.000000  0.000000  0.500000  1
  Rh  Rh5  1  0.753279  0.246721  0.000000  1
  Rh  Rh6  1  0.246721  0.753279  0.000000  1
  O  O7  1  0.901428  0.431492  0.915276  1
  O  O8  1  0.431492  0.901428  0.915276  1
  O  O9  1  0.098572  0.568508  0.084724  1
  O  O10  1  0.568508  0.098572  0.084724  1
  O  O11  1  0.096984  0.598406  0.573523  1
  O  O12  1  0.598406  0.096984  0.573523  1
  O  O13  1  0.903016  0.401594  0.426477  1
  O  O14  1  0.401594  0.903016  0.426477  1
  O  O15  1  0.999842  0.999842  0.817190  1
  O  O16  1  0.000158  0.000158  0.182810  1
  O  O17  1  0.500382  0.500382  0.809753  1
  O  O18  1  0.499618  0.499618  0.190247  1
