# generated using pymatgen
data_U2TiCo6Sn
_symmetry_space_group_name_H-M   'P 1'
_cell_length_a   5.15495700
_cell_length_b   7.13645800
_cell_length_c   8.00198200
_cell_angle_alpha   90.00000000
_cell_angle_beta   90.00000000
_cell_angle_gamma   90.00000000
_symmetry_Int_Tables_number   1
_chemical_formula_structural   U2TiCo6Sn
_chemical_formula_sum   'U4 Ti2 Co12 Sn2'
_cell_volume   294.37798706
_cell_formula_units_Z   2
loop_
 _symmetry_equiv_pos_site_id
 _symmetry_equiv_pos_as_xyz
  1  'x, y, z'
loop_
 _atom_site_type_symbol
 _atom_site_label
 _atom_site_symmetry_multiplicity
 _atom_site_fract_x
 _atom_site_fract_y
 _atom_site_fract_z
 _atom_site_occupancy
  U  U0  1  0.750000  0.885358  0.846126  1
  U  U1  1  0.750000  0.385358  0.653874  1
  U  U2  1  0.250000  0.119163  0.150462  1
  U  U3  1  0.250000  0.619163  0.349538  1
  Ti  Ti4  1  0.750000  0.937444  0.402353  1
  Ti  Ti5  1  0.750000  0.437444  0.097647  1
  Co  Co6  1  0.750000  0.579244  0.385755  1
  Co  Co7  1  0.750000  0.079244  0.114245  1
  Co  Co8  1  0.250000  0.425005  0.602963  1
  Co  Co9  1  0.250000  0.925005  0.897037  1
  Co  Co10  1  0.994696  0.266950  0.359698  1
  Co  Co11  1  0.505304  0.766950  0.140302  1
  Co  Co12  1  0.502176  0.732531  0.631113  1
  Co  Co13  1  0.997824  0.232531  0.868887  1
  Co  Co14  1  0.997824  0.732531  0.631113  1
  Co  Co15  1  0.502176  0.232531  0.868887  1
  Co  Co16  1  0.505304  0.266950  0.359698  1
  Co  Co17  1  0.994696  0.766950  0.140302  1
  Sn  Sn18  1  0.250000  0.054824  0.586171  1
  Sn  Sn19  1  0.250000  0.554824  0.913829  1
