# generated using pymatgen
data_CaEr(OsO3)6
_symmetry_space_group_name_H-M   'P 1'
_cell_length_a   7.37932000
_cell_length_b   5.24047184
_cell_length_c   8.18312237
_cell_angle_alpha   85.75887172
_cell_angle_beta   90.00000000
_cell_angle_gamma   90.00000000
_symmetry_Int_Tables_number   1
_chemical_formula_structural   CaEr(OsO3)6
_chemical_formula_sum   'Ca1 Er1 Os6 O18'
_cell_volume   315.58394338
_cell_formula_units_Z   1
loop_
 _symmetry_equiv_pos_site_id
 _symmetry_equiv_pos_as_xyz
  1  'x, y, z'
loop_
 _atom_site_type_symbol
 _atom_site_label
 _atom_site_symmetry_multiplicity
 _atom_site_fract_x
 _atom_site_fract_y
 _atom_site_fract_z
 _atom_site_occupancy
  Ca  Ca0  1  0.250000  0.970955  0.431342  1
  Er  Er1  1  0.750000  0.035757  0.569603  1
  Os  Os2  1  0.999520  0.004185  0.000116  1
  Os  Os3  1  0.500480  0.004185  0.000116  1
  Os  Os4  1  0.003171  0.540583  0.691811  1
  Os  Os5  1  0.496829  0.540583  0.691811  1
  Os  Os6  1  0.997003  0.463805  0.307284  1
  Os  Os7  1  0.502997  0.463805  0.307284  1
  O  O8  1  0.250000  0.912910  0.981302  1
  O  O9  1  0.934082  0.856652  0.785236  1
  O  O10  1  0.565918  0.856652  0.785236  1
  O  O11  1  0.952765  0.732947  0.473619  1
  O  O12  1  0.547235  0.732947  0.473619  1
  O  O13  1  0.250000  0.631118  0.674527  1
  O  O14  1  0.958728  0.690961  0.123529  1
  O  O15  1  0.541272  0.690961  0.123529  1
  O  O16  1  0.250000  0.569566  0.310630  1
  O  O17  1  0.750000  0.412940  0.692588  1
  O  O18  1  0.041068  0.316755  0.878480  1
  O  O19  1  0.458932  0.316755  0.878480  1
  O  O20  1  0.750000  0.331387  0.331939  1
  O  O21  1  0.030858  0.263262  0.528330  1
  O  O22  1  0.469142  0.263262  0.528330  1
  O  O23  1  0.062268  0.156008  0.207986  1
  O  O24  1  0.437732  0.156008  0.207986  1
  O  O25  1  0.750000  0.085051  0.015286  1
