# generated using pymatgen
data_Tm4Tc3B8Ru7
_symmetry_space_group_name_H-M   'P 1'
_cell_length_a   3.08049100
_cell_length_b   8.72826481
_cell_length_c   10.15162966
_cell_angle_alpha   90.13874614
_cell_angle_beta   90.00000000
_cell_angle_gamma   90.00000000
_symmetry_Int_Tables_number   1
_chemical_formula_structural   Tm4Tc3B8Ru7
_chemical_formula_sum   'Tm4 Tc3 B8 Ru7'
_cell_volume   272.94953024
_cell_formula_units_Z   1
loop_
 _symmetry_equiv_pos_site_id
 _symmetry_equiv_pos_as_xyz
  1  'x, y, z'
loop_
 _atom_site_type_symbol
 _atom_site_label
 _atom_site_symmetry_multiplicity
 _atom_site_fract_x
 _atom_site_fract_y
 _atom_site_fract_z
 _atom_site_occupancy
  Tm  Tm0  1  0.500000  0.840105  0.181313  1
  Tm  Tm1  1  0.500000  0.159239  0.819042  1
  Tm  Tm2  1  0.500000  0.659461  0.682634  1
  Tm  Tm3  1  0.500000  0.340734  0.316726  1
  Tc  Tc4  1  0.000000  0.658995  0.953743  1
  Tc  Tc5  1  0.000000  0.340430  0.045968  1
  Tc  Tc6  1  0.000000  0.843097  0.454732  1
  B  B7  1  0.500000  0.962964  0.587296  1
  B  B8  1  0.500000  0.030561  0.411262  1
  B  B9  1  0.500000  0.849178  0.902450  1
  B  B10  1  0.500000  0.152181  0.098089  1
  B  B11  1  0.500000  0.650589  0.400316  1
  B  B12  1  0.500000  0.351243  0.599596  1
  B  B13  1  0.500000  0.466372  0.913450  1
  B  B14  1  0.500000  0.534511  0.086090  1
  Ru  Ru15  1  0.000000  0.160770  0.546861  1
  Ru  Ru16  1  0.000000  0.000304  0.000424  1
  Ru  Ru17  1  0.000000  0.405396  0.759738  1
  Ru  Ru18  1  0.000000  0.593828  0.239725  1
  Ru  Ru19  1  0.000000  0.499825  0.500180  1
  Ru  Ru20  1  0.000000  0.906978  0.739095  1
  Ru  Ru21  1  0.000000  0.093238  0.261273  1
