# generated using pymatgen
data_YbYEr(Al3Ni2)3
_symmetry_space_group_name_H-M   'P 1'
_cell_length_a   9.06022500
_cell_length_b   9.06022610
_cell_length_c   4.02467200
_cell_angle_alpha   90.00000000
_cell_angle_beta   90.00000000
_cell_angle_gamma   119.99999962
_symmetry_Int_Tables_number   1
_chemical_formula_structural   YbYEr(Al3Ni2)3
_chemical_formula_sum   'Yb1 Y1 Er1 Al9 Ni6'
_cell_volume   286.11402342
_cell_formula_units_Z   1
loop_
 _symmetry_equiv_pos_site_id
 _symmetry_equiv_pos_as_xyz
  1  'x, y, z'
loop_
 _atom_site_type_symbol
 _atom_site_label
 _atom_site_symmetry_multiplicity
 _atom_site_fract_x
 _atom_site_fract_y
 _atom_site_fract_z
 _atom_site_occupancy
  Yb  Yb0  1  0.000000  0.000000  0.500000  1
  Y  Y1  1  0.666667  0.333333  0.000000  1
  Er  Er2  1  0.333333  0.666667  0.000000  1
  Al  Al3  1  0.499947  0.999893  0.500000  1
  Al  Al4  1  0.000107  0.500053  0.500000  1
  Al  Al5  1  0.499947  0.500053  0.500000  1
  Al  Al6  1  0.299701  0.999869  0.000000  1
  Al  Al7  1  0.299701  0.299832  0.000000  1
  Al  Al8  1  0.000131  0.700299  0.000000  1
  Al  Al9  1  0.000131  0.299832  0.000000  1
  Al  Al10  1  0.700168  0.700299  0.000000  1
  Al  Al11  1  0.700168  0.999869  0.000000  1
  Ni  Ni12  1  0.819079  0.638157  0.500000  1
  Ni  Ni13  1  0.637781  0.818891  0.500000  1
  Ni  Ni14  1  0.181109  0.818891  0.500000  1
  Ni  Ni15  1  0.181109  0.362219  0.500000  1
  Ni  Ni16  1  0.819079  0.180921  0.500000  1
  Ni  Ni17  1  0.361843  0.180921  0.500000  1
