# generated using pymatgen
data_La17Nd3(Ir5Pt)2
_symmetry_space_group_name_H-M   'P 1'
_cell_length_a   11.46081864
_cell_length_b   11.46452419
_cell_length_c   6.67442921
_cell_angle_alpha   90.04492801
_cell_angle_beta   89.87946275
_cell_angle_gamma   90.05488669
_symmetry_Int_Tables_number   1
_chemical_formula_structural   La17Nd3(Ir5Pt)2
_chemical_formula_sum   'La17 Nd3 Ir10 Pt2'
_cell_volume   876.96954869
_cell_formula_units_Z   1
loop_
 _symmetry_equiv_pos_site_id
 _symmetry_equiv_pos_as_xyz
  1  'x, y, z'
loop_
 _atom_site_type_symbol
 _atom_site_label
 _atom_site_symmetry_multiplicity
 _atom_site_fract_x
 _atom_site_fract_y
 _atom_site_fract_z
 _atom_site_occupancy
  La  La0  1  0.087444  0.291303  0.112621  1
  La  La1  1  0.790956  0.408662  0.112677  1
  La  La2  1  0.207826  0.590097  0.110900  1
  La  La3  1  0.905788  0.706448  0.112683  1
  La  La4  1  0.412286  0.790416  0.387696  1
  La  La5  1  0.594498  0.207232  0.387625  1
  La  La6  1  0.292427  0.090388  0.389306  1
  La  La7  1  0.708762  0.908261  0.387503  1
  La  La8  1  0.410726  0.206464  0.882066  1
  La  La9  1  0.707399  0.091094  0.886857  1
  La  La10  1  0.294699  0.910014  0.881433  1
  La  La11  1  0.591600  0.791636  0.887031  1
  La  La12  1  0.089664  0.706017  0.617768  1
  La  La13  1  0.908015  0.292000  0.612698  1
  La  La14  1  0.206123  0.409893  0.618506  1
  La  La15  1  0.791660  0.591342  0.612937  1
  La  La16  1  0.997621  0.001788  0.998003  1
  Nd  Nd17  1  0.501971  0.501772  0.998510  1
  Nd  Nd18  1  0.501859  0.501444  0.501332  1
  Nd  Nd19  1  0.998100  0.001764  0.501165  1
  Ir  Ir20  1  0.653035  0.653568  0.250285  1
  Ir  Ir21  1  0.846972  0.153958  0.249337  1
  Ir  Ir22  1  0.345874  0.653304  0.749977  1
  Ir  Ir23  1  0.154453  0.153283  0.750283  1
  Ir  Ir24  1  0.847014  0.846629  0.750719  1
  Ir  Ir25  1  0.652689  0.346559  0.749507  1
  Ir  Ir26  1  0.001368  0.500633  0.379477  1
  Ir  Ir27  1  0.498606  0.000682  0.120775  1
  Ir  Ir28  1  0.499150  0.999978  0.618759  1
  Ir  Ir29  1  0.000840  0.499982  0.880975  1
  Pt  Pt30  1  0.153898  0.846363  0.250428  1
  Pt  Pt31  1  0.346678  0.347027  0.250160  1
