# generated using pymatgen
data_KRb3YbCl6
_symmetry_space_group_name_H-M   'P 1'
_cell_length_a   9.04745454
_cell_length_b   9.04745491
_cell_length_c   9.04745468
_cell_angle_alpha   90.88871697
_cell_angle_beta   90.88872092
_cell_angle_gamma   90.88870878
_symmetry_Int_Tables_number   1
_chemical_formula_structural   KRb3YbCl6
_chemical_formula_sum   'K2 Rb6 Yb2 Cl12'
_cell_volume   740.32234256
_cell_formula_units_Z   2
loop_
 _symmetry_equiv_pos_site_id
 _symmetry_equiv_pos_as_xyz
  1  'x, y, z'
loop_
 _atom_site_type_symbol
 _atom_site_label
 _atom_site_symmetry_multiplicity
 _atom_site_fract_x
 _atom_site_fract_y
 _atom_site_fract_z
 _atom_site_occupancy
  K  K0  1  0.250000  0.250000  0.250000  1
  K  K1  1  0.750000  0.750000  0.750000  1
  Rb  Rb2  1  0.374449  0.125551  0.750000  1
  Rb  Rb3  1  0.125551  0.750000  0.374449  1
  Rb  Rb4  1  0.750000  0.374449  0.125551  1
  Rb  Rb5  1  0.625551  0.874449  0.250000  1
  Rb  Rb6  1  0.250000  0.625551  0.874449  1
  Rb  Rb7  1  0.874449  0.250000  0.625551  1
  Yb  Yb8  1  0.000000  0.000000  0.000000  1
  Yb  Yb9  1  0.500000  0.500000  0.500000  1
  Cl  Cl10  1  0.947720  0.075225  0.287434  1
  Cl  Cl11  1  0.075225  0.287434  0.947720  1
  Cl  Cl12  1  0.287434  0.947720  0.075225  1
  Cl  Cl13  1  0.575225  0.447720  0.787434  1
  Cl  Cl14  1  0.787434  0.575225  0.447720  1
  Cl  Cl15  1  0.447720  0.787434  0.575225  1
  Cl  Cl16  1  0.212566  0.424775  0.552280  1
  Cl  Cl17  1  0.424775  0.552280  0.212566  1
  Cl  Cl18  1  0.552280  0.212566  0.424775  1
  Cl  Cl19  1  0.924775  0.712566  0.052280  1
  Cl  Cl20  1  0.052280  0.924775  0.712566  1
  Cl  Cl21  1  0.712566  0.052280  0.924775  1
