# generated using pymatgen
data_Dy3Y3Tm4Cd3Ru
_symmetry_space_group_name_H-M   'P 1'
_cell_length_a   9.54917700
_cell_length_b   9.54917686
_cell_length_c   9.78969200
_cell_angle_alpha   90.00000000
_cell_angle_beta   90.00000000
_cell_angle_gamma   119.99999700
_symmetry_Int_Tables_number   1
_chemical_formula_structural   Dy3Y3Tm4Cd3Ru
_chemical_formula_sum   'Dy6 Y6 Tm8 Cd6 Ru2'
_cell_volume   773.09266673
_cell_formula_units_Z   2
loop_
 _symmetry_equiv_pos_site_id
 _symmetry_equiv_pos_as_xyz
  1  'x, y, z'
loop_
 _atom_site_type_symbol
 _atom_site_label
 _atom_site_symmetry_multiplicity
 _atom_site_fract_x
 _atom_site_fract_y
 _atom_site_fract_z
 _atom_site_occupancy
  Dy  Dy0  1  0.209369  0.790631  0.439744  1
  Dy  Dy1  1  0.209369  0.418739  0.439744  1
  Dy  Dy2  1  0.581261  0.790631  0.439744  1
  Dy  Dy3  1  0.790631  0.209369  0.560256  1
  Dy  Dy4  1  0.790631  0.581261  0.560256  1
  Dy  Dy5  1  0.418739  0.209369  0.560256  1
  Y  Y6  1  0.540641  0.459359  0.248154  1
  Y  Y7  1  0.540641  0.081282  0.248154  1
  Y  Y8  1  0.918718  0.459359  0.248154  1
  Y  Y9  1  0.459359  0.540641  0.751846  1
  Y  Y10  1  0.459359  0.918718  0.751846  1
  Y  Y11  1  0.081282  0.540641  0.751846  1
  Tm  Tm12  1  0.000000  0.000000  0.500000  1
  Tm  Tm13  1  0.000000  0.000000  0.000000  1
  Tm  Tm14  1  0.789736  0.210264  0.940648  1
  Tm  Tm15  1  0.789736  0.579471  0.940648  1
  Tm  Tm16  1  0.420529  0.210264  0.940648  1
  Tm  Tm17  1  0.210264  0.789736  0.059352  1
  Tm  Tm18  1  0.210264  0.420529  0.059352  1
  Tm  Tm19  1  0.579471  0.789736  0.059352  1
  Cd  Cd20  1  0.886054  0.113946  0.249168  1
  Cd  Cd21  1  0.886054  0.772110  0.249168  1
  Cd  Cd22  1  0.227890  0.113946  0.249168  1
  Cd  Cd23  1  0.113946  0.886054  0.750832  1
  Cd  Cd24  1  0.113946  0.227890  0.750832  1
  Cd  Cd25  1  0.772110  0.886054  0.750832  1
  Ru  Ru26  1  0.333333  0.666667  0.248176  1
  Ru  Ru27  1  0.666667  0.333333  0.751824  1
