# generated using pymatgen
data_Tb2YIn3Cu2Pt
_symmetry_space_group_name_H-M   'P 1'
_cell_length_a   7.59892351
_cell_length_b   7.59728592
_cell_length_c   3.90906900
_cell_angle_alpha   90.00000000
_cell_angle_beta   90.00000000
_cell_angle_gamma   120.04908108
_symmetry_Int_Tables_number   1
_chemical_formula_structural   Tb2YIn3Cu2Pt
_chemical_formula_sum   'Tb2 Y1 In3 Cu2 Pt1'
_cell_volume   195.34374489
_cell_formula_units_Z   1
loop_
 _symmetry_equiv_pos_site_id
 _symmetry_equiv_pos_as_xyz
  1  'x, y, z'
loop_
 _atom_site_type_symbol
 _atom_site_label
 _atom_site_symmetry_multiplicity
 _atom_site_fract_x
 _atom_site_fract_y
 _atom_site_fract_z
 _atom_site_occupancy
  Tb  Tb0  1  0.407450  0.992410  0.500000  1
  Tb  Tb1  1  0.007632  0.415191  0.500000  1
  Y  Y2  1  0.585687  0.592432  0.500000  1
  In  In3  1  0.753162  0.008029  0.000000  1
  In  In4  1  0.991302  0.745012  0.000000  1
  In  In5  1  0.255552  0.247180  0.000000  1
  Cu  Cu6  1  0.666544  0.332938  0.000000  1
  Cu  Cu7  1  0.000189  0.000229  0.500000  1
  Pt  Pt8  1  0.332482  0.666578  0.000000  1
