# generated using pymatgen
data_CaPr2(RhPb)3
_symmetry_space_group_name_H-M   'P 1'
_cell_length_a   7.82450431
_cell_length_b   7.82450329
_cell_length_c   4.10685700
_cell_angle_alpha   90.00000000
_cell_angle_beta   90.00000000
_cell_angle_gamma   121.34155489
_symmetry_Int_Tables_number   1
_chemical_formula_structural   CaPr2(RhPb)3
_chemical_formula_sum   'Ca1 Pr2 Rh3 Pb3'
_cell_volume   214.74480527
_cell_formula_units_Z   1
loop_
 _symmetry_equiv_pos_site_id
 _symmetry_equiv_pos_as_xyz
  1  'x, y, z'
loop_
 _atom_site_type_symbol
 _atom_site_label
 _atom_site_symmetry_multiplicity
 _atom_site_fract_x
 _atom_site_fract_y
 _atom_site_fract_z
 _atom_site_occupancy
  Ca  Ca0  1  0.404387  0.404387  0.500000  1
  Pr  Pr1  1  0.591010  0.001075  0.500000  1
  Pr  Pr2  1  0.001075  0.591010  0.500000  1
  Rh  Rh3  1  0.991105  0.991105  0.500000  1
  Rh  Rh4  1  0.682647  0.330655  0.000000  1
  Rh  Rh5  1  0.330655  0.682647  0.000000  1
  Pb  Pb6  1  0.730330  0.730330  0.000000  1
  Pb  Pb7  1  0.258324  0.010467  0.000000  1
  Pb  Pb8  1  0.010467  0.258324  0.000000  1
