# generated using pymatgen
data_Sr6Y4Ti5GeO24
_symmetry_space_group_name_H-M   'P 1'
_cell_length_a   11.57915704
_cell_length_b   11.57940183
_cell_length_c   11.58002134
_cell_angle_alpha   109.48627287
_cell_angle_beta   109.44479876
_cell_angle_gamma   109.48324708
_symmetry_Int_Tables_number   1
_chemical_formula_structural   Sr6Y4Ti5GeO24
_chemical_formula_sum   'Sr12 Y8 Ti10 Ge2 O48'
_cell_volume   1195.21755851
_cell_formula_units_Z   2
loop_
 _symmetry_equiv_pos_site_id
 _symmetry_equiv_pos_as_xyz
  1  'x, y, z'
loop_
 _atom_site_type_symbol
 _atom_site_label
 _atom_site_symmetry_multiplicity
 _atom_site_fract_x
 _atom_site_fract_y
 _atom_site_fract_z
 _atom_site_occupancy
  Sr  Sr0  1  0.750445  0.126350  0.376055  1
  Sr  Sr1  1  0.250290  0.375234  0.124782  1
  Sr  Sr2  1  0.125112  0.250223  0.375112  1
  Sr  Sr3  1  0.374919  0.749838  0.124919  1
  Sr  Sr4  1  0.749890  0.624341  0.874274  1
  Sr  Sr5  1  0.124944  0.375234  0.750451  1
  Sr  Sr6  1  0.624712  0.874800  0.749885  1
  Sr  Sr7  1  0.250088  0.874800  0.624915  1
  Sr  Sr8  1  0.874452  0.624341  0.250067  1
  Sr  Sr9  1  0.624545  0.249090  0.874545  1
  Sr  Sr10  1  0.874712  0.749424  0.624712  1
  Sr  Sr11  1  0.375905  0.126350  0.250295  1
  Y  Y12  1  0.999953  0.000006  0.000064  1
  Y  Y13  1  0.500461  0.001410  0.000588  1
  Y  Y14  1  0.999376  0.499582  0.998507  1
  Y  Y15  1  0.500206  0.499582  0.001075  1
  Y  Y16  1  0.997535  0.498997  0.499445  1
  Y  Y17  1  0.500949  0.001410  0.500822  1
  Y  Y18  1  0.501463  0.498997  0.499552  1
  Y  Y19  1  0.000053  0.000006  0.499941  1
  Ti  Ti20  1  0.125265  0.874868  0.249908  1
  Ti  Ti21  1  0.874928  0.125019  0.750010  1
  Ti  Ti22  1  0.249906  0.624646  0.375045  1
  Ti  Ti23  1  0.375369  0.250410  0.625189  1
  Ti  Ti24  1  0.749603  0.874868  0.124960  1
  Ti  Ti25  1  0.125119  0.750002  0.874730  1
  Ti  Ti26  1  0.374740  0.624646  0.749600  1
  Ti  Ti27  1  0.624882  0.750002  0.375272  1
  Ti  Ti28  1  0.875041  0.250410  0.125221  1
  Ti  Ti29  1  0.250091  0.125019  0.875009  1
  Ge  Ge30  1  0.750037  0.375070  0.625054  1
  Ge  Ge31  1  0.625033  0.375070  0.250015  1
  O  O32  1  0.410964  0.805494  0.790377  1
  O  O33  1  0.878469  0.394624  0.088123  1
  O  O34  1  0.105186  0.984317  0.694528  1
  O  O35  1  0.515446  0.620424  0.709397  1
  O  O36  1  0.694385  0.088869  0.710434  1
  O  O37  1  0.621496  0.709915  0.516221  1
  O  O38  1  0.618971  0.409382  0.108417  1
  O  O39  1  0.709825  0.510826  0.619608  1
  O  O40  1  0.801000  0.510826  0.391217  1
  O  O41  1  0.984547  0.789815  0.878925  1
  O  O42  1  0.789757  0.878950  0.984499  1
  O  O43  1  0.710015  0.694197  0.089128  1
  O  O44  1  0.410573  0.105508  0.621023  1
  O  O45  1  0.394530  0.805494  0.515117  1
  O  O46  1  0.088419  0.709915  0.693694  1
  O  O47  1  0.104978  0.620424  0.411027  1
  O  O48  1  0.516155  0.394624  0.806501  1
  O  O49  1  0.089193  0.878950  0.394451  1
  O  O50  1  0.984182  0.694197  0.105069  1
  O  O51  1  0.193231  0.484214  0.605304  1
  O  O52  1  0.694935  0.105508  0.984485  1
  O  O53  1  0.790410  0.409382  0.800964  1
  O  O54  1  0.394484  0.088869  0.878435  1
  O  O55  1  0.879131  0.984317  0.789789  1
  O  O56  1  0.590500  0.199048  0.209598  1
  O  O57  1  0.121548  0.605754  0.911078  1
  O  O58  1  0.894371  0.015438  0.305282  1
  O  O59  1  0.489335  0.380889  0.290152  1
  O  O60  1  0.306527  0.911904  0.290365  1
  O  O61  1  0.378628  0.289767  0.483907  1
  O  O62  1  0.379393  0.588939  0.894440  1
  O  O63  1  0.290983  0.484214  0.378910  1
  O  O64  1  0.121067  0.015438  0.210157  1
  O  O65  1  0.605376  0.911904  0.121539  1
  O  O66  1  0.209546  0.588939  0.194499  1
  O  O67  1  0.194855  0.210264  0.589398  1
  O  O68  1  0.305679  0.895011  0.015712  1
  O  O69  1  0.015864  0.305367  0.894844  1
  O  O70  1  0.910834  0.121065  0.605316  1
  O  O71  1  0.484206  0.605754  0.194675  1
  O  O72  1  0.891554  0.380889  0.590737  1
  O  O73  1  0.911139  0.289767  0.305860  1
  O  O74  1  0.608548  0.199048  0.489449  1
  O  O75  1  0.589332  0.895011  0.379299  1
  O  O76  1  0.289503  0.305367  0.910523  1
  O  O77  1  0.210230  0.121065  0.015748  1
  O  O78  1  0.015409  0.210264  0.120866  1
  O  O79  1  0.805268  0.789815  0.410890  1
