# generated using pymatgen
data_Hf7Co16MoP12
_symmetry_space_group_name_H-M   'P 1'
_cell_length_a   3.64316400
_cell_length_b   12.00724088
_cell_length_c   12.00724067
_cell_angle_alpha   120.14546506
_cell_angle_beta   90.00000000
_cell_angle_gamma   90.00000000
_symmetry_Int_Tables_number   1
_chemical_formula_structural   Hf7Co16MoP12
_chemical_formula_sum   'Hf7 Co16 Mo1 P12'
_cell_volume   454.21067247
_cell_formula_units_Z   1
loop_
 _symmetry_equiv_pos_site_id
 _symmetry_equiv_pos_as_xyz
  1  'x, y, z'
loop_
 _atom_site_type_symbol
 _atom_site_label
 _atom_site_symmetry_multiplicity
 _atom_site_fract_x
 _atom_site_fract_y
 _atom_site_fract_z
 _atom_site_occupancy
  Hf  Hf0  1  0.000000  0.555690  0.999636  1
  Hf  Hf1  1  0.000000  0.999636  0.555690  1
  Hf  Hf2  1  0.000000  0.665988  0.334196  1
  Hf  Hf3  1  0.000000  0.334196  0.665988  1
  Hf  Hf4  1  0.500000  0.820247  0.820247  1
  Hf  Hf5  1  0.500000  0.175082  0.999503  1
  Hf  Hf6  1  0.500000  0.999503  0.175082  1
  Co  Co7  1  0.000000  0.196903  0.373105  1
  Co  Co8  1  0.000000  0.179075  0.807806  1
  Co  Co9  1  0.000000  0.818914  0.627754  1
  Co  Co10  1  0.000000  0.807806  0.179075  1
  Co  Co11  1  0.000000  0.373105  0.196903  1
  Co  Co12  1  0.500000  0.129553  0.481987  1
  Co  Co13  1  0.500000  0.354974  0.873460  1
  Co  Co14  1  0.500000  0.515463  0.643286  1
  Co  Co15  1  0.500000  0.643286  0.515463  1
  Co  Co16  1  0.500000  0.873460  0.354974  1
  Co  Co17  1  0.500000  0.481987  0.129553  1
  Co  Co18  1  0.000000  0.000617  0.000617  1
  Co  Co19  1  0.500000  0.721891  0.000229  1
  Co  Co20  1  0.500000  0.000229  0.721891  1
  Co  Co21  1  0.000000  0.627754  0.818914  1
  Co  Co22  1  0.500000  0.279670  0.279670  1
  Mo  Mo23  1  0.000000  0.448839  0.448839  1
  P  P24  1  0.000000  0.644194  0.644194  1
  P  P25  1  0.000000  0.346780  0.003308  1
  P  P26  1  0.000000  0.003308  0.346780  1
  P  P27  1  0.500000  0.480844  0.314585  1
  P  P28  1  0.500000  0.690293  0.173844  1
  P  P29  1  0.500000  0.825950  0.516726  1
  P  P30  1  0.500000  0.516726  0.825950  1
  P  P31  1  0.500000  0.173844  0.690293  1
  P  P32  1  0.000000  0.824566  0.998502  1
  P  P33  1  0.000000  0.998502  0.824566  1
  P  P34  1  0.500000  0.314585  0.480844  1
  P  P35  1  0.000000  0.176538  0.176538  1
