# generated using pymatgen
data_Nd3Co8MoP6
_symmetry_space_group_name_H-M   'P 1'
_cell_length_a   3.79511900
_cell_length_b   10.74526900
_cell_length_c   12.49165300
_cell_angle_alpha   90.00000000
_cell_angle_beta   90.00000000
_cell_angle_gamma   90.00000000
_symmetry_Int_Tables_number   1
_chemical_formula_structural   Nd3Co8MoP6
_chemical_formula_sum   'Nd6 Co16 Mo2 P12'
_cell_volume   509.40429467
_cell_formula_units_Z   2
loop_
 _symmetry_equiv_pos_site_id
 _symmetry_equiv_pos_as_xyz
  1  'x, y, z'
loop_
 _atom_site_type_symbol
 _atom_site_label
 _atom_site_symmetry_multiplicity
 _atom_site_fract_x
 _atom_site_fract_y
 _atom_site_fract_z
 _atom_site_occupancy
  Nd  Nd0  1  0.000000  0.500000  0.523664  1
  Nd  Nd1  1  0.500000  0.000000  0.476336  1
  Nd  Nd2  1  0.500000  0.818663  0.204948  1
  Nd  Nd3  1  0.500000  0.181337  0.204948  1
  Nd  Nd4  1  0.000000  0.681337  0.795052  1
  Nd  Nd5  1  0.000000  0.318663  0.795052  1
  Co  Co6  1  0.500000  0.500000  0.703063  1
  Co  Co7  1  0.000000  0.000000  0.296937  1
  Co  Co8  1  0.000000  0.500000  0.987856  1
  Co  Co9  1  0.500000  0.000000  0.012144  1
  Co  Co10  1  0.500000  0.332323  0.991782  1
  Co  Co11  1  0.500000  0.667677  0.991782  1
  Co  Co12  1  0.000000  0.167677  0.008218  1
  Co  Co13  1  0.000000  0.832323  0.008218  1
  Co  Co14  1  0.500000  0.295621  0.430958  1
  Co  Co15  1  0.500000  0.704379  0.430958  1
  Co  Co16  1  0.000000  0.204379  0.569042  1
  Co  Co17  1  0.000000  0.795621  0.569042  1
  Co  Co18  1  0.500000  0.880527  0.708419  1
  Co  Co19  1  0.500000  0.119473  0.708419  1
  Co  Co20  1  0.000000  0.619473  0.291581  1
  Co  Co21  1  0.000000  0.380527  0.291581  1
  Mo  Mo22  1  0.500000  0.500000  0.154297  1
  Mo  Mo23  1  0.000000  0.000000  0.845703  1
  P  P24  1  0.500000  0.500000  0.885706  1
  P  P25  1  0.000000  0.000000  0.114294  1
  P  P26  1  0.500000  0.500000  0.344197  1
  P  P27  1  0.000000  0.000000  0.655803  1
  P  P28  1  0.500000  0.306678  0.614174  1
  P  P29  1  0.500000  0.693322  0.614174  1
  P  P30  1  0.000000  0.193322  0.385826  1
  P  P31  1  0.000000  0.806678  0.385826  1
  P  P32  1  0.500000  0.846620  0.895673  1
  P  P33  1  0.500000  0.153380  0.895673  1
  P  P34  1  0.000000  0.653380  0.104327  1
  P  P35  1  0.000000  0.346620  0.104327  1
