# generated using pymatgen
data_LiMgFe2(NO3)8
_symmetry_space_group_name_H-M   'P 1'
_cell_length_a   7.67337297
_cell_length_b   7.69900953
_cell_length_c   7.72090510
_cell_angle_alpha   89.94479836
_cell_angle_beta   88.83031256
_cell_angle_gamma   90.27300972
_symmetry_Int_Tables_number   1
_chemical_formula_structural   LiMgFe2(NO3)8
_chemical_formula_sum   'Li1 Mg1 Fe2 N8 O24'
_cell_volume   456.03029944
_cell_formula_units_Z   1
loop_
 _symmetry_equiv_pos_site_id
 _symmetry_equiv_pos_as_xyz
  1  'x, y, z'
loop_
 _atom_site_type_symbol
 _atom_site_label
 _atom_site_symmetry_multiplicity
 _atom_site_fract_x
 _atom_site_fract_y
 _atom_site_fract_z
 _atom_site_occupancy
  Li  Li0  1  0.000000  0.500000  0.000000  1
  Mg  Mg1  1  0.000000  0.000000  0.500000  1
  Fe  Fe2  1  0.500000  0.500000  0.500000  1
  Fe  Fe3  1  0.500000  0.000000  0.000000  1
  N  N4  1  0.681117  0.180494  0.330883  1
  N  N5  1  0.665841  0.324800  0.816576  1
  N  N6  1  0.828503  0.828808  0.825045  1
  N  N7  1  0.818792  0.672564  0.326742  1
  N  N8  1  0.171497  0.171192  0.174955  1
  N  N9  1  0.181208  0.327436  0.673258  1
  N  N10  1  0.334159  0.675200  0.183424  1
  N  N11  1  0.318883  0.819506  0.669117  1
  O  O12  1  0.551049  0.206750  0.811525  1
  O  O13  1  0.565732  0.300889  0.328217  1
  O  O14  1  0.666747  0.443519  0.696878  1
  O  O15  1  0.678847  0.066340  0.215713  1
  O  O16  1  0.696173  0.673733  0.445355  1
  O  O17  1  0.705918  0.829691  0.939948  1
  O  O18  1  0.777784  0.331617  0.929056  1
  O  O19  1  0.793432  0.179711  0.446834  1
  O  O20  1  0.828575  0.944110  0.706994  1
  O  O21  1  0.822030  0.559197  0.213645  1
  O  O22  1  0.943623  0.716091  0.830472  1
  O  O23  1  0.931334  0.791782  0.332542  1
  O  O24  1  0.068666  0.208218  0.667458  1
  O  O25  1  0.056377  0.283909  0.169528  1
  O  O26  1  0.177970  0.440803  0.786355  1
  O  O27  1  0.171425  0.055890  0.293006  1
  O  O28  1  0.222216  0.668383  0.070944  1
  O  O29  1  0.206568  0.820289  0.553166  1
  O  O30  1  0.294082  0.170309  0.060052  1
  O  O31  1  0.303827  0.326267  0.554645  1
  O  O32  1  0.333253  0.556481  0.303122  1
  O  O33  1  0.321153  0.933660  0.784287  1
  O  O34  1  0.434268  0.699111  0.671783  1
  O  O35  1  0.448951  0.793250  0.188475  1
