# generated using pymatgen
data_Dy4Y5Lu3Ga20
_symmetry_space_group_name_H-M   'P 1'
_cell_length_a   6.08593519
_cell_length_b   9.61243702
_cell_length_c   11.50450300
_cell_angle_alpha   90.00313527
_cell_angle_beta   90.01430998
_cell_angle_gamma   90.00181124
_symmetry_Int_Tables_number   1
_chemical_formula_structural   Dy4Y5Lu3Ga20
_chemical_formula_sum   'Dy4 Y5 Lu3 Ga20'
_cell_volume   673.02109640
_cell_formula_units_Z   1
loop_
 _symmetry_equiv_pos_site_id
 _symmetry_equiv_pos_as_xyz
  1  'x, y, z'
loop_
 _atom_site_type_symbol
 _atom_site_label
 _atom_site_symmetry_multiplicity
 _atom_site_fract_x
 _atom_site_fract_y
 _atom_site_fract_z
 _atom_site_occupancy
  Dy  Dy0  1  0.890982  0.508925  0.351438  1
  Dy  Dy1  1  0.609014  0.991279  0.850497  1
  Dy  Dy2  1  0.109567  0.010104  0.648486  1
  Dy  Dy3  1  0.389603  0.490685  0.148664  1
  Y  Y4  1  0.849261  0.749923  0.075579  1
  Y  Y5  1  0.109306  0.489863  0.648679  1
  Y  Y6  1  0.389841  0.009318  0.148847  1
  Y  Y7  1  0.891304  0.991092  0.351222  1
  Y  Y8  1  0.608699  0.508725  0.850329  1
  Lu  Lu9  1  0.651910  0.750089  0.574599  1
  Lu  Lu10  1  0.150708  0.249922  0.924823  1
  Lu  Lu11  1  0.349123  0.250073  0.424974  1
  Ga  Ga12  1  0.874692  0.055352  0.089400  1
  Ga  Ga13  1  0.624735  0.446856  0.589050  1
  Ga  Ga14  1  0.124226  0.551921  0.909830  1
  Ga  Ga15  1  0.375463  0.947749  0.411292  1
  Ga  Ga16  1  0.124262  0.948105  0.909529  1
  Ga  Ga17  1  0.375464  0.552214  0.411006  1
  Ga  Ga18  1  0.874756  0.444674  0.089706  1
  Ga  Ga19  1  0.624724  0.053116  0.589334  1
  Ga  Ga20  1  0.174802  0.749675  0.253652  1
  Ga  Ga21  1  0.329689  0.750322  0.750770  1
  Ga  Ga22  1  0.829588  0.249689  0.747782  1
  Ga  Ga23  1  0.670393  0.250337  0.248154  1
  Ga  Ga24  1  0.372335  0.749945  0.002304  1
  Ga  Ga25  1  0.125210  0.750041  0.504654  1
  Ga  Ga26  1  0.622100  0.249948  0.995997  1
  Ga  Ga27  1  0.875896  0.250049  0.496296  1
  Ga  Ga28  1  0.601901  0.749769  0.301984  1
  Ga  Ga29  1  0.898841  0.750226  0.797663  1
  Ga  Ga30  1  0.398964  0.249757  0.701492  1
  Ga  Ga31  1  0.102645  0.250255  0.201969  1
