# generated using pymatgen
data_TlCr2(TcO4)6
_symmetry_space_group_name_H-M   'P 1'
_cell_length_a   9.96213521
_cell_length_b   9.96213435
_cell_length_c   9.96213500
_cell_angle_alpha   55.36910893
_cell_angle_beta   55.36911233
_cell_angle_gamma   55.36911474
_symmetry_Int_Tables_number   1
_chemical_formula_structural   TlCr2(TcO4)6
_chemical_formula_sum   'Tl1 Cr2 Tc6 O24'
_cell_volume   623.89429381
_cell_formula_units_Z   1
loop_
 _symmetry_equiv_pos_site_id
 _symmetry_equiv_pos_as_xyz
  1  'x, y, z'
loop_
 _atom_site_type_symbol
 _atom_site_label
 _atom_site_symmetry_multiplicity
 _atom_site_fract_x
 _atom_site_fract_y
 _atom_site_fract_z
 _atom_site_occupancy
  Tl  Tl0  1  0.369108  0.369108  0.369108  1
  Cr  Cr1  1  0.644753  0.644753  0.644753  1
  Cr  Cr2  1  0.848101  0.848101  0.848101  1
  Tc  Tc3  1  0.469271  0.775538  0.003064  1
  Tc  Tc4  1  0.775538  0.003064  0.469271  1
  Tc  Tc5  1  0.003064  0.469271  0.775538  1
  Tc  Tc6  1  0.935372  0.559590  0.252654  1
  Tc  Tc7  1  0.252654  0.935372  0.559590  1
  Tc  Tc8  1  0.559590  0.252654  0.935372  1
  O  O9  1  0.550516  0.267883  0.104450  1
  O  O10  1  0.104450  0.550516  0.267883  1
  O  O11  1  0.357347  0.990715  0.908009  1
  O  O12  1  0.267883  0.104450  0.550516  1
  O  O13  1  0.665009  0.743469  0.000683  1
  O  O14  1  0.340172  0.698195  0.218242  1
  O  O15  1  0.698195  0.218242  0.340172  1
  O  O16  1  0.990715  0.908009  0.357347  1
  O  O17  1  0.218242  0.340172  0.698195  1
  O  O18  1  0.947597  0.690837  0.033427  1
  O  O19  1  0.957978  0.352343  0.308408  1
  O  O20  1  0.308408  0.957978  0.352343  1
  O  O21  1  0.743469  0.000683  0.665009  1
  O  O22  1  0.000683  0.665009  0.743469  1
  O  O23  1  0.908009  0.357347  0.990715  1
  O  O24  1  0.735283  0.655308  0.399896  1
  O  O25  1  0.033427  0.947597  0.690837  1
  O  O26  1  0.399896  0.735283  0.655308  1
  O  O27  1  0.655308  0.399896  0.735283  1
  O  O28  1  0.352343  0.308408  0.957978  1
  O  O29  1  0.650582  0.889278  0.529280  1
  O  O30  1  0.690837  0.033427  0.947597  1
  O  O31  1  0.889278  0.529280  0.650582  1
  O  O32  1  0.529280  0.650582  0.889278  1
