# generated using pymatgen
data_Tm6FeCoSi6
_symmetry_space_group_name_H-M   'P 1'
_cell_length_a   5.56668991
_cell_length_b   5.56669012
_cell_length_c   13.30665520
_cell_angle_alpha   70.47379508
_cell_angle_beta   70.47379515
_cell_angle_gamma   43.53555615
_symmetry_Int_Tables_number   1
_chemical_formula_structural   Tm6FeCoSi6
_chemical_formula_sum   'Tm6 Fe1 Co1 Si6'
_cell_volume   264.99413369
_cell_formula_units_Z   1
loop_
 _symmetry_equiv_pos_site_id
 _symmetry_equiv_pos_as_xyz
  1  'x, y, z'
loop_
 _atom_site_type_symbol
 _atom_site_label
 _atom_site_symmetry_multiplicity
 _atom_site_fract_x
 _atom_site_fract_y
 _atom_site_fract_z
 _atom_site_occupancy
  Tm  Tm0  1  0.747209  0.747209  0.771195  1
  Tm  Tm1  1  0.251981  0.251981  0.228643  1
  Tm  Tm2  1  0.524933  0.524933  0.620505  1
  Tm  Tm3  1  0.476731  0.476731  0.379167  1
  Tm  Tm4  1  0.399147  0.399147  0.919820  1
  Tm  Tm5  1  0.600135  0.600135  0.081385  1
  Fe  Fe6  1  0.247820  0.247820  0.582589  1
  Co  Co7  1  0.752618  0.752618  0.415981  1
  Si  Si8  1  0.140394  0.140394  0.456780  1
  Si  Si9  1  0.857788  0.857788  0.543817  1
  Si  Si10  1  0.115617  0.115617  0.924581  1
  Si  Si11  1  0.884159  0.884159  0.075723  1
  Si  Si12  1  0.054022  0.054022  0.757949  1
  Si  Si13  1  0.947446  0.947446  0.241865  1
