# generated using pymatgen
data_Gd3Dy(W2O7)2
_symmetry_space_group_name_H-M   'P 1'
_cell_length_a   7.37641379
_cell_length_b   7.37641304
_cell_length_c   7.49135100
_cell_angle_alpha   60.59400717
_cell_angle_beta   60.59401048
_cell_angle_gamma   60.08293923
_symmetry_Int_Tables_number   1
_chemical_formula_structural   Gd3Dy(W2O7)2
_chemical_formula_sum   'Gd3 Dy1 W4 O14'
_cell_volume   290.97347338
_cell_formula_units_Z   1
loop_
 _symmetry_equiv_pos_site_id
 _symmetry_equiv_pos_as_xyz
  1  'x, y, z'
loop_
 _atom_site_type_symbol
 _atom_site_label
 _atom_site_symmetry_multiplicity
 _atom_site_fract_x
 _atom_site_fract_y
 _atom_site_fract_z
 _atom_site_occupancy
  Gd  Gd0  1  0.000000  0.500000  0.500000  1
  Gd  Gd1  1  0.500000  0.000000  0.500000  1
  Gd  Gd2  1  0.500000  0.500000  0.500000  1
  Dy  Dy3  1  0.500000  0.500000  0.000000  1
  W  W4  1  0.500000  0.000000  0.000000  1
  W  W5  1  0.000000  0.500000  0.000000  1
  W  W6  1  0.000000  0.000000  0.000000  1
  W  W7  1  0.000000  0.000000  0.500000  1
  O  O8  1  0.376745  0.376745  0.366997  1
  O  O9  1  0.623255  0.623255  0.633003  1
  O  O10  1  0.095363  0.647421  0.659029  1
  O  O11  1  0.336891  0.904969  0.915060  1
  O  O12  1  0.647421  0.095363  0.659029  1
  O  O13  1  0.082123  0.082123  0.668402  1
  O  O14  1  0.663260  0.663260  0.073744  1
  O  O15  1  0.095031  0.663109  0.084940  1
  O  O16  1  0.663109  0.095031  0.084940  1
  O  O17  1  0.336740  0.336740  0.926256  1
  O  O18  1  0.917877  0.917877  0.331598  1
  O  O19  1  0.904637  0.352579  0.340971  1
  O  O20  1  0.904969  0.336891  0.915060  1
  O  O21  1  0.352579  0.904637  0.340971  1
