# generated using pymatgen
data_Lu3Hf4Pa(ReB6)4
_symmetry_space_group_name_H-M   'P 1'
_cell_length_a   3.59171500
_cell_length_b   8.98117307
_cell_length_c   11.32727209
_cell_angle_alpha   90.08263741
_cell_angle_beta   90.00000000
_cell_angle_gamma   90.00000000
_symmetry_Int_Tables_number   1
_chemical_formula_structural   Lu3Hf4Pa(ReB6)4
_chemical_formula_sum   'Lu3 Hf4 Pa1 Re4 B24'
_cell_volume   365.39265653
_cell_formula_units_Z   1
loop_
 _symmetry_equiv_pos_site_id
 _symmetry_equiv_pos_as_xyz
  1  'x, y, z'
loop_
 _atom_site_type_symbol
 _atom_site_label
 _atom_site_symmetry_multiplicity
 _atom_site_fract_x
 _atom_site_fract_y
 _atom_site_fract_z
 _atom_site_occupancy
  Lu  Lu0  1  0.000000  0.680133  0.587545  1
  Lu  Lu1  1  0.000000  0.820934  0.084747  1
  Lu  Lu2  1  0.000000  0.178076  0.913561  1
  Hf  Hf3  1  0.000000  0.943967  0.374101  1
  Hf  Hf4  1  0.000000  0.053899  0.627353  1
  Hf  Hf5  1  0.000000  0.445429  0.125037  1
  Hf  Hf6  1  0.000000  0.556867  0.874142  1
  Pa  Pa7  1  0.000000  0.322214  0.414095  1
  Re  Re8  1  0.000000  0.640003  0.318620  1
  Re  Re9  1  0.000000  0.359539  0.680441  1
  Re  Re10  1  0.000000  0.141328  0.182113  1
  Re  Re11  1  0.000000  0.859669  0.818319  1
  B  B12  1  0.500000  0.554618  0.433208  1
  B  B13  1  0.500000  0.446271  0.567461  1
  B  B14  1  0.500000  0.053973  0.066070  1
  B  B15  1  0.500000  0.945795  0.934288  1
  B  B16  1  0.500000  0.752661  0.419134  1
  B  B17  1  0.500000  0.247194  0.581864  1
  B  B18  1  0.500000  0.251754  0.079272  1
  B  B19  1  0.500000  0.748595  0.919419  1
  B  B20  1  0.500000  0.794991  0.263688  1
  B  B21  1  0.500000  0.204962  0.737370  1
  B  B22  1  0.500000  0.294870  0.234164  1
  B  B23  1  0.500000  0.705014  0.764840  1
  B  B24  1  0.500000  0.630867  0.181744  1
  B  B25  1  0.500000  0.369982  0.817587  1
  B  B26  1  0.500000  0.129096  0.316826  1
  B  B27  1  0.500000  0.869388  0.683273  1
  B  B28  1  0.500000  0.980238  0.212283  1
  B  B29  1  0.500000  0.018810  0.787700  1
  B  B30  1  0.500000  0.481949  0.285458  1
  B  B31  1  0.500000  0.519191  0.714710  1
  B  B32  1  0.500000  0.601347  0.026806  1
  B  B33  1  0.500000  0.398846  0.972231  1
  B  B34  1  0.500000  0.099397  0.473215  1
  B  B35  1  0.500000  0.898135  0.527312  1
