# generated using pymatgen
data_Ho3TmAl14(Ga2Ir3)2
_symmetry_space_group_name_H-M   'P 1'
_cell_length_a   7.51972301
_cell_length_b   7.52068550
_cell_length_c   9.51891800
_cell_angle_alpha   90.00000000
_cell_angle_beta   90.00000000
_cell_angle_gamma   119.53733847
_symmetry_Int_Tables_number   1
_chemical_formula_structural   Ho3TmAl14(Ga2Ir3)2
_chemical_formula_sum   'Ho3 Tm1 Al14 Ga4 Ir6'
_cell_volume   468.36386942
_cell_formula_units_Z   1
loop_
 _symmetry_equiv_pos_site_id
 _symmetry_equiv_pos_as_xyz
  1  'x, y, z'
loop_
 _atom_site_type_symbol
 _atom_site_label
 _atom_site_symmetry_multiplicity
 _atom_site_fract_x
 _atom_site_fract_y
 _atom_site_fract_z
 _atom_site_occupancy
  Ho  Ho0  1  0.997301  0.673019  0.250000  1
  Ho  Ho1  1  0.002746  0.326961  0.750000  1
  Ho  Ho2  1  0.670096  0.993663  0.250000  1
  Tm  Tm3  1  0.329818  0.006359  0.750000  1
  Al  Al4  1  0.001269  0.334901  0.073221  1
  Al  Al5  1  0.998979  0.665356  0.926604  1
  Al  Al6  1  0.998979  0.665356  0.573396  1
  Al  Al7  1  0.335318  0.001833  0.426984  1
  Al  Al8  1  0.001269  0.334901  0.426779  1
  Al  Al9  1  0.664415  0.998172  0.573469  1
  Al  Al10  1  0.664415  0.998172  0.926531  1
  Al  Al11  1  0.335318  0.001833  0.073016  1
  Al  Al12  1  0.333803  0.333833  0.555464  1
  Al  Al13  1  0.666218  0.665903  0.444773  1
  Al  Al14  1  0.666218  0.665903  0.055227  1
  Al  Al15  1  0.333803  0.333833  0.944536  1
  Al  Al16  1  0.548966  0.338645  0.250000  1
  Al  Al17  1  0.450902  0.661524  0.750000  1
  Ga  Ga18  1  0.129984  0.130603  0.250000  1
  Ga  Ga19  1  0.870305  0.869537  0.750000  1
  Ga  Ga20  1  0.338375  0.546240  0.250000  1
  Ga  Ga21  1  0.661358  0.453402  0.750000  1
  Ir  Ir22  1  0.671342  0.327793  0.002326  1
  Ir  Ir23  1  0.328532  0.672187  0.997413  1
  Ir  Ir24  1  0.328532  0.672187  0.502587  1
  Ir  Ir25  1  0.671342  0.327793  0.497674  1
  Ir  Ir26  1  0.000198  0.000044  0.999850  1
  Ir  Ir27  1  0.000198  0.000044  0.500150  1
