# generated using pymatgen
data_Y7Er3Co4
_symmetry_space_group_name_H-M   'P 1'
_cell_length_a   6.30502417
_cell_length_b   6.92077069
_cell_length_c   8.57747154
_cell_angle_alpha   96.19366908
_cell_angle_beta   111.65187729
_cell_angle_gamma   90.00058757
_symmetry_Int_Tables_number   1
_chemical_formula_structural   Y7Er3Co4
_chemical_formula_sum   'Y7 Er3 Co4'
_cell_volume   345.52312005
_cell_formula_units_Z   1
loop_
 _symmetry_equiv_pos_site_id
 _symmetry_equiv_pos_as_xyz
  1  'x, y, z'
loop_
 _atom_site_type_symbol
 _atom_site_label
 _atom_site_symmetry_multiplicity
 _atom_site_fract_x
 _atom_site_fract_y
 _atom_site_fract_z
 _atom_site_occupancy
  Y  Y0  1  0.795753  0.586553  0.812474  1
  Y  Y1  1  0.983683  0.913264  0.189071  1
  Y  Y2  1  0.205648  0.412349  0.188919  1
  Y  Y3  1  0.019229  0.087824  0.812897  1
  Y  Y4  1  0.216744  0.683993  0.568578  1
  Y  Y5  1  0.645686  0.816663  0.431383  1
  Y  Y6  1  0.782352  0.314732  0.432070  1
  Er  Er7  1  0.351718  0.184776  0.570016  1
  Er  Er8  1  0.430365  0.749699  0.000130  1
  Er  Er9  1  0.570694  0.250077  0.999484  1
  Co  Co10  1  0.599123  0.931231  0.780379  1
  Co  Co11  1  0.818356  0.569743  0.217882  1
  Co  Co12  1  0.397566  0.070312  0.216192  1
  Co  Co13  1  0.183083  0.428785  0.780527  1
