# generated using pymatgen
data_DyTm(MgPt)2
_symmetry_space_group_name_H-M   'P 1'
_cell_length_a   4.14254800
_cell_length_b   7.10075622
_cell_length_c   8.65009735
_cell_angle_alpha   90.38539822
_cell_angle_beta   90.00000000
_cell_angle_gamma   90.00000000
_symmetry_Int_Tables_number   1
_chemical_formula_structural   DyTm(MgPt)2
_chemical_formula_sum   'Dy2 Tm2 Mg4 Pt4'
_cell_volume   254.43879035
_cell_formula_units_Z   2
loop_
 _symmetry_equiv_pos_site_id
 _symmetry_equiv_pos_as_xyz
  1  'x, y, z'
loop_
 _atom_site_type_symbol
 _atom_site_label
 _atom_site_symmetry_multiplicity
 _atom_site_fract_x
 _atom_site_fract_y
 _atom_site_fract_z
 _atom_site_occupancy
  Dy  Dy0  1  0.750000  0.963703  0.676223  1
  Dy  Dy1  1  0.250000  0.036297  0.323777  1
  Tm  Tm2  1  0.250000  0.537458  0.174111  1
  Tm  Tm3  1  0.750000  0.462542  0.825889  1
  Mg  Mg4  1  0.250000  0.636177  0.560337  1
  Mg  Mg5  1  0.750000  0.363823  0.439663  1
  Mg  Mg6  1  0.750000  0.862296  0.059775  1
  Mg  Mg7  1  0.250000  0.137704  0.940225  1
  Pt  Pt8  1  0.250000  0.745732  0.872937  1
  Pt  Pt9  1  0.750000  0.254268  0.127063  1
  Pt  Pt10  1  0.750000  0.748138  0.369856  1
  Pt  Pt11  1  0.250000  0.251862  0.630144  1
