# generated using pymatgen
data_Tb8Tl2InCo
_symmetry_space_group_name_H-M   'P 1'
_cell_length_a   10.42909919
_cell_length_b   10.43400008
_cell_length_c   7.11331630
_cell_angle_alpha   89.99216775
_cell_angle_beta   89.99829327
_cell_angle_gamma   119.97595134
_symmetry_Int_Tables_number   1
_chemical_formula_structural   Tb8Tl2InCo
_chemical_formula_sum   'Tb16 Tl4 In2 Co2'
_cell_volume   670.51048074
_cell_formula_units_Z   2
loop_
 _symmetry_equiv_pos_site_id
 _symmetry_equiv_pos_as_xyz
  1  'x, y, z'
loop_
 _atom_site_type_symbol
 _atom_site_label
 _atom_site_symmetry_multiplicity
 _atom_site_fract_x
 _atom_site_fract_y
 _atom_site_fract_z
 _atom_site_occupancy
  Tb  Tb0  1  0.536604  0.073119  0.790192  1
  Tb  Tb1  1  0.926000  0.463836  0.791292  1
  Tb  Tb2  1  0.537925  0.463827  0.791477  1
  Tb  Tb3  1  0.462509  0.925061  0.293147  1
  Tb  Tb4  1  0.075321  0.537581  0.292708  1
  Tb  Tb5  1  0.462295  0.537474  0.292933  1
  Tb  Tb6  1  0.822057  0.644216  0.495543  1
  Tb  Tb7  1  0.355338  0.178093  0.496043  1
  Tb  Tb8  1  0.822583  0.178146  0.495777  1
  Tb  Tb9  1  0.177610  0.355023  0.995994  1
  Tb  Tb10  1  0.644963  0.822698  0.998072  1
  Tb  Tb11  1  0.177827  0.822845  0.997985  1
  Tb  Tb12  1  0.666496  0.333071  0.183241  1
  Tb  Tb13  1  0.333634  0.667154  0.684320  1
  Tb  Tb14  1  0.999144  0.998375  0.776968  1
  Tb  Tb15  1  0.999297  0.998568  0.279760  1
  Tl  Tl16  1  0.836852  0.673575  0.041700  1
  Tl  Tl17  1  0.326553  0.163343  0.041570  1
  Tl  Tl18  1  0.836930  0.163288  0.041532  1
  Tl  Tl19  1  0.163000  0.326245  0.542647  1
  In  In20  1  0.674314  0.837301  0.541193  1
  In  In21  1  0.162892  0.837194  0.541148  1
  Co  Co22  1  0.666548  0.333462  0.565084  1
  Co  Co23  1  0.333313  0.666500  0.065586  1
