# generated using pymatgen
data_NaLiPrPt3
_symmetry_space_group_name_H-M   'P 1'
_cell_length_a   5.53957363
_cell_length_b   5.53957373
_cell_length_c   5.27046932
_cell_angle_alpha   58.29611309
_cell_angle_beta   58.29612672
_cell_angle_gamma   59.99999168
_symmetry_Int_Tables_number   1
_chemical_formula_structural   NaLiPrPt3
_chemical_formula_sum   'Na1 Li1 Pr1 Pt3'
_cell_volume   111.32896728
_cell_formula_units_Z   1
loop_
 _symmetry_equiv_pos_site_id
 _symmetry_equiv_pos_as_xyz
  1  'x, y, z'
loop_
 _atom_site_type_symbol
 _atom_site_label
 _atom_site_symmetry_multiplicity
 _atom_site_fract_x
 _atom_site_fract_y
 _atom_site_fract_z
 _atom_site_occupancy
  Na  Na0  1  0.252633  0.252633  0.242099  1
  Li  Li1  1  0.621590  0.621590  0.135230  1
  Pr  Pr2  1  0.005501  0.005501  0.983498  1
  Pt  Pt3  1  0.622633  0.125009  0.629724  1
  Pt  Pt4  1  0.125009  0.622633  0.629724  1
  Pt  Pt5  1  0.622633  0.622633  0.629724  1
