# generated using pymatgen
data_K4ZrU7Se16
_symmetry_space_group_name_H-M   'P 1'
_cell_length_a   7.06471988
_cell_length_b   8.17697354
_cell_length_c   16.45526627
_cell_angle_alpha   89.92876957
_cell_angle_beta   90.06040779
_cell_angle_gamma   90.05517741
_symmetry_Int_Tables_number   1
_chemical_formula_structural   K4ZrU7Se16
_chemical_formula_sum   'K4 Zr1 U7 Se16'
_cell_volume   950.58657140
_cell_formula_units_Z   1
loop_
 _symmetry_equiv_pos_site_id
 _symmetry_equiv_pos_as_xyz
  1  'x, y, z'
loop_
 _atom_site_type_symbol
 _atom_site_label
 _atom_site_symmetry_multiplicity
 _atom_site_fract_x
 _atom_site_fract_y
 _atom_site_fract_z
 _atom_site_occupancy
  K  K0  1  0.342962  0.000834  0.999512  1
  K  K1  1  0.657038  0.499166  0.500488  1
  K  K2  1  0.027244  0.000541  0.500655  1
  K  K3  1  0.972756  0.499459  0.999345  1
  Zr  Zr4  1  0.500000  0.250000  0.750000  1
  U  U5  1  0.999303  0.000053  0.247661  1
  U  U6  1  0.999459  0.003694  0.752472  1
  U  U7  1  0.000697  0.499947  0.252339  1
  U  U8  1  0.000541  0.496306  0.747528  1
  U  U9  1  0.500000  0.250000  0.250000  1
  U  U10  1  0.500000  0.750000  0.750000  1
  U  U11  1  0.500000  0.750000  0.250000  1
  Se  Se12  1  0.834129  0.247721  0.350375  1
  Se  Se13  1  0.836196  0.752247  0.650286  1
  Se  Se14  1  0.165642  0.747651  0.149605  1
  Se  Se15  1  0.179566  0.252767  0.847884  1
  Se  Se16  1  0.165871  0.252279  0.149625  1
  Se  Se17  1  0.163804  0.747753  0.849714  1
  Se  Se18  1  0.834358  0.752349  0.350395  1
  Se  Se19  1  0.820434  0.247233  0.652116  1
  Se  Se20  1  0.665763  0.000131  0.150762  1
  Se  Se21  1  0.659253  0.010203  0.845856  1
  Se  Se22  1  0.334237  0.499869  0.349238  1
  Se  Se23  1  0.340747  0.489797  0.654144  1
  Se  Se24  1  0.332363  0.000116  0.347315  1
  Se  Se25  1  0.338263  0.010324  0.655618  1
  Se  Se26  1  0.667637  0.499884  0.152685  1
  Se  Se27  1  0.661737  0.489676  0.844382  1
