# generated using pymatgen
data_Ti10Ga3Sb5
_symmetry_space_group_name_H-M   'P 1'
_cell_length_a   8.15044500
_cell_length_b   8.19745342
_cell_length_c   5.51938300
_cell_angle_alpha   90.00000000
_cell_angle_beta   90.00000000
_cell_angle_gamma   119.81048842
_symmetry_Int_Tables_number   1
_chemical_formula_structural   Ti10Ga3Sb5
_chemical_formula_sum   'Ti10 Ga3 Sb5'
_cell_volume   319.96879541
_cell_formula_units_Z   1
loop_
 _symmetry_equiv_pos_site_id
 _symmetry_equiv_pos_as_xyz
  1  'x, y, z'
loop_
 _atom_site_type_symbol
 _atom_site_label
 _atom_site_symmetry_multiplicity
 _atom_site_fract_x
 _atom_site_fract_y
 _atom_site_fract_z
 _atom_site_occupancy
  Ti  Ti0  1  0.334269  0.670795  0.996021  1
  Ti  Ti1  1  0.663475  0.329205  0.503979  1
  Ti  Ti2  1  0.663475  0.329205  0.996021  1
  Ti  Ti3  1  0.334269  0.670795  0.503979  1
  Ti  Ti4  1  0.267779  0.000000  0.250000  1
  Ti  Ti5  1  0.276966  0.266057  0.750000  1
  Ti  Ti6  1  0.010910  0.733943  0.750000  1
  Ti  Ti7  1  0.998275  0.267504  0.250000  1
  Ti  Ti8  1  0.730771  0.732496  0.250000  1
  Ti  Ti9  1  0.721430  0.000000  0.750000  1
  Ga  Ga10  1  0.000116  0.000000  0.994917  1
  Ga  Ga11  1  0.000116  0.000000  0.505083  1
  Ga  Ga12  1  0.386965  0.000000  0.750000  1
  Sb  Sb13  1  0.605888  0.000000  0.250000  1
  Sb  Sb14  1  0.616394  0.614801  0.750000  1
  Sb  Sb15  1  0.001593  0.385199  0.750000  1
  Sb  Sb16  1  0.999537  0.611765  0.250000  1
  Sb  Sb17  1  0.387773  0.388235  0.250000  1
