# generated using pymatgen
data_Ho2Er6Ga12CoAg3
_symmetry_space_group_name_H-M   'P 1'
_cell_length_a   7.01000400
_cell_length_b   8.91113587
_cell_length_c   8.91113600
_cell_angle_alpha   120.00000049
_cell_angle_beta   90.00000000
_cell_angle_gamma   90.00000000
_symmetry_Int_Tables_number   1
_chemical_formula_structural   Ho2Er6Ga12CoAg3
_chemical_formula_sum   'Ho2 Er6 Ga12 Co1 Ag3'
_cell_volume   482.07546913
_cell_formula_units_Z   1
loop_
 _symmetry_equiv_pos_site_id
 _symmetry_equiv_pos_as_xyz
  1  'x, y, z'
loop_
 _atom_site_type_symbol
 _atom_site_label
 _atom_site_symmetry_multiplicity
 _atom_site_fract_x
 _atom_site_fract_y
 _atom_site_fract_z
 _atom_site_occupancy
  Ho  Ho0  1  0.739871  0.000000  0.000000  1
  Ho  Ho1  1  0.250895  0.000000  0.000000  1
  Er  Er2  1  0.749457  0.487291  0.512709  1
  Er  Er3  1  0.258973  0.523547  0.476453  1
  Er  Er4  1  0.749457  0.025418  0.512709  1
  Er  Er5  1  0.258973  0.952908  0.476453  1
  Er  Er6  1  0.749457  0.487291  0.974582  1
  Er  Er7  1  0.258973  0.523547  0.047092  1
  Ga  Ga8  1  0.961714  0.836367  0.163633  1
  Ga  Ga9  1  0.041251  0.165807  0.834193  1
  Ga  Ga10  1  0.961714  0.327267  0.163633  1
  Ga  Ga11  1  0.462398  0.164535  0.835465  1
  Ga  Ga12  1  0.041251  0.668384  0.834193  1
  Ga  Ga13  1  0.542749  0.825676  0.174324  1
  Ga  Ga14  1  0.961714  0.836367  0.672733  1
  Ga  Ga15  1  0.462398  0.670928  0.835465  1
  Ga  Ga16  1  0.041251  0.165807  0.331616  1
  Ga  Ga17  1  0.542749  0.348651  0.174324  1
  Ga  Ga18  1  0.462398  0.164535  0.329072  1
  Ga  Ga19  1  0.542749  0.825676  0.651349  1
  Co  Co20  1  0.512746  0.666667  0.333333  1
  Ag  Ag21  1  0.942364  0.666667  0.333333  1
  Ag  Ag22  1  0.039917  0.333333  0.666667  1
  Ag  Ag23  1  0.464579  0.333333  0.666667  1
