# generated using pymatgen
data_Tm11Hf(Si3Ru)4
_symmetry_space_group_name_H-M   'P 1'
_cell_length_a   4.14412800
_cell_length_b   10.59220481
_cell_length_c   12.14698362
_cell_angle_alpha   90.20882969
_cell_angle_beta   90.00000000
_cell_angle_gamma   90.00000000
_symmetry_Int_Tables_number   1
_chemical_formula_structural   Tm11Hf(Si3Ru)4
_chemical_formula_sum   'Tm11 Hf1 Si12 Ru4'
_cell_volume   533.19380145
_cell_formula_units_Z   1
loop_
 _symmetry_equiv_pos_site_id
 _symmetry_equiv_pos_as_xyz
  1  'x, y, z'
loop_
 _atom_site_type_symbol
 _atom_site_label
 _atom_site_symmetry_multiplicity
 _atom_site_fract_x
 _atom_site_fract_y
 _atom_site_fract_z
 _atom_site_occupancy
  Tm  Tm0  1  0.250000  0.620870  0.520997  1
  Tm  Tm1  1  0.750000  0.120303  0.980011  1
  Tm  Tm2  1  0.750000  0.379477  0.479028  1
  Tm  Tm3  1  0.250000  0.922047  0.605784  1
  Tm  Tm4  1  0.250000  0.580898  0.103818  1
  Tm  Tm5  1  0.750000  0.077103  0.393009  1
  Tm  Tm6  1  0.750000  0.422553  0.895627  1
  Tm  Tm7  1  0.250000  0.662958  0.801453  1
  Tm  Tm8  1  0.250000  0.836124  0.299105  1
  Tm  Tm9  1  0.750000  0.337968  0.199870  1
  Tm  Tm10  1  0.750000  0.161053  0.700863  1
  Hf  Hf11  1  0.250000  0.878819  0.021669  1
  Si  Si12  1  0.250000  0.009242  0.827498  1
  Si  Si13  1  0.250000  0.487598  0.320858  1
  Si  Si14  1  0.750000  0.983283  0.174104  1
  Si  Si15  1  0.750000  0.513377  0.678429  1
  Si  Si16  1  0.250000  0.250163  0.841897  1
  Si  Si17  1  0.250000  0.247802  0.339539  1
  Si  Si18  1  0.750000  0.753017  0.156018  1
  Si  Si19  1  0.750000  0.751689  0.660003  1
  Si  Si20  1  0.250000  0.198722  0.542901  1
  Si  Si21  1  0.250000  0.302324  0.043508  1
  Si  Si22  1  0.750000  0.801012  0.457355  1
  Si  Si23  1  0.750000  0.706186  0.957997  1
  Ru  Ru24  1  0.250000  0.390125  0.680121  1
  Ru  Ru25  1  0.250000  0.104658  0.175685  1
  Ru  Ru26  1  0.750000  0.610595  0.317417  1
  Ru  Ru27  1  0.750000  0.890039  0.825439  1
