# generated using pymatgen
data_La6Tb3Dy(Tl3Cl)2
_symmetry_space_group_name_H-M   'P 1'
_cell_length_a   9.55190200
_cell_length_b   9.55190305
_cell_length_c   6.83812600
_cell_angle_alpha   90.00000000
_cell_angle_beta   90.00000000
_cell_angle_gamma   119.99999636
_symmetry_Int_Tables_number   1
_chemical_formula_structural   La6Tb3Dy(Tl3Cl)2
_chemical_formula_sum   'La6 Tb3 Dy1 Tl6 Cl2'
_cell_volume   540.31560465
_cell_formula_units_Z   1
loop_
 _symmetry_equiv_pos_site_id
 _symmetry_equiv_pos_as_xyz
  1  'x, y, z'
loop_
 _atom_site_type_symbol
 _atom_site_label
 _atom_site_symmetry_multiplicity
 _atom_site_fract_x
 _atom_site_fract_y
 _atom_site_fract_z
 _atom_site_occupancy
  La  La0  1  0.738621  0.000078  0.750106  1
  La  La1  1  0.738621  0.738544  0.249894  1
  La  La2  1  0.999922  0.261379  0.249894  1
  La  La3  1  0.999922  0.738544  0.750106  1
  La  La4  1  0.261456  0.261379  0.750106  1
  La  La5  1  0.261456  0.000078  0.249894  1
  Tb  Tb6  1  0.333333  0.666667  0.500000  1
  Tb  Tb7  1  0.666667  0.333333  0.500000  1
  Tb  Tb8  1  0.333333  0.666667  0.000000  1
  Dy  Dy9  1  0.666667  0.333333  0.000000  1
  Tl  Tl10  1  0.605865  0.605614  0.750165  1
  Tl  Tl11  1  0.999748  0.605614  0.249835  1
  Tl  Tl12  1  0.605865  0.000252  0.249835  1
  Tl  Tl13  1  0.394386  0.000252  0.750165  1
  Tl  Tl14  1  0.999748  0.394135  0.750165  1
  Tl  Tl15  1  0.394386  0.394135  0.249835  1
  Cl  Cl16  1  0.000000  0.000000  0.500000  1
  Cl  Cl17  1  0.000000  0.000000  0.000000  1
