# generated using pymatgen
data_Ti3GaTcSe8
_symmetry_space_group_name_H-M   'P 1'
_cell_length_a   7.43924127
_cell_length_b   7.43924172
_cell_length_c   7.26485106
_cell_angle_alpha   59.20269778
_cell_angle_beta   59.20270805
_cell_angle_gamma   60.00000375
_symmetry_Int_Tables_number   1
_chemical_formula_structural   Ti3GaTcSe8
_chemical_formula_sum   'Ti3 Ga1 Tc1 Se8'
_cell_volume   280.82049398
_cell_formula_units_Z   1
loop_
 _symmetry_equiv_pos_site_id
 _symmetry_equiv_pos_as_xyz
  1  'x, y, z'
loop_
 _atom_site_type_symbol
 _atom_site_label
 _atom_site_symmetry_multiplicity
 _atom_site_fract_x
 _atom_site_fract_y
 _atom_site_fract_z
 _atom_site_occupancy
  Ti  Ti0  1  0.615634  0.178061  0.590672  1
  Ti  Ti1  1  0.178061  0.615634  0.590672  1
  Ti  Ti2  1  0.615634  0.615634  0.590672  1
  Ga  Ga3  1  0.006955  0.006955  0.979134  1
  Tc  Tc4  1  0.596435  0.596435  0.210695  1
  Se  Se5  1  0.373693  0.373693  0.878920  1
  Se  Se6  1  0.362722  0.896648  0.377908  1
  Se  Se7  1  0.896648  0.362722  0.377908  1
  Se  Se8  1  0.362722  0.362722  0.377908  1
  Se  Se9  1  0.868537  0.868537  0.394388  1
  Se  Se10  1  0.854826  0.413306  0.877041  1
  Se  Se11  1  0.413306  0.854826  0.877041  1
  Se  Se12  1  0.854826  0.854826  0.877041  1
