# generated using pymatgen
data_Zr5Pa3(HgPd2)4
_symmetry_space_group_name_H-M   'P 1'
_cell_length_a   7.54394509
_cell_length_b   7.54394471
_cell_length_c   7.15568300
_cell_angle_alpha   90.00000000
_cell_angle_beta   90.00000000
_cell_angle_gamma   88.58679339
_symmetry_Int_Tables_number   1
_chemical_formula_structural   Zr5Pa3(HgPd2)4
_chemical_formula_sum   'Zr5 Pa3 Hg4 Pd8'
_cell_volume   407.11395480
_cell_formula_units_Z   1
loop_
 _symmetry_equiv_pos_site_id
 _symmetry_equiv_pos_as_xyz
  1  'x, y, z'
loop_
 _atom_site_type_symbol
 _atom_site_label
 _atom_site_symmetry_multiplicity
 _atom_site_fract_x
 _atom_site_fract_y
 _atom_site_fract_z
 _atom_site_occupancy
  Zr  Zr0  1  0.809761  0.187610  0.500000  1
  Zr  Zr1  1  0.687135  0.687135  0.000000  1
  Zr  Zr2  1  0.187610  0.809761  0.500000  1
  Zr  Zr3  1  0.313803  0.313803  0.000000  1
  Zr  Zr4  1  0.347756  0.347756  0.500000  1
  Pa  Pa5  1  0.648721  0.648721  0.500000  1
  Pa  Pa6  1  0.858359  0.146264  0.000000  1
  Pa  Pa7  1  0.146264  0.858359  0.000000  1
  Hg  Hg8  1  0.004574  0.497928  0.254712  1
  Hg  Hg9  1  0.497928  0.004574  0.745288  1
  Hg  Hg10  1  0.497928  0.004574  0.254712  1
  Hg  Hg11  1  0.004574  0.497928  0.745288  1
  Pd  Pd12  1  0.633343  0.368810  0.209461  1
  Pd  Pd13  1  0.368810  0.633343  0.790539  1
  Pd  Pd14  1  0.865147  0.865147  0.707552  1
  Pd  Pd15  1  0.633343  0.368810  0.790539  1
  Pd  Pd16  1  0.368810  0.633343  0.209461  1
  Pd  Pd17  1  0.130493  0.130493  0.294010  1
  Pd  Pd18  1  0.865147  0.865147  0.292448  1
  Pd  Pd19  1  0.130493  0.130493  0.705990  1
