# generated using pymatgen
data_AcGaSnPd3
_symmetry_space_group_name_H-M   'P 1'
_cell_length_a   9.92229800
_cell_length_b   9.92229789
_cell_length_c   4.23737500
_cell_angle_alpha   90.00000000
_cell_angle_beta   90.00000000
_cell_angle_gamma   120.00000038
_symmetry_Int_Tables_number   1
_chemical_formula_structural   AcGaSnPd3
_chemical_formula_sum   'Ac3 Ga3 Sn3 Pd9'
_cell_volume   361.28676922
_cell_formula_units_Z   3
loop_
 _symmetry_equiv_pos_site_id
 _symmetry_equiv_pos_as_xyz
  1  'x, y, z'
loop_
 _atom_site_type_symbol
 _atom_site_label
 _atom_site_symmetry_multiplicity
 _atom_site_fract_x
 _atom_site_fract_y
 _atom_site_fract_z
 _atom_site_occupancy
  Ac  Ac0  1  0.333333  0.666667  0.500000  1
  Ac  Ac1  1  0.666667  0.333333  0.500000  1
  Ac  Ac2  1  0.000000  0.000000  0.000000  1
  Ga  Ga3  1  0.738065  0.000000  0.500000  1
  Ga  Ga4  1  0.000000  0.738065  0.500000  1
  Ga  Ga5  1  0.261935  0.261935  0.500000  1
  Sn  Sn6  1  0.455674  0.000000  0.000000  1
  Sn  Sn7  1  0.000000  0.455674  0.000000  1
  Sn  Sn8  1  0.544326  0.544326  0.000000  1
  Pd  Pd9  1  0.226584  0.386540  0.000000  1
  Pd  Pd10  1  0.613460  0.840044  0.000000  1
  Pd  Pd11  1  0.159956  0.773416  0.000000  1
  Pd  Pd12  1  0.840044  0.613460  0.000000  1
  Pd  Pd13  1  0.773416  0.159956  0.000000  1
  Pd  Pd14  1  0.386540  0.226584  0.000000  1
  Pd  Pd15  1  0.271334  0.000000  0.500000  1
  Pd  Pd16  1  0.000000  0.271334  0.500000  1
  Pd  Pd17  1  0.728666  0.728666  0.500000  1
