# generated using pymatgen
data_Tb8Tc3B24Ir
_symmetry_space_group_name_H-M   'P 1'
_cell_length_a   3.69628300
_cell_length_b   9.19445460
_cell_length_c   11.57949220
_cell_angle_alpha   89.89462988
_cell_angle_beta   90.00000000
_cell_angle_gamma   90.00000000
_symmetry_Int_Tables_number   1
_chemical_formula_structural   Tb8Tc3B24Ir
_chemical_formula_sum   'Tb8 Tc3 B24 Ir1'
_cell_volume   393.53192273
_cell_formula_units_Z   1
loop_
 _symmetry_equiv_pos_site_id
 _symmetry_equiv_pos_as_xyz
  1  'x, y, z'
loop_
 _atom_site_type_symbol
 _atom_site_label
 _atom_site_symmetry_multiplicity
 _atom_site_fract_x
 _atom_site_fract_y
 _atom_site_fract_z
 _atom_site_occupancy
  Tb  Tb0  1  0.000000  0.323526  0.412805  1
  Tb  Tb1  1  0.000000  0.672593  0.581359  1
  Tb  Tb2  1  0.000000  0.822236  0.090988  1
  Tb  Tb3  1  0.000000  0.180743  0.916064  1
  Tb  Tb4  1  0.000000  0.942737  0.370870  1
  Tb  Tb5  1  0.000000  0.060020  0.628779  1
  Tb  Tb6  1  0.000000  0.443432  0.129827  1
  Tb  Tb7  1  0.000000  0.555707  0.869707  1
  Tc  Tc8  1  0.000000  0.638175  0.320984  1
  Tc  Tc9  1  0.000000  0.361784  0.680009  1
  Tc  Tc10  1  0.000000  0.136954  0.177573  1
  B  B11  1  0.500000  0.553062  0.432371  1
  B  B12  1  0.500000  0.446510  0.566908  1
  B  B13  1  0.500000  0.053490  0.067003  1
  B  B14  1  0.500000  0.946163  0.933454  1
  B  B15  1  0.500000  0.747372  0.418550  1
  B  B16  1  0.500000  0.252165  0.581522  1
  B  B17  1  0.500000  0.248447  0.081383  1
  B  B18  1  0.500000  0.751492  0.919669  1
  B  B19  1  0.500000  0.790946  0.265994  1
  B  B20  1  0.500000  0.209354  0.734878  1
  B  B21  1  0.500000  0.290516  0.234005  1
  B  B22  1  0.500000  0.709505  0.765278  1
  B  B23  1  0.500000  0.631740  0.185966  1
  B  B24  1  0.500000  0.368910  0.814443  1
  B  B25  1  0.500000  0.130835  0.313597  1
  B  B26  1  0.500000  0.868430  0.684780  1
  B  B27  1  0.500000  0.982643  0.212045  1
  B  B28  1  0.500000  0.016664  0.788085  1
  B  B29  1  0.500000  0.483383  0.287444  1
  B  B30  1  0.500000  0.516172  0.711660  1
  B  B31  1  0.500000  0.605528  0.028616  1
  B  B32  1  0.500000  0.396740  0.970897  1
  B  B33  1  0.500000  0.104124  0.471399  1
  B  B34  1  0.500000  0.895379  0.529658  1
  Ir  Ir35  1  0.000000  0.862524  0.821429  1
