# generated using pymatgen
data_SrPrCu10
_symmetry_space_group_name_H-M   'P 1'
_cell_length_a   4.06842200
_cell_length_b   5.16924500
_cell_length_c   8.98769900
_cell_angle_alpha   90.00000000
_cell_angle_beta   90.00000000
_cell_angle_gamma   90.00000000
_symmetry_Int_Tables_number   1
_chemical_formula_structural   SrPrCu10
_chemical_formula_sum   'Sr1 Pr1 Cu10'
_cell_volume   189.01733246
_cell_formula_units_Z   1
loop_
 _symmetry_equiv_pos_site_id
 _symmetry_equiv_pos_as_xyz
  1  'x, y, z'
loop_
 _atom_site_type_symbol
 _atom_site_label
 _atom_site_symmetry_multiplicity
 _atom_site_fract_x
 _atom_site_fract_y
 _atom_site_fract_z
 _atom_site_occupancy
  Sr  Sr0  1  0.000000  0.999952  0.000000  1
  Pr  Pr1  1  0.000000  0.500069  0.500000  1
  Cu  Cu2  1  0.000000  0.000415  0.335644  1
  Cu  Cu3  1  0.000000  0.499623  0.830507  1
  Cu  Cu4  1  0.000000  0.499623  0.169493  1
  Cu  Cu5  1  0.000000  0.000415  0.664356  1
  Cu  Cu6  1  0.500000  0.999572  0.500000  1
  Cu  Cu7  1  0.500000  0.500481  0.000000  1
  Cu  Cu8  1  0.500000  0.253720  0.254483  1
  Cu  Cu9  1  0.500000  0.746106  0.745497  1
  Cu  Cu10  1  0.500000  0.746106  0.254503  1
  Cu  Cu11  1  0.500000  0.253720  0.745517  1
