# generated using pymatgen
data_LuTh5NiCl15
_symmetry_space_group_name_H-M   'P 1'
_cell_length_a   9.75419859
_cell_length_b   9.75419866
_cell_length_c   9.75419879
_cell_angle_alpha   110.68304686
_cell_angle_beta   108.86872448
_cell_angle_gamma   108.86872803
_symmetry_Int_Tables_number   1
_chemical_formula_structural   LuTh5NiCl15
_chemical_formula_sum   'Lu1 Th5 Ni1 Cl15'
_cell_volume   714.17858733
_cell_formula_units_Z   1
loop_
 _symmetry_equiv_pos_site_id
 _symmetry_equiv_pos_as_xyz
  1  'x, y, z'
loop_
 _atom_site_type_symbol
 _atom_site_label
 _atom_site_symmetry_multiplicity
 _atom_site_fract_x
 _atom_site_fract_y
 _atom_site_fract_z
 _atom_site_occupancy
  Lu  Lu0  1  0.000000  0.246873  0.246873  1
  Th  Th1  1  0.000000  0.748187  0.748187  1
  Th  Th2  1  0.244278  0.005140  0.249419  1
  Th  Th3  1  0.755722  0.005140  0.760862  1
  Th  Th4  1  0.244278  0.249419  0.005140  1
  Th  Th5  1  0.755722  0.760862  0.005140  1
  Ni  Ni6  1  0.000000  0.992940  0.992940  1
  Cl  Cl7  1  0.489494  0.247184  0.247184  1
  Cl  Cl8  1  0.510506  0.757689  0.757689  1
  Cl  Cl9  1  0.000000  0.247184  0.757689  1
  Cl  Cl10  1  0.000000  0.757689  0.247184  1
  Cl  Cl11  1  0.232653  0.484933  0.252280  1
  Cl  Cl12  1  0.767347  0.019627  0.252280  1
  Cl  Cl13  1  0.754359  0.506958  0.752597  1
  Cl  Cl14  1  0.245641  0.998238  0.752597  1
  Cl  Cl15  1  0.232653  0.252280  0.484933  1
  Cl  Cl16  1  0.754359  0.752597  0.506958  1
  Cl  Cl17  1  0.767347  0.252280  0.019627  1
  Cl  Cl18  1  0.245641  0.752597  0.998238  1
  Cl  Cl19  1  0.000000  0.487938  0.487938  1
  Cl  Cl20  1  0.500000  0.987122  0.487122  1
  Cl  Cl21  1  0.500000  0.487122  0.987122  1
