# generated using pymatgen
data_K2Ti(AgS2)2
_symmetry_space_group_name_H-M   'P 1'
_cell_length_a   5.97104600
_cell_length_b   5.97104600
_cell_length_c   13.17184400
_cell_angle_alpha   90.00000000
_cell_angle_beta   90.00000000
_cell_angle_gamma   90.00000000
_symmetry_Int_Tables_number   1
_chemical_formula_structural   K2Ti(AgS2)2
_chemical_formula_sum   'K4 Ti2 Ag4 S8'
_cell_volume   469.62089555
_cell_formula_units_Z   2
loop_
 _symmetry_equiv_pos_site_id
 _symmetry_equiv_pos_as_xyz
  1  'x, y, z'
loop_
 _atom_site_type_symbol
 _atom_site_label
 _atom_site_symmetry_multiplicity
 _atom_site_fract_x
 _atom_site_fract_y
 _atom_site_fract_z
 _atom_site_occupancy
  K  K0  1  0.256950  0.256950  0.000000  1
  K  K1  1  0.743050  0.743050  0.000000  1
  K  K2  1  0.743050  0.256950  0.500000  1
  K  K3  1  0.256950  0.743050  0.500000  1
  Ti  Ti4  1  0.000000  0.000000  0.250000  1
  Ti  Ti5  1  0.000000  0.000000  0.750000  1
  Ag  Ag6  1  0.000000  0.500000  0.250000  1
  Ag  Ag7  1  0.000000  0.500000  0.750000  1
  Ag  Ag8  1  0.500000  0.000000  0.750000  1
  Ag  Ag9  1  0.500000  0.000000  0.250000  1
  S  S10  1  0.215880  0.215880  0.357661  1
  S  S11  1  0.784120  0.784120  0.642339  1
  S  S12  1  0.784120  0.784120  0.357661  1
  S  S13  1  0.784120  0.215880  0.857661  1
  S  S14  1  0.784120  0.215880  0.142339  1
  S  S15  1  0.215880  0.215880  0.642339  1
  S  S16  1  0.215880  0.784120  0.142339  1
  S  S17  1  0.215880  0.784120  0.857661  1
