# generated using pymatgen
data_TbNdS3
_symmetry_space_group_name_H-M   'P 1'
_cell_length_a   3.99512400
_cell_length_b   10.51098500
_cell_length_c   10.86088700
_cell_angle_alpha   90.00000000
_cell_angle_beta   90.00000000
_cell_angle_gamma   90.00000000
_symmetry_Int_Tables_number   1
_chemical_formula_structural   TbNdS3
_chemical_formula_sum   'Tb4 Nd4 S12'
_cell_volume   456.07784394
_cell_formula_units_Z   4
loop_
 _symmetry_equiv_pos_site_id
 _symmetry_equiv_pos_as_xyz
  1  'x, y, z'
loop_
 _atom_site_type_symbol
 _atom_site_label
 _atom_site_symmetry_multiplicity
 _atom_site_fract_x
 _atom_site_fract_y
 _atom_site_fract_z
 _atom_site_occupancy
  Tb  Tb0  1  0.250000  0.186308  0.491064  1
  Tb  Tb1  1  0.750000  0.813692  0.508936  1
  Tb  Tb2  1  0.750000  0.686308  0.008936  1
  Tb  Tb3  1  0.250000  0.313692  0.991064  1
  Nd  Nd4  1  0.250000  0.998027  0.805965  1
  Nd  Nd5  1  0.750000  0.001973  0.194035  1
  Nd  Nd6  1  0.750000  0.498027  0.694035  1
  Nd  Nd7  1  0.250000  0.501973  0.305965  1
  S  S8  1  0.250000  0.298797  0.730000  1
  S  S9  1  0.750000  0.701203  0.270000  1
  S  S10  1  0.750000  0.798797  0.770000  1
  S  S11  1  0.250000  0.201203  0.230000  1
  S  S12  1  0.250000  0.944551  0.384664  1
  S  S13  1  0.750000  0.055449  0.615336  1
  S  S14  1  0.750000  0.444551  0.115336  1
  S  S15  1  0.250000  0.555449  0.884664  1
  S  S16  1  0.250000  0.868576  0.044621  1
  S  S17  1  0.750000  0.131424  0.955379  1
  S  S18  1  0.750000  0.368576  0.455379  1
  S  S19  1  0.250000  0.631424  0.544621  1
