# generated using pymatgen
data_TbDy3TmIr2
_symmetry_space_group_name_H-M   'P 1'
_cell_length_a   6.48299156
_cell_length_b   7.19613717
_cell_length_c   8.51844218
_cell_angle_alpha   96.53645308
_cell_angle_beta   112.36631649
_cell_angle_gamma   90.00000275
_symmetry_Int_Tables_number   1
_chemical_formula_structural   TbDy3TmIr2
_chemical_formula_sum   'Tb2 Dy6 Tm2 Ir4'
_cell_volume   364.71466682
_cell_formula_units_Z   2
loop_
 _symmetry_equiv_pos_site_id
 _symmetry_equiv_pos_as_xyz
  1  'x, y, z'
loop_
 _atom_site_type_symbol
 _atom_site_label
 _atom_site_symmetry_multiplicity
 _atom_site_fract_x
 _atom_site_fract_y
 _atom_site_fract_z
 _atom_site_occupancy
  Tb  Tb0  1  0.971071  0.918745  0.181865  1
  Tb  Tb1  1  0.789205  0.581255  0.818135  1
  Dy  Dy2  1  0.029007  0.081442  0.818245  1
  Dy  Dy3  1  0.210763  0.418558  0.181755  1
  Dy  Dy4  1  0.652883  0.816680  0.439958  1
  Dy  Dy5  1  0.212925  0.683320  0.560042  1
  Dy  Dy6  1  0.347086  0.183336  0.560183  1
  Dy  Dy7  1  0.786903  0.316664  0.439817  1
  Tm  Tm8  1  0.429245  0.750000  0.000000  1
  Tm  Tm9  1  0.570435  0.250000  0.000000  1
  Ir  Ir10  1  0.821727  0.572158  0.217350  1
  Ir  Ir11  1  0.604377  0.927842  0.782650  1
  Ir  Ir12  1  0.178589  0.427300  0.782804  1
  Ir  Ir13  1  0.395784  0.072700  0.217196  1
