# generated using pymatgen
data_Dy16In4RuPt2Rh
_symmetry_space_group_name_H-M   'P 1'
_cell_length_a   9.70936906
_cell_length_b   9.67822446
_cell_length_c   9.68500391
_cell_angle_alpha   60.06256304
_cell_angle_beta   59.91674891
_cell_angle_gamma   59.89349572
_symmetry_Int_Tables_number   1
_chemical_formula_structural   Dy16In4RuPt2Rh
_chemical_formula_sum   'Dy16 In4 Ru1 Pt2 Rh1'
_cell_volume   642.91194524
_cell_formula_units_Z   1
loop_
 _symmetry_equiv_pos_site_id
 _symmetry_equiv_pos_as_xyz
  1  'x, y, z'
loop_
 _atom_site_type_symbol
 _atom_site_label
 _atom_site_symmetry_multiplicity
 _atom_site_fract_x
 _atom_site_fract_y
 _atom_site_fract_z
 _atom_site_occupancy
  Dy  Dy0  1  0.690876  0.309401  0.308847  1
  Dy  Dy1  1  0.687013  0.694124  0.309127  1
  Dy  Dy2  1  0.309736  0.694124  0.309127  1
  Dy  Dy3  1  0.939410  0.936813  0.561203  1
  Dy  Dy4  1  0.150244  0.144003  0.555510  1
  Dy  Dy5  1  0.562573  0.936813  0.561203  1
  Dy  Dy6  1  0.154776  0.150077  0.147968  1
  Dy  Dy7  1  0.309657  0.309605  0.695463  1
  Dy  Dy8  1  0.939412  0.560857  0.560320  1
  Dy  Dy9  1  0.561287  0.560319  0.935997  1
  Dy  Dy10  1  0.562023  0.939817  0.936137  1
  Dy  Dy11  1  0.942396  0.560319  0.935997  1
  Dy  Dy12  1  0.151571  0.553693  0.143165  1
  Dy  Dy13  1  0.310290  0.687570  0.691849  1
  Dy  Dy14  1  0.685274  0.309605  0.695463  1
  Dy  Dy15  1  0.547178  0.150077  0.147968  1
  In  In16  1  0.917187  0.917901  0.247724  1
  In  In17  1  0.249003  0.917032  0.917350  1
  In  In18  1  0.916808  0.248382  0.918003  1
  In  In19  1  0.916616  0.917032  0.917350  1
  Ru  Ru20  1  0.357186  0.359818  0.925810  1
  Pt  Pt21  1  0.355153  0.358098  0.359220  1
  Pt  Pt22  1  0.927530  0.358098  0.359220  1
  Rh  Rh23  1  0.356802  0.926421  0.359977  1
