# generated using pymatgen
data_Dy2TcB8Rh
_symmetry_space_group_name_H-M   'P 1'
_cell_length_a   3.58733900
_cell_length_b   5.96858264
_cell_length_c   11.56480726
_cell_angle_alpha   90.26224019
_cell_angle_beta   90.00000000
_cell_angle_gamma   90.00000000
_symmetry_Int_Tables_number   1
_chemical_formula_structural   Dy2TcB8Rh
_chemical_formula_sum   'Dy4 Tc2 B16 Rh2'
_cell_volume   247.61530273
_cell_formula_units_Z   2
loop_
 _symmetry_equiv_pos_site_id
 _symmetry_equiv_pos_as_xyz
  1  'x, y, z'
loop_
 _atom_site_type_symbol
 _atom_site_label
 _atom_site_symmetry_multiplicity
 _atom_site_fract_x
 _atom_site_fract_y
 _atom_site_fract_z
 _atom_site_occupancy
  Dy  Dy0  1  0.500000  0.371736  0.149089  1
  Dy  Dy1  1  0.500000  0.628264  0.850911  1
  Dy  Dy2  1  0.500000  0.128562  0.648969  1
  Dy  Dy3  1  0.500000  0.871438  0.351031  1
  Tc  Tc4  1  0.500000  0.365974  0.411294  1
  Tc  Tc5  1  0.500000  0.634026  0.588706  1
  B  B6  1  0.000000  0.112760  0.047462  1
  B  B7  1  0.000000  0.887240  0.952538  1
  B  B8  1  0.000000  0.387387  0.546486  1
  B  B9  1  0.000000  0.612613  0.453514  1
  B  B10  1  0.000000  0.135588  0.469165  1
  B  B11  1  0.000000  0.864412  0.530835  1
  B  B12  1  0.000000  0.363789  0.969046  1
  B  B13  1  0.000000  0.636211  0.030954  1
  B  B14  1  0.000000  0.023816  0.192742  1
  B  B15  1  0.000000  0.976184  0.807258  1
  B  B16  1  0.000000  0.475745  0.692158  1
  B  B17  1  0.000000  0.524255  0.307842  1
  B  B18  1  0.000000  0.212077  0.314285  1
  B  B19  1  0.000000  0.787923  0.685715  1
  B  B20  1  0.000000  0.289286  0.813910  1
  B  B21  1  0.000000  0.710714  0.186090  1
  Rh  Rh22  1  0.500000  0.140625  0.905806  1
  Rh  Rh23  1  0.500000  0.859375  0.094194  1
