# generated using pymatgen
data_Ho4Zn2(GaRu)3
_symmetry_space_group_name_H-M   'P 1'
_cell_length_a   5.31630877
_cell_length_b   5.38416840
_cell_length_c   8.89011100
_cell_angle_alpha   90.00000000
_cell_angle_beta   90.00000000
_cell_angle_gamma   120.42257873
_symmetry_Int_Tables_number   1
_chemical_formula_structural   Ho4Zn2(GaRu)3
_chemical_formula_sum   'Ho4 Zn2 Ga3 Ru3'
_cell_volume   219.43280089
_cell_formula_units_Z   1
loop_
 _symmetry_equiv_pos_site_id
 _symmetry_equiv_pos_as_xyz
  1  'x, y, z'
loop_
 _atom_site_type_symbol
 _atom_site_label
 _atom_site_symmetry_multiplicity
 _atom_site_fract_x
 _atom_site_fract_y
 _atom_site_fract_z
 _atom_site_occupancy
  Ho  Ho0  1  0.657977  0.328990  0.553700  1
  Ho  Ho1  1  0.341468  0.670743  0.441391  1
  Ho  Ho2  1  0.341468  0.670743  0.058609  1
  Ho  Ho3  1  0.657977  0.328990  0.946300  1
  Zn  Zn4  1  0.164197  0.328492  0.750000  1
  Zn  Zn5  1  0.164193  0.835685  0.750000  1
  Ga  Ga6  1  0.671586  0.835789  0.750000  1
  Ga  Ga7  1  0.838490  0.665869  0.250000  1
  Ga  Ga8  1  0.838503  0.172634  0.250000  1
  Ru  Ru9  1  0.990568  0.995280  0.498487  1
  Ru  Ru10  1  0.990568  0.995280  0.001513  1
  Ru  Ru11  1  0.343007  0.171506  0.250000  1
