# generated using pymatgen
data_Er2Nb3B4SbRu10
_symmetry_space_group_name_H-M   'P 1'
_cell_length_a   9.54064468
_cell_length_b   9.58808550
_cell_length_c   3.08980100
_cell_angle_alpha   90.00000000
_cell_angle_beta   90.00000000
_cell_angle_gamma   89.14319159
_symmetry_Int_Tables_number   1
_chemical_formula_structural   Er2Nb3B4SbRu10
_chemical_formula_sum   'Er2 Nb3 B4 Sb1 Ru10'
_cell_volume   282.61263061
_cell_formula_units_Z   1
loop_
 _symmetry_equiv_pos_site_id
 _symmetry_equiv_pos_as_xyz
  1  'x, y, z'
loop_
 _atom_site_type_symbol
 _atom_site_label
 _atom_site_symmetry_multiplicity
 _atom_site_fract_x
 _atom_site_fract_y
 _atom_site_fract_z
 _atom_site_occupancy
  Er  Er0  1  0.178121  0.174214  0.000000  1
  Er  Er1  1  0.821879  0.825786  0.000000  1
  Nb  Nb2  1  0.000000  0.500000  0.000000  1
  Nb  Nb3  1  0.677935  0.327761  0.000000  1
  Nb  Nb4  1  0.322065  0.672239  0.000000  1
  B  B5  1  0.380148  0.379728  0.000000  1
  B  B6  1  0.619852  0.620272  0.000000  1
  B  B7  1  0.879500  0.122158  0.000000  1
  B  B8  1  0.120500  0.877842  0.000000  1
  Sb  Sb9  1  0.500000  0.000000  0.000000  1
  Ru  Ru10  1  0.500000  0.500000  0.500000  1
  Ru  Ru11  1  0.000000  0.000000  0.500000  1
  Ru  Ru12  1  0.442194  0.226082  0.500000  1
  Ru  Ru13  1  0.557806  0.773918  0.500000  1
  Ru  Ru14  1  0.922132  0.285201  0.500000  1
  Ru  Ru15  1  0.077868  0.714799  0.500000  1
  Ru  Ru16  1  0.716360  0.086642  0.500000  1
  Ru  Ru17  1  0.283640  0.913358  0.500000  1
  Ru  Ru18  1  0.777286  0.561169  0.500000  1
  Ru  Ru19  1  0.222714  0.438831  0.500000  1
