# generated using pymatgen
data_Hf2UV3
_symmetry_space_group_name_H-M   'P 1'
_cell_length_a   5.38739867
_cell_length_b   5.18493681
_cell_length_c   5.38739856
_cell_angle_alpha   121.36674469
_cell_angle_beta   119.99729162
_cell_angle_gamma   89.94570189
_symmetry_Int_Tables_number   1
_chemical_formula_structural   Hf2UV3
_chemical_formula_sum   'Hf2 U1 V3'
_cell_volume   104.21746708
_cell_formula_units_Z   1
loop_
 _symmetry_equiv_pos_site_id
 _symmetry_equiv_pos_as_xyz
  1  'x, y, z'
loop_
 _atom_site_type_symbol
 _atom_site_label
 _atom_site_symmetry_multiplicity
 _atom_site_fract_x
 _atom_site_fract_y
 _atom_site_fract_z
 _atom_site_occupancy
  Hf  Hf0  1  0.875294  0.625794  0.250500  1
  Hf  Hf1  1  0.124706  0.374206  0.749500  1
  U  U2  1  0.500000  0.500000  0.500000  1
  V  V3  1  0.000000  0.000000  0.000000  1
  V  V4  1  0.500000  0.000000  0.500000  1
  V  V5  1  0.500000  0.000000  0.000000  1
