# generated using pymatgen
data_Y8VTc11Ge16
_symmetry_space_group_name_H-M   'P 1'
_cell_length_a   6.96826312
_cell_length_b   6.95944240
_cell_length_c   12.98476855
_cell_angle_alpha   89.67649831
_cell_angle_beta   89.74336668
_cell_angle_gamma   90.11091341
_symmetry_Int_Tables_number   1
_chemical_formula_structural   Y8VTc11Ge16
_chemical_formula_sum   'Y8 V1 Tc11 Ge16'
_cell_volume   629.68171903
_cell_formula_units_Z   1
loop_
 _symmetry_equiv_pos_site_id
 _symmetry_equiv_pos_as_xyz
  1  'x, y, z'
loop_
 _atom_site_type_symbol
 _atom_site_label
 _atom_site_symmetry_multiplicity
 _atom_site_fract_x
 _atom_site_fract_y
 _atom_site_fract_z
 _atom_site_occupancy
  Y  Y0  1  0.005452  0.662641  0.027486  1
  Y  Y1  1  0.834765  0.505338  0.276788  1
  Y  Y2  1  0.158451  0.491069  0.779078  1
  Y  Y3  1  0.505918  0.840143  0.722783  1
  Y  Y4  1  0.486674  0.161250  0.220467  1
  Y  Y5  1  0.989217  0.336822  0.530517  1
  Y  Y6  1  0.658157  0.009295  0.971140  1
  Y  Y7  1  0.336671  0.995395  0.472935  1
  V  V8  1  0.824156  0.993949  0.376316  1
  Tc  Tc9  1  0.336240  0.335441  0.999847  1
  Tc  Tc10  1  0.158268  0.839711  0.252859  1
  Tc  Tc11  1  0.835349  0.164247  0.750505  1
  Tc  Tc12  1  0.663758  0.667953  0.496827  1
  Tc  Tc13  1  0.974779  0.193750  0.132145  1
  Tc  Tc14  1  0.320702  0.485838  0.374255  1
  Tc  Tc15  1  0.694592  0.523204  0.880137  1
  Tc  Tc16  1  0.480769  0.310153  0.619016  1
  Tc  Tc17  1  0.511103  0.683813  0.123678  1
  Tc  Tc18  1  0.021462  0.817923  0.624341  1
  Tc  Tc19  1  0.195139  0.976701  0.868293  1
  Ge  Ge20  1  0.265569  0.985091  0.063930  1
  Ge  Ge21  1  0.519268  0.781832  0.315717  1
  Ge  Ge22  1  0.487028  0.233878  0.813241  1
  Ge  Ge23  1  0.769402  0.518353  0.685981  1
  Ge  Ge24  1  0.219658  0.482404  0.184530  1
  Ge  Ge25  1  0.725374  0.019478  0.567225  1
  Ge  Ge26  1  0.987025  0.266519  0.937703  1
  Ge  Ge27  1  0.030332  0.712874  0.433234  1
  Ge  Ge28  1  0.687672  0.389136  0.067162  1
  Ge  Ge29  1  0.109387  0.193048  0.320359  1
  Ge  Ge30  1  0.890376  0.813523  0.816604  1
  Ge  Ge31  1  0.190407  0.113809  0.682321  1
  Ge  Ge32  1  0.806156  0.890860  0.183325  1
  Ge  Ge33  1  0.312673  0.611078  0.565863  1
  Ge  Ge34  1  0.390436  0.687594  0.932618  1
  Ge  Ge35  1  0.617616  0.305885  0.430773  1
