# generated using pymatgen
data_Eu6Ag16N
_symmetry_space_group_name_H-M   'P 1'
_cell_length_a   8.70376152
_cell_length_b   8.70376137
_cell_length_c   8.70376100
_cell_angle_alpha   109.47122210
_cell_angle_beta   109.47122175
_cell_angle_gamma   109.47122316
_symmetry_Int_Tables_number   1
_chemical_formula_structural   Eu6Ag16N
_chemical_formula_sum   'Eu6 Ag16 N1'
_cell_volume   507.57356723
_cell_formula_units_Z   1
loop_
 _symmetry_equiv_pos_site_id
 _symmetry_equiv_pos_as_xyz
  1  'x, y, z'
loop_
 _atom_site_type_symbol
 _atom_site_label
 _atom_site_symmetry_multiplicity
 _atom_site_fract_x
 _atom_site_fract_y
 _atom_site_fract_z
 _atom_site_occupancy
  Eu  Eu0  1  0.000000  0.257510  0.257510  1
  Eu  Eu1  1  0.257510  0.000000  0.257510  1
  Eu  Eu2  1  0.742490  0.000000  0.742490  1
  Eu  Eu3  1  0.742490  0.742490  0.000000  1
  Eu  Eu4  1  0.257510  0.257510  0.000000  1
  Eu  Eu5  1  0.000000  0.742490  0.742490  1
  Ag  Ag6  1  0.500000  0.500000  0.500000  1
  Ag  Ag7  1  0.500000  0.000000  0.000000  1
  Ag  Ag8  1  0.000000  0.500000  0.000000  1
  Ag  Ag9  1  0.000000  0.000000  0.500000  1
  Ag  Ag10  1  0.690770  0.345386  0.345386  1
  Ag  Ag11  1  0.345386  0.000000  0.654614  1
  Ag  Ag12  1  0.345386  0.690770  0.345386  1
  Ag  Ag13  1  0.345386  0.345386  0.690770  1
  Ag  Ag14  1  0.345386  0.654614  0.000000  1
  Ag  Ag15  1  0.000000  0.345386  0.654614  1
  Ag  Ag16  1  0.000000  0.654614  0.345386  1
  Ag  Ag17  1  0.654614  0.654614  0.309230  1
  Ag  Ag18  1  0.654614  0.000000  0.345386  1
  Ag  Ag19  1  0.654614  0.345386  0.000000  1
  Ag  Ag20  1  0.654614  0.309230  0.654614  1
  Ag  Ag21  1  0.309230  0.654614  0.654614  1
  N  N22  1  0.000000  0.000000  0.000000  1
