# generated using pymatgen
data_Tb2YTm7Cd3Ru
_symmetry_space_group_name_H-M   'P 1'
_cell_length_a   9.52260300
_cell_length_b   9.52260320
_cell_length_c   9.74380700
_cell_angle_alpha   90.00000000
_cell_angle_beta   90.00000000
_cell_angle_gamma   120.00280118
_symmetry_Int_Tables_number   1
_chemical_formula_structural   Tb2YTm7Cd3Ru
_chemical_formula_sum   'Tb4 Y2 Tm14 Cd6 Ru2'
_cell_volume   765.17084239
_cell_formula_units_Z   2
loop_
 _symmetry_equiv_pos_site_id
 _symmetry_equiv_pos_as_xyz
  1  'x, y, z'
loop_
 _atom_site_type_symbol
 _atom_site_label
 _atom_site_symmetry_multiplicity
 _atom_site_fract_x
 _atom_site_fract_y
 _atom_site_fract_z
 _atom_site_occupancy
  Tb  Tb0  1  0.540365  0.459635  0.250000  1
  Tb  Tb1  1  0.540382  0.080767  0.250000  1
  Tb  Tb2  1  0.919233  0.459618  0.250000  1
  Tb  Tb3  1  0.459707  0.540293  0.750000  1
  Y  Y4  1  0.459594  0.919268  0.750000  1
  Y  Y5  1  0.080732  0.540406  0.750000  1
  Tm  Tm6  1  0.999999  0.000001  0.500082  1
  Tm  Tm7  1  0.999999  0.000001  0.999918  1
  Tm  Tm8  1  0.210023  0.789977  0.439902  1
  Tm  Tm9  1  0.210090  0.420131  0.440005  1
  Tm  Tm10  1  0.579869  0.789910  0.440005  1
  Tm  Tm11  1  0.789921  0.210079  0.560013  1
  Tm  Tm12  1  0.789882  0.579873  0.560066  1
  Tm  Tm13  1  0.420127  0.210118  0.560066  1
  Tm  Tm14  1  0.789921  0.210079  0.939987  1
  Tm  Tm15  1  0.789882  0.579873  0.939934  1
  Tm  Tm16  1  0.420127  0.210118  0.939934  1
  Tm  Tm17  1  0.210023  0.789977  0.060098  1
  Tm  Tm18  1  0.210090  0.420131  0.059995  1
  Tm  Tm19  1  0.579869  0.789910  0.059995  1
  Cd  Cd20  1  0.886162  0.113838  0.250000  1
  Cd  Cd21  1  0.886186  0.772259  0.250000  1
  Cd  Cd22  1  0.227741  0.113814  0.250000  1
  Cd  Cd23  1  0.113914  0.886086  0.750000  1
  Cd  Cd24  1  0.113931  0.227803  0.750000  1
  Cd  Cd25  1  0.772197  0.886069  0.750000  1
  Ru  Ru26  1  0.333384  0.666616  0.250000  1
  Ru  Ru27  1  0.666652  0.333348  0.750000  1
