# generated using pymatgen
data_DyEr5Al21Si3Os8
_symmetry_space_group_name_H-M   'P 1'
_cell_length_a   8.70956000
_cell_length_b   8.70861154
_cell_length_c   9.63671501
_cell_angle_alpha   90.00528619
_cell_angle_beta   90.00000000
_cell_angle_gamma   120.00360279
_symmetry_Int_Tables_number   1
_chemical_formula_structural   DyEr5Al21Si3Os8
_chemical_formula_sum   'Dy1 Er5 Al21 Si3 Os8'
_cell_volume   632.97857645
_cell_formula_units_Z   1
loop_
 _symmetry_equiv_pos_site_id
 _symmetry_equiv_pos_as_xyz
  1  'x, y, z'
loop_
 _atom_site_type_symbol
 _atom_site_label
 _atom_site_symmetry_multiplicity
 _atom_site_fract_x
 _atom_site_fract_y
 _atom_site_fract_z
 _atom_site_occupancy
  Dy  Dy0  1  0.195196  0.390392  0.247789  1
  Er  Er1  1  0.803615  0.607230  0.752544  1
  Er  Er2  1  0.608657  0.804451  0.247687  1
  Er  Er3  1  0.392775  0.196357  0.752538  1
  Er  Er4  1  0.195793  0.804451  0.247687  1
  Er  Er5  1  0.803582  0.196357  0.752538  1
  Al  Al6  1  0.333484  0.666968  0.475802  1
  Al  Al7  1  0.164190  0.328381  0.574818  1
  Al  Al8  1  0.835137  0.670274  0.423249  1
  Al  Al9  1  0.671587  0.835801  0.574700  1
  Al  Al10  1  0.834943  0.669885  0.076867  1
  Al  Al11  1  0.329779  0.164769  0.423299  1
  Al  Al12  1  0.165373  0.330745  0.922386  1
  Al  Al13  1  0.164213  0.835801  0.574700  1
  Al  Al14  1  0.330162  0.164946  0.076817  1
  Al  Al15  1  0.834991  0.164769  0.423299  1
  Al  Al16  1  0.669211  0.834616  0.922527  1
  Al  Al17  1  0.834784  0.164946  0.076817  1
  Al  Al18  1  0.165405  0.834616  0.922527  1
  Al  Al19  1  0.563340  0.126680  0.248852  1
  Al  Al20  1  0.436957  0.873912  0.748785  1
  Al  Al21  1  0.872962  0.436664  0.248853  1
  Al  Al22  1  0.126113  0.563060  0.748791  1
  Al  Al23  1  0.563701  0.436664  0.248853  1
  Al  Al24  1  0.436947  0.563060  0.748791  1
  Al  Al25  1  0.999881  0.999762  0.248979  1
  Al  Al26  1  0.000005  0.000009  0.749548  1
  Si  Si27  1  0.333586  0.667174  0.039725  1
  Si  Si28  1  0.666675  0.333349  0.961470  1
  Si  Si29  1  0.666662  0.333323  0.539488  1
  Os  Os30  1  0.500007  0.000014  0.998880  1
  Os  Os31  1  0.999931  0.500163  0.998735  1
  Os  Os32  1  0.504323  0.008646  0.501527  1
  Os  Os33  1  0.500232  0.500163  0.998735  1
  Os  Os34  1  0.991352  0.495880  0.501641  1
  Os  Os35  1  0.504529  0.495880  0.501641  1
  Os  Os36  1  0.999960  0.999919  0.998875  1
  Os  Os37  1  0.999961  0.999923  0.499241  1
