# generated using pymatgen
data_Tm5In4IrPt
_symmetry_space_group_name_H-M   'P 1'
_cell_length_a   3.58290400
_cell_length_b   8.06965114
_cell_length_c   18.06812729
_cell_angle_alpha   89.94864390
_cell_angle_beta   90.00000000
_cell_angle_gamma   90.00000000
_symmetry_Int_Tables_number   1
_chemical_formula_structural   Tm5In4IrPt
_chemical_formula_sum   'Tm10 In8 Ir2 Pt2'
_cell_volume   522.39967621
_cell_formula_units_Z   2
loop_
 _symmetry_equiv_pos_site_id
 _symmetry_equiv_pos_as_xyz
  1  'x, y, z'
loop_
 _atom_site_type_symbol
 _atom_site_label
 _atom_site_symmetry_multiplicity
 _atom_site_fract_x
 _atom_site_fract_y
 _atom_site_fract_z
 _atom_site_occupancy
  Tm  Tm0  1  0.000000  0.115952  0.412817  1
  Tm  Tm1  1  0.000000  0.884048  0.587183  1
  Tm  Tm2  1  0.000000  0.382717  0.913578  1
  Tm  Tm3  1  0.000000  0.617283  0.086422  1
  Tm  Tm4  1  0.000000  0.237898  0.221821  1
  Tm  Tm5  1  0.000000  0.762102  0.778179  1
  Tm  Tm6  1  0.000000  0.249852  0.720637  1
  Tm  Tm7  1  0.000000  0.750148  0.279363  1
  Tm  Tm8  1  0.000000  0.000000  0.000000  1
  Tm  Tm9  1  0.000000  0.500000  0.500000  1
  In  In10  1  0.500000  0.424200  0.351876  1
  In  In11  1  0.500000  0.575800  0.648124  1
  In  In12  1  0.500000  0.072653  0.851427  1
  In  In13  1  0.500000  0.927347  0.148573  1
  In  In14  1  0.500000  0.291987  0.066536  1
  In  In15  1  0.500000  0.708013  0.933464  1
  In  In16  1  0.500000  0.207107  0.567357  1
  In  In17  1  0.500000  0.792893  0.432643  1
  Ir  Ir18  1  0.500000  0.022513  0.303780  1
  Ir  Ir19  1  0.500000  0.977487  0.696220  1
  Pt  Pt20  1  0.500000  0.476895  0.803452  1
  Pt  Pt21  1  0.500000  0.523105  0.196548  1
