# generated using pymatgen
data_NdThTe4
_symmetry_space_group_name_H-M   'P 1'
_cell_length_a   8.20696500
_cell_length_b   8.20696603
_cell_length_c   8.20696530
_cell_angle_alpha   149.08042750
_cell_angle_beta   136.06882387
_cell_angle_gamma   54.68557089
_symmetry_Int_Tables_number   1
_chemical_formula_structural   NdThTe4
_chemical_formula_sum   'Nd1 Th1 Te4'
_cell_volume   195.83145623
_cell_formula_units_Z   1
loop_
 _symmetry_equiv_pos_site_id
 _symmetry_equiv_pos_as_xyz
  1  'x, y, z'
loop_
 _atom_site_type_symbol
 _atom_site_label
 _atom_site_symmetry_multiplicity
 _atom_site_fract_x
 _atom_site_fract_y
 _atom_site_fract_z
 _atom_site_occupancy
  Nd  Nd0  1  0.137526  0.137526  0.000000  1
  Th  Th1  1  0.861277  0.861277  0.000000  1
  Te  Te2  1  0.706555  0.206555  0.500000  1
  Te  Te3  1  0.297270  0.797270  0.500000  1
  Te  Te4  1  0.752513  0.498687  0.253827  1
  Te  Te5  1  0.244861  0.498687  0.746173  1
