# generated using pymatgen
data_Y3Ho5Si8Pd5Pt3
_symmetry_space_group_name_H-M   'P 1'
_cell_length_a   4.30754100
_cell_length_b   7.47479304
_cell_length_c   14.00898501
_cell_angle_alpha   90.02823057
_cell_angle_beta   90.00000000
_cell_angle_gamma   90.00000000
_symmetry_Int_Tables_number   1
_chemical_formula_structural   Y3Ho5Si8Pd5Pt3
_chemical_formula_sum   'Y3 Ho5 Si8 Pd5 Pt3'
_cell_volume   451.06092899
_cell_formula_units_Z   1
loop_
 _symmetry_equiv_pos_site_id
 _symmetry_equiv_pos_as_xyz
  1  'x, y, z'
loop_
 _atom_site_type_symbol
 _atom_site_label
 _atom_site_symmetry_multiplicity
 _atom_site_fract_x
 _atom_site_fract_y
 _atom_site_fract_z
 _atom_site_occupancy
  Y  Y0  1  0.500000  0.708722  0.999842  1
  Y  Y1  1  0.500000  0.702478  0.500251  1
  Y  Y2  1  0.000000  0.298561  0.000071  1
  Ho  Ho3  1  0.500000  0.793225  0.750067  1
  Ho  Ho4  1  0.000000  0.206841  0.750081  1
  Ho  Ho5  1  0.500000  0.791904  0.250456  1
  Ho  Ho6  1  0.000000  0.206797  0.250020  1
  Ho  Ho7  1  0.000000  0.291085  0.499984  1
  Si  Si8  1  0.500000  0.406666  0.643630  1
  Si  Si9  1  0.000000  0.593217  0.856072  1
  Si  Si10  1  0.500000  0.406830  0.356215  1
  Si  Si11  1  0.000000  0.591567  0.144782  1
  Si  Si12  1  0.500000  0.091818  0.093719  1
  Si  Si13  1  0.000000  0.910582  0.406905  1
  Si  Si14  1  0.500000  0.089188  0.908523  1
  Si  Si15  1  0.000000  0.910765  0.592761  1
  Pd  Pd16  1  0.000000  0.923407  0.107289  1
  Pd  Pd17  1  0.500000  0.421478  0.157030  1
  Pd  Pd18  1  0.000000  0.579209  0.342701  1
  Pd  Pd19  1  0.500000  0.420964  0.843039  1
  Pd  Pd20  1  0.000000  0.578534  0.657178  1
  Pt  Pt21  1  0.500000  0.075665  0.609165  1
  Pt  Pt22  1  0.000000  0.924834  0.889935  1
  Pt  Pt23  1  0.500000  0.075660  0.390281  1
