# generated using pymatgen
data_Ho12MgSi4Hg
_symmetry_space_group_name_H-M   'P 1'
_cell_length_a   8.40403659
_cell_length_b   8.40403560
_cell_length_c   8.40403700
_cell_angle_alpha   111.03895030
_cell_angle_beta   111.52831834
_cell_angle_gamma   105.90459865
_symmetry_Int_Tables_number   1
_chemical_formula_structural   Ho12MgSi4Hg
_chemical_formula_sum   'Ho12 Mg1 Si4 Hg1'
_cell_volume   455.59565253
_cell_formula_units_Z   1
loop_
 _symmetry_equiv_pos_site_id
 _symmetry_equiv_pos_as_xyz
  1  'x, y, z'
loop_
 _atom_site_type_symbol
 _atom_site_label
 _atom_site_symmetry_multiplicity
 _atom_site_fract_x
 _atom_site_fract_y
 _atom_site_fract_z
 _atom_site_occupancy
  Ho  Ho0  1  0.949424  0.249887  0.699543  1
  Ho  Ho1  1  0.050576  0.750113  0.300457  1
  Ho  Ho2  1  0.678956  0.882700  0.203743  1
  Ho  Ho3  1  0.321045  0.524786  0.203741  1
  Ho  Ho4  1  0.321044  0.117300  0.796257  1
  Ho  Ho5  1  0.678955  0.475214  0.796259  1
  Ho  Ho6  1  0.550345  0.249887  0.300462  1
  Ho  Ho7  1  0.449655  0.750113  0.699538  1
  Ho  Ho8  1  0.181090  0.773245  0.954331  1
  Ho  Ho9  1  0.818913  0.773245  0.592156  1
  Ho  Ho10  1  0.181087  0.226755  0.407844  1
  Ho  Ho11  1  0.818910  0.226755  0.045669  1
  Mg  Mg12  1  0.000000  0.500000  0.500000  1
  Si  Si13  1  0.117620  0.117619  0.999999  1
  Si  Si14  1  0.882380  0.882381  0.000001  1
  Si  Si15  1  0.647870  0.500000  0.147870  1
  Si  Si16  1  0.352130  0.500000  0.852130  1
  Hg  Hg17  1  0.500000  0.000000  0.500000  1
