# generated using pymatgen
data_Ti3Zn2CuO
_symmetry_space_group_name_H-M   'P 1'
_cell_length_a   8.07939806
_cell_length_b   8.07939750
_cell_length_c   8.07670900
_cell_angle_alpha   60.01101108
_cell_angle_beta   60.01101337
_cell_angle_gamma   59.97797461
_symmetry_Int_Tables_number   1
_chemical_formula_structural   Ti3Zn2CuO
_chemical_formula_sum   'Ti12 Zn8 Cu4 O4'
_cell_volume   372.80121533
_cell_formula_units_Z   4
loop_
 _symmetry_equiv_pos_site_id
 _symmetry_equiv_pos_as_xyz
  1  'x, y, z'
loop_
 _atom_site_type_symbol
 _atom_site_label
 _atom_site_symmetry_multiplicity
 _atom_site_fract_x
 _atom_site_fract_y
 _atom_site_fract_z
 _atom_site_occupancy
  Ti  Ti0  1  0.930549  0.570961  0.568752  1
  Ti  Ti1  1  0.681248  0.320262  0.679039  1
  Ti  Ti2  1  0.930549  0.570961  0.929738  1
  Ti  Ti3  1  0.570961  0.930549  0.929738  1
  Ti  Ti4  1  0.320262  0.681248  0.319451  1
  Ti  Ti5  1  0.570961  0.930549  0.568752  1
  Ti  Ti6  1  0.683519  0.683519  0.316481  1
  Ti  Ti7  1  0.933519  0.933519  0.566481  1
  Ti  Ti8  1  0.322652  0.322652  0.677348  1
  Ti  Ti9  1  0.681248  0.320262  0.319451  1
  Ti  Ti10  1  0.572652  0.572652  0.927348  1
  Ti  Ti11  1  0.320262  0.681248  0.679039  1
  Zn  Zn12  1  0.250986  0.915242  0.916886  1
  Zn  Zn13  1  0.333114  0.333114  0.334758  1
  Zn  Zn14  1  0.333114  0.333114  0.999014  1
  Zn  Zn15  1  0.915242  0.250986  0.916886  1
  Zn  Zn16  1  0.118246  0.626859  0.127448  1
  Zn  Zn17  1  0.122552  0.122552  0.623141  1
  Zn  Zn18  1  0.626859  0.118246  0.127448  1
  Zn  Zn19  1  0.122552  0.122552  0.131754  1
  Cu  Cu20  1  0.913778  0.913778  0.913843  1
  Cu  Cu21  1  0.991400  0.336157  0.336222  1
  Cu  Cu22  1  0.913778  0.913778  0.258600  1
  Cu  Cu23  1  0.336157  0.991400  0.336222  1
  O  O24  1  0.627627  0.124294  0.624040  1
  O  O25  1  0.625960  0.625960  0.125706  1
  O  O26  1  0.124294  0.627627  0.624040  1
  O  O27  1  0.625960  0.625960  0.622373  1
