# generated using pymatgen
data_Lu2Ti2ReSi4
_symmetry_space_group_name_H-M   'P 1'
_cell_length_a   6.87092300
_cell_length_b   6.87092300
_cell_length_c   12.65456500
_cell_angle_alpha   90.00000000
_cell_angle_beta   90.00000000
_cell_angle_gamma   90.00000000
_symmetry_Int_Tables_number   1
_chemical_formula_structural   Lu2Ti2ReSi4
_chemical_formula_sum   'Lu8 Ti8 Re4 Si16'
_cell_volume   597.41673508
_cell_formula_units_Z   4
loop_
 _symmetry_equiv_pos_site_id
 _symmetry_equiv_pos_as_xyz
  1  'x, y, z'
loop_
 _atom_site_type_symbol
 _atom_site_label
 _atom_site_symmetry_multiplicity
 _atom_site_fract_x
 _atom_site_fract_y
 _atom_site_fract_z
 _atom_site_occupancy
  Lu  Lu0  1  0.340683  0.000752  0.469076  1
  Lu  Lu1  1  0.499249  0.840683  0.719076  1
  Lu  Lu2  1  0.500751  0.159317  0.219076  1
  Lu  Lu3  1  0.840683  0.499249  0.280924  1
  Lu  Lu4  1  0.159317  0.500751  0.780924  1
  Lu  Lu5  1  0.659317  0.999249  0.969076  1
  Lu  Lu6  1  0.000752  0.340683  0.530924  1
  Lu  Lu7  1  0.999249  0.659317  0.030924  1
  Ti  Ti8  1  0.151796  0.004662  0.876003  1
  Ti  Ti9  1  0.495338  0.651796  0.126003  1
  Ti  Ti10  1  0.504662  0.348204  0.626003  1
  Ti  Ti11  1  0.651796  0.495338  0.873997  1
  Ti  Ti12  1  0.348204  0.504662  0.373997  1
  Ti  Ti13  1  0.848204  0.995338  0.376003  1
  Ti  Ti14  1  0.004662  0.151796  0.123997  1
  Ti  Ti15  1  0.995338  0.848204  0.623997  1
  Re  Re16  1  0.328237  0.328237  0.000000  1
  Re  Re17  1  0.171763  0.828237  0.250000  1
  Re  Re18  1  0.828237  0.171763  0.750000  1
  Re  Re19  1  0.671763  0.671763  0.500000  1
  Si  Si20  1  0.201266  0.131211  0.682311  1
  Si  Si21  1  0.368789  0.701266  0.932311  1
  Si  Si22  1  0.631211  0.298734  0.432311  1
  Si  Si23  1  0.701266  0.368789  0.067689  1
  Si  Si24  1  0.298734  0.631211  0.567689  1
  Si  Si25  1  0.798734  0.868789  0.182311  1
  Si  Si26  1  0.131211  0.201266  0.317689  1
  Si  Si27  1  0.868789  0.798734  0.817689  1
  Si  Si28  1  0.292841  0.952899  0.066438  1
  Si  Si29  1  0.547101  0.792841  0.316438  1
  Si  Si30  1  0.452899  0.207159  0.816438  1
  Si  Si31  1  0.792841  0.547101  0.683562  1
  Si  Si32  1  0.207159  0.452899  0.183562  1
  Si  Si33  1  0.707159  0.047101  0.566438  1
  Si  Si34  1  0.952899  0.292841  0.933562  1
  Si  Si35  1  0.047101  0.707159  0.433562  1
