# generated using pymatgen
data_SeF17
_symmetry_space_group_name_H-M   'P 1'
_cell_length_a   8.69641168
_cell_length_b   8.52446656
_cell_length_c   10.09840701
_cell_angle_alpha   80.43910645
_cell_angle_beta   86.91419081
_cell_angle_gamma   66.46133120
_symmetry_Int_Tables_number   1
_chemical_formula_structural   SeF17
_chemical_formula_sum   'Se2 F34'
_cell_volume   676.72787911
_cell_formula_units_Z   2
loop_
 _symmetry_equiv_pos_site_id
 _symmetry_equiv_pos_as_xyz
  1  'x, y, z'
loop_
 _atom_site_type_symbol
 _atom_site_label
 _atom_site_symmetry_multiplicity
 _atom_site_fract_x
 _atom_site_fract_y
 _atom_site_fract_z
 _atom_site_occupancy
  Se  Se0  1  0.133974  0.750191  0.242583  1
  Se  Se1  1  0.864895  0.247405  0.760442  1
  F  F2  1  0.621258  0.202465  0.472730  1
  F  F3  1  0.382412  0.791735  0.531330  1
  F  F4  1  0.826759  0.706700  0.716696  1
  F  F5  1  0.171077  0.296536  0.287268  1
  F  F6  1  0.099745  0.740101  0.865405  1
  F  F7  1  0.906389  0.255574  0.135228  1
  F  F8  1  0.560854  0.140707  0.372150  1
  F  F9  1  0.441406  0.861700  0.626959  1
  F  F10  1  0.659794  0.324451  0.700833  1
  F  F11  1  0.338092  0.674881  0.304015  1
  F  F12  1  0.923987  0.080670  0.665913  1
  F  F13  1  0.071890  0.917897  0.336351  1
  F  F14  1  0.911046  0.376405  0.626261  1
  F  F15  1  0.087054  0.621565  0.376520  1
  F  F16  1  0.857362  0.811995  0.602198  1
  F  F17  1  0.159266  0.172449  0.396123  1
  F  F18  1  0.806887  0.414788  0.854747  1
  F  F19  1  0.194817  0.581788  0.148970  1
  F  F20  1  0.216063  0.688101  0.760427  1
  F  F21  1  0.783300  0.314347  0.234541  1
  F  F22  1  0.931127  0.825012  0.179158  1
  F  F23  1  0.068912  0.170637  0.821839  1
  F  F24  1  0.817414  0.117818  0.893992  1
  F  F25  1  0.182340  0.879465  0.109316  1
  F  F26  1  0.494826  0.588849  0.989135  1
  F  F27  1  0.502621  0.416436  0.008515  1
  F  F28  1  0.443509  0.094491  0.864217  1
  F  F29  1  0.548218  0.915416  0.132510  1
  F  F30  1  0.286846  0.271195  0.596805  1
  F  F31  1  0.708466  0.731861  0.397965  1
  F  F32  1  0.260668  0.406175  0.673290  1
  F  F33  1  0.738568  0.596441  0.321092  1
  F  F34  1  0.560959  0.933613  0.831090  1
  F  F35  1  0.437200  0.080142  0.163386  1
