# generated using pymatgen
data_Ho2Tm3IrOs
_symmetry_space_group_name_H-M   'P 1'
_cell_length_a   6.37447956
_cell_length_b   7.28988234
_cell_length_c   8.34016338
_cell_angle_alpha   96.78006468
_cell_angle_beta   112.46725947
_cell_angle_gamma   89.99999826
_symmetry_Int_Tables_number   1
_chemical_formula_structural   Ho2Tm3IrOs
_chemical_formula_sum   'Ho4 Tm6 Ir2 Os2'
_cell_volume   355.20941918
_cell_formula_units_Z   2
loop_
 _symmetry_equiv_pos_site_id
 _symmetry_equiv_pos_as_xyz
  1  'x, y, z'
loop_
 _atom_site_type_symbol
 _atom_site_label
 _atom_site_symmetry_multiplicity
 _atom_site_fract_x
 _atom_site_fract_y
 _atom_site_fract_z
 _atom_site_occupancy
  Ho  Ho0  1  0.969196  0.916583  0.180245  1
  Ho  Ho1  1  0.788950  0.583417  0.819755  1
  Ho  Ho2  1  0.026350  0.081765  0.815474  1
  Ho  Ho3  1  0.210877  0.418235  0.184526  1
  Tm  Tm4  1  0.651913  0.817851  0.439856  1
  Tm  Tm5  1  0.212058  0.682149  0.560144  1
  Tm  Tm6  1  0.351218  0.178817  0.561928  1
  Tm  Tm7  1  0.789291  0.321183  0.438072  1
  Tm  Tm8  1  0.422991  0.750000  0.000000  1
  Tm  Tm9  1  0.578056  0.250000  0.000000  1
  Ir  Ir10  1  0.175195  0.423535  0.779445  1
  Ir  Ir11  1  0.395749  0.076465  0.220555  1
  Os  Os12  1  0.822949  0.574983  0.217740  1
  Os  Os13  1  0.605209  0.925017  0.782260  1
