# generated using pymatgen
data_Pr3Nd2ZrRuO12
_symmetry_space_group_name_H-M   'P 1'
_cell_length_a   7.17984882
_cell_length_b   7.17984849
_cell_length_c   7.67779340
_cell_angle_alpha   74.36108857
_cell_angle_beta   74.36109224
_cell_angle_gamma   50.69862533
_symmetry_Int_Tables_number   1
_chemical_formula_structural   Pr3Nd2ZrRuO12
_chemical_formula_sum   'Pr3 Nd2 Zr1 Ru1 O12'
_cell_volume   292.33020214
_cell_formula_units_Z   1
loop_
 _symmetry_equiv_pos_site_id
 _symmetry_equiv_pos_as_xyz
  1  'x, y, z'
loop_
 _atom_site_type_symbol
 _atom_site_label
 _atom_site_symmetry_multiplicity
 _atom_site_fract_x
 _atom_site_fract_y
 _atom_site_fract_z
 _atom_site_occupancy
  Pr  Pr0  1  0.686696  0.702112  0.167399  1
  Pr  Pr1  1  0.297888  0.313304  0.832601  1
  Pr  Pr2  1  0.005881  0.994119  0.500000  1
  Nd  Nd3  1  0.297879  0.306512  0.360303  1
  Nd  Nd4  1  0.693488  0.702121  0.639697  1
  Zr  Zr5  1  0.771259  0.228741  0.000000  1
  Ru  Ru6  1  0.256065  0.743935  0.000000  1
  O  O7  1  0.091333  0.598473  0.573177  1
  O  O8  1  0.022795  0.977439  0.182004  1
  O  O9  1  0.401527  0.908667  0.426823  1
  O  O10  1  0.492811  0.507524  0.180546  1
  O  O11  1  0.100398  0.583900  0.081714  1
  O  O12  1  0.902332  0.406469  0.423489  1
  O  O13  1  0.022561  0.977205  0.817996  1
  O  O14  1  0.593531  0.097667  0.576511  1
  O  O15  1  0.492476  0.507189  0.819454  1
  O  O16  1  0.561520  0.106542  0.082851  1
  O  O17  1  0.416100  0.899602  0.918286  1
  O  O18  1  0.893458  0.438480  0.917149  1
