# generated using pymatgen
data_CaNdB5Os3
_symmetry_space_group_name_H-M   'P 1'
_cell_length_a   5.70330866
_cell_length_b   5.67449447
_cell_length_c   8.13629655
_cell_angle_alpha   56.88889544
_cell_angle_beta   57.20162057
_cell_angle_gamma   41.88762945
_symmetry_Int_Tables_number   1
_chemical_formula_structural   CaNdB5Os3
_chemical_formula_sum   'Ca1 Nd1 B5 Os3'
_cell_volume   142.90491424
_cell_formula_units_Z   1
loop_
 _symmetry_equiv_pos_site_id
 _symmetry_equiv_pos_as_xyz
  1  'x, y, z'
loop_
 _atom_site_type_symbol
 _atom_site_label
 _atom_site_symmetry_multiplicity
 _atom_site_fract_x
 _atom_site_fract_y
 _atom_site_fract_z
 _atom_site_occupancy
  Ca  Ca0  1  0.069137  0.604036  0.261366  1
  Nd  Nd1  1  0.388379  0.934878  0.744482  1
  B  B2  1  0.733031  0.262831  0.004132  1
  B  B3  1  0.531551  0.516601  0.381089  1
  B  B4  1  0.483301  0.475232  0.616747  1
  B  B5  1  0.082678  0.624808  0.809516  1
  B  B6  1  0.375322  0.916561  0.187482  1
  Os  Os7  1  0.012794  0.986021  0.497217  1
  Os  Os8  1  0.614996  0.124353  0.900653  1
  Os  Os9  1  0.875082  0.388408  0.097315  1
