# generated using pymatgen
data_Pa8TiS17
_symmetry_space_group_name_H-M   'P 1'
_cell_length_a   7.86874889
_cell_length_b   7.86874867
_cell_length_c   10.43421483
_cell_angle_alpha   80.72409549
_cell_angle_beta   80.72409630
_cell_angle_gamma   65.22895864
_symmetry_Int_Tables_number   1
_chemical_formula_structural   Pa8TiS17
_chemical_formula_sum   'Pa8 Ti1 S17'
_cell_volume   575.77219750
_cell_formula_units_Z   1
loop_
 _symmetry_equiv_pos_site_id
 _symmetry_equiv_pos_as_xyz
  1  'x, y, z'
loop_
 _atom_site_type_symbol
 _atom_site_label
 _atom_site_symmetry_multiplicity
 _atom_site_fract_x
 _atom_site_fract_y
 _atom_site_fract_z
 _atom_site_occupancy
  Pa  Pa0  1  0.817272  0.299973  0.298103  1
  Pa  Pa1  1  0.299973  0.817272  0.298103  1
  Pa  Pa2  1  0.182728  0.700027  0.701897  1
  Pa  Pa3  1  0.700027  0.182728  0.701897  1
  Pa  Pa4  1  0.203638  0.203638  0.541239  1
  Pa  Pa5  1  0.796362  0.796362  0.458761  1
  Pa  Pa6  1  0.684891  0.684891  0.982909  1
  Pa  Pa7  1  0.315109  0.315109  0.017091  1
  Ti  Ti8  1  0.000000  0.000000  0.000000  1
  S  S9  1  0.821092  0.432754  0.534955  1
  S  S10  1  0.432754  0.821092  0.534955  1
  S  S11  1  0.178908  0.567246  0.465045  1
  S  S12  1  0.567246  0.178908  0.465045  1
  S  S13  1  0.938664  0.326314  0.028815  1
  S  S14  1  0.326314  0.938664  0.028815  1
  S  S15  1  0.061336  0.673686  0.971185  1
  S  S16  1  0.673686  0.061336  0.971185  1
  S  S17  1  0.211957  0.211957  0.275931  1
  S  S18  1  0.788043  0.788043  0.724069  1
  S  S19  1  0.061750  0.061750  0.770213  1
  S  S20  1  0.938250  0.938250  0.229787  1
  S  S21  1  0.302927  0.302927  0.754588  1
  S  S22  1  0.697073  0.697073  0.245412  1
  S  S23  1  0.521074  0.521074  0.832148  1
  S  S24  1  0.478926  0.478926  0.167852  1
  S  S25  1  0.000000  0.000000  0.500000  1
