# generated using pymatgen
data_TbTmMn2(Co4P3)2
_symmetry_space_group_name_H-M   'P 1'
_cell_length_a   3.64817900
_cell_length_b   10.30441000
_cell_length_c   11.79659700
_cell_angle_alpha   90.00000000
_cell_angle_beta   90.00000000
_cell_angle_gamma   90.00000000
_symmetry_Int_Tables_number   1
_chemical_formula_structural   TbTmMn2(Co4P3)2
_chemical_formula_sum   'Tb2 Tm2 Mn4 Co16 P12'
_cell_volume   443.46159289
_cell_formula_units_Z   2
loop_
 _symmetry_equiv_pos_site_id
 _symmetry_equiv_pos_as_xyz
  1  'x, y, z'
loop_
 _atom_site_type_symbol
 _atom_site_label
 _atom_site_symmetry_multiplicity
 _atom_site_fract_x
 _atom_site_fract_y
 _atom_site_fract_z
 _atom_site_occupancy
  Tb  Tb0  1  0.250000  0.582306  0.704305  1
  Tb  Tb1  1  0.250000  0.917694  0.204305  1
  Tm  Tm2  1  0.750000  0.417898  0.295709  1
  Tm  Tm3  1  0.750000  0.082102  0.795709  1
  Mn  Mn4  1  0.250000  0.710917  0.988346  1
  Mn  Mn5  1  0.250000  0.789083  0.488346  1
  Mn  Mn6  1  0.750000  0.289057  0.011396  1
  Mn  Mn7  1  0.750000  0.210943  0.511396  1
  Co  Co8  1  0.250000  0.406588  0.486973  1
  Co  Co9  1  0.250000  0.093412  0.986973  1
  Co  Co10  1  0.750000  0.592973  0.511160  1
  Co  Co11  1  0.750000  0.907027  0.011160  1
  Co  Co12  1  0.250000  0.221303  0.177199  1
  Co  Co13  1  0.250000  0.278697  0.677199  1
  Co  Co14  1  0.750000  0.779907  0.823041  1
  Co  Co15  1  0.750000  0.720093  0.323041  1
  Co  Co16  1  0.250000  0.884532  0.699031  1
  Co  Co17  1  0.250000  0.615468  0.199031  1
  Co  Co18  1  0.750000  0.117484  0.301725  1
  Co  Co19  1  0.750000  0.382516  0.801725  1
  Co  Co20  1  0.250000  0.465513  0.932882  1
  Co  Co21  1  0.250000  0.034487  0.432882  1
  Co  Co22  1  0.750000  0.533193  0.068142  1
  Co  Co23  1  0.750000  0.966807  0.568142  1
  P  P24  1  0.250000  0.418407  0.113347  1
  P  P25  1  0.250000  0.081593  0.613347  1
  P  P26  1  0.750000  0.581429  0.888250  1
  P  P27  1  0.750000  0.918571  0.388250  1
  P  P28  1  0.250000  0.268627  0.868130  1
  P  P29  1  0.250000  0.231373  0.368130  1
  P  P30  1  0.750000  0.729729  0.131132  1
  P  P31  1  0.750000  0.770271  0.631132  1
  P  P32  1  0.250000  0.599376  0.390485  1
  P  P33  1  0.250000  0.900624  0.890485  1
  P  P34  1  0.750000  0.399058  0.608745  1
  P  P35  1  0.750000  0.100942  0.108745  1
