# generated using pymatgen
data_La8AlZn7PtRh7
_symmetry_space_group_name_H-M   'P 1'
_cell_length_a   4.07611500
_cell_length_b   7.51603833
_cell_length_c   16.67472666
_cell_angle_alpha   89.67488601
_cell_angle_beta   90.00000000
_cell_angle_gamma   90.00000000
_symmetry_Int_Tables_number   1
_chemical_formula_structural   La8AlZn7PtRh7
_chemical_formula_sum   'La8 Al1 Zn7 Pt1 Rh7'
_cell_volume   510.84264679
_cell_formula_units_Z   1
loop_
 _symmetry_equiv_pos_site_id
 _symmetry_equiv_pos_as_xyz
  1  'x, y, z'
loop_
 _atom_site_type_symbol
 _atom_site_label
 _atom_site_symmetry_multiplicity
 _atom_site_fract_x
 _atom_site_fract_y
 _atom_site_fract_z
 _atom_site_occupancy
  La  La0  1  0.750000  0.327593  0.440758  1
  La  La1  1  0.250000  0.044599  0.714772  1
  La  La2  1  0.250000  0.553269  0.782890  1
  La  La3  1  0.250000  0.672943  0.559304  1
  La  La4  1  0.750000  0.822828  0.058873  1
  La  La5  1  0.250000  0.169803  0.942875  1
  La  La6  1  0.750000  0.456756  0.218992  1
  La  La7  1  0.750000  0.950755  0.284176  1
  Al  Al8  1  0.250000  0.128664  0.149860  1
  Zn  Zn9  1  0.250000  0.998893  0.440276  1
  Zn  Zn10  1  0.750000  0.871281  0.850503  1
  Zn  Zn11  1  0.750000  0.001552  0.559321  1
  Zn  Zn12  1  0.250000  0.496465  0.060313  1
  Zn  Zn13  1  0.750000  0.372794  0.648430  1
  Zn  Zn14  1  0.750000  0.500650  0.941176  1
  Zn  Zn15  1  0.250000  0.627762  0.352149  1
  Pt  Pt16  1  0.750000  0.254177  0.814123  1
  Rh  Rh17  1  0.250000  0.243929  0.307492  1
  Rh  Rh18  1  0.250000  0.739160  0.934349  1
  Rh  Rh19  1  0.250000  0.241472  0.564685  1
  Rh  Rh20  1  0.250000  0.762021  0.182660  1
  Rh  Rh21  1  0.750000  0.757540  0.435034  1
  Rh  Rh22  1  0.750000  0.252532  0.071639  1
  Rh  Rh23  1  0.750000  0.752562  0.685346  1
