# generated using pymatgen
data_Zr3(Cr2Re)2
_symmetry_space_group_name_H-M   'P 1'
_cell_length_a   5.15162834
_cell_length_b   5.18334892
_cell_length_c   12.59934583
_cell_angle_alpha   89.82773403
_cell_angle_beta   90.19719103
_cell_angle_gamma   120.40514434
_symmetry_Int_Tables_number   1
_chemical_formula_structural   Zr3(Cr2Re)2
_chemical_formula_sum   'Zr6 Cr8 Re4'
_cell_volume   290.16366794
_cell_formula_units_Z   2
loop_
 _symmetry_equiv_pos_site_id
 _symmetry_equiv_pos_as_xyz
  1  'x, y, z'
loop_
 _atom_site_type_symbol
 _atom_site_label
 _atom_site_symmetry_multiplicity
 _atom_site_fract_x
 _atom_site_fract_y
 _atom_site_fract_z
 _atom_site_occupancy
  Zr  Zr0  1  0.332040  0.664984  0.915520  1
  Zr  Zr1  1  0.999439  0.001662  0.251869  1
  Zr  Zr2  1  0.665909  0.333963  0.584016  1
  Zr  Zr3  1  0.334091  0.666037  0.665984  1
  Zr  Zr4  1  0.000561  0.998338  0.998130  1
  Zr  Zr5  1  0.667960  0.335016  0.334480  1
  Cr  Cr6  1  0.166379  0.333786  0.458741  1
  Cr  Cr7  1  0.833621  0.666214  0.791259  1
  Cr  Cr8  1  0.331268  0.662847  0.295865  1
  Cr  Cr9  1  0.000000  0.000000  0.625000  1
  Cr  Cr10  1  0.668732  0.337153  0.954135  1
  Cr  Cr11  1  0.000000  0.500000  0.125000  1
  Cr  Cr12  1  0.666785  0.834184  0.459176  1
  Cr  Cr13  1  0.333215  0.165816  0.790824  1
  Re  Re14  1  0.500000  0.500000  0.125000  1
  Re  Re15  1  0.166191  0.834678  0.459663  1
  Re  Re16  1  0.833809  0.165322  0.790337  1
  Re  Re17  1  0.500000  0.000000  0.125000  1
