# generated using pymatgen
data_Hf18CrFe2Re6Mo
_symmetry_space_group_name_H-M   'P 1'
_cell_length_a   8.43308805
_cell_length_b   8.58383998
_cell_length_c   8.58476302
_cell_angle_alpha   119.99544085
_cell_angle_beta   89.99621331
_cell_angle_gamma   90.01157228
_symmetry_Int_Tables_number   1
_chemical_formula_structural   Hf18CrFe2Re6Mo
_chemical_formula_sum   'Hf18 Cr1 Fe2 Re6 Mo1'
_cell_volume   538.20426068
_cell_formula_units_Z   1
loop_
 _symmetry_equiv_pos_site_id
 _symmetry_equiv_pos_as_xyz
  1  'x, y, z'
loop_
 _atom_site_type_symbol
 _atom_site_label
 _atom_site_symmetry_multiplicity
 _atom_site_fract_x
 _atom_site_fract_y
 _atom_site_fract_z
 _atom_site_occupancy
  Hf  Hf0  1  0.558759  0.801022  0.602075  1
  Hf  Hf1  1  0.558859  0.800975  0.198994  1
  Hf  Hf2  1  0.558702  0.397847  0.198920  1
  Hf  Hf3  1  0.441241  0.198978  0.397925  1
  Hf  Hf4  1  0.441141  0.199025  0.801006  1
  Hf  Hf5  1  0.441298  0.602153  0.801080  1
  Hf  Hf6  1  0.059035  0.201119  0.402216  1
  Hf  Hf7  1  0.059179  0.201164  0.798859  1
  Hf  Hf8  1  0.058993  0.597830  0.798918  1
  Hf  Hf9  1  0.940965  0.798881  0.597784  1
  Hf  Hf10  1  0.940821  0.798836  0.201141  1
  Hf  Hf11  1  0.941007  0.402170  0.201082  1
  Hf  Hf12  1  0.748803  0.459099  0.918337  1
  Hf  Hf13  1  0.748804  0.459168  0.540768  1
  Hf  Hf14  1  0.748804  0.081664  0.540866  1
  Hf  Hf15  1  0.251197  0.540900  0.081663  1
  Hf  Hf16  1  0.251196  0.540832  0.459232  1
  Hf  Hf17  1  0.251196  0.918336  0.459133  1
  Cr  Cr18  1  0.500000  0.000000  0.000000  1
  Fe  Fe19  1  0.749464  0.666277  0.333475  1
  Fe  Fe20  1  0.250536  0.333723  0.666525  1
  Re  Re21  1  0.745951  0.110406  0.220857  1
  Re  Re22  1  0.745983  0.110414  0.889575  1
  Re  Re23  1  0.745951  0.778979  0.889514  1
  Re  Re24  1  0.254049  0.889594  0.779143  1
  Re  Re25  1  0.254017  0.889586  0.110425  1
  Re  Re26  1  0.254049  0.221021  0.110486  1
  Mo  Mo27  1  0.000000  0.000000  0.000000  1
