# generated using pymatgen
data_Yb6B(PO4)5
_symmetry_space_group_name_H-M   'P 1'
_cell_length_a   6.73119700
_cell_length_b   6.73119700
_cell_length_c   8.96993700
_cell_angle_alpha   90.00000000
_cell_angle_beta   90.00000000
_cell_angle_gamma   90.00000000
_symmetry_Int_Tables_number   1
_chemical_formula_structural   Yb6B(PO4)5
_chemical_formula_sum   'Yb6 B1 P5 O20'
_cell_volume   406.41899262
_cell_formula_units_Z   1
loop_
 _symmetry_equiv_pos_site_id
 _symmetry_equiv_pos_as_xyz
  1  'x, y, z'
loop_
 _atom_site_type_symbol
 _atom_site_label
 _atom_site_symmetry_multiplicity
 _atom_site_fract_x
 _atom_site_fract_y
 _atom_site_fract_z
 _atom_site_occupancy
  Yb  Yb0  1  0.864070  0.761560  0.655117  1
  Yb  Yb1  1  0.135930  0.238440  0.655117  1
  Yb  Yb2  1  0.238440  0.864070  0.344883  1
  Yb  Yb3  1  0.761560  0.135930  0.344883  1
  Yb  Yb4  1  0.000000  0.500000  0.964512  1
  Yb  Yb5  1  0.500000  0.000000  0.035488  1
  B  B6  1  0.500000  0.500000  0.500000  1
  P  P7  1  0.000000  0.000000  0.000000  1
  P  P8  1  0.741417  0.674830  0.294983  1
  P  P9  1  0.258583  0.325170  0.294983  1
  P  P10  1  0.325170  0.741417  0.705017  1
  P  P11  1  0.674830  0.258583  0.705017  1
  O  O12  1  0.902081  0.795290  0.383046  1
  O  O13  1  0.097919  0.204710  0.383046  1
  O  O14  1  0.204710  0.902081  0.616954  1
  O  O15  1  0.795290  0.097919  0.616954  1
  O  O16  1  0.682188  0.497127  0.409096  1
  O  O17  1  0.317812  0.502873  0.409096  1
  O  O18  1  0.502873  0.682188  0.590904  1
  O  O19  1  0.497127  0.317812  0.590904  1
  O  O20  1  0.830332  0.082077  0.100782  1
  O  O21  1  0.169668  0.917923  0.100782  1
  O  O22  1  0.917923  0.830332  0.899218  1
  O  O23  1  0.082077  0.169668  0.899218  1
  O  O24  1  0.818393  0.435319  0.725950  1
  O  O25  1  0.181607  0.564681  0.725950  1
  O  O26  1  0.564681  0.818393  0.274050  1
  O  O27  1  0.435319  0.181607  0.274050  1
  O  O28  1  0.804197  0.571887  0.154952  1
  O  O29  1  0.195803  0.428113  0.154952  1
  O  O30  1  0.428113  0.804197  0.845048  1
  O  O31  1  0.571887  0.195803  0.845048  1
