# generated using pymatgen
data_Tb8Al(Pd5Pt3)3
_symmetry_space_group_name_H-M   'P 1'
_cell_length_a   8.35523900
_cell_length_b   8.35568500
_cell_length_c   8.36525600
_cell_angle_alpha   90.00000000
_cell_angle_beta   90.00000000
_cell_angle_gamma   90.00000000
_symmetry_Int_Tables_number   1
_chemical_formula_structural   Tb8Al(Pd5Pt3)3
_chemical_formula_sum   'Tb8 Al1 Pd15 Pt9'
_cell_volume   584.00985078
_cell_formula_units_Z   1
loop_
 _symmetry_equiv_pos_site_id
 _symmetry_equiv_pos_as_xyz
  1  'x, y, z'
loop_
 _atom_site_type_symbol
 _atom_site_label
 _atom_site_symmetry_multiplicity
 _atom_site_fract_x
 _atom_site_fract_y
 _atom_site_fract_z
 _atom_site_occupancy
  Tb  Tb0  1  0.251049  0.251414  0.251056  1
  Tb  Tb1  1  0.749247  0.748521  0.748564  1
  Tb  Tb2  1  0.749247  0.748521  0.251436  1
  Tb  Tb3  1  0.748951  0.251414  0.748944  1
  Tb  Tb4  1  0.251049  0.251414  0.748944  1
  Tb  Tb5  1  0.250753  0.748521  0.251436  1
  Tb  Tb6  1  0.250753  0.748521  0.748564  1
  Tb  Tb7  1  0.748951  0.251414  0.251056  1
  Al  Al8  1  0.000000  0.000504  0.000000  1
  Pd  Pd9  1  0.500000  0.739215  0.000000  1
  Pd  Pd10  1  0.500000  0.999919  0.261942  1
  Pd  Pd11  1  0.260912  0.999953  0.500000  1
  Pd  Pd12  1  0.500000  0.999919  0.738058  1
  Pd  Pd13  1  0.739088  0.999953  0.500000  1
  Pd  Pd14  1  0.000000  0.499987  0.261772  1
  Pd  Pd15  1  0.000000  0.499987  0.738228  1
  Pd  Pd16  1  0.253512  0.500079  0.500000  1
  Pd  Pd17  1  0.746488  0.500079  0.500000  1
  Pd  Pd18  1  0.500000  0.253362  0.500000  1
  Pd  Pd19  1  0.500000  0.746549  0.500000  1
  Pd  Pd20  1  0.500000  0.500059  0.254053  1
  Pd  Pd21  1  0.500000  0.500059  0.745947  1
  Pd  Pd22  1  0.000000  0.000125  0.292629  1
  Pd  Pd23  1  0.000000  0.000125  0.707371  1
  Pt  Pt24  1  0.260912  0.499873  0.000000  1
  Pt  Pt25  1  0.739088  0.499873  0.000000  1
  Pt  Pt26  1  0.000000  0.260638  0.500000  1
  Pt  Pt27  1  0.500000  0.260444  0.000000  1
  Pt  Pt28  1  0.000000  0.739505  0.500000  1
  Pt  Pt29  1  0.291003  0.999877  0.000000  1
  Pt  Pt30  1  0.708997  0.999877  0.000000  1
  Pt  Pt31  1  0.000000  0.291029  0.000000  1
  Pt  Pt32  1  0.000000  0.709270  0.000000  1
