# generated using pymatgen
data_Mn4Fe2AsP2
_symmetry_space_group_name_H-M   'P 1'
_cell_length_a   6.19679586
_cell_length_b   6.21497310
_cell_length_c   3.26827500
_cell_angle_alpha   90.00000000
_cell_angle_beta   90.00000000
_cell_angle_gamma   120.11743195
_symmetry_Int_Tables_number   1
_chemical_formula_structural   Mn4Fe2AsP2
_chemical_formula_sum   'Mn4 Fe2 As1 P2'
_cell_volume   108.87810137
_cell_formula_units_Z   1
loop_
 _symmetry_equiv_pos_site_id
 _symmetry_equiv_pos_as_xyz
  1  'x, y, z'
loop_
 _atom_site_type_symbol
 _atom_site_label
 _atom_site_symmetry_multiplicity
 _atom_site_fract_x
 _atom_site_fract_y
 _atom_site_fract_z
 _atom_site_occupancy
  Mn  Mn0  1  0.611011  0.592076  0.500000  1
  Mn  Mn1  1  0.993073  0.743303  0.000000  1
  Mn  Mn2  1  0.407724  0.019527  0.500000  1
  Mn  Mn3  1  0.980535  0.386775  0.500000  1
  Fe  Fe4  1  0.257312  0.250715  0.000000  1
  Fe  Fe5  1  0.750089  0.008194  0.000000  1
  As  As6  1  0.333801  0.666791  0.000000  1
  P  P7  1  0.999618  0.999158  0.500000  1
  P  P8  1  0.666836  0.333461  0.000000  1
