# generated using pymatgen
data_CuOs3Pb4O13
_symmetry_space_group_name_H-M   'P 1'
_cell_length_a   7.36588199
_cell_length_b   7.36588081
_cell_length_c   7.36588002
_cell_angle_alpha   60.51949441
_cell_angle_beta   60.51950187
_cell_angle_gamma   60.51949339
_symmetry_Int_Tables_number   1
_chemical_formula_structural   CuOs3Pb4O13
_chemical_formula_sum   'Cu1 Os3 Pb4 O13'
_cell_volume   285.90885617
_cell_formula_units_Z   1
loop_
 _symmetry_equiv_pos_site_id
 _symmetry_equiv_pos_as_xyz
  1  'x, y, z'
loop_
 _atom_site_type_symbol
 _atom_site_label
 _atom_site_symmetry_multiplicity
 _atom_site_fract_x
 _atom_site_fract_y
 _atom_site_fract_z
 _atom_site_occupancy
  Cu  Cu0  1  0.497534  0.497534  0.497534  1
  Os  Os1  1  0.000569  0.500709  0.500709  1
  Os  Os2  1  0.500709  0.500709  0.000569  1
  Os  Os3  1  0.500709  0.000569  0.500709  1
  Pb  Pb4  1  0.996634  0.996634  0.996634  1
  Pb  Pb5  1  0.504333  0.002682  0.002682  1
  Pb  Pb6  1  0.002682  0.002682  0.504333  1
  Pb  Pb7  1  0.002682  0.504333  0.002682  1
  O  O8  1  0.851482  0.416235  0.416235  1
  O  O9  1  0.416726  0.814405  0.814405  1
  O  O10  1  0.416235  0.416235  0.851482  1
  O  O11  1  0.814405  0.814405  0.416726  1
  O  O12  1  0.814405  0.416726  0.814405  1
  O  O13  1  0.416235  0.851482  0.416235  1
  O  O14  1  0.157939  0.577335  0.577335  1
  O  O15  1  0.583290  0.185238  0.185238  1
  O  O16  1  0.577335  0.577335  0.157939  1
  O  O17  1  0.185238  0.185238  0.583290  1
  O  O18  1  0.185238  0.583290  0.185238  1
  O  O19  1  0.577335  0.157939  0.577335  1
  O  O20  1  0.123282  0.123282  0.123282  1
