# generated using pymatgen
data_Y9LuCd3Tc
_symmetry_space_group_name_H-M   'P 1'
_cell_length_a   9.55242507
_cell_length_b   9.55193632
_cell_length_c   9.98034600
_cell_angle_alpha   90.00000000
_cell_angle_beta   90.00000000
_cell_angle_gamma   120.01514449
_symmetry_Int_Tables_number   1
_chemical_formula_structural   Y9LuCd3Tc
_chemical_formula_sum   'Y18 Lu2 Cd6 Tc2'
_cell_volume   788.52413607
_cell_formula_units_Z   2
loop_
 _symmetry_equiv_pos_site_id
 _symmetry_equiv_pos_as_xyz
  1  'x, y, z'
loop_
 _atom_site_type_symbol
 _atom_site_label
 _atom_site_symmetry_multiplicity
 _atom_site_fract_x
 _atom_site_fract_y
 _atom_site_fract_z
 _atom_site_occupancy
  Y  Y0  1  0.540005  0.459999  0.250000  1
  Y  Y1  1  0.539995  0.080026  0.250000  1
  Y  Y2  1  0.919978  0.460008  0.250000  1
  Y  Y3  1  0.459995  0.540001  0.750000  1
  Y  Y4  1  0.460005  0.919974  0.750000  1
  Y  Y5  1  0.080022  0.539992  0.750000  1
  Y  Y6  1  0.209255  0.790748  0.441076  1
  Y  Y7  1  0.209225  0.418451  0.441092  1
  Y  Y8  1  0.581561  0.790783  0.441090  1
  Y  Y9  1  0.790745  0.209252  0.558924  1
  Y  Y10  1  0.790775  0.581549  0.558908  1
  Y  Y11  1  0.418439  0.209217  0.558910  1
  Y  Y12  1  0.790745  0.209252  0.941076  1
  Y  Y13  1  0.790775  0.581549  0.941092  1
  Y  Y14  1  0.418439  0.209217  0.941090  1
  Y  Y15  1  0.209255  0.790748  0.058924  1
  Y  Y16  1  0.209225  0.418451  0.058908  1
  Y  Y17  1  0.581561  0.790783  0.058910  1
  Lu  Lu18  1  0.000000  0.000000  0.500000  1
  Lu  Lu19  1  0.000000  0.000000  0.000000  1
  Cd  Cd20  1  0.887175  0.112823  0.250000  1
  Cd  Cd21  1  0.887194  0.774367  0.250000  1
  Cd  Cd22  1  0.225640  0.112806  0.250000  1
  Cd  Cd23  1  0.112825  0.887177  0.750000  1
  Cd  Cd24  1  0.112806  0.225633  0.750000  1
  Cd  Cd25  1  0.774360  0.887194  0.750000  1
  Tc  Tc26  1  0.333331  0.666633  0.250000  1
  Tc  Tc27  1  0.666669  0.333367  0.750000  1
