# generated using pymatgen
data_Ce2CdPdRu
_symmetry_space_group_name_H-M   'P 1'
_cell_length_a   7.76169900
_cell_length_b   7.68492500
_cell_length_c   3.74633000
_cell_angle_alpha   90.00000000
_cell_angle_beta   90.00000000
_cell_angle_gamma   90.00000000
_symmetry_Int_Tables_number   1
_chemical_formula_structural   Ce2CdPdRu
_chemical_formula_sum   'Ce4 Cd2 Pd2 Ru2'
_cell_volume   223.46137164
_cell_formula_units_Z   2
loop_
 _symmetry_equiv_pos_site_id
 _symmetry_equiv_pos_as_xyz
  1  'x, y, z'
loop_
 _atom_site_type_symbol
 _atom_site_label
 _atom_site_symmetry_multiplicity
 _atom_site_fract_x
 _atom_site_fract_y
 _atom_site_fract_z
 _atom_site_occupancy
  Ce  Ce0  1  0.333090  0.851390  0.500000  1
  Ce  Ce1  1  0.833090  0.648610  0.500000  1
  Ce  Ce2  1  0.175608  0.313721  0.500000  1
  Ce  Ce3  1  0.675608  0.186279  0.500000  1
  Cd  Cd4  1  0.996520  0.994188  0.000000  1
  Cd  Cd5  1  0.496520  0.505812  0.000000  1
  Pd  Pd6  1  0.138092  0.629741  0.000000  1
  Pd  Pd7  1  0.638092  0.870259  0.000000  1
  Ru  Ru8  1  0.356691  0.136027  0.000000  1
  Ru  Ru9  1  0.856691  0.363973  0.000000  1
