# generated using pymatgen
data_La3(ZnNi2)2
_symmetry_space_group_name_H-M   'P 1'
_cell_length_a   5.39462944
_cell_length_b   5.39462856
_cell_length_c   8.38827824
_cell_angle_alpha   82.35817806
_cell_angle_beta   82.35817714
_cell_angle_gamma   46.77269221
_symmetry_Int_Tables_number   1
_chemical_formula_structural   La3(ZnNi2)2
_chemical_formula_sum   'La3 Zn2 Ni4'
_cell_volume   175.99638477
_cell_formula_units_Z   1
loop_
 _symmetry_equiv_pos_site_id
 _symmetry_equiv_pos_as_xyz
  1  'x, y, z'
loop_
 _atom_site_type_symbol
 _atom_site_label
 _atom_site_symmetry_multiplicity
 _atom_site_fract_x
 _atom_site_fract_y
 _atom_site_fract_z
 _atom_site_occupancy
  La  La0  1  0.374634  0.374634  0.380598  1
  La  La1  1  0.000000  0.000000  0.000000  1
  La  La2  1  0.625366  0.625366  0.619402  1
  Zn  Zn3  1  0.319399  0.319399  0.785112  1
  Zn  Zn4  1  0.680601  0.680601  0.214888  1
  Ni  Ni5  1  0.739831  0.739831  0.913765  1
  Ni  Ni6  1  0.083822  0.083822  0.361720  1
  Ni  Ni7  1  0.916178  0.916178  0.638280  1
  Ni  Ni8  1  0.260169  0.260169  0.086235  1
