# generated using pymatgen
data_Sr3V2Pb(ClO4)2
_symmetry_space_group_name_H-M   'P 1'
_cell_length_a   6.67016898
_cell_length_b   7.59633412
_cell_length_c   11.68425100
_cell_angle_alpha   90.00000000
_cell_angle_beta   90.00000000
_cell_angle_gamma   90.06210420
_symmetry_Int_Tables_number   1
_chemical_formula_structural   Sr3V2Pb(ClO4)2
_chemical_formula_sum   'Sr6 V4 Pb2 Cl4 O16'
_cell_volume   592.02700524
_cell_formula_units_Z   2
loop_
 _symmetry_equiv_pos_site_id
 _symmetry_equiv_pos_as_xyz
  1  'x, y, z'
loop_
 _atom_site_type_symbol
 _atom_site_label
 _atom_site_symmetry_multiplicity
 _atom_site_fract_x
 _atom_site_fract_y
 _atom_site_fract_z
 _atom_site_occupancy
  Sr  Sr0  1  0.862542  0.531953  0.750000  1
  Sr  Sr1  1  0.375005  0.750205  0.499909  1
  Sr  Sr2  1  0.137458  0.468047  0.250000  1
  Sr  Sr3  1  0.375005  0.750205  0.000091  1
  Sr  Sr4  1  0.624995  0.249795  0.500091  1
  Sr  Sr5  1  0.624995  0.249795  0.999909  1
  V  V6  1  0.128552  0.250392  0.000191  1
  V  V7  1  0.128552  0.250392  0.499809  1
  V  V8  1  0.871448  0.749608  0.500191  1
  V  V9  1  0.871448  0.749608  0.999809  1
  Pb  Pb10  1  0.140364  0.027287  0.750000  1
  Pb  Pb11  1  0.859636  0.972713  0.250000  1
  Cl  Cl12  1  0.494791  0.195297  0.250000  1
  Cl  Cl13  1  0.503523  0.692914  0.250000  1
  Cl  Cl14  1  0.505209  0.804703  0.750000  1
  Cl  Cl15  1  0.496477  0.307086  0.750000  1
  O  O16  1  0.285802  0.072719  0.972003  1
  O  O17  1  0.286052  0.427203  0.029488  1
  O  O18  1  0.027603  0.772283  0.620068  1
  O  O19  1  0.972397  0.227717  0.120068  1
  O  O20  1  0.714198  0.927281  0.027997  1
  O  O21  1  0.029111  0.723430  0.117900  1
  O  O22  1  0.713948  0.572797  0.529488  1
  O  O23  1  0.970889  0.276570  0.882100  1
  O  O24  1  0.970889  0.276570  0.617900  1
  O  O25  1  0.713948  0.572797  0.970512  1
  O  O26  1  0.027603  0.772283  0.879932  1
  O  O27  1  0.029111  0.723430  0.382100  1
  O  O28  1  0.972397  0.227717  0.379932  1
  O  O29  1  0.285802  0.072719  0.527997  1
  O  O30  1  0.714198  0.927281  0.472003  1
  O  O31  1  0.286052  0.427203  0.470512  1
