# generated using pymatgen
data_Ca(Ac4Rh3)2
_symmetry_space_group_name_H-M   'P 1'
_cell_length_a   8.02348989
_cell_length_b   8.02348877
_cell_length_c   8.02348878
_cell_angle_alpha   70.46734010
_cell_angle_beta   70.46733510
_cell_angle_gamma   70.46733655
_symmetry_Int_Tables_number   1
_chemical_formula_structural   Ca(Ac4Rh3)2
_chemical_formula_sum   'Ca1 Ac8 Rh6'
_cell_volume   444.14743712
_cell_formula_units_Z   1
loop_
 _symmetry_equiv_pos_site_id
 _symmetry_equiv_pos_as_xyz
  1  'x, y, z'
loop_
 _atom_site_type_symbol
 _atom_site_label
 _atom_site_symmetry_multiplicity
 _atom_site_fract_x
 _atom_site_fract_y
 _atom_site_fract_z
 _atom_site_occupancy
  Ca  Ca0  1  0.000000  0.000000  0.000000  1
  Ac  Ac1  1  0.803771  0.803771  0.803771  1
  Ac  Ac2  1  0.196229  0.196229  0.196229  1
  Ac  Ac3  1  0.324544  0.613869  0.845868  1
  Ac  Ac4  1  0.845868  0.324544  0.613869  1
  Ac  Ac5  1  0.613869  0.845868  0.324544  1
  Ac  Ac6  1  0.675456  0.386131  0.154132  1
  Ac  Ac7  1  0.154132  0.675456  0.386131  1
  Ac  Ac8  1  0.386131  0.154132  0.675456  1
  Rh  Rh9  1  0.174712  0.951913  0.584716  1
  Rh  Rh10  1  0.584716  0.174712  0.951913  1
  Rh  Rh11  1  0.951913  0.584716  0.174712  1
  Rh  Rh12  1  0.825288  0.048087  0.415284  1
  Rh  Rh13  1  0.415284  0.825288  0.048087  1
  Rh  Rh14  1  0.048087  0.415284  0.825288  1
