# generated using pymatgen
data_SrPrFePtO6
_symmetry_space_group_name_H-M   'P 1'
_cell_length_a   5.67292800
_cell_length_b   5.61598080
_cell_length_c   9.71714846
_cell_angle_alpha   54.72114176
_cell_angle_beta   90.00000000
_cell_angle_gamma   90.00000000
_symmetry_Int_Tables_number   1
_chemical_formula_structural   SrPrFePtO6
_chemical_formula_sum   'Sr2 Pr2 Fe2 Pt2 O12'
_cell_volume   252.72518629
_cell_formula_units_Z   2
loop_
 _symmetry_equiv_pos_site_id
 _symmetry_equiv_pos_as_xyz
  1  'x, y, z'
loop_
 _atom_site_type_symbol
 _atom_site_label
 _atom_site_symmetry_multiplicity
 _atom_site_fract_x
 _atom_site_fract_y
 _atom_site_fract_z
 _atom_site_occupancy
  Sr  Sr0  1  0.715399  0.756396  0.749517  1
  Sr  Sr1  1  0.284601  0.756396  0.249517  1
  Pr  Pr2  1  0.201659  0.236570  0.749637  1
  Pr  Pr3  1  0.798341  0.236570  0.249637  1
  Fe  Fe4  1  0.255589  0.499986  0.999511  1
  Fe  Fe5  1  0.744411  0.499986  0.499511  1
  Pt  Pt6  1  0.252189  0.999649  0.500232  1
  Pt  Pt7  1  0.747811  0.999649  0.000232  1
  O  O8  1  0.262735  0.657855  0.751689  1
  O  O9  1  0.774946  0.322839  0.748393  1
  O  O10  1  0.225054  0.322839  0.248393  1
  O  O11  1  0.737265  0.657855  0.251689  1
  O  O12  1  0.028358  0.761858  0.457201  1
  O  O13  1  0.540795  0.248690  0.045873  1
  O  O14  1  0.455350  0.837449  0.955494  1
  O  O15  1  0.970586  0.178708  0.542454  1
  O  O16  1  0.459205  0.248690  0.545873  1
  O  O17  1  0.971642  0.761858  0.957201  1
  O  O18  1  0.029414  0.178708  0.042454  1
  O  O19  1  0.544650  0.837449  0.455494  1
