# generated using pymatgen
data_CeDy3(Si5Pt3)2
_symmetry_space_group_name_H-M   'P 1'
_cell_length_a   8.18356712
_cell_length_b   8.18976923
_cell_length_c   8.18976952
_cell_angle_alpha   136.56838091
_cell_angle_beta   104.58218650
_cell_angle_gamma   91.27457018
_symmetry_Int_Tables_number   1
_chemical_formula_structural   CeDy3(Si5Pt3)2
_chemical_formula_sum   'Ce1 Dy3 Si10 Pt6'
_cell_volume   347.41989020
_cell_formula_units_Z   1
loop_
 _symmetry_equiv_pos_site_id
 _symmetry_equiv_pos_as_xyz
  1  'x, y, z'
loop_
 _atom_site_type_symbol
 _atom_site_label
 _atom_site_symmetry_multiplicity
 _atom_site_fract_x
 _atom_site_fract_y
 _atom_site_fract_z
 _atom_site_occupancy
  Ce  Ce0  1  0.899135  0.129564  0.769570  1
  Dy  Dy1  1  0.641427  0.370372  0.271054  1
  Dy  Dy2  1  0.358695  0.628932  0.729763  1
  Dy  Dy3  1  0.100524  0.871451  0.229073  1
  Si  Si4  1  0.272898  0.520499  0.248733  1
  Si  Si5  1  0.727791  0.477721  0.750336  1
  Si  Si6  1  0.727791  0.977456  0.250070  1
  Si  Si7  1  0.272898  0.024165  0.752399  1
  Si  Si8  1  0.462601  0.113206  0.349395  1
  Si  Si9  1  0.536320  0.885305  0.651015  1
  Si  Si10  1  0.763804  0.612368  0.151436  1
  Si  Si11  1  0.235496  0.386939  0.848557  1
  Si  Si12  1  0.000019  0.249832  0.248455  1
  Si  Si13  1  0.000019  0.751564  0.750188  1
  Pt  Pt14  1  0.251398  0.137340  0.114057  1
  Pt  Pt15  1  0.749055  0.861126  0.887929  1
  Pt  Pt16  1  0.027227  0.638793  0.388434  1
  Pt  Pt17  1  0.975999  0.364754  0.611244  1
  Pt  Pt18  1  0.498452  0.248326  0.748166  1
  Pt  Pt19  1  0.498452  0.750287  0.250126  1
