# generated using pymatgen
data_PrNdTh6(ReC2)4
_symmetry_space_group_name_H-M   'P 1'
_cell_length_a   5.38096200
_cell_length_b   6.69119119
_cell_length_c   10.15137429
_cell_angle_alpha   89.97255282
_cell_angle_beta   90.00000000
_cell_angle_gamma   90.00000000
_symmetry_Int_Tables_number   1
_chemical_formula_structural   PrNdTh6(ReC2)4
_chemical_formula_sum   'Pr1 Nd1 Th6 Re4 C8'
_cell_volume   365.50065170
_cell_formula_units_Z   1
loop_
 _symmetry_equiv_pos_site_id
 _symmetry_equiv_pos_as_xyz
  1  'x, y, z'
loop_
 _atom_site_type_symbol
 _atom_site_label
 _atom_site_symmetry_multiplicity
 _atom_site_fract_x
 _atom_site_fract_y
 _atom_site_fract_z
 _atom_site_occupancy
  Pr  Pr0  1  0.250000  0.307778  0.449613  1
  Nd  Nd1  1  0.750000  0.191362  0.949202  1
  Th  Th2  1  0.250000  0.473338  0.779365  1
  Th  Th3  1  0.750000  0.026630  0.279185  1
  Th  Th4  1  0.250000  0.978059  0.723324  1
  Th  Th5  1  0.750000  0.521979  0.223182  1
  Th  Th6  1  0.250000  0.811390  0.048429  1
  Th  Th7  1  0.750000  0.688728  0.548429  1
  Re  Re8  1  0.250000  0.270818  0.137951  1
  Re  Re9  1  0.750000  0.229070  0.638364  1
  Re  Re10  1  0.250000  0.770106  0.362202  1
  Re  Re11  1  0.750000  0.730078  0.862248  1
  C  C12  1  0.250000  0.678206  0.551373  1
  C  C13  1  0.750000  0.822288  0.051310  1
  C  C14  1  0.250000  0.171427  0.950668  1
  C  C15  1  0.750000  0.328662  0.450723  1
  C  C16  1  0.250000  0.031657  0.255878  1
  C  C17  1  0.750000  0.468084  0.756185  1
  C  C18  1  0.250000  0.533880  0.241059  1
  C  C19  1  0.750000  0.966458  0.741309  1
