# generated using pymatgen
data_Zr6Al7(CuAu)8
_symmetry_space_group_name_H-M   'P 1'
_cell_length_a   8.75190966
_cell_length_b   8.75191068
_cell_length_c   8.75191000
_cell_angle_alpha   60.00000257
_cell_angle_beta   59.99999872
_cell_angle_gamma   59.99999427
_symmetry_Int_Tables_number   1
_chemical_formula_structural   Zr6Al7(CuAu)8
_chemical_formula_sum   'Zr6 Al7 Cu8 Au8'
_cell_volume   474.01658095
_cell_formula_units_Z   1
loop_
 _symmetry_equiv_pos_site_id
 _symmetry_equiv_pos_as_xyz
  1  'x, y, z'
loop_
 _atom_site_type_symbol
 _atom_site_label
 _atom_site_symmetry_multiplicity
 _atom_site_fract_x
 _atom_site_fract_y
 _atom_site_fract_z
 _atom_site_occupancy
  Zr  Zr0  1  0.698204  0.698204  0.301796  1
  Zr  Zr1  1  0.301796  0.698204  0.301796  1
  Zr  Zr2  1  0.698204  0.301796  0.301796  1
  Zr  Zr3  1  0.301796  0.301796  0.698204  1
  Zr  Zr4  1  0.698204  0.301796  0.698204  1
  Zr  Zr5  1  0.301796  0.698204  0.698204  1
  Al  Al6  1  0.000000  0.000000  0.000000  1
  Al  Al7  1  0.000000  0.000000  0.500000  1
  Al  Al8  1  0.500000  0.000000  0.500000  1
  Al  Al9  1  0.000000  0.500000  0.500000  1
  Al  Al10  1  0.500000  0.500000  0.000000  1
  Al  Al11  1  0.000000  0.500000  0.000000  1
  Al  Al12  1  0.500000  0.000000  0.000000  1
  Cu  Cu13  1  0.665307  0.665307  0.004080  1
  Cu  Cu14  1  0.665307  0.004080  0.665307  1
  Cu  Cu15  1  0.004080  0.665307  0.665307  1
  Cu  Cu16  1  0.665307  0.665307  0.665307  1
  Cu  Cu17  1  0.334693  0.334693  0.995920  1
  Cu  Cu18  1  0.334693  0.995920  0.334693  1
  Cu  Cu19  1  0.995920  0.334693  0.334693  1
  Cu  Cu20  1  0.334693  0.334693  0.334693  1
  Au  Au21  1  0.878805  0.878805  0.363586  1
  Au  Au22  1  0.878805  0.363586  0.878805  1
  Au  Au23  1  0.363586  0.878805  0.878805  1
  Au  Au24  1  0.878805  0.878805  0.878805  1
  Au  Au25  1  0.121195  0.121195  0.636414  1
  Au  Au26  1  0.121195  0.636414  0.121195  1
  Au  Au27  1  0.636414  0.121195  0.121195  1
  Au  Au28  1  0.121195  0.121195  0.121195  1
