# generated using pymatgen
data_Y2Lu4VCo17P12
_symmetry_space_group_name_H-M   'P 1'
_cell_length_a   3.66880600
_cell_length_b   10.47445700
_cell_length_c   12.13261600
_cell_angle_alpha   90.00000000
_cell_angle_beta   90.00000000
_cell_angle_gamma   90.00000000
_symmetry_Int_Tables_number   1
_chemical_formula_structural   Y2Lu4VCo17P12
_chemical_formula_sum   'Y2 Lu4 V1 Co17 P12'
_cell_volume   466.24127546
_cell_formula_units_Z   1
loop_
 _symmetry_equiv_pos_site_id
 _symmetry_equiv_pos_as_xyz
  1  'x, y, z'
loop_
 _atom_site_type_symbol
 _atom_site_label
 _atom_site_symmetry_multiplicity
 _atom_site_fract_x
 _atom_site_fract_y
 _atom_site_fract_z
 _atom_site_occupancy
  Y  Y0  1  0.000000  0.500000  0.524082  1
  Y  Y1  1  0.500000  0.000000  0.476887  1
  Lu  Lu2  1  0.500000  0.818658  0.205760  1
  Lu  Lu3  1  0.500000  0.181342  0.205760  1
  Lu  Lu4  1  0.000000  0.681410  0.796697  1
  Lu  Lu5  1  0.000000  0.318590  0.796697  1
  V  V6  1  0.500000  0.500000  0.153848  1
  Co  Co7  1  0.000000  0.000000  0.840251  1
  Co  Co8  1  0.500000  0.500000  0.703805  1
  Co  Co9  1  0.000000  0.000000  0.294691  1
  Co  Co10  1  0.000000  0.500000  0.986306  1
  Co  Co11  1  0.500000  0.000000  0.014244  1
  Co  Co12  1  0.500000  0.331663  0.992147  1
  Co  Co13  1  0.500000  0.668337  0.992147  1
  Co  Co14  1  0.000000  0.166397  0.005964  1
  Co  Co15  1  0.000000  0.833603  0.005964  1
  Co  Co16  1  0.500000  0.295635  0.431155  1
  Co  Co17  1  0.500000  0.704365  0.431155  1
  Co  Co18  1  0.000000  0.202928  0.570148  1
  Co  Co19  1  0.000000  0.797072  0.570148  1
  Co  Co20  1  0.500000  0.878405  0.709791  1
  Co  Co21  1  0.500000  0.121595  0.709791  1
  Co  Co22  1  0.000000  0.622476  0.290708  1
  Co  Co23  1  0.000000  0.377524  0.290708  1
  P  P24  1  0.500000  0.500000  0.881511  1
  P  P25  1  0.000000  0.000000  0.117294  1
  P  P26  1  0.500000  0.500000  0.346603  1
  P  P27  1  0.000000  0.000000  0.656485  1
  P  P28  1  0.500000  0.310595  0.618578  1
  P  P29  1  0.500000  0.689405  0.618578  1
  P  P30  1  0.000000  0.188736  0.382941  1
  P  P31  1  0.000000  0.811264  0.382941  1
  P  P32  1  0.500000  0.848065  0.890940  1
  P  P33  1  0.500000  0.151935  0.890940  1
  P  P34  1  0.000000  0.656031  0.107169  1
  P  P35  1  0.000000  0.343969  0.107169  1
