# generated using pymatgen
data_Np(S4Cl3)2
_symmetry_space_group_name_H-M   'P 1'
_cell_length_a   8.51233020
_cell_length_b   8.51721407
_cell_length_c   14.50736427
_cell_angle_alpha   96.04680756
_cell_angle_beta   99.78230597
_cell_angle_gamma   89.98437252
_symmetry_Int_Tables_number   1
_chemical_formula_structural   Np(S4Cl3)2
_chemical_formula_sum   'Np2 S16 Cl12'
_cell_volume   1030.57685319
_cell_formula_units_Z   2
loop_
 _symmetry_equiv_pos_site_id
 _symmetry_equiv_pos_as_xyz
  1  'x, y, z'
loop_
 _atom_site_type_symbol
 _atom_site_label
 _atom_site_symmetry_multiplicity
 _atom_site_fract_x
 _atom_site_fract_y
 _atom_site_fract_z
 _atom_site_occupancy
  Np  Np0  1  0.712741  0.223502  0.892899  1
  Np  Np1  1  0.287259  0.776498  0.107101  1
  S  S2  1  0.427213  0.750571  0.656644  1
  S  S3  1  0.572787  0.249429  0.343356  1
  S  S4  1  0.267597  0.897494  0.586435  1
  S  S5  1  0.732403  0.102506  0.413565  1
  S  S6  1  0.092975  0.957701  0.665588  1
  S  S7  1  0.907025  0.042299  0.334412  1
  S  S8  1  0.896176  0.812400  0.618135  1
  S  S9  1  0.103824  0.187600  0.381865  1
  S  S10  1  0.901852  0.629863  0.701301  1
  S  S11  1  0.098148  0.370137  0.298699  1
  S  S12  1  0.997129  0.434531  0.636489  1
  S  S13  1  0.002871  0.565469  0.363511  1
  S  S14  1  0.235420  0.423112  0.692278  1
  S  S15  1  0.764580  0.576888  0.307722  1
  S  S16  1  0.631692  0.480379  0.394701  1
  S  S17  1  0.368308  0.519621  0.605299  1
  Cl  Cl18  1  0.755614  0.252577  0.065414  1
  Cl  Cl19  1  0.244386  0.747423  0.934586  1
  Cl  Cl20  1  0.669690  0.194330  0.719664  1
  Cl  Cl21  1  0.330310  0.805670  0.280336  1
  Cl  Cl22  1  0.433902  0.142871  0.888296  1
  Cl  Cl23  1  0.566098  0.857129  0.111704  1
  Cl  Cl24  1  0.631960  0.500810  0.891604  1
  Cl  Cl25  1  0.368040  0.499190  0.108396  1
  Cl  Cl26  1  0.991058  0.304833  0.895681  1
  Cl  Cl27  1  0.008942  0.695167  0.104319  1
  Cl  Cl28  1  0.793150  0.945886  0.892394  1
  Cl  Cl29  1  0.206850  0.054114  0.107606  1
