# generated using pymatgen
data_Tb10Tl5In3Ni3Rh
_symmetry_space_group_name_H-M   'P 1'
_cell_length_a   3.59782800
_cell_length_b   8.11049168
_cell_length_c   18.20048844
_cell_angle_alpha   89.75454314
_cell_angle_beta   90.00000000
_cell_angle_gamma   90.00000000
_symmetry_Int_Tables_number   1
_chemical_formula_structural   Tb10Tl5In3Ni3Rh
_chemical_formula_sum   'Tb10 Tl5 In3 Ni3 Rh1'
_cell_volume   531.08818278
_cell_formula_units_Z   1
loop_
 _symmetry_equiv_pos_site_id
 _symmetry_equiv_pos_as_xyz
  1  'x, y, z'
loop_
 _atom_site_type_symbol
 _atom_site_label
 _atom_site_symmetry_multiplicity
 _atom_site_fract_x
 _atom_site_fract_y
 _atom_site_fract_z
 _atom_site_occupancy
  Tb  Tb0  1  0.000000  0.498897  0.500631  1
  Tb  Tb1  1  0.000000  0.000212  0.999025  1
  Tb  Tb2  1  0.000000  0.743851  0.280220  1
  Tb  Tb3  1  0.000000  0.255871  0.720374  1
  Tb  Tb4  1  0.000000  0.757057  0.778851  1
  Tb  Tb5  1  0.000000  0.248157  0.221702  1
  Tb  Tb6  1  0.000000  0.617147  0.087721  1
  Tb  Tb7  1  0.000000  0.381912  0.909450  1
  Tb  Tb8  1  0.000000  0.883734  0.589828  1
  Tb  Tb9  1  0.000000  0.116074  0.410735  1
  Tl  Tl10  1  0.500000  0.705441  0.930415  1
  Tl  Tl11  1  0.500000  0.291470  0.067476  1
  Tl  Tl12  1  0.500000  0.794157  0.433010  1
  Tl  Tl13  1  0.500000  0.202770  0.567558  1
  Tl  Tl14  1  0.500000  0.576334  0.652371  1
  In  In15  1  0.500000  0.424437  0.350065  1
  In  In16  1  0.500000  0.924136  0.153152  1
  In  In17  1  0.500000  0.075739  0.846502  1
  Ni  Ni18  1  0.500000  0.473309  0.803247  1
  Ni  Ni19  1  0.500000  0.976093  0.697349  1
  Ni  Ni20  1  0.500000  0.025450  0.303068  1
  Rh  Rh21  1  0.500000  0.527756  0.197246  1
