# generated using pymatgen
data_CsBa6U2TlSe12
_symmetry_space_group_name_H-M   'P 1'
_cell_length_a   9.15464582
_cell_length_b   9.15464516
_cell_length_c   9.07424544
_cell_angle_alpha   89.54501404
_cell_angle_beta   89.54501364
_cell_angle_gamma   88.21416360
_symmetry_Int_Tables_number   1
_chemical_formula_structural   CsBa6U2TlSe12
_chemical_formula_sum   'Cs1 Ba6 U2 Tl1 Se12'
_cell_volume   760.07427437
_cell_formula_units_Z   1
loop_
 _symmetry_equiv_pos_site_id
 _symmetry_equiv_pos_as_xyz
  1  'x, y, z'
loop_
 _atom_site_type_symbol
 _atom_site_label
 _atom_site_symmetry_multiplicity
 _atom_site_fract_x
 _atom_site_fract_y
 _atom_site_fract_z
 _atom_site_occupancy
  Cs  Cs0  1  0.884668  0.615332  0.250000  1
  Ba  Ba1  1  0.249573  0.884211  0.615533  1
  Ba  Ba2  1  0.615789  0.250427  0.884467  1
  Ba  Ba3  1  0.749290  0.123020  0.372610  1
  Ba  Ba4  1  0.376980  0.750710  0.127390  1
  Ba  Ba5  1  0.126282  0.373718  0.750000  1
  Ba  Ba6  1  0.751605  0.748395  0.750000  1
  U  U7  1  0.501137  0.498222  0.505938  1
  U  U8  1  0.001778  0.998863  0.994062  1
  Tl  Tl9  1  0.242413  0.257587  0.250000  1
  Se  Se10  1  0.216425  0.566439  0.442703  1
  Se  Se11  1  0.428999  0.210989  0.567889  1
  Se  Se12  1  0.553130  0.417944  0.216900  1
  Se  Se13  1  0.922313  0.057648  0.700385  1
  Se  Se14  1  0.707953  0.932829  0.054950  1
  Se  Se15  1  0.070766  0.713250  0.908467  1
  Se  Se16  1  0.786750  0.429234  0.591533  1
  Se  Se17  1  0.567171  0.792047  0.445050  1
  Se  Se18  1  0.442352  0.577687  0.799615  1
  Se  Se19  1  0.082056  0.946870  0.283100  1
  Se  Se20  1  0.289011  0.071001  0.932111  1
  Se  Se21  1  0.933561  0.283575  0.057297  1
