# generated using pymatgen
data_Pr7ThZn8(IrRh3)2
_symmetry_space_group_name_H-M   'P 1'
_cell_length_a   4.02350200
_cell_length_b   7.40807806
_cell_length_c   16.70264597
_cell_angle_alpha   89.82482318
_cell_angle_beta   90.00000000
_cell_angle_gamma   90.00000000
_symmetry_Int_Tables_number   1
_chemical_formula_structural   Pr7ThZn8(IrRh3)2
_chemical_formula_sum   'Pr7 Th1 Zn8 Ir2 Rh6'
_cell_volume   497.84370195
_cell_formula_units_Z   1
loop_
 _symmetry_equiv_pos_site_id
 _symmetry_equiv_pos_as_xyz
  1  'x, y, z'
loop_
 _atom_site_type_symbol
 _atom_site_label
 _atom_site_symmetry_multiplicity
 _atom_site_fract_x
 _atom_site_fract_y
 _atom_site_fract_z
 _atom_site_occupancy
  Pr  Pr0  1  0.750000  0.951218  0.283490  1
  Pr  Pr1  1  0.750000  0.827808  0.059466  1
  Pr  Pr2  1  0.250000  0.048420  0.716231  1
  Pr  Pr3  1  0.250000  0.169649  0.939134  1
  Pr  Pr4  1  0.250000  0.548319  0.783643  1
  Pr  Pr5  1  0.750000  0.333402  0.440662  1
  Pr  Pr6  1  0.250000  0.670612  0.561255  1
  Th  Th7  1  0.750000  0.448452  0.217038  1
  Zn  Zn8  1  0.250000  0.002556  0.440223  1
  Zn  Zn9  1  0.750000  0.501121  0.940073  1
  Zn  Zn10  1  0.750000  0.003695  0.560160  1
  Zn  Zn11  1  0.250000  0.625845  0.351481  1
  Zn  Zn12  1  0.750000  0.376616  0.650616  1
  Zn  Zn13  1  0.750000  0.876872  0.849250  1
  Zn  Zn14  1  0.250000  0.497443  0.057692  1
  Zn  Zn15  1  0.250000  0.119504  0.150968  1
  Ir  Ir16  1  0.250000  0.245546  0.565855  1
  Ir  Ir17  1  0.250000  0.253223  0.305873  1
  Rh  Rh18  1  0.750000  0.258777  0.068993  1
  Rh  Rh19  1  0.750000  0.255173  0.814535  1
  Rh  Rh20  1  0.250000  0.746189  0.934166  1
  Rh  Rh21  1  0.750000  0.755664  0.687086  1
  Rh  Rh22  1  0.750000  0.762029  0.434731  1
  Rh  Rh23  1  0.250000  0.721869  0.187384  1
