# generated using pymatgen
data_Ho2Er(Co3P2)3
_symmetry_space_group_name_H-M   'P 1'
_cell_length_a   3.68544300
_cell_length_b   10.49041300
_cell_length_c   12.14606600
_cell_angle_alpha   90.00000000
_cell_angle_beta   90.00000000
_cell_angle_gamma   90.00000000
_symmetry_Int_Tables_number   1
_chemical_formula_structural   Ho2Er(Co3P2)3
_chemical_formula_sum   'Ho4 Er2 Co18 P12'
_cell_volume   469.58900717
_cell_formula_units_Z   2
loop_
 _symmetry_equiv_pos_site_id
 _symmetry_equiv_pos_as_xyz
  1  'x, y, z'
loop_
 _atom_site_type_symbol
 _atom_site_label
 _atom_site_symmetry_multiplicity
 _atom_site_fract_x
 _atom_site_fract_y
 _atom_site_fract_z
 _atom_site_occupancy
  Ho  Ho0  1  0.750000  0.250000  0.477761  1
  Ho  Ho1  1  0.250000  0.750000  0.521917  1
  Ho  Ho2  1  0.250000  0.932620  0.794183  1
  Ho  Ho3  1  0.250000  0.567380  0.794183  1
  Er  Er4  1  0.750000  0.067561  0.205903  1
  Er  Er5  1  0.750000  0.432439  0.205903  1
  Co  Co6  1  0.250000  0.250000  0.841177  1
  Co  Co7  1  0.750000  0.750000  0.158849  1
  Co  Co8  1  0.250000  0.250000  0.296675  1
  Co  Co9  1  0.750000  0.750000  0.703175  1
  Co  Co10  1  0.750000  0.250000  0.014608  1
  Co  Co11  1  0.250000  0.750000  0.986297  1
  Co  Co12  1  0.250000  0.416671  0.005679  1
  Co  Co13  1  0.250000  0.083329  0.005679  1
  Co  Co14  1  0.750000  0.583024  0.994947  1
  Co  Co15  1  0.750000  0.916976  0.994947  1
  Co  Co16  1  0.250000  0.452420  0.569216  1
  Co  Co17  1  0.250000  0.047580  0.569216  1
  Co  Co18  1  0.750000  0.547440  0.430243  1
  Co  Co19  1  0.750000  0.952560  0.430243  1
  Co  Co20  1  0.250000  0.870895  0.289983  1
  Co  Co21  1  0.250000  0.629105  0.289983  1
  Co  Co22  1  0.750000  0.129399  0.709652  1
  Co  Co23  1  0.750000  0.370601  0.709652  1
  P  P24  1  0.250000  0.250000  0.118069  1
  P  P25  1  0.750000  0.750000  0.882607  1
  P  P26  1  0.250000  0.250000  0.655775  1
  P  P27  1  0.750000  0.750000  0.344030  1
  P  P28  1  0.250000  0.439070  0.383475  1
  P  P29  1  0.250000  0.060930  0.383475  1
  P  P30  1  0.750000  0.560782  0.615923  1
  P  P31  1  0.750000  0.939218  0.615923  1
  P  P32  1  0.250000  0.903093  0.107279  1
  P  P33  1  0.250000  0.596907  0.107279  1
  P  P34  1  0.750000  0.097534  0.893046  1
  P  P35  1  0.750000  0.402466  0.893046  1
