# generated using pymatgen
data_Er3Sc9ZnCo4Sn
_symmetry_space_group_name_H-M   'P 1'
_cell_length_a   7.87590452
_cell_length_b   7.87590591
_cell_length_c   7.86777124
_cell_angle_alpha   110.79758285
_cell_angle_beta   110.70682157
_cell_angle_gamma   106.98241752
_symmetry_Int_Tables_number   1
_chemical_formula_structural   Er3Sc9ZnCo4Sn
_chemical_formula_sum   'Er3 Sc9 Zn1 Co4 Sn1'
_cell_volume   374.94930243
_cell_formula_units_Z   1
loop_
 _symmetry_equiv_pos_site_id
 _symmetry_equiv_pos_as_xyz
  1  'x, y, z'
loop_
 _atom_site_type_symbol
 _atom_site_label
 _atom_site_symmetry_multiplicity
 _atom_site_fract_x
 _atom_site_fract_y
 _atom_site_fract_z
 _atom_site_occupancy
  Er  Er0  1  0.809613  0.716852  0.526465  1
  Er  Er1  1  0.191164  0.716623  0.907788  1
  Er  Er2  1  0.810836  0.282883  0.093719  1
  Sc  Sc3  1  0.312472  0.615068  0.304923  1
  Sc  Sc4  1  0.682198  0.381161  0.694292  1
  Sc  Sc5  1  0.313130  0.012093  0.694292  1
  Sc  Sc6  1  0.689856  0.992452  0.304923  1
  Sc  Sc7  1  0.428130  0.225070  0.208219  1
  Sc  Sc8  1  0.565310  0.770574  0.790252  1
  Sc  Sc9  1  0.019679  0.224942  0.790252  1
  Sc  Sc10  1  0.983148  0.780090  0.208219  1
  Sc  Sc11  1  0.189353  0.282022  0.471374  1
  Zn  Zn12  1  0.999907  0.003795  0.003701  1
  Co  Co13  1  0.123384  0.617549  0.500895  1
  Co  Co14  1  0.883347  0.377512  0.500895  1
  Co  Co15  1  0.369587  0.004212  0.373799  1
  Co  Co16  1  0.629662  0.997743  0.627405  1
  Sn  Sn17  1  0.499226  0.499362  0.998588  1
