# generated using pymatgen
data_Dy5Bi2Os
_symmetry_space_group_name_H-M   'P 1'
_cell_length_a   7.97121200
_cell_length_b   9.06006800
_cell_length_c   12.50594300
_cell_angle_alpha   90.00000000
_cell_angle_beta   90.00000000
_cell_angle_gamma   90.00000000
_symmetry_Int_Tables_number   1
_chemical_formula_structural   Dy5Bi2Os
_chemical_formula_sum   'Dy20 Bi8 Os4'
_cell_volume   903.17573634
_cell_formula_units_Z   4
loop_
 _symmetry_equiv_pos_site_id
 _symmetry_equiv_pos_as_xyz
  1  'x, y, z'
loop_
 _atom_site_type_symbol
 _atom_site_label
 _atom_site_symmetry_multiplicity
 _atom_site_fract_x
 _atom_site_fract_y
 _atom_site_fract_z
 _atom_site_occupancy
  Dy  Dy0  1  0.841503  0.750000  0.791927  1
  Dy  Dy1  1  0.158497  0.250000  0.208073  1
  Dy  Dy2  1  0.341503  0.250000  0.708073  1
  Dy  Dy3  1  0.658497  0.750000  0.291927  1
  Dy  Dy4  1  0.374548  0.750000  0.692250  1
  Dy  Dy5  1  0.625452  0.250000  0.307750  1
  Dy  Dy6  1  0.874548  0.250000  0.807750  1
  Dy  Dy7  1  0.125452  0.750000  0.192250  1
  Dy  Dy8  1  0.942886  0.750000  0.504607  1
  Dy  Dy9  1  0.057114  0.250000  0.495393  1
  Dy  Dy10  1  0.442886  0.250000  0.995393  1
  Dy  Dy11  1  0.557114  0.750000  0.004607  1
  Dy  Dy12  1  0.674761  0.041594  0.564063  1
  Dy  Dy13  1  0.325239  0.958406  0.435937  1
  Dy  Dy14  1  0.174761  0.958406  0.935937  1
  Dy  Dy15  1  0.325239  0.541594  0.435937  1
  Dy  Dy16  1  0.825239  0.041594  0.064063  1
  Dy  Dy17  1  0.674761  0.458406  0.564063  1
  Dy  Dy18  1  0.825239  0.458406  0.064063  1
  Dy  Dy19  1  0.174761  0.541594  0.935937  1
  Bi  Bi20  1  0.568090  0.493749  0.827780  1
  Bi  Bi21  1  0.431910  0.506251  0.172220  1
  Bi  Bi22  1  0.068090  0.506251  0.672220  1
  Bi  Bi23  1  0.431910  0.993749  0.172220  1
  Bi  Bi24  1  0.931910  0.493749  0.327780  1
  Bi  Bi25  1  0.568090  0.006251  0.827780  1
  Bi  Bi26  1  0.931910  0.006251  0.327780  1
  Bi  Bi27  1  0.068090  0.993749  0.672220  1
  Os  Os28  1  0.575474  0.750000  0.510640  1
  Os  Os29  1  0.424526  0.250000  0.489360  1
  Os  Os30  1  0.075474  0.250000  0.989360  1
  Os  Os31  1  0.924526  0.750000  0.010640  1
