# generated using pymatgen
data_AcMgZn10
_symmetry_space_group_name_H-M   'P 1'
_cell_length_a   8.46713169
_cell_length_b   8.46713217
_cell_length_c   8.46713131
_cell_angle_alpha   99.97465337
_cell_angle_beta   99.97464253
_cell_angle_gamma   130.81170120
_symmetry_Int_Tables_number   1
_chemical_formula_structural   AcMgZn10
_chemical_formula_sum   'Ac2 Mg2 Zn20'
_cell_volume   417.75570820
_cell_formula_units_Z   2
loop_
 _symmetry_equiv_pos_site_id
 _symmetry_equiv_pos_as_xyz
  1  'x, y, z'
loop_
 _atom_site_type_symbol
 _atom_site_label
 _atom_site_symmetry_multiplicity
 _atom_site_fract_x
 _atom_site_fract_y
 _atom_site_fract_z
 _atom_site_occupancy
  Ac  Ac0  1  0.000000  0.000000  0.000000  1
  Ac  Ac1  1  0.250000  0.750000  0.500000  1
  Mg  Mg2  1  0.750000  0.250000  0.500000  1
  Mg  Mg3  1  0.500000  0.500000  0.000000  1
  Zn  Zn4  1  0.125000  0.375000  0.750000  1
  Zn  Zn5  1  0.625000  0.875000  0.250000  1
  Zn  Zn6  1  0.625000  0.375000  0.750000  1
  Zn  Zn7  1  0.625000  0.375000  0.250000  1
  Zn  Zn8  1  0.179747  0.509301  0.084722  1
  Zn  Zn9  1  0.179747  0.095025  0.670445  1
  Zn  Zn10  1  0.759301  0.929747  0.584722  1
  Zn  Zn11  1  0.759301  0.174579  0.829555  1
  Zn  Zn12  1  0.424579  0.509301  0.329555  1
  Zn  Zn13  1  0.424579  0.095025  0.915278  1
  Zn  Zn14  1  0.345025  0.929747  0.170445  1
  Zn  Zn15  1  0.345025  0.174579  0.415278  1
  Zn  Zn16  1  0.070253  0.240699  0.415278  1
  Zn  Zn17  1  0.070253  0.654975  0.829555  1
  Zn  Zn18  1  0.490699  0.820253  0.915278  1
  Zn  Zn19  1  0.490699  0.575421  0.670445  1
  Zn  Zn20  1  0.825421  0.240699  0.170445  1
  Zn  Zn21  1  0.825421  0.654975  0.584722  1
  Zn  Zn22  1  0.904975  0.820253  0.329555  1
  Zn  Zn23  1  0.904975  0.575421  0.084722  1
