# generated using pymatgen
data_Lu20InNi2Hg5
_symmetry_space_group_name_H-M   'P 1'
_cell_length_a   9.51500800
_cell_length_b   9.51500738
_cell_length_c   9.36481700
_cell_angle_alpha   90.00000000
_cell_angle_beta   90.00000000
_cell_angle_gamma   120.25889437
_symmetry_Int_Tables_number   1
_chemical_formula_structural   Lu20InNi2Hg5
_chemical_formula_sum   'Lu20 In1 Ni2 Hg5'
_cell_volume   732.33418752
_cell_formula_units_Z   1
loop_
 _symmetry_equiv_pos_site_id
 _symmetry_equiv_pos_as_xyz
  1  'x, y, z'
loop_
 _atom_site_type_symbol
 _atom_site_label
 _atom_site_symmetry_multiplicity
 _atom_site_fract_x
 _atom_site_fract_y
 _atom_site_fract_z
 _atom_site_occupancy
  Lu  Lu0  1  0.003646  0.996354  0.507578  1
  Lu  Lu1  1  0.003646  0.996354  0.992422  1
  Lu  Lu2  1  0.541198  0.458802  0.250000  1
  Lu  Lu3  1  0.536498  0.087407  0.250000  1
  Lu  Lu4  1  0.912593  0.463502  0.250000  1
  Lu  Lu5  1  0.455999  0.544001  0.750000  1
  Lu  Lu6  1  0.457819  0.914634  0.750000  1
  Lu  Lu7  1  0.085366  0.542181  0.750000  1
  Lu  Lu8  1  0.210748  0.789252  0.436828  1
  Lu  Lu9  1  0.208565  0.419275  0.435682  1
  Lu  Lu10  1  0.580725  0.791435  0.435682  1
  Lu  Lu11  1  0.790162  0.209838  0.563422  1
  Lu  Lu12  1  0.788879  0.579340  0.565331  1
  Lu  Lu13  1  0.420660  0.211121  0.565331  1
  Lu  Lu14  1  0.790162  0.209838  0.936578  1
  Lu  Lu15  1  0.788879  0.579340  0.934669  1
  Lu  Lu16  1  0.420660  0.211121  0.934669  1
  Lu  Lu17  1  0.210748  0.789252  0.063172  1
  Lu  Lu18  1  0.208565  0.419275  0.064318  1
  Lu  Lu19  1  0.580725  0.791435  0.064318  1
  In  In20  1  0.882417  0.117583  0.250000  1
  Ni  Ni21  1  0.333398  0.666602  0.250000  1
  Ni  Ni22  1  0.668364  0.331636  0.750000  1
  Hg  Hg23  1  0.880324  0.762118  0.250000  1
  Hg  Hg24  1  0.237882  0.119676  0.250000  1
  Hg  Hg25  1  0.123477  0.876523  0.750000  1
  Hg  Hg26  1  0.122009  0.244115  0.750000  1
  Hg  Hg27  1  0.755885  0.877991  0.750000  1
