# generated using pymatgen
data_Y3ErCdNi
_symmetry_space_group_name_H-M   'P 1'
_cell_length_a   9.57767401
_cell_length_b   9.57767384
_cell_length_c   9.57767400
_cell_angle_alpha   59.99999946
_cell_angle_beta   60.00000002
_cell_angle_gamma   60.00000145
_symmetry_Int_Tables_number   1
_chemical_formula_structural   Y3ErCdNi
_chemical_formula_sum   'Y12 Er4 Cd4 Ni4'
_cell_volume   621.24820997
_cell_formula_units_Z   4
loop_
 _symmetry_equiv_pos_site_id
 _symmetry_equiv_pos_as_xyz
  1  'x, y, z'
loop_
 _atom_site_type_symbol
 _atom_site_label
 _atom_site_symmetry_multiplicity
 _atom_site_fract_x
 _atom_site_fract_y
 _atom_site_fract_z
 _atom_site_occupancy
  Y  Y0  1  0.060300  0.439700  0.439700  1
  Y  Y1  1  0.439700  0.060300  0.060300  1
  Y  Y2  1  0.439700  0.060300  0.439700  1
  Y  Y3  1  0.060300  0.439700  0.060300  1
  Y  Y4  1  0.439700  0.439700  0.060300  1
  Y  Y5  1  0.060300  0.060300  0.439700  1
  Y  Y6  1  0.187085  0.812915  0.812915  1
  Y  Y7  1  0.812915  0.187085  0.187085  1
  Y  Y8  1  0.812915  0.187085  0.812915  1
  Y  Y9  1  0.187085  0.812915  0.187085  1
  Y  Y10  1  0.812915  0.812915  0.187085  1
  Y  Y11  1  0.187085  0.187085  0.812915  1
  Er  Er12  1  0.598042  0.598042  0.598042  1
  Er  Er13  1  0.598042  0.598042  0.205875  1
  Er  Er14  1  0.598042  0.205875  0.598042  1
  Er  Er15  1  0.205875  0.598042  0.598042  1
  Cd  Cd16  1  0.830863  0.830863  0.830863  1
  Cd  Cd17  1  0.830863  0.830863  0.507410  1
  Cd  Cd18  1  0.830863  0.507410  0.830863  1
  Cd  Cd19  1  0.507410  0.830863  0.830863  1
  Ni  Ni20  1  0.393750  0.393750  0.393750  1
  Ni  Ni21  1  0.393750  0.393750  0.818751  1
  Ni  Ni22  1  0.393750  0.818751  0.393750  1
  Ni  Ni23  1  0.818751  0.393750  0.393750  1
