# generated using pymatgen
data_Dy4Pa4Re(B8Mo)3
_symmetry_space_group_name_H-M   'P 1'
_cell_length_a   3.75553700
_cell_length_b   9.19975101
_cell_length_c   11.54308101
_cell_angle_alpha   89.99606636
_cell_angle_beta   90.00000000
_cell_angle_gamma   90.00000000
_symmetry_Int_Tables_number   1
_chemical_formula_structural   Dy4Pa4Re(B8Mo)3
_chemical_formula_sum   'Dy4 Pa4 Re1 B24 Mo3'
_cell_volume   398.81350893
_cell_formula_units_Z   1
loop_
 _symmetry_equiv_pos_site_id
 _symmetry_equiv_pos_as_xyz
  1  'x, y, z'
loop_
 _atom_site_type_symbol
 _atom_site_label
 _atom_site_symmetry_multiplicity
 _atom_site_fract_x
 _atom_site_fract_y
 _atom_site_fract_z
 _atom_site_occupancy
  Dy  Dy0  1  0.000000  0.945817  0.374459  1
  Dy  Dy1  1  0.000000  0.054911  0.625695  1
  Dy  Dy2  1  0.000000  0.445891  0.125808  1
  Dy  Dy3  1  0.000000  0.554049  0.874178  1
  Pa  Pa4  1  0.000000  0.322991  0.412467  1
  Pa  Pa5  1  0.000000  0.675953  0.585558  1
  Pa  Pa6  1  0.000000  0.822839  0.088368  1
  Pa  Pa7  1  0.000000  0.178141  0.913512  1
  Re  Re8  1  0.000000  0.861792  0.822338  1
  B  B9  1  0.500000  0.552911  0.433009  1
  B  B10  1  0.500000  0.447247  0.567064  1
  B  B11  1  0.500000  0.052587  0.066661  1
  B  B12  1  0.500000  0.946507  0.932248  1
  B  B13  1  0.500000  0.747431  0.420914  1
  B  B14  1  0.500000  0.252563  0.579266  1
  B  B15  1  0.500000  0.247649  0.079191  1
  B  B16  1  0.500000  0.752448  0.919975  1
  B  B17  1  0.500000  0.793333  0.265514  1
  B  B18  1  0.500000  0.206497  0.734532  1
  B  B19  1  0.500000  0.293042  0.234459  1
  B  B20  1  0.500000  0.707701  0.766299  1
  B  B21  1  0.500000  0.633840  0.185477  1
  B  B22  1  0.500000  0.366210  0.814665  1
  B  B23  1  0.500000  0.133423  0.314297  1
  B  B24  1  0.500000  0.866840  0.686195  1
  B  B25  1  0.500000  0.982125  0.212780  1
  B  B26  1  0.500000  0.016530  0.787131  1
  B  B27  1  0.500000  0.482328  0.287079  1
  B  B28  1  0.500000  0.517825  0.713043  1
  B  B29  1  0.500000  0.614886  0.031290  1
  B  B30  1  0.500000  0.385524  0.968116  1
  B  B31  1  0.500000  0.114348  0.468156  1
  B  B32  1  0.500000  0.885610  0.532484  1
  Mo  Mo33  1  0.000000  0.638685  0.322007  1
  Mo  Mo34  1  0.000000  0.361675  0.678497  1
  Mo  Mo35  1  0.000000  0.137850  0.177268  1
