# generated using pymatgen
data_Pr3Cd2Bi3O14
_symmetry_space_group_name_H-M   'P 1'
_cell_length_a   7.62893396
_cell_length_b   7.62894279
_cell_length_c   7.62892708
_cell_angle_alpha   62.73760237
_cell_angle_beta   62.73758816
_cell_angle_gamma   62.73753474
_symmetry_Int_Tables_number   1
_chemical_formula_structural   Pr3Cd2Bi3O14
_chemical_formula_sum   'Pr3 Cd2 Bi3 O14'
_cell_volume   333.08140666
_cell_formula_units_Z   1
loop_
 _symmetry_equiv_pos_site_id
 _symmetry_equiv_pos_as_xyz
  1  'x, y, z'
loop_
 _atom_site_type_symbol
 _atom_site_label
 _atom_site_symmetry_multiplicity
 _atom_site_fract_x
 _atom_site_fract_y
 _atom_site_fract_z
 _atom_site_occupancy
  Pr  Pr0  1  0.000041  0.999976  0.499992  1
  Pr  Pr1  1  0.500010  0.999987  0.000050  1
  Pr  Pr2  1  0.500009  0.500078  0.500000  1
  Cd  Cd3  1  0.999916  0.499943  0.999943  1
  Cd  Cd4  1  0.499769  0.000189  0.499979  1
  Bi  Bi5  1  0.500000  0.500009  0.000022  1
  Bi  Bi6  1  0.000030  0.499997  0.499985  1
  Bi  Bi7  1  0.000022  0.999967  0.000002  1
  O  O8  1  0.620071  0.120072  0.620069  1
  O  O9  1  0.379954  0.879959  0.379956  1
  O  O10  1  0.082837  0.172889  0.672903  1
  O  O11  1  0.672921  0.172895  0.082796  1
  O  O12  1  0.672925  0.582766  0.672909  1
  O  O13  1  0.917219  0.827096  0.327111  1
  O  O14  1  0.327133  0.827102  0.917176  1
  O  O15  1  0.327133  0.417155  0.327117  1
  O  O16  1  0.641168  0.600826  0.100843  1
  O  O17  1  0.100849  0.600814  0.641184  1
  O  O18  1  0.100846  0.141179  0.100827  1
  O  O19  1  0.358748  0.399177  0.899193  1
  O  O20  1  0.899201  0.399164  0.358763  1
  O  O21  1  0.899196  0.858759  0.899178  1
