# generated using pymatgen
data_TbYb2Al3Si2Pd
_symmetry_space_group_name_H-M   'P 1'
_cell_length_a   6.91027930
_cell_length_b   6.91027949
_cell_length_c   4.32944100
_cell_angle_alpha   90.00000000
_cell_angle_beta   90.00000000
_cell_angle_gamma   120.09354491
_symmetry_Int_Tables_number   1
_chemical_formula_structural   TbYb2Al3Si2Pd
_chemical_formula_sum   'Tb1 Yb2 Al3 Si2 Pd1'
_cell_volume   178.87247834
_cell_formula_units_Z   1
loop_
 _symmetry_equiv_pos_site_id
 _symmetry_equiv_pos_as_xyz
  1  'x, y, z'
loop_
 _atom_site_type_symbol
 _atom_site_label
 _atom_site_symmetry_multiplicity
 _atom_site_fract_x
 _atom_site_fract_y
 _atom_site_fract_z
 _atom_site_occupancy
  Tb  Tb0  1  0.577759  0.577759  0.000000  1
  Yb  Yb1  1  0.421029  0.999855  0.000000  1
  Yb  Yb2  1  0.999855  0.421028  0.000000  1
  Al  Al3  1  0.761241  0.998601  0.500000  1
  Al  Al4  1  0.238402  0.238403  0.500000  1
  Al  Al5  1  0.998601  0.761241  0.500000  1
  Si  Si6  1  0.666055  0.337139  0.500000  1
  Si  Si7  1  0.337139  0.666055  0.500000  1
  Pd  Pd8  1  0.999919  0.999919  0.000000  1
