# generated using pymatgen
data_K(TbB9)2
_symmetry_space_group_name_H-M   'P 1'
_cell_length_a   4.13806900
_cell_length_b   4.13806900
_cell_length_c   12.43892400
_cell_angle_alpha   90.00000000
_cell_angle_beta   90.00000000
_cell_angle_gamma   90.00000000
_symmetry_Int_Tables_number   1
_chemical_formula_structural   K(TbB9)2
_chemical_formula_sum   'K1 Tb2 B18'
_cell_volume   212.99934620
_cell_formula_units_Z   1
loop_
 _symmetry_equiv_pos_site_id
 _symmetry_equiv_pos_as_xyz
  1  'x, y, z'
loop_
 _atom_site_type_symbol
 _atom_site_label
 _atom_site_symmetry_multiplicity
 _atom_site_fract_x
 _atom_site_fract_y
 _atom_site_fract_z
 _atom_site_occupancy
  K  K0  1  0.000000  0.000000  0.000000  1
  Tb  Tb1  1  0.000000  0.000000  0.326352  1
  Tb  Tb2  1  0.000000  0.000000  0.673648  1
  B  B3  1  0.201308  0.500000  0.170890  1
  B  B4  1  0.199762  0.500000  0.500000  1
  B  B5  1  0.201308  0.500000  0.829110  1
  B  B6  1  0.500000  0.500000  0.269833  1
  B  B7  1  0.500000  0.500000  0.598751  1
  B  B8  1  0.500000  0.500000  0.930733  1
  B  B9  1  0.500000  0.201308  0.170890  1
  B  B10  1  0.500000  0.199762  0.500000  1
  B  B11  1  0.500000  0.201308  0.829110  1
  B  B12  1  0.500000  0.500000  0.069267  1
  B  B13  1  0.500000  0.500000  0.401249  1
  B  B14  1  0.500000  0.500000  0.730167  1
  B  B15  1  0.500000  0.798692  0.170890  1
  B  B16  1  0.500000  0.800238  0.500000  1
  B  B17  1  0.500000  0.798692  0.829110  1
  B  B18  1  0.798692  0.500000  0.170890  1
  B  B19  1  0.800238  0.500000  0.500000  1
  B  B20  1  0.798692  0.500000  0.829110  1
