# generated using pymatgen
data_LiCa(TaSe2)8
_symmetry_space_group_name_H-M   'P 1'
_cell_length_a   7.01907400
_cell_length_b   7.01907589
_cell_length_c   14.35568900
_cell_angle_alpha   90.00000000
_cell_angle_beta   90.00000000
_cell_angle_gamma   120.00000052
_symmetry_Int_Tables_number   1
_chemical_formula_structural   LiCa(TaSe2)8
_chemical_formula_sum   'Li1 Ca1 Ta8 Se16'
_cell_volume   612.51175768
_cell_formula_units_Z   1
loop_
 _symmetry_equiv_pos_site_id
 _symmetry_equiv_pos_as_xyz
  1  'x, y, z'
loop_
 _atom_site_type_symbol
 _atom_site_label
 _atom_site_symmetry_multiplicity
 _atom_site_fract_x
 _atom_site_fract_y
 _atom_site_fract_z
 _atom_site_occupancy
  Li  Li0  1  0.000000  0.000000  0.500000  1
  Ca  Ca1  1  0.000000  0.000000  0.000000  1
  Ta  Ta2  1  0.000000  0.000000  0.259323  1
  Ta  Ta3  1  0.000000  0.000000  0.740677  1
  Ta  Ta4  1  0.509883  0.019766  0.259866  1
  Ta  Ta5  1  0.490117  0.980234  0.740134  1
  Ta  Ta6  1  0.980234  0.490117  0.259866  1
  Ta  Ta7  1  0.019766  0.509883  0.740134  1
  Ta  Ta8  1  0.509883  0.490117  0.259866  1
  Ta  Ta9  1  0.490117  0.509883  0.740134  1
  Se  Se10  1  0.333333  0.666667  0.618723  1
  Se  Se11  1  0.666667  0.333333  0.381277  1
  Se  Se12  1  0.666667  0.333333  0.137348  1
  Se  Se13  1  0.333333  0.666667  0.862652  1
  Se  Se14  1  0.169675  0.339351  0.145276  1
  Se  Se15  1  0.830325  0.660649  0.854724  1
  Se  Se16  1  0.660649  0.830325  0.145276  1
  Se  Se17  1  0.831672  0.663344  0.626810  1
  Se  Se18  1  0.339351  0.169675  0.854724  1
  Se  Se19  1  0.168328  0.336656  0.373190  1
  Se  Se20  1  0.169675  0.830325  0.145276  1
  Se  Se21  1  0.336656  0.168328  0.626810  1
  Se  Se22  1  0.830325  0.169675  0.854724  1
  Se  Se23  1  0.663344  0.831672  0.373190  1
  Se  Se24  1  0.831672  0.168328  0.626810  1
  Se  Se25  1  0.168328  0.831672  0.373190  1
