# generated using pymatgen
data_Pr8Ho9Lu3Si16
_symmetry_space_group_name_H-M   'P 1'
_cell_length_a   7.49601912
_cell_length_b   7.78381313
_cell_length_c   14.78810900
_cell_angle_alpha   90.00000000
_cell_angle_beta   90.00000000
_cell_angle_gamma   89.97931602
_symmetry_Int_Tables_number   1
_chemical_formula_structural   Pr8Ho9Lu3Si16
_chemical_formula_sum   'Pr8 Ho9 Lu3 Si16'
_cell_volume   862.85079053
_cell_formula_units_Z   1
loop_
 _symmetry_equiv_pos_site_id
 _symmetry_equiv_pos_as_xyz
  1  'x, y, z'
loop_
 _atom_site_type_symbol
 _atom_site_label
 _atom_site_symmetry_multiplicity
 _atom_site_fract_x
 _atom_site_fract_y
 _atom_site_fract_z
 _atom_site_occupancy
  Pr  Pr0  1  0.976001  0.821299  0.098108  1
  Pr  Pr1  1  0.475981  0.678718  0.401888  1
  Pr  Pr2  1  0.524130  0.321167  0.901985  1
  Pr  Pr3  1  0.023802  0.178988  0.597955  1
  Pr  Pr4  1  0.023802  0.178988  0.902045  1
  Pr  Pr5  1  0.524130  0.321167  0.598015  1
  Pr  Pr6  1  0.475981  0.678718  0.098112  1
  Pr  Pr7  1  0.976001  0.821299  0.401892  1
  Ho  Ho8  1  0.350464  0.010121  0.750000  1
  Ho  Ho9  1  0.681137  0.821741  0.876763  1
  Ho  Ho10  1  0.180649  0.678036  0.623266  1
  Ho  Ho11  1  0.819068  0.321839  0.123273  1
  Ho  Ho12  1  0.319037  0.178118  0.376677  1
  Ho  Ho13  1  0.319037  0.178118  0.123323  1
  Ho  Ho14  1  0.819068  0.321839  0.376727  1
  Ho  Ho15  1  0.180649  0.678036  0.876734  1
  Ho  Ho16  1  0.681137  0.821741  0.623237  1
  Lu  Lu17  1  0.649859  0.989813  0.250000  1
  Lu  Lu18  1  0.149788  0.510167  0.250000  1
  Lu  Lu19  1  0.850155  0.489560  0.750000  1
  Si  Si20  1  0.769810  0.621249  0.250000  1
  Si  Si21  1  0.269693  0.878748  0.250000  1
  Si  Si22  1  0.731224  0.121327  0.750000  1
  Si  Si23  1  0.230225  0.379682  0.750000  1
  Si  Si24  1  0.023185  0.112230  0.250000  1
  Si  Si25  1  0.523151  0.387703  0.250000  1
  Si  Si26  1  0.476758  0.612181  0.750000  1
  Si  Si27  1  0.975901  0.887558  0.750000  1
  Si  Si28  1  0.855897  0.531038  0.959816  1
  Si  Si29  1  0.355944  0.968882  0.539932  1
  Si  Si30  1  0.644110  0.030981  0.040284  1
  Si  Si31  1  0.144136  0.469023  0.459758  1
  Si  Si32  1  0.144136  0.469023  0.040242  1
  Si  Si33  1  0.644110  0.030981  0.459716  1
  Si  Si34  1  0.355944  0.968882  0.960068  1
  Si  Si35  1  0.855897  0.531038  0.540184  1
