# generated using pymatgen
data_Nd4MoSe5O24
_symmetry_space_group_name_H-M   'P 1'
_cell_length_a   10.36395090
_cell_length_b   10.30085511
_cell_length_c   10.30085477
_cell_angle_alpha   58.37982047
_cell_angle_beta   58.09334155
_cell_angle_gamma   58.09335603
_symmetry_Int_Tables_number   1
_chemical_formula_structural   Nd4MoSe5O24
_chemical_formula_sum   'Nd4 Mo1 Se5 O24'
_cell_volume   745.31491696
_cell_formula_units_Z   1
loop_
 _symmetry_equiv_pos_site_id
 _symmetry_equiv_pos_as_xyz
  1  'x, y, z'
loop_
 _atom_site_type_symbol
 _atom_site_label
 _atom_site_symmetry_multiplicity
 _atom_site_fract_x
 _atom_site_fract_y
 _atom_site_fract_z
 _atom_site_occupancy
  Nd  Nd0  1  0.640565  0.639132  0.645328  1
  Nd  Nd1  1  0.348504  0.363371  0.355419  1
  Nd  Nd2  1  0.151496  0.144581  0.136629  1
  Nd  Nd3  1  0.859435  0.854672  0.860868  1
  Mo  Mo4  1  0.750000  0.038822  0.461178  1
  Se  Se5  1  0.960792  0.534407  0.252723  1
  Se  Se6  1  0.539208  0.247277  0.965594  1
  Se  Se7  1  0.467586  0.749022  0.034664  1
  Se  Se8  1  0.032414  0.465336  0.750978  1
  Se  Se9  1  0.250000  0.964864  0.535136  1
  O  O10  1  0.925484  0.067105  0.284788  1
  O  O11  1  0.776961  0.006072  0.635246  1
  O  O12  1  0.994871  0.373711  0.222395  1
  O  O13  1  0.704147  0.083739  0.942634  1
  O  O14  1  0.574516  0.215212  0.432895  1
  O  O15  1  0.871728  0.493662  0.726510  1
  O  O16  1  0.505129  0.277605  0.126289  1
  O  O17  1  0.795853  0.557366  0.416261  1
  O  O18  1  0.932640  0.700919  0.092671  1
  O  O19  1  0.567360  0.407329  0.799081  1
  O  O20  1  0.380607  0.221150  0.991844  1
  O  O21  1  0.275521  0.126260  0.505928  1
  O  O22  1  0.723039  0.864754  0.493928  1
  O  O23  1  0.628272  0.773490  0.006338  1
  O  O24  1  0.436656  0.588214  0.199624  1
  O  O25  1  0.063344  0.300376  0.911786  1
  O  O26  1  0.196418  0.439668  0.587066  1
  O  O27  1  0.496621  0.723341  0.873117  1
  O  O28  1  0.119393  0.508156  0.278850  1
  O  O29  1  0.412025  0.799545  0.563050  1
  O  O30  1  0.303582  0.912934  0.060332  1
  O  O31  1  0.003379  0.626883  0.776659  1
  O  O32  1  0.224479  0.994072  0.373740  1
  O  O33  1  0.087975  0.936950  0.700455  1
