# generated using pymatgen
data_Y2Ta3Co9As4P3
_symmetry_space_group_name_H-M   'P 1'
_cell_length_a   3.73808800
_cell_length_b   9.37637367
_cell_length_c   9.38363256
_cell_angle_alpha   120.16135995
_cell_angle_beta   90.00000000
_cell_angle_gamma   90.00000000
_symmetry_Int_Tables_number   1
_chemical_formula_structural   Y2Ta3Co9As4P3
_chemical_formula_sum   'Y2 Ta3 Co9 As4 P3'
_cell_volume   284.36595748
_cell_formula_units_Z   1
loop_
 _symmetry_equiv_pos_site_id
 _symmetry_equiv_pos_as_xyz
  1  'x, y, z'
loop_
 _atom_site_type_symbol
 _atom_site_label
 _atom_site_symmetry_multiplicity
 _atom_site_fract_x
 _atom_site_fract_y
 _atom_site_fract_z
 _atom_site_occupancy
  Y  Y0  1  0.000000  0.667365  0.334335  1
  Y  Y1  1  0.500000  0.333625  0.660176  1
  Ta  Ta2  1  0.500000  0.777193  0.895074  1
  Ta  Ta3  1  0.500000  0.117799  0.223574  1
  Ta  Ta4  1  0.500000  0.101068  0.884041  1
  Co  Co5  1  0.000000  0.574126  0.928309  1
  Co  Co6  1  0.000000  0.363441  0.435758  1
  Co  Co7  1  0.000000  0.060618  0.625058  1
  Co  Co8  1  0.000000  0.886571  0.160351  1
  Co  Co9  1  0.000000  0.273067  0.120062  1
  Co  Co10  1  0.000000  0.838880  0.725583  1
  Co  Co11  1  0.500000  0.957643  0.386686  1
  Co  Co12  1  0.500000  0.435048  0.052148  1
  Co  Co13  1  0.500000  0.612794  0.571434  1
  As  As14  1  0.500000  0.709314  0.125301  1
  As  As15  1  0.500000  0.416401  0.294054  1
  As  As16  1  0.500000  0.876237  0.584159  1
  As  As17  1  0.000000  0.307447  0.884622  1
  P  P18  1  0.000000  0.999582  0.000583  1
  P  P19  1  0.000000  0.581847  0.691039  1
  P  P20  1  0.000000  0.109933  0.417651  1
