# generated using pymatgen
data_Sm3NiSn2Pt2Pb
_symmetry_space_group_name_H-M   'P 1'
_cell_length_a   7.69677700
_cell_length_b   7.66774355
_cell_length_c   3.98839600
_cell_angle_alpha   90.00000000
_cell_angle_beta   90.00000000
_cell_angle_gamma   120.12533797
_symmetry_Int_Tables_number   1
_chemical_formula_structural   Sm3NiSn2Pt2Pb
_chemical_formula_sum   'Sm3 Ni1 Sn2 Pt2 Pb1'
_cell_volume   203.58955426
_cell_formula_units_Z   1
loop_
 _symmetry_equiv_pos_site_id
 _symmetry_equiv_pos_as_xyz
  1  'x, y, z'
loop_
 _atom_site_type_symbol
 _atom_site_label
 _atom_site_symmetry_multiplicity
 _atom_site_fract_x
 _atom_site_fract_y
 _atom_site_fract_z
 _atom_site_occupancy
  Sm  Sm0  1  0.595492  0.000000  0.000000  1
  Sm  Sm1  1  0.998455  0.590512  0.000000  1
  Sm  Sm2  1  0.407943  0.409488  0.000000  1
  Ni  Ni3  1  0.986281  0.000000  0.000000  1
  Sn  Sn4  1  0.999014  0.245745  0.500000  1
  Sn  Sn5  1  0.753269  0.754255  0.500000  1
  Pt  Pt6  1  0.336472  0.660029  0.500000  1
  Pt  Pt7  1  0.676444  0.339971  0.500000  1
  Pb  Pb8  1  0.246630  0.000000  0.500000  1
