# generated using pymatgen
data_Lu5In4CoHg
_symmetry_space_group_name_H-M   'P 1'
_cell_length_a   3.54755300
_cell_length_b   8.09498783
_cell_length_c   18.04636743
_cell_angle_alpha   89.51598883
_cell_angle_beta   90.00000000
_cell_angle_gamma   90.00000000
_symmetry_Int_Tables_number   1
_chemical_formula_structural   Lu5In4CoHg
_chemical_formula_sum   'Lu10 In8 Co2 Hg2'
_cell_volume   518.22623093
_cell_formula_units_Z   2
loop_
 _symmetry_equiv_pos_site_id
 _symmetry_equiv_pos_as_xyz
  1  'x, y, z'
loop_
 _atom_site_type_symbol
 _atom_site_label
 _atom_site_symmetry_multiplicity
 _atom_site_fract_x
 _atom_site_fract_y
 _atom_site_fract_z
 _atom_site_occupancy
  Lu  Lu0  1  0.000000  0.123486  0.424466  1
  Lu  Lu1  1  0.000000  0.876514  0.575534  1
  Lu  Lu2  1  0.000000  0.386588  0.912677  1
  Lu  Lu3  1  0.000000  0.613412  0.087323  1
  Lu  Lu4  1  0.000000  0.274850  0.213325  1
  Lu  Lu5  1  0.000000  0.725150  0.786675  1
  Lu  Lu6  1  0.000000  0.294632  0.727142  1
  Lu  Lu7  1  0.000000  0.705368  0.272858  1
  Lu  Lu8  1  0.000000  0.000000  0.000000  1
  Lu  Lu9  1  0.000000  0.500000  0.500000  1
  In  In10  1  0.500000  0.419866  0.350544  1
  In  In11  1  0.500000  0.580134  0.649456  1
  In  In12  1  0.500000  0.084134  0.854250  1
  In  In13  1  0.500000  0.915866  0.145750  1
  In  In14  1  0.500000  0.296189  0.065101  1
  In  In15  1  0.500000  0.703811  0.934899  1
  In  In16  1  0.500000  0.213383  0.569446  1
  In  In17  1  0.500000  0.786617  0.430554  1
  Co  Co18  1  0.500000  0.477259  0.806558  1
  Co  Co19  1  0.500000  0.522741  0.193442  1
  Hg  Hg20  1  0.500000  0.024292  0.300343  1
  Hg  Hg21  1  0.500000  0.975708  0.699657  1
