# generated using pymatgen
data_La2Ni2Ag
_symmetry_space_group_name_H-M   'P 1'
_cell_length_a   7.43567613
_cell_length_b   7.43567619
_cell_length_c   3.88427000
_cell_angle_alpha   90.00000000
_cell_angle_beta   90.00000000
_cell_angle_gamma   149.02588969
_symmetry_Int_Tables_number   1
_chemical_formula_structural   La2Ni2Ag
_chemical_formula_sum   'La2 Ni2 Ag1'
_cell_volume   110.52560854
_cell_formula_units_Z   1
loop_
 _symmetry_equiv_pos_site_id
 _symmetry_equiv_pos_as_xyz
  1  'x, y, z'
loop_
 _atom_site_type_symbol
 _atom_site_label
 _atom_site_symmetry_multiplicity
 _atom_site_fract_x
 _atom_site_fract_y
 _atom_site_fract_z
 _atom_site_occupancy
  La  La0  1  0.634266  0.365734  0.500000  1
  La  La1  1  0.365734  0.634266  0.500000  1
  Ni  Ni2  1  0.800165  0.199835  0.000000  1
  Ni  Ni3  1  0.199835  0.800165  0.000000  1
  Ag  Ag4  1  0.000000  0.000000  0.000000  1
