# generated using pymatgen
data_Dy5Er3Ti12Si15Sn
_symmetry_space_group_name_H-M   'P 1'
_cell_length_a   7.09638126
_cell_length_b   7.05863484
_cell_length_c   12.99568919
_cell_angle_alpha   89.98843947
_cell_angle_beta   89.72365059
_cell_angle_gamma   89.96026905
_symmetry_Int_Tables_number   1
_chemical_formula_structural   Dy5Er3Ti12Si15Sn
_chemical_formula_sum   'Dy5 Er3 Ti12 Si15 Sn1'
_cell_volume   650.95625888
_cell_formula_units_Z   1
loop_
 _symmetry_equiv_pos_site_id
 _symmetry_equiv_pos_as_xyz
  1  'x, y, z'
loop_
 _atom_site_type_symbol
 _atom_site_label
 _atom_site_symmetry_multiplicity
 _atom_site_fract_x
 _atom_site_fract_y
 _atom_site_fract_z
 _atom_site_occupancy
  Dy  Dy0  1  0.342487  0.999340  0.461415  1
  Dy  Dy1  1  0.505393  0.834937  0.718307  1
  Dy  Dy2  1  0.502761  0.160055  0.216750  1
  Dy  Dy3  1  0.840686  0.496633  0.282113  1
  Dy  Dy4  1  0.159602  0.510192  0.786054  1
  Er  Er5  1  0.661925  0.996784  0.968854  1
  Er  Er6  1  0.991608  0.348594  0.527540  1
  Er  Er7  1  0.999862  0.659285  0.034072  1
  Ti  Ti8  1  0.326640  0.326541  0.001276  1
  Ti  Ti9  1  0.173809  0.825915  0.249518  1
  Ti  Ti10  1  0.816745  0.175091  0.752049  1
  Ti  Ti11  1  0.672369  0.673029  0.499466  1
  Ti  Ti12  1  0.152483  0.007909  0.883436  1
  Ti  Ti13  1  0.492967  0.650050  0.126675  1
  Ti  Ti14  1  0.514874  0.354076  0.626522  1
  Ti  Ti15  1  0.654522  0.493538  0.875949  1
  Ti  Ti16  1  0.346945  0.509167  0.372741  1
  Ti  Ti17  1  0.846819  0.992548  0.375605  1
  Ti  Ti18  1  0.009858  0.150741  0.123259  1
  Ti  Ti19  1  0.978972  0.835825  0.618630  1
  Si  Si20  1  0.371544  0.703383  0.936135  1
  Si  Si21  1  0.627983  0.297366  0.432876  1
  Si  Si22  1  0.704881  0.369300  0.066673  1
  Si  Si23  1  0.295702  0.630384  0.565608  1
  Si  Si24  1  0.797656  0.869262  0.183599  1
  Si  Si25  1  0.129591  0.202895  0.315050  1
  Si  Si26  1  0.870684  0.800269  0.816649  1
  Si  Si27  1  0.293490  0.951595  0.066795  1
  Si  Si28  1  0.549554  0.789134  0.313491  1
  Si  Si29  1  0.459652  0.210188  0.820326  1
  Si  Si30  1  0.793892  0.544523  0.686787  1
  Si  Si31  1  0.209267  0.452822  0.184925  1
  Si  Si32  1  0.706280  0.048926  0.564349  1
  Si  Si33  1  0.952645  0.291833  0.935516  1
  Si  Si34  1  0.047143  0.710386  0.432758  1
  Sn  Sn35  1  0.198711  0.127487  0.678229  1
