# generated using pymatgen
data_Li2Zr6MnBr15
_symmetry_space_group_name_H-M   'P 1'
_cell_length_a   9.55028929
_cell_length_b   9.55028905
_cell_length_c   9.55028966
_cell_angle_alpha   108.80494690
_cell_angle_beta   108.80494498
_cell_angle_gamma   110.81214832
_symmetry_Int_Tables_number   1
_chemical_formula_structural   Li2Zr6MnBr15
_chemical_formula_sum   'Li2 Zr6 Mn1 Br15'
_cell_volume   670.26845817
_cell_formula_units_Z   1
loop_
 _symmetry_equiv_pos_site_id
 _symmetry_equiv_pos_as_xyz
  1  'x, y, z'
loop_
 _atom_site_type_symbol
 _atom_site_label
 _atom_site_symmetry_multiplicity
 _atom_site_fract_x
 _atom_site_fract_y
 _atom_site_fract_z
 _atom_site_occupancy
  Li  Li0  1  0.250000  0.750000  0.500000  1
  Li  Li1  1  0.750000  0.250000  0.500000  1
  Zr  Zr2  1  0.771027  0.771027  0.000000  1
  Zr  Zr3  1  0.000000  0.219780  0.219780  1
  Zr  Zr4  1  0.219780  0.000000  0.219780  1
  Zr  Zr5  1  0.228973  0.228973  0.000000  1
  Zr  Zr6  1  0.000000  0.780220  0.780220  1
  Zr  Zr7  1  0.780220  0.000000  0.780220  1
  Mn  Mn8  1  0.000000  0.000000  0.000000  1
  Br  Br9  1  0.500000  0.500000  0.000000  1
  Br  Br10  1  0.000000  0.500000  0.500000  1
  Br  Br11  1  0.500000  0.000000  0.500000  1
  Br  Br12  1  0.243414  0.243414  0.486827  1
  Br  Br13  1  0.996892  0.750026  0.246866  1
  Br  Br14  1  0.750026  0.996892  0.246866  1
  Br  Br15  1  0.243414  0.756586  0.000000  1
  Br  Br16  1  0.496840  0.249974  0.246866  1
  Br  Br17  1  0.249974  0.003108  0.753134  1
  Br  Br18  1  0.756586  0.243414  0.000000  1
  Br  Br19  1  0.003108  0.249974  0.753134  1
  Br  Br20  1  0.249974  0.496840  0.246866  1
  Br  Br21  1  0.756586  0.756586  0.513173  1
  Br  Br22  1  0.503160  0.750026  0.753134  1
  Br  Br23  1  0.750026  0.503160  0.753134  1
