# generated using pymatgen
data_DyErCuSi2Ru
_symmetry_space_group_name_H-M   'P 1'
_cell_length_a   4.21581700
_cell_length_b   6.93982822
_cell_length_c   7.33609172
_cell_angle_alpha   91.22193288
_cell_angle_beta   90.00000000
_cell_angle_gamma   90.00000000
_symmetry_Int_Tables_number   1
_chemical_formula_structural   DyErCuSi2Ru
_chemical_formula_sum   'Dy2 Er2 Cu2 Si4 Ru2'
_cell_volume   214.58356245
_cell_formula_units_Z   2
loop_
 _symmetry_equiv_pos_site_id
 _symmetry_equiv_pos_as_xyz
  1  'x, y, z'
loop_
 _atom_site_type_symbol
 _atom_site_label
 _atom_site_symmetry_multiplicity
 _atom_site_fract_x
 _atom_site_fract_y
 _atom_site_fract_z
 _atom_site_occupancy
  Dy  Dy0  1  0.250000  0.993444  0.797072  1
  Dy  Dy1  1  0.750000  0.006556  0.202928  1
  Er  Er2  1  0.250000  0.491789  0.688684  1
  Er  Er3  1  0.750000  0.508211  0.311316  1
  Cu  Cu4  1  0.750000  0.832958  0.573316  1
  Cu  Cu5  1  0.250000  0.167042  0.426684  1
  Si  Si6  1  0.250000  0.299536  0.090960  1
  Si  Si7  1  0.750000  0.700464  0.909040  1
  Si  Si8  1  0.250000  0.794266  0.389879  1
  Si  Si9  1  0.750000  0.205734  0.610121  1
  Ru  Ru10  1  0.750000  0.347556  0.934420  1
  Ru  Ru11  1  0.250000  0.652444  0.065580  1
