# generated using pymatgen
data_NdSmNpRu3
_symmetry_space_group_name_H-M   'P 1'
_cell_length_a   5.26511705
_cell_length_b   5.26511634
_cell_length_c   5.26511700
_cell_angle_alpha   68.55644087
_cell_angle_beta   68.55644388
_cell_angle_gamma   68.55643464
_symmetry_Int_Tables_number   1
_chemical_formula_structural   NdSmNpRu3
_chemical_formula_sum   'Nd1 Sm1 Np1 Ru3'
_cell_volume   121.83372795
_cell_formula_units_Z   1
loop_
 _symmetry_equiv_pos_site_id
 _symmetry_equiv_pos_as_xyz
  1  'x, y, z'
loop_
 _atom_site_type_symbol
 _atom_site_label
 _atom_site_symmetry_multiplicity
 _atom_site_fract_x
 _atom_site_fract_y
 _atom_site_fract_z
 _atom_site_occupancy
  Nd  Nd0  1  0.624885  0.624885  0.624885  1
  Sm  Sm1  1  0.373673  0.373673  0.373673  1
  Np  Np2  1  0.000425  0.000425  0.000425  1
  Ru  Ru3  1  0.000578  0.499859  0.000578  1
  Ru  Ru4  1  0.499859  0.000578  0.000578  1
  Ru  Ru5  1  0.000578  0.000578  0.499859  1
