# generated using pymatgen
data_La2Tb3Sn3Hg
_symmetry_space_group_name_H-M   'P 1'
_cell_length_a   7.96907300
_cell_length_b   8.46663000
_cell_length_c   15.66574300
_cell_angle_alpha   90.00000000
_cell_angle_beta   90.00000000
_cell_angle_gamma   90.00000000
_symmetry_Int_Tables_number   1
_chemical_formula_structural   La2Tb3Sn3Hg
_chemical_formula_sum   'La8 Tb12 Sn12 Hg4'
_cell_volume   1056.98636214
_cell_formula_units_Z   4
loop_
 _symmetry_equiv_pos_site_id
 _symmetry_equiv_pos_as_xyz
  1  'x, y, z'
loop_
 _atom_site_type_symbol
 _atom_site_label
 _atom_site_symmetry_multiplicity
 _atom_site_fract_x
 _atom_site_fract_y
 _atom_site_fract_z
 _atom_site_occupancy
  La  La0  1  0.502694  0.316599  0.908423  1
  La  La1  1  0.002694  0.183401  0.591577  1
  La  La2  1  0.497306  0.683401  0.408423  1
  La  La3  1  0.997306  0.816599  0.091577  1
  La  La4  1  0.497306  0.683401  0.091577  1
  La  La5  1  0.997306  0.816599  0.408423  1
  La  La6  1  0.502694  0.316599  0.591577  1
  La  La7  1  0.002694  0.183401  0.908423  1
  Tb  Tb8  1  0.337172  0.832506  0.874172  1
  Tb  Tb9  1  0.837172  0.667494  0.625828  1
  Tb  Tb10  1  0.662828  0.167494  0.374172  1
  Tb  Tb11  1  0.162828  0.332506  0.125828  1
  Tb  Tb12  1  0.662828  0.167494  0.125828  1
  Tb  Tb13  1  0.162828  0.332506  0.374172  1
  Tb  Tb14  1  0.337172  0.832506  0.625828  1
  Tb  Tb15  1  0.837172  0.667494  0.874172  1
  Tb  Tb16  1  0.180198  0.495448  0.750000  1
  Tb  Tb17  1  0.680198  0.004552  0.750000  1
  Tb  Tb18  1  0.819802  0.504552  0.250000  1
  Tb  Tb19  1  0.319802  0.995448  0.250000  1
  Sn  Sn20  1  0.319224  0.037834  0.041518  1
  Sn  Sn21  1  0.819224  0.462166  0.458482  1
  Sn  Sn22  1  0.680776  0.962166  0.541518  1
  Sn  Sn23  1  0.180776  0.537834  0.958482  1
  Sn  Sn24  1  0.680776  0.962166  0.958482  1
  Sn  Sn25  1  0.180776  0.537834  0.541518  1
  Sn  Sn26  1  0.319224  0.037834  0.458482  1
  Sn  Sn27  1  0.819224  0.462166  0.041518  1
  Sn  Sn28  1  0.301012  0.135710  0.750000  1
  Sn  Sn29  1  0.801012  0.364290  0.750000  1
  Sn  Sn30  1  0.698988  0.864290  0.250000  1
  Sn  Sn31  1  0.198988  0.635710  0.250000  1
  Hg  Hg32  1  0.538296  0.620764  0.750000  1
  Hg  Hg33  1  0.038296  0.879236  0.750000  1
  Hg  Hg34  1  0.461704  0.379236  0.250000  1
  Hg  Hg35  1  0.961704  0.120764  0.250000  1
