# generated using pymatgen
data_Li8Np(SnCl8)3
_symmetry_space_group_name_H-M   'P 1'
_cell_length_a   6.29527800
_cell_length_b   6.29527742
_cell_length_c   25.37340700
_cell_angle_alpha   90.00000000
_cell_angle_beta   90.00000000
_cell_angle_gamma   120.00000306
_symmetry_Int_Tables_number   1
_chemical_formula_structural   Li8Np(SnCl8)3
_chemical_formula_sum   'Li8 Np1 Sn3 Cl24'
_cell_volume   870.84164731
_cell_formula_units_Z   1
loop_
 _symmetry_equiv_pos_site_id
 _symmetry_equiv_pos_as_xyz
  1  'x, y, z'
loop_
 _atom_site_type_symbol
 _atom_site_label
 _atom_site_symmetry_multiplicity
 _atom_site_fract_x
 _atom_site_fract_y
 _atom_site_fract_z
 _atom_site_occupancy
  Li  Li0  1  0.000000  0.000000  0.250348  1
  Li  Li1  1  0.000000  0.000000  0.749652  1
  Li  Li2  1  0.333333  0.666667  0.000343  1
  Li  Li3  1  0.333333  0.666667  0.499628  1
  Li  Li4  1  0.333333  0.666667  0.250255  1
  Li  Li5  1  0.666667  0.333333  0.749745  1
  Li  Li6  1  0.666667  0.333333  0.999657  1
  Li  Li7  1  0.666667  0.333333  0.500372  1
  Np  Np8  1  0.000000  0.000000  0.000000  1
  Sn  Sn9  1  0.000000  0.000000  0.500000  1
  Sn  Sn10  1  0.333333  0.666667  0.749582  1
  Sn  Sn11  1  0.666667  0.333333  0.250418  1
  Cl  Cl12  1  0.345168  0.011562  0.306048  1
  Cl  Cl13  1  0.333289  0.988809  0.805174  1
  Cl  Cl14  1  0.000356  0.340696  0.058095  1
  Cl  Cl15  1  0.999767  0.321593  0.555666  1
  Cl  Cl16  1  0.988438  0.333606  0.306048  1
  Cl  Cl17  1  0.011191  0.344478  0.805174  1
  Cl  Cl18  1  0.344478  0.333289  0.194826  1
  Cl  Cl19  1  0.333606  0.345168  0.693952  1
  Cl  Cl20  1  0.321593  0.321827  0.444334  1
  Cl  Cl21  1  0.340696  0.340339  0.941905  1
  Cl  Cl22  1  0.678173  0.999767  0.444334  1
  Cl  Cl23  1  0.340339  0.999644  0.058095  1
  Cl  Cl24  1  0.321827  0.000233  0.555666  1
  Cl  Cl25  1  0.659304  0.659661  0.058095  1
  Cl  Cl26  1  0.678407  0.678173  0.555666  1
  Cl  Cl27  1  0.666394  0.654832  0.306048  1
  Cl  Cl28  1  0.655522  0.666711  0.805174  1
  Cl  Cl29  1  0.988809  0.655522  0.194826  1
  Cl  Cl30  1  0.011562  0.666394  0.693952  1
  Cl  Cl31  1  0.000233  0.678407  0.444334  1
  Cl  Cl32  1  0.999644  0.659304  0.941905  1
  Cl  Cl33  1  0.659661  0.000356  0.941905  1
  Cl  Cl34  1  0.666711  0.011191  0.194826  1
  Cl  Cl35  1  0.654832  0.988438  0.693952  1
