# generated using pymatgen
data_Ho2B6Ir8Rh
_symmetry_space_group_name_H-M   'P 1'
_cell_length_a   5.63077943
_cell_length_b   5.63077867
_cell_length_c   8.64709800
_cell_angle_alpha   90.00000000
_cell_angle_beta   90.00000000
_cell_angle_gamma   119.89360059
_symmetry_Int_Tables_number   1
_chemical_formula_structural   Ho2B6Ir8Rh
_chemical_formula_sum   'Ho2 B6 Ir8 Rh1'
_cell_volume   237.68546032
_cell_formula_units_Z   1
loop_
 _symmetry_equiv_pos_site_id
 _symmetry_equiv_pos_as_xyz
  1  'x, y, z'
loop_
 _atom_site_type_symbol
 _atom_site_label
 _atom_site_symmetry_multiplicity
 _atom_site_fract_x
 _atom_site_fract_y
 _atom_site_fract_z
 _atom_site_occupancy
  Ho  Ho0  1  0.000000  0.000000  0.701384  1
  Ho  Ho1  1  0.000000  0.000000  0.299542  1
  B  B2  1  0.666954  0.333046  0.999739  1
  B  B3  1  0.333046  0.666954  0.999739  1
  B  B4  1  0.666742  0.333258  0.667759  1
  B  B5  1  0.333258  0.666742  0.667759  1
  B  B6  1  0.333130  0.666870  0.332055  1
  B  B7  1  0.666870  0.333130  0.332055  1
  Ir  Ir8  1  0.500000  0.500000  0.836231  1
  Ir  Ir9  1  0.500000  0.000000  0.836088  1
  Ir  Ir10  1  0.000000  0.500000  0.836088  1
  Ir  Ir11  1  0.500000  0.000000  0.164189  1
  Ir  Ir12  1  0.000000  0.500000  0.164189  1
  Ir  Ir13  1  0.500000  0.500000  0.499143  1
  Ir  Ir14  1  0.500000  0.000000  0.499825  1
  Ir  Ir15  1  0.000000  0.500000  0.499825  1
  Rh  Rh16  1  0.500000  0.500000  0.164390  1
