# generated using pymatgen
data_Tb11DyCo4
_symmetry_space_group_name_H-M   'P 1'
_cell_length_a   6.23192596
_cell_length_b   6.96116602
_cell_length_c   9.57064546
_cell_angle_alpha   90.00675037
_cell_angle_beta   90.06314292
_cell_angle_gamma   89.99423482
_symmetry_Int_Tables_number   1
_chemical_formula_structural   Tb11DyCo4
_chemical_formula_sum   'Tb11 Dy1 Co4'
_cell_volume   415.18842366
_cell_formula_units_Z   1
loop_
 _symmetry_equiv_pos_site_id
 _symmetry_equiv_pos_as_xyz
  1  'x, y, z'
loop_
 _atom_site_type_symbol
 _atom_site_label
 _atom_site_symmetry_multiplicity
 _atom_site_fract_x
 _atom_site_fract_y
 _atom_site_fract_z
 _atom_site_occupancy
  Tb  Tb0  1  0.141213  0.457202  0.749816  1
  Tb  Tb1  1  0.674436  0.325298  0.931767  1
  Tb  Tb2  1  0.358690  0.956835  0.749778  1
  Tb  Tb3  1  0.859250  0.543568  0.250304  1
  Tb  Tb4  1  0.641107  0.042761  0.250142  1
  Tb  Tb5  1  0.174773  0.174687  0.431888  1
  Tb  Tb6  1  0.825166  0.825130  0.567730  1
  Tb  Tb7  1  0.174388  0.174618  0.068145  1
  Tb  Tb8  1  0.825052  0.824975  0.931742  1
  Tb  Tb9  1  0.674632  0.325290  0.567782  1
  Tb  Tb10  1  0.325081  0.674958  0.068645  1
  Dy  Dy11  1  0.325565  0.674930  0.431811  1
  Co  Co12  1  0.551436  0.613146  0.748884  1
  Co  Co13  1  0.948286  0.113070  0.750294  1
  Co  Co14  1  0.052398  0.886598  0.250505  1
  Co  Co15  1  0.448527  0.386935  0.250765  1
