# generated using pymatgen
data_La7YGePd24
_symmetry_space_group_name_H-M   'P 1'
_cell_length_a   8.53195802
_cell_length_b   8.53195802
_cell_length_c   8.53195802
_cell_angle_alpha   89.99413056
_cell_angle_beta   90.00586944
_cell_angle_gamma   90.00586944
_symmetry_Int_Tables_number   1
_chemical_formula_structural   La7YGePd24
_chemical_formula_sum   'La7 Y1 Ge1 Pd24'
_cell_volume   621.07796775
_cell_formula_units_Z   1
loop_
 _symmetry_equiv_pos_site_id
 _symmetry_equiv_pos_as_xyz
  1  'x, y, z'
loop_
 _atom_site_type_symbol
 _atom_site_label
 _atom_site_symmetry_multiplicity
 _atom_site_fract_x
 _atom_site_fract_y
 _atom_site_fract_z
 _atom_site_occupancy
  La  La0  1  0.253608  0.253102  0.253102  1
  La  La1  1  0.747073  0.747382  0.747382  1
  La  La2  1  0.746898  0.746392  0.253102  1
  La  La3  1  0.746898  0.253102  0.746392  1
  La  La4  1  0.252618  0.252927  0.747382  1
  La  La5  1  0.252618  0.747382  0.252927  1
  La  La6  1  0.253152  0.746848  0.746848  1
  Y  Y7  1  0.747093  0.252907  0.252907  1
  Ge  Ge8  1  0.000043  0.999957  0.999957  1
  Pd  Pd9  1  0.259777  0.499873  0.000030  1
  Pd  Pd10  1  0.740171  0.498047  0.002060  1
  Pd  Pd11  1  0.997940  0.259829  0.498047  1
  Pd  Pd12  1  0.501953  0.259829  0.002060  1
  Pd  Pd13  1  0.999970  0.740223  0.499873  1
  Pd  Pd14  1  0.500127  0.740223  0.000030  1
  Pd  Pd15  1  0.501953  0.002060  0.259829  1
  Pd  Pd16  1  0.259777  0.000030  0.499873  1
  Pd  Pd17  1  0.500127  0.000030  0.740223  1
  Pd  Pd18  1  0.740171  0.002060  0.498047  1
  Pd  Pd19  1  0.997940  0.498047  0.259829  1
  Pd  Pd20  1  0.999970  0.499873  0.740223  1
  Pd  Pd21  1  0.252757  0.499922  0.499922  1
  Pd  Pd22  1  0.747235  0.497880  0.497880  1
  Pd  Pd23  1  0.502120  0.252765  0.497880  1
  Pd  Pd24  1  0.500078  0.747243  0.499922  1
  Pd  Pd25  1  0.502120  0.497880  0.252765  1
  Pd  Pd26  1  0.500078  0.499922  0.747243  1
  Pd  Pd27  1  0.291316  0.000137  0.000137  1
  Pd  Pd28  1  0.709470  0.002389  0.002389  1
  Pd  Pd29  1  0.997611  0.290530  0.002389  1
  Pd  Pd30  1  0.999863  0.708684  0.000137  1
  Pd  Pd31  1  0.997611  0.002389  0.290530  1
  Pd  Pd32  1  0.999863  0.000137  0.708684  1
