# generated using pymatgen
data_AcGa2BRu2
_symmetry_space_group_name_H-M   'P 1'
_cell_length_a   4.25184500
_cell_length_b   4.25184500
_cell_length_c   5.81643500
_cell_angle_alpha   90.00000000
_cell_angle_beta   90.00000000
_cell_angle_gamma   90.00000000
_symmetry_Int_Tables_number   1
_chemical_formula_structural   AcGa2BRu2
_chemical_formula_sum   'Ac1 Ga2 B1 Ru2'
_cell_volume   105.15059323
_cell_formula_units_Z   1
loop_
 _symmetry_equiv_pos_site_id
 _symmetry_equiv_pos_as_xyz
  1  'x, y, z'
loop_
 _atom_site_type_symbol
 _atom_site_label
 _atom_site_symmetry_multiplicity
 _atom_site_fract_x
 _atom_site_fract_y
 _atom_site_fract_z
 _atom_site_occupancy
  Ac  Ac0  1  0.000000  0.000000  0.500000  1
  Ga  Ga1  1  0.500000  0.500000  0.257735  1
  Ga  Ga2  1  0.500000  0.500000  0.742264  1
  B  B3  1  0.000000  0.000000  0.000000  1
  Ru  Ru4  1  0.500000  0.000000  0.000000  1
  Ru  Ru5  1  0.000000  0.500000  0.000000  1
