# generated using pymatgen
data_Sr4YbDyU2O12
_symmetry_space_group_name_H-M   'P 1'
_cell_length_a   5.97030305
_cell_length_b   6.12136870
_cell_length_c   8.51693156
_cell_angle_alpha   89.57192014
_cell_angle_beta   90.23723235
_cell_angle_gamma   90.01472523
_symmetry_Int_Tables_number   1
_chemical_formula_structural   Sr4YbDyU2O12
_chemical_formula_sum   'Sr4 Yb1 Dy1 U2 O12'
_cell_volume   311.25204718
_cell_formula_units_Z   1
loop_
 _symmetry_equiv_pos_site_id
 _symmetry_equiv_pos_as_xyz
  1  'x, y, z'
loop_
 _atom_site_type_symbol
 _atom_site_label
 _atom_site_symmetry_multiplicity
 _atom_site_fract_x
 _atom_site_fract_y
 _atom_site_fract_z
 _atom_site_occupancy
  Sr  Sr0  1  0.739009  0.935462  0.001262  1
  Sr  Sr1  1  0.261187  0.429417  0.996805  1
  Sr  Sr2  1  0.237688  0.526647  0.503997  1
  Sr  Sr3  1  0.762253  0.020530  0.497933  1
  Yb  Yb4  1  0.249658  0.977847  0.749972  1
  Dy  Dy5  1  0.750337  0.477832  0.250028  1
  U  U6  1  0.748893  0.477670  0.749919  1
  U  U7  1  0.251024  0.977736  0.250082  1
  O  O8  1  0.348084  0.937919  0.484207  1
  O  O9  1  0.648396  0.437657  0.505509  1
  O  O10  1  0.464661  0.667248  0.795889  1
  O  O11  1  0.542509  0.172974  0.201244  1
  O  O12  1  0.938689  0.759006  0.693030  1
  O  O13  1  0.055523  0.265488  0.307697  1
  O  O14  1  0.850482  0.517780  0.994214  1
  O  O15  1  0.153255  0.017489  0.016018  1
  O  O16  1  0.960627  0.781182  0.299530  1
  O  O17  1  0.032109  0.286897  0.703315  1
  O  O18  1  0.446514  0.690486  0.191727  1
  O  O19  1  0.559102  0.196934  0.807625  1
