# generated using pymatgen
data_TaBe2Nb2Ru5
_symmetry_space_group_name_H-M   'P 1'
_cell_length_a   9.40389900
_cell_length_b   9.40389900
_cell_length_c   3.16017900
_cell_angle_alpha   90.00000000
_cell_angle_beta   90.00000000
_cell_angle_gamma   90.00000000
_symmetry_Int_Tables_number   1
_chemical_formula_structural   TaBe2Nb2Ru5
_chemical_formula_sum   'Ta2 Be4 Nb4 Ru10'
_cell_volume   279.46510939
_cell_formula_units_Z   2
loop_
 _symmetry_equiv_pos_site_id
 _symmetry_equiv_pos_as_xyz
  1  'x, y, z'
loop_
 _atom_site_type_symbol
 _atom_site_label
 _atom_site_symmetry_multiplicity
 _atom_site_fract_x
 _atom_site_fract_y
 _atom_site_fract_z
 _atom_site_occupancy
  Ta  Ta0  1  0.500000  0.500000  0.000000  1
  Ta  Ta1  1  0.000000  0.000000  0.000000  1
  Be  Be2  1  0.620690  0.879310  0.000000  1
  Be  Be3  1  0.379310  0.120690  0.000000  1
  Be  Be4  1  0.120690  0.620690  0.000000  1
  Be  Be5  1  0.879310  0.379310  0.000000  1
  Nb  Nb6  1  0.824578  0.675422  0.000000  1
  Nb  Nb7  1  0.175422  0.324578  0.000000  1
  Nb  Nb8  1  0.324578  0.824578  0.000000  1
  Nb  Nb9  1  0.675422  0.175422  0.000000  1
  Ru  Ru10  1  0.574560  0.711196  0.500000  1
  Ru  Ru11  1  0.425440  0.288804  0.500000  1
  Ru  Ru12  1  0.074560  0.788804  0.500000  1
  Ru  Ru13  1  0.925440  0.211196  0.500000  1
  Ru  Ru14  1  0.288804  0.574560  0.500000  1
  Ru  Ru15  1  0.711196  0.425440  0.500000  1
  Ru  Ru16  1  0.211196  0.074560  0.500000  1
  Ru  Ru17  1  0.788804  0.925440  0.500000  1
  Ru  Ru18  1  0.500000  0.000000  0.500000  1
  Ru  Ru19  1  0.000000  0.500000  0.500000  1
