# generated using pymatgen
data_Sc2Mn5P7Ir3Rh4
_symmetry_space_group_name_H-M   'P 1'
_cell_length_a   9.37994846
_cell_length_b   9.38221336
_cell_length_c   3.76261500
_cell_angle_alpha   90.00000000
_cell_angle_beta   90.00000000
_cell_angle_gamma   120.06383948
_symmetry_Int_Tables_number   1
_chemical_formula_structural   Sc2Mn5P7Ir3Rh4
_chemical_formula_sum   'Sc2 Mn5 P7 Ir3 Rh4'
_cell_volume   286.58036740
_cell_formula_units_Z   1
loop_
 _symmetry_equiv_pos_site_id
 _symmetry_equiv_pos_as_xyz
  1  'x, y, z'
loop_
 _atom_site_type_symbol
 _atom_site_label
 _atom_site_symmetry_multiplicity
 _atom_site_fract_x
 _atom_site_fract_y
 _atom_site_fract_z
 _atom_site_occupancy
  Sc  Sc0  1  0.000715  0.000678  0.000000  1
  Sc  Sc1  1  0.667008  0.332083  0.500000  1
  Mn  Mn2  1  0.605454  0.781313  0.000000  1
  Mn  Mn3  1  0.174920  0.395902  0.000000  1
  Mn  Mn4  1  0.222034  0.825446  0.000000  1
  Mn  Mn5  1  0.107627  0.563525  0.500000  1
  Mn  Mn6  1  0.456976  0.893708  0.500000  1
  P  P7  1  0.634081  0.556598  0.000000  1
  P  P8  1  0.923733  0.367572  0.000000  1
  P  P9  1  0.445251  0.078184  0.000000  1
  P  P10  1  0.734183  0.944884  0.500000  1
  P  P11  1  0.209514  0.265906  0.500000  1
  P  P12  1  0.055916  0.786982  0.500000  1
  P  P13  1  0.332126  0.665732  0.000000  1
  Ir  Ir14  1  0.781200  0.725935  0.500000  1
  Ir  Ir15  1  0.945362  0.220136  0.500000  1
  Ir  Ir16  1  0.274291  0.055239  0.500000  1
  Rh  Rh17  1  0.402987  0.304357  0.000000  1
  Rh  Rh18  1  0.901765  0.596273  0.000000  1
  Rh  Rh19  1  0.695172  0.099501  0.000000  1
  Rh  Rh20  1  0.429684  0.540046  0.500000  1
