# generated using pymatgen
data_Dy8CoNiAg2
_symmetry_space_group_name_H-M   'P 1'
_cell_length_a   9.40186245
_cell_length_b   9.40728691
_cell_length_c   9.40721111
_cell_angle_alpha   60.11364739
_cell_angle_beta   60.04098195
_cell_angle_gamma   60.04096944
_symmetry_Int_Tables_number   1
_chemical_formula_structural   Dy8CoNiAg2
_chemical_formula_sum   'Dy16 Co2 Ni2 Ag4'
_cell_volume   589.20301727
_cell_formula_units_Z   2
loop_
 _symmetry_equiv_pos_site_id
 _symmetry_equiv_pos_as_xyz
  1  'x, y, z'
loop_
 _atom_site_type_symbol
 _atom_site_label
 _atom_site_symmetry_multiplicity
 _atom_site_fract_x
 _atom_site_fract_y
 _atom_site_fract_z
 _atom_site_occupancy
  Dy  Dy0  1  0.151258  0.545419  0.152526  1
  Dy  Dy1  1  0.690635  0.313012  0.685609  1
  Dy  Dy2  1  0.687236  0.312492  0.312487  1
  Dy  Dy3  1  0.936513  0.563490  0.563495  1
  Dy  Dy4  1  0.548039  0.151063  0.151046  1
  Dy  Dy5  1  0.151252  0.152540  0.545423  1
  Dy  Dy6  1  0.935103  0.938061  0.564411  1
  Dy  Dy7  1  0.310789  0.685296  0.313011  1
  Dy  Dy8  1  0.562898  0.937097  0.937086  1
  Dy  Dy9  1  0.562396  0.938081  0.564399  1
  Dy  Dy10  1  0.690642  0.685600  0.313008  1
  Dy  Dy11  1  0.562393  0.564394  0.938083  1
  Dy  Dy12  1  0.935112  0.564402  0.938059  1
  Dy  Dy13  1  0.310001  0.690007  0.690024  1
  Dy  Dy14  1  0.150106  0.150866  0.150849  1
  Dy  Dy15  1  0.310790  0.313016  0.685305  1
  Co  Co16  1  0.926970  0.356754  0.356756  1
  Co  Co17  1  0.359503  0.356746  0.356742  1
  Ni  Ni18  1  0.358343  0.356376  0.926953  1
  Ni  Ni19  1  0.358349  0.926951  0.356379  1
  Ag  Ag20  1  0.918895  0.244018  0.918197  1
  Ag  Ag21  1  0.918502  0.918063  0.918062  1
  Ag  Ag22  1  0.918896  0.918194  0.244021  1
  Ag  Ag23  1  0.245379  0.918059  0.918064  1
