# generated using pymatgen
data_Y2Er8Tl5In3Pd4
_symmetry_space_group_name_H-M   'P 1'
_cell_length_a   3.60836400
_cell_length_b   8.18953510
_cell_length_c   18.28210997
_cell_angle_alpha   89.90014059
_cell_angle_beta   90.00000000
_cell_angle_gamma   90.00000000
_symmetry_Int_Tables_number   1
_chemical_formula_structural   Y2Er8Tl5In3Pd4
_chemical_formula_sum   'Y2 Er8 Tl5 In3 Pd4'
_cell_volume   540.25058660
_cell_formula_units_Z   1
loop_
 _symmetry_equiv_pos_site_id
 _symmetry_equiv_pos_as_xyz
  1  'x, y, z'
loop_
 _atom_site_type_symbol
 _atom_site_label
 _atom_site_symmetry_multiplicity
 _atom_site_fract_x
 _atom_site_fract_y
 _atom_site_fract_z
 _atom_site_occupancy
  Y  Y0  1  0.000000  0.499026  0.498994  1
  Y  Y1  1  0.000000  0.999860  0.000226  1
  Er  Er2  1  0.000000  0.740395  0.282200  1
  Er  Er3  1  0.000000  0.260234  0.717748  1
  Er  Er4  1  0.000000  0.759449  0.782398  1
  Er  Er5  1  0.000000  0.240606  0.217821  1
  Er  Er6  1  0.000000  0.617450  0.086080  1
  Er  Er7  1  0.000000  0.382543  0.914559  1
  Er  Er8  1  0.000000  0.883854  0.586348  1
  Er  Er9  1  0.000000  0.116343  0.413606  1
  Tl  Tl10  1  0.500000  0.706225  0.934188  1
  Tl  Tl11  1  0.500000  0.293942  0.066232  1
  Tl  Tl12  1  0.500000  0.793275  0.434031  1
  Tl  Tl13  1  0.500000  0.203840  0.564793  1
  Tl  Tl14  1  0.500000  0.584576  0.650062  1
  In  In15  1  0.500000  0.415157  0.348334  1
  In  In16  1  0.500000  0.915707  0.151578  1
  In  In17  1  0.500000  0.084292  0.848965  1
  Pd  Pd18  1  0.500000  0.528834  0.198159  1
  Pd  Pd19  1  0.500000  0.471203  0.803433  1
  Pd  Pd20  1  0.500000  0.975305  0.698074  1
  Pd  Pd21  1  0.500000  0.027886  0.302169  1
