# generated using pymatgen
data_YbEuTaIr3
_symmetry_space_group_name_H-M   'P 1'
_cell_length_a   5.23225460
_cell_length_b   5.70425923
_cell_length_c   5.70425900
_cell_angle_alpha   59.99999552
_cell_angle_beta   56.96813650
_cell_angle_gamma   56.96813798
_symmetry_Int_Tables_number   1
_chemical_formula_structural   YbEuTaIr3
_chemical_formula_sum   'Yb1 Eu1 Ta1 Ir3'
_cell_volume   114.56960216
_cell_formula_units_Z   1
loop_
 _symmetry_equiv_pos_site_id
 _symmetry_equiv_pos_as_xyz
  1  'x, y, z'
loop_
 _atom_site_type_symbol
 _atom_site_label
 _atom_site_symmetry_multiplicity
 _atom_site_fract_x
 _atom_site_fract_y
 _atom_site_fract_z
 _atom_site_occupancy
  Yb  Yb0  1  0.751630  0.749457  0.749457  1
  Eu  Eu1  1  0.488471  0.503843  0.503843  1
  Ta  Ta2  1  0.625713  0.124762  0.124762  1
  Ir  Ir3  1  0.128062  0.123215  0.123215  1
  Ir  Ir4  1  0.128062  0.123215  0.625508  1
  Ir  Ir5  1  0.128062  0.625508  0.123215  1
