# generated using pymatgen
data_Tm6Co17NiAs12
_symmetry_space_group_name_H-M   'P 1'
_cell_length_a   3.79575800
_cell_length_b   10.84242200
_cell_length_c   12.65731300
_cell_angle_alpha   90.00000000
_cell_angle_beta   90.00000000
_cell_angle_gamma   90.00000000
_symmetry_Int_Tables_number   1
_chemical_formula_structural   Tm6Co17NiAs12
_chemical_formula_sum   'Tm6 Co17 Ni1 As12'
_cell_volume   520.91437513
_cell_formula_units_Z   1
loop_
 _symmetry_equiv_pos_site_id
 _symmetry_equiv_pos_as_xyz
  1  'x, y, z'
loop_
 _atom_site_type_symbol
 _atom_site_label
 _atom_site_symmetry_multiplicity
 _atom_site_fract_x
 _atom_site_fract_y
 _atom_site_fract_z
 _atom_site_occupancy
  Tm  Tm0  1  0.000000  0.500000  0.523812  1
  Tm  Tm1  1  0.500000  0.000000  0.478690  1
  Tm  Tm2  1  0.500000  0.815693  0.205623  1
  Tm  Tm3  1  0.500000  0.184307  0.205623  1
  Tm  Tm4  1  0.000000  0.682209  0.793050  1
  Tm  Tm5  1  0.000000  0.317791  0.793050  1
  Co  Co6  1  0.500000  0.500000  0.157845  1
  Co  Co7  1  0.000000  0.000000  0.843317  1
  Co  Co8  1  0.500000  0.500000  0.702270  1
  Co  Co9  1  0.000000  0.500000  0.984791  1
  Co  Co10  1  0.500000  0.000000  0.014211  1
  Co  Co11  1  0.500000  0.333034  0.995954  1
  Co  Co12  1  0.500000  0.666966  0.995954  1
  Co  Co13  1  0.000000  0.167275  0.004316  1
  Co  Co14  1  0.000000  0.832725  0.004316  1
  Co  Co15  1  0.500000  0.298854  0.431234  1
  Co  Co16  1  0.500000  0.701146  0.431234  1
  Co  Co17  1  0.000000  0.201329  0.568724  1
  Co  Co18  1  0.000000  0.798671  0.568724  1
  Co  Co19  1  0.500000  0.879138  0.707189  1
  Co  Co20  1  0.500000  0.120862  0.707189  1
  Co  Co21  1  0.000000  0.621406  0.292784  1
  Co  Co22  1  0.000000  0.378594  0.292784  1
  Ni  Ni23  1  0.000000  0.000000  0.297585  1
  As  As24  1  0.500000  0.500000  0.879675  1
  As  As25  1  0.000000  0.000000  0.119376  1
  As  As26  1  0.500000  0.500000  0.348096  1
  As  As27  1  0.000000  0.000000  0.652676  1
  As  As28  1  0.500000  0.313842  0.616240  1
  As  As29  1  0.500000  0.686158  0.616240  1
  As  As30  1  0.000000  0.186231  0.384147  1
  As  As31  1  0.000000  0.813769  0.384147  1
  As  As32  1  0.500000  0.846368  0.889778  1
  As  As33  1  0.500000  0.153632  0.889778  1
  As  As34  1  0.000000  0.652809  0.109787  1
  As  As35  1  0.000000  0.347191  0.109787  1
