# generated using pymatgen
data_Y8Co3Si12Ni
_symmetry_space_group_name_H-M   'P 1'
_cell_length_a   7.99505900
_cell_length_b   7.99505908
_cell_length_c   8.04100500
_cell_angle_alpha   90.00000000
_cell_angle_beta   90.00000000
_cell_angle_gamma   120.00000382
_symmetry_Int_Tables_number   1
_chemical_formula_structural   Y8Co3Si12Ni
_chemical_formula_sum   'Y8 Co3 Si12 Ni1'
_cell_volume   445.12736833
_cell_formula_units_Z   1
loop_
 _symmetry_equiv_pos_site_id
 _symmetry_equiv_pos_as_xyz
  1  'x, y, z'
loop_
 _atom_site_type_symbol
 _atom_site_label
 _atom_site_symmetry_multiplicity
 _atom_site_fract_x
 _atom_site_fract_y
 _atom_site_fract_z
 _atom_site_occupancy
  Y  Y0  1  0.000000  0.000000  0.250211  1
  Y  Y1  1  0.000000  0.000000  0.750618  1
  Y  Y2  1  0.011021  0.505510  0.247750  1
  Y  Y3  1  0.494490  0.505510  0.247750  1
  Y  Y4  1  0.503698  0.007398  0.751684  1
  Y  Y5  1  0.494490  0.988979  0.247750  1
  Y  Y6  1  0.503698  0.496302  0.751684  1
  Y  Y7  1  0.992602  0.496302  0.751684  1
  Co  Co8  1  0.333333  0.666667  0.969746  1
  Co  Co9  1  0.333333  0.666667  0.530709  1
  Co  Co10  1  0.666667  0.333333  0.025841  1
  Si  Si11  1  0.171613  0.343226  0.999970  1
  Si  Si12  1  0.656774  0.828387  0.999970  1
  Si  Si13  1  0.172391  0.344782  0.498978  1
  Si  Si14  1  0.343757  0.171878  0.000176  1
  Si  Si15  1  0.171613  0.828387  0.999970  1
  Si  Si16  1  0.655218  0.827609  0.498978  1
  Si  Si17  1  0.828122  0.656243  0.000176  1
  Si  Si18  1  0.339648  0.169825  0.500735  1
  Si  Si19  1  0.172391  0.827609  0.498978  1
  Si  Si20  1  0.830175  0.660352  0.500735  1
  Si  Si21  1  0.828122  0.171878  0.000176  1
  Si  Si22  1  0.830175  0.169825  0.500735  1
  Ni  Ni23  1  0.666667  0.333333  0.474999  1
