# generated using pymatgen
data_Zr10Al5PbS
_symmetry_space_group_name_H-M   'P 1'
_cell_length_a   8.31924749
_cell_length_b   8.28656237
_cell_length_c   5.81366200
_cell_angle_alpha   89.84567955
_cell_angle_beta   90.07686045
_cell_angle_gamma   119.87011456
_symmetry_Int_Tables_number   1
_chemical_formula_structural   Zr10Al5PbS
_chemical_formula_sum   'Zr10 Al5 Pb1 S1'
_cell_volume   347.53952725
_cell_formula_units_Z   1
loop_
 _symmetry_equiv_pos_site_id
 _symmetry_equiv_pos_as_xyz
  1  'x, y, z'
loop_
 _atom_site_type_symbol
 _atom_site_label
 _atom_site_symmetry_multiplicity
 _atom_site_fract_x
 _atom_site_fract_y
 _atom_site_fract_z
 _atom_site_occupancy
  Zr  Zr0  1  0.000000  0.761700  0.232138  1
  Zr  Zr1  1  0.256976  0.247012  0.242028  1
  Zr  Zr2  1  0.743024  0.990036  0.242028  1
  Zr  Zr3  1  0.000000  0.248067  0.758125  1
  Zr  Zr4  1  0.750500  0.748560  0.760178  1
  Zr  Zr5  1  0.249500  0.998060  0.760178  1
  Zr  Zr6  1  0.347885  0.674879  0.504342  1
  Zr  Zr7  1  0.652115  0.326994  0.504342  1
  Zr  Zr8  1  0.656567  0.330266  0.996084  1
  Zr  Zr9  1  0.343433  0.673700  0.996084  1
  Al  Al10  1  0.606254  0.602633  0.248993  1
  Al  Al11  1  0.393746  0.996378  0.248993  1
  Al  Al12  1  0.000000  0.604652  0.746060  1
  Al  Al13  1  0.390823  0.393964  0.752978  1
  Al  Al14  1  0.609177  0.003142  0.752978  1
  Pb  Pb15  1  0.000000  0.398143  0.253480  1
  S  S16  1  0.000000  0.001815  0.500988  1
