# generated using pymatgen
data_Ca20Ga8Hg3Pb
_symmetry_space_group_name_H-M   'P 1'
_cell_length_a   8.07183100
_cell_length_b   8.07183100
_cell_length_c   14.81979200
_cell_angle_alpha   90.00000000
_cell_angle_beta   90.00000000
_cell_angle_gamma   90.00000000
_symmetry_Int_Tables_number   1
_chemical_formula_structural   Ca20Ga8Hg3Pb
_chemical_formula_sum   'Ca20 Ga8 Hg3 Pb1'
_cell_volume   965.57548124
_cell_formula_units_Z   1
loop_
 _symmetry_equiv_pos_site_id
 _symmetry_equiv_pos_as_xyz
  1  'x, y, z'
loop_
 _atom_site_type_symbol
 _atom_site_label
 _atom_site_symmetry_multiplicity
 _atom_site_fract_x
 _atom_site_fract_y
 _atom_site_fract_z
 _atom_site_occupancy
  Ca  Ca0  1  0.674718  0.169543  0.106347  1
  Ca  Ca1  1  0.171699  0.671291  0.608644  1
  Ca  Ca2  1  0.325282  0.830457  0.106347  1
  Ca  Ca3  1  0.828301  0.328709  0.608644  1
  Ca  Ca4  1  0.830457  0.674718  0.106347  1
  Ca  Ca5  1  0.328709  0.171699  0.608644  1
  Ca  Ca6  1  0.169543  0.325282  0.106347  1
  Ca  Ca7  1  0.671291  0.828301  0.608644  1
  Ca  Ca8  1  0.830457  0.325282  0.893653  1
  Ca  Ca9  1  0.328709  0.828301  0.391356  1
  Ca  Ca10  1  0.169543  0.674718  0.893653  1
  Ca  Ca11  1  0.671291  0.171699  0.391356  1
  Ca  Ca12  1  0.674718  0.830457  0.893653  1
  Ca  Ca13  1  0.171699  0.328709  0.391356  1
  Ca  Ca14  1  0.325282  0.169543  0.893653  1
  Ca  Ca15  1  0.828301  0.671291  0.391356  1
  Ca  Ca16  1  0.500000  0.500000  0.754411  1
  Ca  Ca17  1  0.000000  0.000000  0.248857  1
  Ca  Ca18  1  0.000000  0.000000  0.751143  1
  Ca  Ca19  1  0.500000  0.500000  0.245589  1
  Ga  Ga20  1  0.612501  0.114688  0.751640  1
  Ga  Ga21  1  0.114688  0.612501  0.248360  1
  Ga  Ga22  1  0.885312  0.387499  0.248360  1
  Ga  Ga23  1  0.387499  0.885312  0.751640  1
  Ga  Ga24  1  0.885312  0.612501  0.751640  1
  Ga  Ga25  1  0.387499  0.114688  0.248360  1
  Ga  Ga26  1  0.114688  0.387499  0.751640  1
  Ga  Ga27  1  0.612501  0.885312  0.248360  1
  Hg  Hg28  1  0.500000  0.500000  0.500000  1
  Hg  Hg29  1  0.500000  0.500000  0.000000  1
  Hg  Hg30  1  0.000000  0.000000  0.500000  1
  Pb  Pb31  1  0.000000  0.000000  0.000000  1
