# generated using pymatgen
data_NdYTmSe4
_symmetry_space_group_name_H-M   'P 1'
_cell_length_a   4.06999400
_cell_length_b   7.12940332
_cell_length_c   6.99558000
_cell_angle_alpha   71.79135903
_cell_angle_beta   90.00000000
_cell_angle_gamma   90.00000000
_symmetry_Int_Tables_number   1
_chemical_formula_structural   NdYTmSe4
_chemical_formula_sum   'Nd1 Y1 Tm1 Se4'
_cell_volume   192.82350338
_cell_formula_units_Z   1
loop_
 _symmetry_equiv_pos_site_id
 _symmetry_equiv_pos_as_xyz
  1  'x, y, z'
loop_
 _atom_site_type_symbol
 _atom_site_label
 _atom_site_symmetry_multiplicity
 _atom_site_fract_x
 _atom_site_fract_y
 _atom_site_fract_z
 _atom_site_occupancy
  Nd  Nd0  1  0.000000  0.000000  0.000000  1
  Y  Y1  1  0.000000  0.500000  0.500000  1
  Tm  Tm2  1  0.500000  0.500000  0.000000  1
  Se  Se3  1  0.500000  0.743785  0.258786  1
  Se  Se4  1  0.000000  0.264006  0.243676  1
  Se  Se5  1  0.500000  0.256215  0.741214  1
  Se  Se6  1  0.000000  0.735994  0.756324  1
