# generated using pymatgen
data_Tm4TcRu5W2
_symmetry_space_group_name_H-M   'P 1'
_cell_length_a   5.14001116
_cell_length_b   5.20807404
_cell_length_c   9.04828200
_cell_angle_alpha   90.00000000
_cell_angle_beta   90.00000000
_cell_angle_gamma   115.60707590
_symmetry_Int_Tables_number   1
_chemical_formula_structural   Tm4TcRu5W2
_chemical_formula_sum   'Tm4 Tc1 Ru5 W2'
_cell_volume   218.42760947
_cell_formula_units_Z   1
loop_
 _symmetry_equiv_pos_site_id
 _symmetry_equiv_pos_as_xyz
  1  'x, y, z'
loop_
 _atom_site_type_symbol
 _atom_site_label
 _atom_site_symmetry_multiplicity
 _atom_site_fract_x
 _atom_site_fract_y
 _atom_site_fract_z
 _atom_site_occupancy
  Tm  Tm0  1  0.330427  0.671446  0.433606  1
  Tm  Tm1  1  0.668939  0.328518  0.565115  1
  Tm  Tm2  1  0.668939  0.328518  0.934885  1
  Tm  Tm3  1  0.330427  0.671446  0.066394  1
  Tc  Tc4  1  0.646194  0.829754  0.750000  1
  Ru  Ru5  1  0.994876  0.998504  0.498791  1
  Ru  Ru6  1  0.994876  0.998504  0.001209  1
  Ru  Ru7  1  0.831005  0.646382  0.250000  1
  Ru  Ru8  1  0.356845  0.168851  0.250000  1
  Ru  Ru9  1  0.173514  0.355412  0.750000  1
  W  W10  1  0.844595  0.156807  0.250000  1
  W  W11  1  0.159362  0.845856  0.750000  1
