# generated using pymatgen
data_Nd2Ga7Co2Ag
_symmetry_space_group_name_H-M   'P 1'
_cell_length_a   4.17327192
_cell_length_b   6.53853967
_cell_length_c   8.22935532
_cell_angle_alpha   90.93284682
_cell_angle_beta   104.68828363
_cell_angle_gamma   90.00000474
_symmetry_Int_Tables_number   1
_chemical_formula_structural   Nd2Ga7Co2Ag
_chemical_formula_sum   'Nd2 Ga7 Co2 Ag1'
_cell_volume   217.18595608
_cell_formula_units_Z   1
loop_
 _symmetry_equiv_pos_site_id
 _symmetry_equiv_pos_as_xyz
  1  'x, y, z'
loop_
 _atom_site_type_symbol
 _atom_site_label
 _atom_site_symmetry_multiplicity
 _atom_site_fract_x
 _atom_site_fract_y
 _atom_site_fract_z
 _atom_site_occupancy
  Nd  Nd0  1  0.880071  0.762461  0.760143  1
  Nd  Nd1  1  0.119929  0.237539  0.239857  1
  Ga  Ga2  1  0.500000  0.000000  0.000000  1
  Ga  Ga3  1  0.073798  0.736014  0.147594  1
  Ga  Ga4  1  0.926202  0.263986  0.852406  1
  Ga  Ga5  1  0.689672  0.548896  0.379343  1
  Ga  Ga6  1  0.310328  0.451104  0.620657  1
  Ga  Ga7  1  0.690700  0.946362  0.381400  1
  Ga  Ga8  1  0.309300  0.053638  0.618600  1
  Co  Co9  1  0.221766  0.748925  0.443533  1
  Co  Co10  1  0.778234  0.251075  0.556467  1
  Ag  Ag11  1  0.500000  0.500000  0.000000  1
