# generated using pymatgen
data_Dy2YHoPt4F28
_symmetry_space_group_name_H-M   'P 1'
_cell_length_a   5.55047407
_cell_length_b   8.88586674
_cell_length_c   11.99906600
_cell_angle_alpha   62.48188077
_cell_angle_beta   89.99091604
_cell_angle_gamma   89.98692409
_symmetry_Int_Tables_number   1
_chemical_formula_structural   Dy2YHoPt4F28
_chemical_formula_sum   'Dy2 Y1 Ho1 Pt4 F28'
_cell_volume   524.84939988
_cell_formula_units_Z   1
loop_
 _symmetry_equiv_pos_site_id
 _symmetry_equiv_pos_as_xyz
  1  'x, y, z'
loop_
 _atom_site_type_symbol
 _atom_site_label
 _atom_site_symmetry_multiplicity
 _atom_site_fract_x
 _atom_site_fract_y
 _atom_site_fract_z
 _atom_site_occupancy
  Dy  Dy0  1  0.761017  0.813758  0.764460  1
  Dy  Dy1  1  0.261003  0.186283  0.735517  1
  Y  Y2  1  0.238980  0.186015  0.235570  1
  Ho  Ho3  1  0.738953  0.814109  0.264332  1
  Pt  Pt4  1  0.758906  0.272143  0.956987  1
  Pt  Pt5  1  0.259025  0.727699  0.542874  1
  Pt  Pt6  1  0.241073  0.727741  0.043371  1
  Pt  Pt7  1  0.741046  0.272651  0.456778  1
  F  F8  1  0.435803  0.702783  0.915856  1
  F  F9  1  0.935855  0.297221  0.584201  1
  F  F10  1  0.564093  0.297220  0.084225  1
  F  F11  1  0.063417  0.703083  0.415504  1
  F  F12  1  0.440125  0.277992  0.542293  1
  F  F13  1  0.940207  0.722003  0.957730  1
  F  F14  1  0.560382  0.722398  0.457012  1
  F  F15  1  0.059884  0.277974  0.042330  1
  F  F16  1  0.774967  0.521118  0.858517  1
  F  F17  1  0.274971  0.478849  0.641486  1
  F  F18  1  0.225028  0.478797  0.141507  1
  F  F19  1  0.725080  0.521958  0.358284  1
  F  F20  1  0.754178  0.023019  0.050500  1
  F  F21  1  0.254165  0.976557  0.450032  1
  F  F22  1  0.245791  0.976526  0.950067  1
  F  F23  1  0.745793  0.023567  0.549895  1
  F  F24  1  0.966268  0.724813  0.636181  1
  F  F25  1  0.466192  0.275186  0.863813  1
  F  F26  1  0.033844  0.275160  0.363776  1
  F  F27  1  0.534266  0.725154  0.136561  1
  F  F28  1  0.051104  0.746115  0.175653  1
  F  F29  1  0.552231  0.254197  0.324552  1
  F  F30  1  0.947714  0.254198  0.824581  1
  F  F31  1  0.447709  0.745797  0.675401  1
  F  F32  1  0.417001  0.968974  0.232730  1
  F  F33  1  0.914291  0.028941  0.267420  1
  F  F34  1  0.584823  0.030246  0.767462  1
  F  F35  1  0.084817  0.969755  0.732540  1
