# generated using pymatgen
data_NaYb4Co4Br
_symmetry_space_group_name_H-M   'P 1'
_cell_length_a   3.88063800
_cell_length_b   3.88063742
_cell_length_c   18.10421600
_cell_angle_alpha   90.00000000
_cell_angle_beta   90.00000000
_cell_angle_gamma   119.99998788
_symmetry_Int_Tables_number   1
_chemical_formula_structural   NaYb4Co4Br
_chemical_formula_sum   'Na1 Yb4 Co4 Br1'
_cell_volume   236.11120986
_cell_formula_units_Z   1
loop_
 _symmetry_equiv_pos_site_id
 _symmetry_equiv_pos_as_xyz
  1  'x, y, z'
loop_
 _atom_site_type_symbol
 _atom_site_label
 _atom_site_symmetry_multiplicity
 _atom_site_fract_x
 _atom_site_fract_y
 _atom_site_fract_z
 _atom_site_occupancy
  Na  Na0  1  0.333333  0.666667  0.250000  1
  Yb  Yb1  1  0.000000  0.000000  0.080105  1
  Yb  Yb2  1  0.000000  0.000000  0.872974  1
  Yb  Yb3  1  0.000000  0.000000  0.627026  1
  Yb  Yb4  1  0.000000  0.000000  0.419895  1
  Co  Co5  1  0.333333  0.666667  0.523251  1
  Co  Co6  1  0.666667  0.333333  0.521763  1
  Co  Co7  1  0.666667  0.333333  0.978237  1
  Co  Co8  1  0.333333  0.666667  0.976749  1
  Br  Br9  1  0.666667  0.333333  0.750000  1
