# generated using pymatgen
data_Tb3PrIrRh3O14
_symmetry_space_group_name_H-M   'P 1'
_cell_length_a   7.32456946
_cell_length_b   7.26692396
_cell_length_c   7.26692400
_cell_angle_alpha   59.99999981
_cell_angle_beta   60.26000278
_cell_angle_gamma   60.26000600
_symmetry_Int_Tables_number   1
_chemical_formula_structural   Tb3PrIrRh3O14
_chemical_formula_sum   'Tb3 Pr1 Ir1 Rh3 O14'
_cell_volume   274.57688073
_cell_formula_units_Z   1
loop_
 _symmetry_equiv_pos_site_id
 _symmetry_equiv_pos_as_xyz
  1  'x, y, z'
loop_
 _atom_site_type_symbol
 _atom_site_label
 _atom_site_symmetry_multiplicity
 _atom_site_fract_x
 _atom_site_fract_y
 _atom_site_fract_z
 _atom_site_occupancy
  Tb  Tb0  1  0.125000  0.125000  0.625000  1
  Tb  Tb1  1  0.125000  0.125000  0.125000  1
  Tb  Tb2  1  0.125000  0.625000  0.125000  1
  Pr  Pr3  1  0.625000  0.125000  0.125000  1
  Ir  Ir4  1  0.125000  0.625000  0.625000  1
  Rh  Rh5  1  0.625000  0.625000  0.625000  1
  Rh  Rh6  1  0.625000  0.125000  0.625000  1
  Rh  Rh7  1  0.625000  0.625000  0.125000  1
  O  O8  1  0.962480  0.540595  0.540595  1
  O  O9  1  0.287520  0.293671  0.709405  1
  O  O10  1  0.962480  0.540595  0.956329  1
  O  O11  1  0.720053  0.289278  0.289278  1
  O  O12  1  0.529947  0.548608  0.960722  1
  O  O13  1  0.529947  0.960722  0.548608  1
  O  O14  1  0.529947  0.960722  0.960722  1
  O  O15  1  0.239074  0.253642  0.253642  1
  O  O16  1  0.287520  0.709405  0.709405  1
  O  O17  1  0.720053  0.289278  0.701392  1
  O  O18  1  0.010926  0.996358  0.996358  1
  O  O19  1  0.962480  0.956329  0.540595  1
  O  O20  1  0.287520  0.709405  0.293671  1
  O  O21  1  0.720053  0.701392  0.289278  1
