# generated using pymatgen
data_Dy5HoAl24(CuOs3)2
_symmetry_space_group_name_H-M   'P 1'
_cell_length_a   8.82807600
_cell_length_b   8.82782827
_cell_length_c   9.49583300
_cell_angle_alpha   89.99692121
_cell_angle_beta   90.00215287
_cell_angle_gamma   119.49133656
_symmetry_Int_Tables_number   1
_chemical_formula_structural   Dy5HoAl24(CuOs3)2
_chemical_formula_sum   'Dy5 Ho1 Al24 Cu2 Os6'
_cell_volume   644.14987926
_cell_formula_units_Z   1
loop_
 _symmetry_equiv_pos_site_id
 _symmetry_equiv_pos_as_xyz
  1  'x, y, z'
loop_
 _atom_site_type_symbol
 _atom_site_label
 _atom_site_symmetry_multiplicity
 _atom_site_fract_x
 _atom_site_fract_y
 _atom_site_fract_z
 _atom_site_occupancy
  Dy  Dy0  1  0.186174  0.383943  0.249966  1
  Dy  Dy1  1  0.616105  0.813894  0.250005  1
  Dy  Dy2  1  0.805015  0.195086  0.749956  1
  Dy  Dy3  1  0.813842  0.616157  0.749967  1
  Dy  Dy4  1  0.383881  0.186221  0.750003  1
  Ho  Ho5  1  0.195704  0.804381  0.249952  1
  Al  Al6  1  0.559810  0.440225  0.250109  1
  Al  Al7  1  0.561144  0.124122  0.249992  1
  Al  Al8  1  0.875947  0.438938  0.250011  1
  Al  Al9  1  0.440174  0.559862  0.750111  1
  Al  Al10  1  0.438712  0.875843  0.749990  1
  Al  Al11  1  0.124225  0.561383  0.750010  1
  Al  Al12  1  0.324002  0.157228  0.423027  1
  Al  Al13  1  0.835633  0.164375  0.425084  1
  Al  Al14  1  0.842550  0.675873  0.423011  1
  Al  Al15  1  0.675609  0.842275  0.576774  1
  Al  Al16  1  0.164346  0.835690  0.574501  1
  Al  Al17  1  0.157516  0.324281  0.576754  1
  Al  Al18  1  0.675790  0.842466  0.923232  1
  Al  Al19  1  0.164405  0.835725  0.925460  1
  Al  Al20  1  0.157699  0.324416  0.923209  1
  Al  Al21  1  0.324172  0.157423  0.076978  1
  Al  Al22  1  0.835698  0.164418  0.074873  1
  Al  Al23  1  0.842726  0.676007  0.076956  1
  Al  Al24  1  0.666832  0.333029  0.521531  1
  Al  Al25  1  0.332921  0.666922  0.478106  1
  Al  Al26  1  0.333053  0.667052  0.021846  1
  Al  Al27  1  0.666969  0.333164  0.978439  1
  Al  Al28  1  0.999393  0.000692  0.249974  1
  Al  Al29  1  0.001142  0.998951  0.749975  1
  Cu  Cu30  1  0.498554  0.498664  0.500231  1
  Cu  Cu31  1  0.500513  0.500818  0.000022  1
  Os  Os32  1  0.999863  0.999978  0.499949  1
  Os  Os33  1  0.000087  0.000178  0.000020  1
  Os  Os34  1  0.499845  0.999925  0.499829  1
  Os  Os35  1  0.999968  0.500180  0.499909  1
  Os  Os36  1  0.499881  0.999983  0.000104  1
  Os  Os37  1  0.000098  0.500231  0.000132  1
