# generated using pymatgen
data_Ca3Er2Si12Rh19
_symmetry_space_group_name_H-M   'P 1'
_cell_length_a   12.78622200
_cell_length_b   12.78622057
_cell_length_c   3.99641300
_cell_angle_alpha   90.00000000
_cell_angle_beta   90.00000000
_cell_angle_gamma   119.99999852
_symmetry_Int_Tables_number   1
_chemical_formula_structural   Ca3Er2Si12Rh19
_chemical_formula_sum   'Ca3 Er2 Si12 Rh19'
_cell_volume   565.82930179
_cell_formula_units_Z   1
loop_
 _symmetry_equiv_pos_site_id
 _symmetry_equiv_pos_as_xyz
  1  'x, y, z'
loop_
 _atom_site_type_symbol
 _atom_site_label
 _atom_site_symmetry_multiplicity
 _atom_site_fract_x
 _atom_site_fract_y
 _atom_site_fract_z
 _atom_site_occupancy
  Ca  Ca0  1  0.000000  0.183964  0.500000  1
  Ca  Ca1  1  0.816036  0.816036  0.500000  1
  Ca  Ca2  1  0.183964  0.000000  0.500000  1
  Er  Er3  1  0.666667  0.333333  0.000000  1
  Er  Er4  1  0.333333  0.666667  0.000000  1
  Si  Si5  1  0.476822  0.312887  0.500000  1
  Si  Si6  1  0.816376  0.000000  0.000000  1
  Si  Si7  1  0.183624  0.183624  0.000000  1
  Si  Si8  1  0.000000  0.816376  0.000000  1
  Si  Si9  1  0.372190  0.000000  0.000000  1
  Si  Si10  1  0.687113  0.163935  0.500000  1
  Si  Si11  1  0.836065  0.523178  0.500000  1
  Si  Si12  1  0.523178  0.836065  0.500000  1
  Si  Si13  1  0.163935  0.687113  0.500000  1
  Si  Si14  1  0.312887  0.476822  0.500000  1
  Si  Si15  1  0.000000  0.372190  0.000000  1
  Si  Si16  1  0.627810  0.627810  0.000000  1
  Rh  Rh17  1  0.805941  0.184341  0.000000  1
  Rh  Rh18  1  0.378400  0.194059  0.000000  1
  Rh  Rh19  1  0.639515  0.512010  0.500000  1
  Rh  Rh20  1  0.872495  0.360485  0.500000  1
  Rh  Rh21  1  0.360485  0.872495  0.500000  1
  Rh  Rh22  1  0.512010  0.639515  0.500000  1
  Rh  Rh23  1  0.127505  0.487990  0.500000  1
  Rh  Rh24  1  0.815659  0.621600  0.000000  1
  Rh  Rh25  1  0.621600  0.815659  0.000000  1
  Rh  Rh26  1  0.184341  0.805941  0.000000  1
  Rh  Rh27  1  0.194059  0.378400  0.000000  1
  Rh  Rh28  1  0.000000  0.720980  0.500000  1
  Rh  Rh29  1  0.279020  0.279020  0.500000  1
  Rh  Rh30  1  0.720980  0.000000  0.500000  1
  Rh  Rh31  1  0.000000  0.554471  0.000000  1
  Rh  Rh32  1  0.445529  0.445529  0.000000  1
  Rh  Rh33  1  0.554471  0.000000  0.000000  1
  Rh  Rh34  1  0.000000  0.000000  0.000000  1
  Rh  Rh35  1  0.487990  0.127505  0.500000  1
