# generated using pymatgen
data_Dy5Mg3P12(IrRh)8
_symmetry_space_group_name_H-M   'P 1'
_cell_length_a   12.80187553
_cell_length_b   12.80400858
_cell_length_c   3.96639600
_cell_angle_alpha   90.00000000
_cell_angle_beta   90.00000000
_cell_angle_gamma   119.88801631
_symmetry_Int_Tables_number   1
_chemical_formula_structural   Dy5Mg3P12(IrRh)8
_chemical_formula_sum   'Dy5 Mg3 P12 Ir8 Rh8'
_cell_volume   563.68337000
_cell_formula_units_Z   1
loop_
 _symmetry_equiv_pos_site_id
 _symmetry_equiv_pos_as_xyz
  1  'x, y, z'
loop_
 _atom_site_type_symbol
 _atom_site_label
 _atom_site_symmetry_multiplicity
 _atom_site_fract_x
 _atom_site_fract_y
 _atom_site_fract_z
 _atom_site_occupancy
  Dy  Dy0  1  0.333604  0.666733  0.500000  1
  Dy  Dy1  1  0.666424  0.333220  0.500000  1
  Dy  Dy2  1  0.000268  0.808592  0.000000  1
  Dy  Dy3  1  0.191387  0.191060  0.000000  1
  Dy  Dy4  1  0.808230  0.999407  0.000000  1
  Mg  Mg5  1  0.000038  0.445684  0.500000  1
  Mg  Mg6  1  0.554543  0.555720  0.500000  1
  Mg  Mg7  1  0.444383  0.998767  0.500000  1
  P  P8  1  0.999402  0.641726  0.500000  1
  P  P9  1  0.358794  0.358381  0.500000  1
  P  P10  1  0.642020  0.000845  0.500000  1
  P  P11  1  0.516367  0.690679  0.000000  1
  P  P12  1  0.309405  0.825623  0.000000  1
  P  P13  1  0.175219  0.484342  0.000000  1
  P  P14  1  0.484297  0.174715  0.000000  1
  P  P15  1  0.690243  0.515692  0.000000  1
  P  P16  1  0.824943  0.309449  0.000000  1
  P  P17  1  0.000004  0.177747  0.500000  1
  P  P18  1  0.822094  0.822185  0.500000  1
  P  P19  1  0.177653  0.999896  0.500000  1
  Ir  Ir20  1  0.000055  0.278933  0.000000  1
  Ir  Ir21  1  0.721192  0.721371  0.000000  1
  Ir  Ir22  1  0.279003  0.999778  0.000000  1
  Ir  Ir23  1  0.178509  0.374132  0.500000  1
  Ir  Ir24  1  0.374142  0.178332  0.500000  1
  Ir  Ir25  1  0.803313  0.624861  0.500000  1
  Ir  Ir26  1  0.821822  0.196394  0.500000  1
  Ir  Ir27  1  0.999666  0.000156  0.500000  1
  Rh  Rh28  1  0.509175  0.869812  0.000000  1
  Rh  Rh29  1  0.130488  0.639447  0.000000  1
  Rh  Rh30  1  0.360989  0.491136  0.000000  1
  Rh  Rh31  1  0.490762  0.360782  0.000000  1
  Rh  Rh32  1  0.870274  0.509290  0.000000  1
  Rh  Rh33  1  0.639599  0.129701  0.000000  1
  Rh  Rh34  1  0.625228  0.803719  0.500000  1
  Rh  Rh35  1  0.196467  0.821691  0.500000  1
