# generated using pymatgen
data_Tb3Sc7Co7Si20Ir
_symmetry_space_group_name_H-M   'P 1'
_cell_length_a   12.18230122
_cell_length_b   12.20754579
_cell_length_c   4.00438600
_cell_angle_alpha   90.00000000
_cell_angle_beta   90.00000000
_cell_angle_gamma   89.96859366
_symmetry_Int_Tables_number   1
_chemical_formula_structural   Tb3Sc7Co7Si20Ir
_chemical_formula_sum   'Tb3 Sc7 Co7 Si20 Ir1'
_cell_volume   595.51617871
_cell_formula_units_Z   1
loop_
 _symmetry_equiv_pos_site_id
 _symmetry_equiv_pos_as_xyz
  1  'x, y, z'
loop_
 _atom_site_type_symbol
 _atom_site_label
 _atom_site_symmetry_multiplicity
 _atom_site_fract_x
 _atom_site_fract_y
 _atom_site_fract_z
 _atom_site_occupancy
  Tb  Tb0  1  0.112107  0.615463  0.500000  1
  Tb  Tb1  1  0.886306  0.385066  0.500000  1
  Tb  Tb2  1  0.612321  0.888254  0.500000  1
  Sc  Sc3  1  0.389731  0.111039  0.500000  1
  Sc  Sc4  1  0.673679  0.177576  0.500000  1
  Sc  Sc5  1  0.322109  0.831038  0.500000  1
  Sc  Sc6  1  0.176217  0.318638  0.500000  1
  Sc  Sc7  1  0.822402  0.674508  0.500000  1
  Sc  Sc8  1  0.001703  0.999058  0.000000  1
  Sc  Sc9  1  0.506193  0.499595  0.000000  1
  Co  Co10  1  0.024284  0.240156  0.000000  1
  Co  Co11  1  0.976308  0.756582  0.000000  1
  Co  Co12  1  0.244578  0.977122  0.000000  1
  Co  Co13  1  0.524911  0.254490  0.000000  1
  Co  Co14  1  0.756492  0.023427  0.000000  1
  Co  Co15  1  0.476686  0.746767  0.000000  1
  Co  Co16  1  0.743237  0.524572  0.000000  1
  Si  Si17  1  0.568989  0.071180  0.000000  1
  Si  Si18  1  0.429384  0.933878  0.000000  1
  Si  Si19  1  0.064903  0.425562  0.000000  1
  Si  Si20  1  0.929229  0.569818  0.000000  1
  Si  Si21  1  0.197092  0.154815  0.000000  1
  Si  Si22  1  0.804517  0.842690  0.000000  1
  Si  Si23  1  0.156787  0.807658  0.000000  1
  Si  Si24  1  0.695712  0.342008  0.000000  1
  Si  Si25  1  0.842531  0.193917  0.000000  1
  Si  Si26  1  0.303609  0.668089  0.000000  1
  Si  Si27  1  0.656659  0.696340  0.000000  1
  Si  Si28  1  0.344784  0.293086  0.000000  1
  Si  Si29  1  0.003989  0.159220  0.500000  1
  Si  Si30  1  0.988568  0.838232  0.500000  1
  Si  Si31  1  0.165962  0.003982  0.500000  1
  Si  Si32  1  0.498802  0.334469  0.500000  1
  Si  Si33  1  0.838943  0.009668  0.500000  1
  Si  Si34  1  0.485588  0.663480  0.500000  1
  Si  Si35  1  0.664553  0.501752  0.500000  1
  Si  Si36  1  0.353256  0.490243  0.500000  1
  Ir  Ir37  1  0.256883  0.476556  0.000000  1
