# generated using pymatgen
data_La4SiNi13
_symmetry_space_group_name_H-M   'P 1'
_cell_length_a   5.14383166
_cell_length_b   4.96541382
_cell_length_c   12.70239049
_cell_angle_alpha   78.64361123
_cell_angle_beta   78.31828914
_cell_angle_gamma   58.80407785
_symmetry_Int_Tables_number   1
_chemical_formula_structural   La4SiNi13
_chemical_formula_sum   'La4 Si1 Ni13'
_cell_volume   270.12853776
_cell_formula_units_Z   1
loop_
 _symmetry_equiv_pos_site_id
 _symmetry_equiv_pos_as_xyz
  1  'x, y, z'
loop_
 _atom_site_type_symbol
 _atom_site_label
 _atom_site_symmetry_multiplicity
 _atom_site_fract_x
 _atom_site_fract_y
 _atom_site_fract_z
 _atom_site_occupancy
  La  La0  1  0.947379  0.947436  0.157805  1
  La  La1  1  0.052621  0.052564  0.842195  1
  La  La2  1  0.852559  0.854858  0.440024  1
  La  La3  1  0.147441  0.145142  0.559976  1
  Si  Si4  1  0.500000  0.000000  0.000000  1
  Ni  Ni5  1  0.500000  0.500000  0.500000  1
  Ni  Ni6  1  0.714902  0.733085  0.837110  1
  Ni  Ni7  1  0.285098  0.266915  0.162890  1
  Ni  Ni8  1  0.606369  0.625610  0.161651  1
  Ni  Ni9  1  0.393631  0.374390  0.838349  1
  Ni  Ni10  1  0.000000  0.500000  0.000000  1
  Ni  Ni11  1  0.500000  0.500000  0.000000  1
  Ni  Ni12  1  0.392550  0.393058  0.323731  1
  Ni  Ni13  1  0.890662  0.393058  0.323731  1
  Ni  Ni14  1  0.390565  0.891434  0.327435  1
  Ni  Ni15  1  0.607450  0.606942  0.676269  1
  Ni  Ni16  1  0.109338  0.606942  0.676269  1
  Ni  Ni17  1  0.609435  0.108566  0.672565  1
