# generated using pymatgen
data_Tm4MgSc(B2Ir5)2
_symmetry_space_group_name_H-M   'P 1'
_cell_length_a   3.14971200
_cell_length_b   9.69866600
_cell_length_c   9.69866600
_cell_angle_alpha   90.00000000
_cell_angle_beta   90.00000000
_cell_angle_gamma   90.00000000
_symmetry_Int_Tables_number   1
_chemical_formula_structural   Tm4MgSc(B2Ir5)2
_chemical_formula_sum   'Tm4 Mg1 Sc1 B4 Ir10'
_cell_volume   296.27489440
_cell_formula_units_Z   1
loop_
 _symmetry_equiv_pos_site_id
 _symmetry_equiv_pos_as_xyz
  1  'x, y, z'
loop_
 _atom_site_type_symbol
 _atom_site_label
 _atom_site_symmetry_multiplicity
 _atom_site_fract_x
 _atom_site_fract_y
 _atom_site_fract_z
 _atom_site_occupancy
  Tm  Tm0  1  0.000000  0.175183  0.678619  1
  Tm  Tm1  1  0.000000  0.824817  0.321381  1
  Tm  Tm2  1  0.000000  0.321381  0.175183  1
  Tm  Tm3  1  0.000000  0.678619  0.824817  1
  Mg  Mg4  1  0.000000  0.000000  0.000000  1
  Sc  Sc5  1  0.000000  0.500000  0.500000  1
  B  B6  1  0.000000  0.623928  0.119185  1
  B  B7  1  0.000000  0.376072  0.880815  1
  B  B8  1  0.000000  0.880815  0.623928  1
  B  B9  1  0.000000  0.119185  0.376072  1
  Ir  Ir10  1  0.500000  0.069132  0.223245  1
  Ir  Ir11  1  0.500000  0.930868  0.776755  1
  Ir  Ir12  1  0.500000  0.776755  0.069132  1
  Ir  Ir13  1  0.500000  0.430892  0.724775  1
  Ir  Ir14  1  0.500000  0.223245  0.930868  1
  Ir  Ir15  1  0.500000  0.569108  0.275225  1
  Ir  Ir16  1  0.500000  0.724775  0.569108  1
  Ir  Ir17  1  0.500000  0.275225  0.430892  1
  Ir  Ir18  1  0.500000  0.000000  0.500000  1
  Ir  Ir19  1  0.500000  0.500000  0.000000  1
