# generated using pymatgen
data_Er6TmZn(Co3Sn11)2
_symmetry_space_group_name_H-M   'P 1'
_cell_length_a   9.62898701
_cell_length_b   9.62898629
_cell_length_c   9.92402601
_cell_angle_alpha   89.99574555
_cell_angle_beta   90.00425466
_cell_angle_gamma   119.99889603
_symmetry_Int_Tables_number   1
_chemical_formula_structural   Er6TmZn(Co3Sn11)2
_chemical_formula_sum   'Er6 Tm1 Zn1 Co6 Sn22'
_cell_volume   796.86458133
_cell_formula_units_Z   1
loop_
 _symmetry_equiv_pos_site_id
 _symmetry_equiv_pos_as_xyz
  1  'x, y, z'
loop_
 _atom_site_type_symbol
 _atom_site_label
 _atom_site_symmetry_multiplicity
 _atom_site_fract_x
 _atom_site_fract_y
 _atom_site_fract_z
 _atom_site_occupancy
  Er  Er0  1  0.520505  0.479495  0.693958  1
  Er  Er1  1  0.479489  0.958974  0.305945  1
  Er  Er2  1  0.520529  0.041065  0.694012  1
  Er  Er3  1  0.041026  0.520511  0.305945  1
  Er  Er4  1  0.958935  0.479471  0.694012  1
  Er  Er5  1  0.999988  0.000012  0.000034  1
  Tm  Tm6  1  0.479588  0.520412  0.305968  1
  Zn  Zn7  1  0.999997  0.000003  0.499988  1
  Co  Co8  1  0.832091  0.167909  0.197599  1
  Co  Co9  1  0.167928  0.832072  0.802425  1
  Co  Co10  1  0.831917  0.664087  0.197632  1
  Co  Co11  1  0.167926  0.335841  0.802416  1
  Co  Co12  1  0.335913  0.168083  0.197632  1
  Co  Co13  1  0.664159  0.832074  0.802416  1
  Sn  Sn14  1  0.114789  0.885211  0.276201  1
  Sn  Sn15  1  0.885202  0.114798  0.723803  1
  Sn  Sn16  1  0.114894  0.229706  0.276222  1
  Sn  Sn17  1  0.885210  0.770402  0.723810  1
  Sn  Sn18  1  0.770294  0.885106  0.276222  1
  Sn  Sn19  1  0.229598  0.114790  0.723810  1
  Sn  Sn20  1  0.782320  0.217680  0.453878  1
  Sn  Sn21  1  0.217687  0.782313  0.546093  1
  Sn  Sn22  1  0.782114  0.564615  0.453807  1
  Sn  Sn23  1  0.217760  0.435357  0.545976  1
  Sn  Sn24  1  0.435385  0.217886  0.453807  1
  Sn  Sn25  1  0.564643  0.782240  0.545976  1
  Sn  Sn26  1  0.345932  0.000035  0.000008  1
  Sn  Sn27  1  0.654108  0.000022  0.000044  1
  Sn  Sn28  1  0.999978  0.345892  0.000044  1
  Sn  Sn29  1  0.999965  0.654068  0.000008  1
  Sn  Sn30  1  0.654048  0.654042  0.000056  1
  Sn  Sn31  1  0.345958  0.345952  0.000056  1
  Sn  Sn32  1  0.333479  0.666521  0.120842  1
  Sn  Sn33  1  0.666662  0.333338  0.879337  1
  Sn  Sn34  1  0.333335  0.666665  0.818817  1
  Sn  Sn35  1  0.666650  0.333350  0.181198  1
