# generated using pymatgen
data_Zr24Zn3Se5
_symmetry_space_group_name_H-M   'P 1'
_cell_length_a   11.05131237
_cell_length_b   11.09101079
_cell_length_c   5.49337680
_cell_angle_alpha   89.90596496
_cell_angle_beta   89.73146031
_cell_angle_gamma   90.01526495
_symmetry_Int_Tables_number   1
_chemical_formula_structural   Zr24Zn3Se5
_chemical_formula_sum   'Zr24 Zn3 Se5'
_cell_volume   673.31610107
_cell_formula_units_Z   1
loop_
 _symmetry_equiv_pos_site_id
 _symmetry_equiv_pos_as_xyz
  1  'x, y, z'
loop_
 _atom_site_type_symbol
 _atom_site_label
 _atom_site_symmetry_multiplicity
 _atom_site_fract_x
 _atom_site_fract_y
 _atom_site_fract_z
 _atom_site_occupancy
  Zr  Zr0  1  0.918025  0.605648  0.542734  1
  Zr  Zr1  1  0.082787  0.395104  0.541648  1
  Zr  Zr2  1  0.894329  0.416225  0.029662  1
  Zr  Zr3  1  0.103174  0.582495  0.040378  1
  Zr  Zr4  1  0.582640  0.895918  0.962224  1
  Zr  Zr5  1  0.416583  0.104434  0.961875  1
  Zr  Zr6  1  0.606172  0.082318  0.465855  1
  Zr  Zr7  1  0.394691  0.917328  0.462515  1
  Zr  Zr8  1  0.858015  0.974339  0.716769  1
  Zr  Zr9  1  0.141298  0.025848  0.718744  1
  Zr  Zr10  1  0.529211  0.359227  0.214306  1
  Zr  Zr11  1  0.477381  0.641640  0.219704  1
  Zr  Zr12  1  0.637607  0.524645  0.785201  1
  Zr  Zr13  1  0.360238  0.474170  0.782401  1
  Zr  Zr14  1  0.972168  0.140325  0.280658  1
  Zr  Zr15  1  0.025496  0.860163  0.281621  1
  Zr  Zr16  1  0.814468  0.715393  0.009648  1
  Zr  Zr17  1  0.183127  0.284989  0.004359  1
  Zr  Zr18  1  0.785174  0.319458  0.513259  1
  Zr  Zr19  1  0.215538  0.682620  0.504874  1
  Zr  Zr20  1  0.682627  0.785198  0.492725  1
  Zr  Zr21  1  0.318305  0.214728  0.490290  1
  Zr  Zr22  1  0.713482  0.180974  0.989066  1
  Zr  Zr23  1  0.284312  0.818089  0.991705  1
  Zn  Zn24  1  0.299828  0.460583  0.290294  1
  Zn  Zn25  1  0.960128  0.201620  0.788305  1
  Zn  Zn26  1  0.038937  0.797395  0.792601  1
  Se  Se27  1  0.793238  0.960935  0.208101  1
  Se  Se28  1  0.205549  0.039773  0.209945  1
  Se  Se29  1  0.537960  0.292314  0.708915  1
  Se  Se30  1  0.459778  0.707055  0.710488  1
  Se  Se31  1  0.707733  0.539051  0.289130  1
