# generated using pymatgen
data_Ba6Mn2WO12
_symmetry_space_group_name_H-M   'P 1'
_cell_length_a   9.28412818
_cell_length_b   9.28412756
_cell_length_c   7.26901638
_cell_angle_alpha   67.55200512
_cell_angle_beta   67.55200783
_cell_angle_gamma   36.83580709
_symmetry_Int_Tables_number   1
_chemical_formula_structural   Ba6Mn2WO12
_chemical_formula_sum   'Ba6 Mn2 W1 O12'
_cell_volume   343.86910730
_cell_formula_units_Z   1
loop_
 _symmetry_equiv_pos_site_id
 _symmetry_equiv_pos_as_xyz
  1  'x, y, z'
loop_
 _atom_site_type_symbol
 _atom_site_label
 _atom_site_symmetry_multiplicity
 _atom_site_fract_x
 _atom_site_fract_y
 _atom_site_fract_z
 _atom_site_occupancy
  Ba  Ba0  1  0.874198  0.874198  0.717579  1
  Ba  Ba1  1  0.220591  0.220591  0.711317  1
  Ba  Ba2  1  0.548715  0.548715  0.705681  1
  Ba  Ba3  1  0.451285  0.451285  0.294319  1
  Ba  Ba4  1  0.779409  0.779409  0.288683  1
  Ba  Ba5  1  0.125802  0.125802  0.282421  1
  Mn  Mn6  1  0.669133  0.669133  0.999744  1
  Mn  Mn7  1  0.330867  0.330867  0.000256  1
  W  W8  1  0.000000  0.000000  0.000000  1
  O  O9  1  0.950271  0.950271  0.298366  1
  O  O10  1  0.283944  0.283944  0.304427  1
  O  O11  1  0.614420  0.614420  0.305829  1
  O  O12  1  0.385580  0.385580  0.694171  1
  O  O13  1  0.716056  0.716056  0.695573  1
  O  O14  1  0.049729  0.049729  0.701634  1
  O  O15  1  0.500000  0.000000  0.000000  1
  O  O16  1  0.841812  0.314261  0.000415  1
  O  O17  1  0.158188  0.685739  0.999585  1
  O  O18  1  0.000000  0.500000  0.000000  1
  O  O19  1  0.314261  0.841812  0.000415  1
  O  O20  1  0.685739  0.158188  0.999585  1
