# generated using pymatgen
data_Tb9YCo3Ru
_symmetry_space_group_name_H-M   'P 1'
_cell_length_a   6.34585650
_cell_length_b   7.03588004
_cell_length_c   8.63527219
_cell_angle_alpha   96.24890256
_cell_angle_beta   111.87715862
_cell_angle_gamma   89.89864531
_symmetry_Int_Tables_number   1
_chemical_formula_structural   Tb9YCo3Ru
_chemical_formula_sum   'Tb9 Y1 Co3 Ru1'
_cell_volume   355.34746076
_cell_formula_units_Z   1
loop_
 _symmetry_equiv_pos_site_id
 _symmetry_equiv_pos_as_xyz
  1  'x, y, z'
loop_
 _atom_site_type_symbol
 _atom_site_label
 _atom_site_symmetry_multiplicity
 _atom_site_fract_x
 _atom_site_fract_y
 _atom_site_fract_z
 _atom_site_occupancy
  Tb  Tb0  1  0.977511  0.911179  0.189581  1
  Tb  Tb1  1  0.798713  0.589122  0.810882  1
  Tb  Tb2  1  0.014616  0.090047  0.815394  1
  Tb  Tb3  1  0.199373  0.417887  0.189465  1
  Tb  Tb4  1  0.650577  0.811743  0.433820  1
  Tb  Tb5  1  0.217810  0.683623  0.570371  1
  Tb  Tb6  1  0.354726  0.183237  0.567407  1
  Tb  Tb7  1  0.787596  0.318297  0.431969  1
  Tb  Tb8  1  0.427943  0.745470  0.997542  1
  Y  Y9  1  0.572428  0.253108  0.998026  1
  Co  Co10  1  0.824466  0.574810  0.225429  1
  Co  Co11  1  0.603693  0.925697  0.778008  1
  Co  Co12  1  0.174299  0.426562  0.773373  1
  Ru  Ru13  1  0.396247  0.069221  0.218730  1
