# generated using pymatgen
data_Tb20Os8PdAu3
_symmetry_space_group_name_H-M   'P 1'
_cell_length_a   11.15456148
_cell_length_b   11.16740185
_cell_length_c   6.34421700
_cell_angle_alpha   89.98139121
_cell_angle_beta   89.96178419
_cell_angle_gamma   90.51734646
_symmetry_Int_Tables_number   1
_chemical_formula_structural   Tb20Os8PdAu3
_chemical_formula_sum   'Tb20 Os8 Pd1 Au3'
_cell_volume   790.25062923
_cell_formula_units_Z   1
loop_
 _symmetry_equiv_pos_site_id
 _symmetry_equiv_pos_as_xyz
  1  'x, y, z'
loop_
 _atom_site_type_symbol
 _atom_site_label
 _atom_site_symmetry_multiplicity
 _atom_site_fract_x
 _atom_site_fract_y
 _atom_site_fract_z
 _atom_site_occupancy
  Tb  Tb0  1  0.296012  0.081939  0.356411  1
  Tb  Tb1  1  0.293845  0.906409  0.874105  1
  Tb  Tb2  1  0.697850  0.091501  0.860204  1
  Tb  Tb3  1  0.693482  0.916166  0.358839  1
  Tb  Tb4  1  0.571392  0.793356  0.863976  1
  Tb  Tb5  1  0.575337  0.212168  0.371729  1
  Tb  Tb6  1  0.403843  0.793616  0.376099  1
  Tb  Tb7  1  0.419681  0.209702  0.870340  1
  Tb  Tb8  1  0.210366  0.424037  0.630175  1
  Tb  Tb9  1  0.212235  0.587495  0.124759  1
  Tb  Tb10  1  0.795682  0.416666  0.128597  1
  Tb  Tb11  1  0.794433  0.575729  0.637503  1
  Tb  Tb12  1  0.927637  0.702893  0.143728  1
  Tb  Tb13  1  0.910866  0.300294  0.637834  1
  Tb  Tb14  1  0.095378  0.703985  0.627415  1
  Tb  Tb15  1  0.095289  0.303919  0.139053  1
  Tb  Tb16  1  0.002418  0.990444  0.499648  1
  Tb  Tb17  1  0.006965  0.996770  0.000106  1
  Tb  Tb18  1  0.498241  0.496129  0.999203  1
  Tb  Tb19  1  0.498356  0.499013  0.499915  1
  Os  Os20  1  0.147956  0.851308  0.249606  1
  Os  Os21  1  0.654694  0.348479  0.749270  1
  Os  Os22  1  0.345860  0.343441  0.253388  1
  Os  Os23  1  0.350771  0.651419  0.750804  1
  Os  Os24  1  0.499579  0.999411  0.115155  1
  Os  Os25  1  0.499614  0.998820  0.617008  1
  Os  Os26  1  0.000921  0.499796  0.883399  1
  Os  Os27  1  0.000306  0.499398  0.384360  1
  Pd  Pd28  1  0.657758  0.655931  0.246442  1
  Au  Au29  1  0.846751  0.151241  0.250767  1
  Au  Au30  1  0.839363  0.840748  0.754366  1
  Au  Au31  1  0.157119  0.157774  0.745798  1
