# generated using pymatgen
data_Dy5Y12Er3(CoSb2)4
_symmetry_space_group_name_H-M   'P 1'
_cell_length_a   7.90795941
_cell_length_b   8.74129637
_cell_length_c   12.25710664
_cell_angle_alpha   89.97625345
_cell_angle_beta   90.02859460
_cell_angle_gamma   90.02311953
_symmetry_Int_Tables_number   1
_chemical_formula_structural   Dy5Y12Er3(CoSb2)4
_chemical_formula_sum   'Dy5 Y12 Er3 Co4 Sb8'
_cell_volume   847.28226151
_cell_formula_units_Z   1
loop_
 _symmetry_equiv_pos_site_id
 _symmetry_equiv_pos_as_xyz
  1  'x, y, z'
loop_
 _atom_site_type_symbol
 _atom_site_label
 _atom_site_symmetry_multiplicity
 _atom_site_fract_x
 _atom_site_fract_y
 _atom_site_fract_z
 _atom_site_occupancy
  Dy  Dy0  1  0.822675  0.966328  0.065697  1
  Dy  Dy1  1  0.323099  0.033556  0.434482  1
  Dy  Dy2  1  0.176990  0.466540  0.934461  1
  Dy  Dy3  1  0.676899  0.533547  0.565530  1
  Dy  Dy4  1  0.177362  0.033517  0.934358  1
  Y  Y5  1  0.155001  0.749845  0.204048  1
  Y  Y6  1  0.654970  0.250121  0.296106  1
  Y  Y7  1  0.844761  0.250028  0.796013  1
  Y  Y8  1  0.345093  0.750041  0.703866  1
  Y  Y9  1  0.457331  0.749931  0.998426  1
  Y  Y10  1  0.957046  0.249958  0.501582  1
  Y  Y11  1  0.543109  0.250152  0.001588  1
  Y  Y12  1  0.042951  0.749960  0.498399  1
  Y  Y13  1  0.626109  0.750063  0.306592  1
  Y  Y14  1  0.126002  0.250106  0.193612  1
  Y  Y15  1  0.373944  0.250076  0.693363  1
  Y  Y16  1  0.873623  0.749817  0.806428  1
  Er  Er17  1  0.676142  0.966437  0.565513  1
  Er  Er18  1  0.823656  0.533665  0.065619  1
  Er  Er19  1  0.323802  0.466338  0.434447  1
  Co  Co20  1  0.438757  0.750098  0.491509  1
  Co  Co21  1  0.938236  0.250279  0.008642  1
  Co  Co22  1  0.561253  0.250101  0.508498  1
  Co  Co23  1  0.061036  0.749629  0.991489  1
  Sb  Sb24  1  0.930660  0.992687  0.326724  1
  Sb  Sb25  1  0.430569  0.007286  0.173275  1
  Sb  Sb26  1  0.069345  0.492709  0.673284  1
  Sb  Sb27  1  0.569335  0.507277  0.826726  1
  Sb  Sb28  1  0.069072  0.007245  0.673190  1
  Sb  Sb29  1  0.569544  0.992663  0.826522  1
  Sb  Sb30  1  0.930803  0.507264  0.326661  1
  Sb  Sb31  1  0.430829  0.492735  0.173352  1
