# generated using pymatgen
data_Tb16Mg2Cd2TcNi3
_symmetry_space_group_name_H-M   'P 1'
_cell_length_a   9.68551554
_cell_length_b   9.68551527
_cell_length_c   9.71084165
_cell_angle_alpha   59.32520925
_cell_angle_beta   59.32521077
_cell_angle_gamma   59.23060823
_symmetry_Int_Tables_number   1
_chemical_formula_structural   Tb16Mg2Cd2TcNi3
_chemical_formula_sum   'Tb16 Mg2 Cd2 Tc1 Ni3'
_cell_volume   633.78902189
_cell_formula_units_Z   1
loop_
 _symmetry_equiv_pos_site_id
 _symmetry_equiv_pos_as_xyz
  1  'x, y, z'
loop_
 _atom_site_type_symbol
 _atom_site_label
 _atom_site_symmetry_multiplicity
 _atom_site_fract_x
 _atom_site_fract_y
 _atom_site_fract_z
 _atom_site_occupancy
  Tb  Tb0  1  0.347418  0.347418  0.347312  1
  Tb  Tb1  1  0.350139  0.350139  0.956233  1
  Tb  Tb2  1  0.349306  0.958981  0.349996  1
  Tb  Tb3  1  0.958981  0.349306  0.349996  1
  Tb  Tb4  1  0.811747  0.187868  0.186628  1
  Tb  Tb5  1  0.186796  0.811371  0.811158  1
  Tb  Tb6  1  0.187868  0.811747  0.186628  1
  Tb  Tb7  1  0.811371  0.186796  0.811158  1
  Tb  Tb8  1  0.188835  0.188835  0.810217  1
  Tb  Tb9  1  0.812421  0.812421  0.185873  1
  Tb  Tb10  1  0.936740  0.565700  0.565316  1
  Tb  Tb11  1  0.556202  0.939705  0.937302  1
  Tb  Tb12  1  0.565700  0.936740  0.565316  1
  Tb  Tb13  1  0.939705  0.556202  0.937302  1
  Tb  Tb14  1  0.566257  0.566257  0.933750  1
  Tb  Tb15  1  0.938963  0.938963  0.555154  1
  Mg  Mg16  1  0.575455  0.575455  0.579408  1
  Mg  Mg17  1  0.574482  0.574482  0.266682  1
  Cd  Cd18  1  0.580194  0.255106  0.580262  1
  Cd  Cd19  1  0.255106  0.580194  0.580262  1
  Tc  Tc20  1  0.144022  0.144022  0.142624  1
  Ni  Ni21  1  0.143330  0.143330  0.576136  1
  Ni  Ni22  1  0.143324  0.575638  0.142642  1
  Ni  Ni23  1  0.575638  0.143324  0.142642  1
