# generated using pymatgen
data_La2Pr2MgRu
_symmetry_space_group_name_H-M   'P 1'
_cell_length_a   10.07986127
_cell_length_b   10.07986140
_cell_length_c   10.14197500
_cell_angle_alpha   59.79595085
_cell_angle_beta   59.79595042
_cell_angle_gamma   60.40810453
_symmetry_Int_Tables_number   1
_chemical_formula_structural   La2Pr2MgRu
_chemical_formula_sum   'La8 Pr8 Mg4 Ru4'
_cell_volume   728.59046686
_cell_formula_units_Z   4
loop_
 _symmetry_equiv_pos_site_id
 _symmetry_equiv_pos_as_xyz
  1  'x, y, z'
loop_
 _atom_site_type_symbol
 _atom_site_label
 _atom_site_symmetry_multiplicity
 _atom_site_fract_x
 _atom_site_fract_y
 _atom_site_fract_z
 _atom_site_occupancy
  La  La0  1  0.343511  0.343511  0.344664  1
  La  La1  1  0.343511  0.343511  0.968314  1
  La  La2  1  0.344664  0.968314  0.343511  1
  La  La3  1  0.968314  0.344664  0.343511  1
  La  La4  1  0.813796  0.186204  0.186204  1
  La  La5  1  0.186204  0.813796  0.813796  1
  La  La6  1  0.186204  0.813796  0.186204  1
  La  La7  1  0.813796  0.186204  0.813796  1
  Pr  Pr8  1  0.190048  0.190048  0.809952  1
  Pr  Pr9  1  0.809952  0.809952  0.190048  1
  Pr  Pr10  1  0.935586  0.564414  0.564414  1
  Pr  Pr11  1  0.564414  0.935586  0.935586  1
  Pr  Pr12  1  0.564414  0.935586  0.564414  1
  Pr  Pr13  1  0.935586  0.564414  0.935586  1
  Pr  Pr14  1  0.561948  0.561948  0.938052  1
  Pr  Pr15  1  0.938052  0.938052  0.561948  1
  Mg  Mg16  1  0.579596  0.579596  0.577284  1
  Mg  Mg17  1  0.579596  0.579596  0.263523  1
  Mg  Mg18  1  0.577284  0.263523  0.579596  1
  Mg  Mg19  1  0.263523  0.577284  0.579596  1
  Ru  Ru20  1  0.133204  0.133204  0.146168  1
  Ru  Ru21  1  0.133204  0.133204  0.587425  1
  Ru  Ru22  1  0.146168  0.587425  0.133204  1
  Ru  Ru23  1  0.587425  0.146168  0.133204  1
