# generated using pymatgen
data_Nd3In3NiRh2
_symmetry_space_group_name_H-M   'P 1'
_cell_length_a   7.57336900
_cell_length_b   7.57336930
_cell_length_c   4.06675300
_cell_angle_alpha   90.00000000
_cell_angle_beta   90.00000000
_cell_angle_gamma   120.00000307
_symmetry_Int_Tables_number   1
_chemical_formula_structural   Nd3In3NiRh2
_chemical_formula_sum   'Nd3 In3 Ni1 Rh2'
_cell_volume   202.00246366
_cell_formula_units_Z   1
loop_
 _symmetry_equiv_pos_site_id
 _symmetry_equiv_pos_as_xyz
  1  'x, y, z'
loop_
 _atom_site_type_symbol
 _atom_site_label
 _atom_site_symmetry_multiplicity
 _atom_site_fract_x
 _atom_site_fract_y
 _atom_site_fract_z
 _atom_site_occupancy
  Nd  Nd0  1  0.412674  0.412674  0.500000  1
  Nd  Nd1  1  0.587326  0.000000  0.500000  1
  Nd  Nd2  1  0.000000  0.587326  0.500000  1
  In  In3  1  0.756675  0.756675  0.000000  1
  In  In4  1  0.243325  0.000000  0.000000  1
  In  In5  1  0.000000  0.243325  0.000000  1
  Ni  Ni6  1  0.000000  0.000000  0.500000  1
  Rh  Rh7  1  0.666667  0.333333  0.000000  1
  Rh  Rh8  1  0.333333  0.666667  0.000000  1
