# generated using pymatgen
data_LiFeCoAs2Pd
_symmetry_space_group_name_H-M   'P 1'
_cell_length_a   3.76250500
_cell_length_b   3.72745400
_cell_length_c   6.07103400
_cell_angle_alpha   90.00000000
_cell_angle_beta   90.00000000
_cell_angle_gamma   90.00000000
_symmetry_Int_Tables_number   1
_chemical_formula_structural   LiFeCoAs2Pd
_chemical_formula_sum   'Li1 Fe1 Co1 As2 Pd1'
_cell_volume   85.14360677
_cell_formula_units_Z   1
loop_
 _symmetry_equiv_pos_site_id
 _symmetry_equiv_pos_as_xyz
  1  'x, y, z'
loop_
 _atom_site_type_symbol
 _atom_site_label
 _atom_site_symmetry_multiplicity
 _atom_site_fract_x
 _atom_site_fract_y
 _atom_site_fract_z
 _atom_site_occupancy
  Li  Li0  1  0.500000  0.000000  0.844475  1
  Fe  Fe1  1  0.500000  0.500000  0.501528  1
  Co  Co2  1  0.000000  0.000000  0.502483  1
  As  As3  1  0.000000  0.500000  0.731388  1
  As  As4  1  0.500000  0.000000  0.272255  1
  Pd  Pd5  1  0.000000  0.500000  0.147871  1
