# generated using pymatgen
data_NdDy2RuO7
_symmetry_space_group_name_H-M   'P 1'
_cell_length_a   6.46022504
_cell_length_b   6.46022476
_cell_length_c   7.50687900
_cell_angle_alpha   90.00000000
_cell_angle_beta   90.00000000
_cell_angle_gamma   110.16248987
_symmetry_Int_Tables_number   1
_chemical_formula_structural   NdDy2RuO7
_chemical_formula_sum   'Nd2 Dy4 Ru2 O14'
_cell_volume   294.09676210
_cell_formula_units_Z   2
loop_
 _symmetry_equiv_pos_site_id
 _symmetry_equiv_pos_as_xyz
  1  'x, y, z'
loop_
 _atom_site_type_symbol
 _atom_site_label
 _atom_site_symmetry_multiplicity
 _atom_site_fract_x
 _atom_site_fract_y
 _atom_site_fract_z
 _atom_site_occupancy
  Nd  Nd0  1  0.000000  0.000000  0.500000  1
  Nd  Nd1  1  0.000000  0.000000  0.000000  1
  Dy  Dy2  1  0.481046  0.928962  0.750000  1
  Dy  Dy3  1  0.518954  0.071038  0.250000  1
  Dy  Dy4  1  0.928962  0.481046  0.750000  1
  Dy  Dy5  1  0.071038  0.518954  0.250000  1
  Ru  Ru6  1  0.500000  0.500000  0.500000  1
  Ru  Ru7  1  0.500000  0.500000  0.000000  1
  O  O8  1  0.589784  0.589784  0.750000  1
  O  O9  1  0.410216  0.410216  0.250000  1
  O  O10  1  0.837513  0.116147  0.750000  1
  O  O11  1  0.162487  0.883853  0.250000  1
  O  O12  1  0.116147  0.837513  0.750000  1
  O  O13  1  0.883853  0.162487  0.250000  1
  O  O14  1  0.440274  0.181980  0.962517  1
  O  O15  1  0.559726  0.818020  0.462517  1
  O  O16  1  0.181980  0.440274  0.962517  1
  O  O17  1  0.818020  0.559726  0.462517  1
  O  O18  1  0.440274  0.181980  0.537483  1
  O  O19  1  0.559726  0.818020  0.037483  1
  O  O20  1  0.818020  0.559726  0.037483  1
  O  O21  1  0.181980  0.440274  0.537483  1
