# generated using pymatgen
data_TbHo7Sc12Si15Os
_symmetry_space_group_name_H-M   'P 1'
_cell_length_a   7.07851101
_cell_length_b   7.43327816
_cell_length_c   13.94845816
_cell_angle_alpha   90.01691337
_cell_angle_beta   90.00428937
_cell_angle_gamma   90.21742801
_symmetry_Int_Tables_number   1
_chemical_formula_structural   TbHo7Sc12Si15Os
_chemical_formula_sum   'Tb1 Ho7 Sc12 Si15 Os1'
_cell_volume   733.91430581
_cell_formula_units_Z   1
loop_
 _symmetry_equiv_pos_site_id
 _symmetry_equiv_pos_as_xyz
  1  'x, y, z'
loop_
 _atom_site_type_symbol
 _atom_site_label
 _atom_site_symmetry_multiplicity
 _atom_site_fract_x
 _atom_site_fract_y
 _atom_site_fract_z
 _atom_site_occupancy
  Tb  Tb0  1  0.011244  0.178782  0.096037  1
  Ho  Ho1  1  0.990927  0.827792  0.903664  1
  Ho  Ho2  1  0.488515  0.676864  0.904170  1
  Ho  Ho3  1  0.990941  0.827826  0.596295  1
  Ho  Ho4  1  0.510881  0.322918  0.096221  1
  Ho  Ho5  1  0.011336  0.178966  0.403772  1
  Ho  Ho6  1  0.510933  0.322873  0.403787  1
  Ho  Ho7  1  0.488491  0.676847  0.595805  1
  Sc  Sc8  1  0.155996  0.497215  0.750018  1
  Sc  Sc9  1  0.837981  0.495345  0.250044  1
  Sc  Sc10  1  0.339209  0.005533  0.250038  1
  Sc  Sc11  1  0.668956  0.997829  0.750023  1
  Sc  Sc12  1  0.318024  0.172148  0.627359  1
  Sc  Sc13  1  0.671742  0.825312  0.373834  1
  Sc  Sc14  1  0.171077  0.678035  0.374078  1
  Sc  Sc15  1  0.671714  0.825249  0.126168  1
  Sc  Sc16  1  0.837478  0.318928  0.627482  1
  Sc  Sc17  1  0.318116  0.172114  0.872614  1
  Sc  Sc18  1  0.837401  0.319016  0.872494  1
  Sc  Sc19  1  0.171088  0.678024  0.125942  1
  Si  Si20  1  0.968746  0.885479  0.250080  1
  Si  Si21  1  0.469106  0.613656  0.250017  1
  Si  Si22  1  0.529436  0.389699  0.749997  1
  Si  Si23  1  0.286443  0.866248  0.749996  1
  Si  Si24  1  0.713085  0.130685  0.250147  1
  Si  Si25  1  0.213890  0.370469  0.250156  1
  Si  Si26  1  0.778794  0.627306  0.749997  1
  Si  Si27  1  0.160175  0.469011  0.536905  1
  Si  Si28  1  0.843954  0.535810  0.461490  1
  Si  Si29  1  0.344560  0.965981  0.459951  1
  Si  Si30  1  0.843850  0.536082  0.038445  1
  Si  Si31  1  0.655744  0.034018  0.538190  1
  Si  Si32  1  0.160244  0.469256  0.963009  1
  Si  Si33  1  0.655613  0.033963  0.961782  1
  Si  Si34  1  0.344930  0.965806  0.039982  1
  Os  Os35  1  0.029376  0.108917  0.750012  1
