# generated using pymatgen
data_La2Nd2Dy2OsI10
_symmetry_space_group_name_H-M   'P 1'
_cell_length_a   7.95460510
_cell_length_b   10.12793893
_cell_length_c   9.90639069
_cell_angle_alpha   107.50978914
_cell_angle_beta   95.76199703
_cell_angle_gamma   105.45674349
_symmetry_Int_Tables_number   1
_chemical_formula_structural   La2Nd2Dy2OsI10
_chemical_formula_sum   'La2 Nd2 Dy2 Os1 I10'
_cell_volume   719.29222826
_cell_formula_units_Z   1
loop_
 _symmetry_equiv_pos_site_id
 _symmetry_equiv_pos_as_xyz
  1  'x, y, z'
loop_
 _atom_site_type_symbol
 _atom_site_label
 _atom_site_symmetry_multiplicity
 _atom_site_fract_x
 _atom_site_fract_y
 _atom_site_fract_z
 _atom_site_occupancy
  La  La0  1  0.387017  0.959775  0.730884  1
  La  La1  1  0.612983  0.040225  0.269116  1
  Nd  Nd2  1  0.471168  0.294231  0.591798  1
  Nd  Nd3  1  0.528832  0.705769  0.408202  1
  Dy  Dy4  1  0.852100  0.128161  0.668180  1
  Dy  Dy5  1  0.147900  0.871839  0.331820  1
  Os  Os6  1  0.500000  0.000000  0.500000  1
  I  I7  1  0.415143  0.630004  0.681105  1
  I  I8  1  0.584857  0.369996  0.318895  1
  I  I9  1  0.272340  0.258947  0.847589  1
  I  I10  1  0.727660  0.741053  0.152411  1
  I  I11  1  0.861300  0.446152  0.770436  1
  I  I12  1  0.138700  0.553848  0.229564  1
  I  I13  1  0.046769  0.174219  0.412263  1
  I  I14  1  0.230871  0.910467  0.046882  1
  I  I15  1  0.769129  0.089533  0.953118  1
  I  I16  1  0.953231  0.825781  0.587737  1
