# generated using pymatgen
data_Nd4Ga5NiIr8
_symmetry_space_group_name_H-M   'P 1'
_cell_length_a   12.43019058
_cell_length_b   12.42084645
_cell_length_c   12.43019107
_cell_angle_alpha   25.82877220
_cell_angle_beta   26.23460030
_cell_angle_gamma   25.82877300
_symmetry_Int_Tables_number   1
_chemical_formula_structural   Nd4Ga5NiIr8
_chemical_formula_sum   'Nd4 Ga5 Ni1 Ir8'
_cell_volume   323.96174909
_cell_formula_units_Z   1
loop_
 _symmetry_equiv_pos_site_id
 _symmetry_equiv_pos_as_xyz
  1  'x, y, z'
loop_
 _atom_site_type_symbol
 _atom_site_label
 _atom_site_symmetry_multiplicity
 _atom_site_fract_x
 _atom_site_fract_y
 _atom_site_fract_z
 _atom_site_occupancy
  Nd  Nd0  1  0.950596  0.949026  0.950596  1
  Nd  Nd1  1  0.049404  0.050974  0.049404  1
  Nd  Nd2  1  0.853777  0.852751  0.853777  1
  Nd  Nd3  1  0.146223  0.147249  0.146223  1
  Ga  Ga4  1  0.500000  0.500000  0.500000  1
  Ga  Ga5  1  0.716102  0.728974  0.716102  1
  Ga  Ga6  1  0.283898  0.271026  0.283898  1
  Ga  Ga7  1  0.609138  0.618285  0.609138  1
  Ga  Ga8  1  0.390862  0.381715  0.390862  1
  Ni  Ni9  1  0.500000  0.000000  0.500000  1
  Ir  Ir10  1  0.500000  0.500000  0.000000  1
  Ir  Ir11  1  0.000000  0.500000  0.500000  1
  Ir  Ir12  1  0.388530  0.893536  0.388530  1
  Ir  Ir13  1  0.389349  0.387179  0.896193  1
  Ir  Ir14  1  0.896193  0.387179  0.389349  1
  Ir  Ir15  1  0.611470  0.106464  0.611470  1
  Ir  Ir16  1  0.610651  0.612821  0.103807  1
  Ir  Ir17  1  0.103807  0.612821  0.610651  1
