# generated using pymatgen
data_Hf2NiGeRh4
_symmetry_space_group_name_H-M   'P 1'
_cell_length_a   4.05392800
_cell_length_b   5.48673882
_cell_length_c   10.86152524
_cell_angle_alpha   89.11660358
_cell_angle_beta   90.00000000
_cell_angle_gamma   90.00000000
_symmetry_Int_Tables_number   1
_chemical_formula_structural   Hf2NiGeRh4
_chemical_formula_sum   'Hf4 Ni2 Ge2 Rh8'
_cell_volume   241.56249795
_cell_formula_units_Z   2
loop_
 _symmetry_equiv_pos_site_id
 _symmetry_equiv_pos_as_xyz
  1  'x, y, z'
loop_
 _atom_site_type_symbol
 _atom_site_label
 _atom_site_symmetry_multiplicity
 _atom_site_fract_x
 _atom_site_fract_y
 _atom_site_fract_z
 _atom_site_occupancy
  Hf  Hf0  1  0.500000  0.180407  0.642325  1
  Hf  Hf1  1  0.500000  0.819593  0.357675  1
  Hf  Hf2  1  0.500000  0.678153  0.858987  1
  Hf  Hf3  1  0.500000  0.321847  0.141013  1
  Ni  Ni4  1  0.000000  0.432336  0.747366  1
  Ni  Ni5  1  0.000000  0.567664  0.252634  1
  Ge  Ge6  1  0.000000  0.500000  0.500000  1
  Ge  Ge7  1  0.000000  0.000000  0.000000  1
  Rh  Rh8  1  0.500000  0.191520  0.890493  1
  Rh  Rh9  1  0.500000  0.808480  0.109507  1
  Rh  Rh10  1  0.500000  0.680331  0.610886  1
  Rh  Rh11  1  0.500000  0.319669  0.389114  1
  Rh  Rh12  1  0.000000  0.000000  0.500000  1
  Rh  Rh13  1  0.000000  0.500000  0.000000  1
  Rh  Rh14  1  0.000000  0.069423  0.244391  1
  Rh  Rh15  1  0.000000  0.930577  0.755609  1
