# generated using pymatgen
data_Tb3Y3Al24Os5Pd3
_symmetry_space_group_name_H-M   'P 1'
_cell_length_a   8.85060545
_cell_length_b   8.88061896
_cell_length_c   9.57458610
_cell_angle_alpha   90.22580621
_cell_angle_beta   89.84175833
_cell_angle_gamma   119.98214728
_symmetry_Int_Tables_number   1
_chemical_formula_structural   Tb3Y3Al24Os5Pd3
_chemical_formula_sum   'Tb3 Y3 Al24 Os5 Pd3'
_cell_volume   651.84059335
_cell_formula_units_Z   1
loop_
 _symmetry_equiv_pos_site_id
 _symmetry_equiv_pos_as_xyz
  1  'x, y, z'
loop_
 _atom_site_type_symbol
 _atom_site_label
 _atom_site_symmetry_multiplicity
 _atom_site_fract_x
 _atom_site_fract_y
 _atom_site_fract_z
 _atom_site_occupancy
  Tb  Tb0  1  0.386519  0.195568  0.749151  1
  Tb  Tb1  1  0.194367  0.812043  0.251422  1
  Tb  Tb2  1  0.805644  0.187934  0.748551  1
  Y  Y3  1  0.198594  0.385143  0.252175  1
  Y  Y4  1  0.801445  0.614866  0.747818  1
  Y  Y5  1  0.612920  0.804191  0.250884  1
  Al  Al6  1  0.334821  0.664392  0.027305  1
  Al  Al7  1  0.665307  0.335684  0.972808  1
  Al  Al8  1  0.662442  0.330855  0.524706  1
  Al  Al9  1  0.337705  0.669192  0.475155  1
  Al  Al10  1  0.167793  0.325510  0.577472  1
  Al  Al11  1  0.832163  0.674494  0.422501  1
  Al  Al12  1  0.670905  0.835484  0.575018  1
  Al  Al13  1  0.832129  0.674699  0.077257  1
  Al  Al14  1  0.329098  0.164488  0.424888  1
  Al  Al15  1  0.167856  0.325322  0.922763  1
  Al  Al16  1  0.167542  0.843139  0.577945  1
  Al  Al17  1  0.326629  0.169071  0.078502  1
  Al  Al18  1  0.832416  0.156791  0.421998  1
  Al  Al19  1  0.673409  0.830931  0.921556  1
  Al  Al20  1  0.839617  0.162824  0.080989  1
  Al  Al21  1  0.160368  0.837155  0.919056  1
  Al  Al22  1  0.563069  0.125424  0.252255  1
  Al  Al23  1  0.436966  0.874457  0.747739  1
  Al  Al24  1  0.876208  0.438198  0.249849  1
  Al  Al25  1  0.123756  0.561787  0.750143  1
  Al  Al26  1  0.562533  0.438849  0.249621  1
  Al  Al27  1  0.437509  0.561360  0.750406  1
  Al  Al28  1  0.002359  0.000975  0.250262  1
  Al  Al29  1  0.997739  0.999076  0.749726  1
  Os  Os30  1  0.500040  0.999978  0.499975  1
  Os  Os31  1  0.500046  0.500106  0.000063  1
  Os  Os32  1  0.500001  0.500002  0.500006  1
  Os  Os33  1  0.999956  0.999997  0.000032  1
  Os  Os34  1  0.999937  0.999980  0.499949  1
  Pd  Pd35  1  0.500061  0.999968  0.000051  1
  Pd  Pd36  1  0.000066  0.500028  0.999994  1
  Pd  Pd37  1  0.000067  0.500039  0.500009  1
