# generated using pymatgen
data_Y2Fe2NiP7Ru9
_symmetry_space_group_name_H-M   'P 1'
_cell_length_a   9.37811620
_cell_length_b   9.28332125
_cell_length_c   3.84261900
_cell_angle_alpha   90.00000000
_cell_angle_beta   90.00000000
_cell_angle_gamma   120.06597052
_symmetry_Int_Tables_number   1
_chemical_formula_structural   Y2Fe2NiP7Ru9
_chemical_formula_sum   'Y2 Fe2 Ni1 P7 Ru9'
_cell_volume   289.52619289
_cell_formula_units_Z   1
loop_
 _symmetry_equiv_pos_site_id
 _symmetry_equiv_pos_as_xyz
  1  'x, y, z'
loop_
 _atom_site_type_symbol
 _atom_site_label
 _atom_site_symmetry_multiplicity
 _atom_site_fract_x
 _atom_site_fract_y
 _atom_site_fract_z
 _atom_site_occupancy
  Y  Y0  1  0.664766  0.335510  0.000000  1
  Y  Y1  1  0.332956  0.666018  0.500000  1
  Fe  Fe2  1  0.269133  0.111620  0.000000  1
  Fe  Fe3  1  0.842630  0.730950  0.000000  1
  Ni  Ni4  1  0.891067  0.159087  0.000000  1
  P  P5  1  0.303364  0.891105  0.000000  1
  P  P6  1  0.590686  0.697309  0.000000  1
  P  P7  1  0.113038  0.415502  0.000000  1
  P  P8  1  0.397748  0.282491  0.500000  1
  P  P9  1  0.882515  0.601150  0.500000  1
  P  P10  1  0.710536  0.112360  0.500000  1
  P  P11  1  0.003598  0.998404  0.000000  1
  Ru  Ru12  1  0.060727  0.637298  0.000000  1
  Ru  Ru13  1  0.577102  0.939019  0.000000  1
  Ru  Ru14  1  0.362401  0.424655  0.000000  1
  Ru  Ru15  1  0.434867  0.050286  0.500000  1
  Ru  Ru16  1  0.615419  0.562742  0.500000  1
  Ru  Ru17  1  0.944988  0.381791  0.500000  1
  Ru  Ru18  1  0.084929  0.882142  0.500000  1
  Ru  Ru19  1  0.796548  0.913642  0.500000  1
  Ru  Ru20  1  0.120981  0.206922  0.500000  1
