# generated using pymatgen
data_Zr3TiV2(SiOs)6
_symmetry_space_group_name_H-M   'P 1'
_cell_length_a   7.51935578
_cell_length_b   7.50422952
_cell_length_c   7.51935598
_cell_angle_alpha   128.18481854
_cell_angle_beta   122.94093336
_cell_angle_gamma   80.73188170
_symmetry_Int_Tables_number   1
_chemical_formula_structural   Zr3TiV2(SiOs)6
_chemical_formula_sum   'Zr3 Ti1 V2 Si6 Os6'
_cell_volume   269.84606329
_cell_formula_units_Z   1
loop_
 _symmetry_equiv_pos_site_id
 _symmetry_equiv_pos_as_xyz
  1  'x, y, z'
loop_
 _atom_site_type_symbol
 _atom_site_label
 _atom_site_symmetry_multiplicity
 _atom_site_fract_x
 _atom_site_fract_y
 _atom_site_fract_z
 _atom_site_occupancy
  Zr  Zr0  1  0.032121  0.011580  0.479459  1
  Zr  Zr1  1  0.971433  0.445820  0.974387  1
  Zr  Zr2  1  0.240235  0.567538  0.827303  1
  Ti  Ti3  1  0.760279  0.593488  0.333209  1
  V  V4  1  0.441341  0.407134  0.465793  1
  V  V5  1  0.550717  0.999339  0.948623  1
  Si  Si6  1  0.227756  0.996580  0.268824  1
  Si  Si7  1  0.786213  0.003951  0.717738  1
  Si  Si8  1  0.181437  0.670747  0.517974  1
  Si  Si9  1  0.798809  0.336515  0.474036  1
  Si  Si10  1  0.652773  0.670747  0.989311  1
  Si  Si11  1  0.362480  0.336515  0.037706  1
  Os  Os12  1  0.961572  0.250325  0.216769  1
  Os  Os13  1  0.533555  0.250325  0.788753  1
  Os  Os14  1  0.415009  0.753648  0.422351  1
  Os  Os15  1  0.583694  0.005049  0.335768  1
  Os  Os16  1  0.831295  0.753648  0.838638  1
  Os  Os17  1  0.169279  0.005049  0.921354  1
