# generated using pymatgen
data_Tm4MnRe2Ru5
_symmetry_space_group_name_H-M   'P 1'
_cell_length_a   5.36220332
_cell_length_b   5.14573014
_cell_length_c   8.92941900
_cell_angle_alpha   90.00000000
_cell_angle_beta   90.00000000
_cell_angle_gamma   119.78184889
_symmetry_Int_Tables_number   1
_chemical_formula_structural   Tm4MnRe2Ru5
_chemical_formula_sum   'Tm4 Mn1 Re2 Ru5'
_cell_volume   213.84278775
_cell_formula_units_Z   1
loop_
 _symmetry_equiv_pos_site_id
 _symmetry_equiv_pos_as_xyz
  1  'x, y, z'
loop_
 _atom_site_type_symbol
 _atom_site_label
 _atom_site_symmetry_multiplicity
 _atom_site_fract_x
 _atom_site_fract_y
 _atom_site_fract_z
 _atom_site_occupancy
  Tm  Tm0  1  0.670239  0.336622  0.566089  1
  Tm  Tm1  1  0.327765  0.662191  0.436489  1
  Tm  Tm2  1  0.327765  0.662191  0.063511  1
  Tm  Tm3  1  0.670239  0.336622  0.933911  1
  Mn  Mn4  1  0.165966  0.330752  0.750000  1
  Re  Re5  1  0.841194  0.672189  0.250000  1
  Re  Re6  1  0.835138  0.176549  0.250000  1
  Ru  Ru7  1  0.987146  0.993851  0.503580  1
  Ru  Ru8  1  0.987146  0.993851  0.996420  1
  Ru  Ru9  1  0.177805  0.827632  0.750000  1
  Ru  Ru10  1  0.654048  0.828746  0.750000  1
  Ru  Ru11  1  0.355550  0.178806  0.250000  1
