# generated using pymatgen
data_Sr2CuIr2
_symmetry_space_group_name_H-M   'P 1'
_cell_length_a   5.91720469
_cell_length_b   5.91720542
_cell_length_c   5.91720603
_cell_angle_alpha   134.22714734
_cell_angle_beta   128.70854151
_cell_angle_gamma   71.16380118
_symmetry_Int_Tables_number   1
_chemical_formula_structural   Sr2CuIr2
_chemical_formula_sum   'Sr2 Cu1 Ir2'
_cell_volume   113.44606778
_cell_formula_units_Z   1
loop_
 _symmetry_equiv_pos_site_id
 _symmetry_equiv_pos_as_xyz
  1  'x, y, z'
loop_
 _atom_site_type_symbol
 _atom_site_label
 _atom_site_symmetry_multiplicity
 _atom_site_fract_x
 _atom_site_fract_y
 _atom_site_fract_z
 _atom_site_occupancy
  Sr  Sr0  1  0.691970  0.191970  0.499999  1
  Sr  Sr1  1  0.308029  0.808030  0.500001  1
  Cu  Cu2  1  0.000000  0.000000  0.000000  1
  Ir  Ir3  1  0.744996  0.500000  0.244996  1
  Ir  Ir4  1  0.255003  0.500001  0.755004  1
