# generated using pymatgen
data_Ce3Nd13(CdIr)4
_symmetry_space_group_name_H-M   'P 1'
_cell_length_a   9.90028517
_cell_length_b   9.97001350
_cell_length_c   9.97001400
_cell_angle_alpha   60.00000499
_cell_angle_beta   59.76674762
_cell_angle_gamma   59.76675404
_symmetry_Int_Tables_number   1
_chemical_formula_structural   Ce3Nd13(CdIr)4
_chemical_formula_sum   'Ce3 Nd13 Cd4 Ir4'
_cell_volume   693.40038015
_cell_formula_units_Z   1
loop_
 _symmetry_equiv_pos_site_id
 _symmetry_equiv_pos_as_xyz
  1  'x, y, z'
loop_
 _atom_site_type_symbol
 _atom_site_label
 _atom_site_symmetry_multiplicity
 _atom_site_fract_x
 _atom_site_fract_y
 _atom_site_fract_z
 _atom_site_occupancy
  Ce  Ce0  1  0.342648  0.345471  0.345471  1
  Ce  Ce1  1  0.342648  0.345471  0.966409  1
  Ce  Ce2  1  0.342648  0.966409  0.345471  1
  Nd  Nd3  1  0.951195  0.349602  0.349602  1
  Nd  Nd4  1  0.810448  0.189964  0.189964  1
  Nd  Nd5  1  0.192495  0.808482  0.808482  1
  Nd  Nd6  1  0.192495  0.808482  0.190541  1
  Nd  Nd7  1  0.810448  0.189964  0.809626  1
  Nd  Nd8  1  0.192495  0.190541  0.808482  1
  Nd  Nd9  1  0.810448  0.809626  0.189964  1
  Nd  Nd10  1  0.939515  0.561848  0.561848  1
  Nd  Nd11  1  0.559792  0.940059  0.940059  1
  Nd  Nd12  1  0.559792  0.940059  0.560090  1
  Nd  Nd13  1  0.939515  0.561848  0.936789  1
  Nd  Nd14  1  0.559792  0.560090  0.940059  1
  Nd  Nd15  1  0.939515  0.936789  0.561848  1
  Cd  Cd16  1  0.576527  0.580686  0.580686  1
  Cd  Cd17  1  0.576527  0.580686  0.262101  1
  Cd  Cd18  1  0.576527  0.262101  0.580686  1
  Cd  Cd19  1  0.262029  0.579323  0.579323  1
  Ir  Ir20  1  0.151987  0.139680  0.139680  1
  Ir  Ir21  1  0.151987  0.139680  0.568651  1
  Ir  Ir22  1  0.151987  0.568651  0.139680  1
  Ir  Ir23  1  0.566538  0.144487  0.144487  1
