# generated using pymatgen
data_Sm8Sc11Si16Ag
_symmetry_space_group_name_H-M   'P 1'
_cell_length_a   7.12785317
_cell_length_b   7.47373129
_cell_length_c   14.14354900
_cell_angle_alpha   90.00000000
_cell_angle_beta   90.00000000
_cell_angle_gamma   89.89221822
_symmetry_Int_Tables_number   1
_chemical_formula_structural   Sm8Sc11Si16Ag
_chemical_formula_sum   'Sm8 Sc11 Si16 Ag1'
_cell_volume   753.44898984
_cell_formula_units_Z   1
loop_
 _symmetry_equiv_pos_site_id
 _symmetry_equiv_pos_as_xyz
  1  'x, y, z'
loop_
 _atom_site_type_symbol
 _atom_site_label
 _atom_site_symmetry_multiplicity
 _atom_site_fract_x
 _atom_site_fract_y
 _atom_site_fract_z
 _atom_site_occupancy
  Sm  Sm0  1  0.011555  0.173151  0.097118  1
  Sm  Sm1  1  0.990345  0.816956  0.899612  1
  Sm  Sm2  1  0.481802  0.673150  0.899642  1
  Sm  Sm3  1  0.990345  0.816956  0.600388  1
  Sm  Sm4  1  0.511799  0.325296  0.097215  1
  Sm  Sm5  1  0.011555  0.173151  0.402882  1
  Sm  Sm6  1  0.511799  0.325296  0.402785  1
  Sm  Sm7  1  0.481802  0.673150  0.600358  1
  Sc  Sc8  1  0.839278  0.499319  0.250000  1
  Sc  Sc9  1  0.339874  0.000805  0.250000  1
  Sc  Sc10  1  0.658623  0.000456  0.750000  1
  Sc  Sc11  1  0.326962  0.183045  0.626033  1
  Sc  Sc12  1  0.671241  0.823413  0.375108  1
  Sc  Sc13  1  0.171388  0.677686  0.374153  1
  Sc  Sc14  1  0.671241  0.823413  0.124892  1
  Sc  Sc15  1  0.834804  0.327483  0.626076  1
  Sc  Sc16  1  0.326962  0.183045  0.873967  1
  Sc  Sc17  1  0.834804  0.327483  0.873924  1
  Sc  Sc18  1  0.171388  0.677686  0.125847  1
  Si  Si19  1  0.029684  0.107701  0.750000  1
  Si  Si20  1  0.968067  0.881166  0.250000  1
  Si  Si21  1  0.467304  0.621657  0.250000  1
  Si  Si22  1  0.539849  0.380090  0.750000  1
  Si  Si23  1  0.290125  0.894149  0.750000  1
  Si  Si24  1  0.712427  0.121611  0.250000  1
  Si  Si25  1  0.211773  0.377592  0.250000  1
  Si  Si26  1  0.776744  0.623242  0.750000  1
  Si  Si27  1  0.156702  0.459511  0.532052  1
  Si  Si28  1  0.846111  0.536354  0.461407  1
  Si  Si29  1  0.347634  0.964253  0.462415  1
  Si  Si30  1  0.846111  0.536354  0.038593  1
  Si  Si31  1  0.655252  0.034388  0.540377  1
  Si  Si32  1  0.156702  0.459511  0.967948  1
  Si  Si33  1  0.655252  0.034388  0.959623  1
  Si  Si34  1  0.347634  0.964253  0.037585  1
  Ag  Ag35  1  0.155061  0.502841  0.750000  1
