# generated using pymatgen
data_Yb3DyTm4(B6Os)4
_symmetry_space_group_name_H-M   'P 1'
_cell_length_a   3.62481900
_cell_length_b   9.11608147
_cell_length_c   11.50753201
_cell_angle_alpha   89.93932024
_cell_angle_beta   90.00000000
_cell_angle_gamma   90.00000000
_symmetry_Int_Tables_number   1
_chemical_formula_structural   Yb3DyTm4(B6Os)4
_chemical_formula_sum   'Yb3 Dy1 Tm4 B24 Os4'
_cell_volume   380.25634673
_cell_formula_units_Z   1
loop_
 _symmetry_equiv_pos_site_id
 _symmetry_equiv_pos_as_xyz
  1  'x, y, z'
loop_
 _atom_site_type_symbol
 _atom_site_label
 _atom_site_symmetry_multiplicity
 _atom_site_fract_x
 _atom_site_fract_y
 _atom_site_fract_z
 _atom_site_occupancy
  Yb  Yb0  1  0.000000  0.324369  0.414452  1
  Yb  Yb1  1  0.000000  0.675678  0.585142  1
  Yb  Yb2  1  0.000000  0.822915  0.086229  1
  Dy  Dy3  1  0.000000  0.176259  0.914781  1
  Tm  Tm4  1  0.000000  0.941548  0.367993  1
  Tm  Tm5  1  0.000000  0.057614  0.630309  1
  Tm  Tm6  1  0.000000  0.443427  0.131835  1
  Tm  Tm7  1  0.000000  0.558342  0.868931  1
  B  B8  1  0.500000  0.553175  0.433059  1
  B  B9  1  0.500000  0.446266  0.567726  1
  B  B10  1  0.500000  0.053607  0.067019  1
  B  B11  1  0.500000  0.945819  0.933250  1
  B  B12  1  0.500000  0.748914  0.417583  1
  B  B13  1  0.500000  0.250900  0.582390  1
  B  B14  1  0.500000  0.249454  0.081988  1
  B  B15  1  0.500000  0.751222  0.918026  1
  B  B16  1  0.500000  0.791281  0.264238  1
  B  B17  1  0.500000  0.208340  0.735686  1
  B  B18  1  0.500000  0.291622  0.234827  1
  B  B19  1  0.500000  0.709429  0.765001  1
  B  B20  1  0.500000  0.630707  0.185675  1
  B  B21  1  0.500000  0.369379  0.815215  1
  B  B22  1  0.500000  0.130770  0.313848  1
  B  B23  1  0.500000  0.869593  0.684946  1
  B  B24  1  0.500000  0.982399  0.210966  1
  B  B25  1  0.500000  0.017263  0.788156  1
  B  B26  1  0.500000  0.483120  0.288700  1
  B  B27  1  0.500000  0.516768  0.712030  1
  B  B28  1  0.500000  0.598696  0.027314  1
  B  B29  1  0.500000  0.400928  0.972826  1
  B  B30  1  0.500000  0.096896  0.472751  1
  B  B31  1  0.500000  0.903024  0.526303  1
  Os  Os32  1  0.000000  0.638819  0.320572  1
  Os  Os33  1  0.000000  0.360085  0.680837  1
  Os  Os34  1  0.000000  0.138568  0.179300  1
  Os  Os35  1  0.000000  0.862803  0.820099  1
