# generated using pymatgen
data_Ho4Tm12ZnNi4Ag3
_symmetry_space_group_name_H-M   'P 1'
_cell_length_a   9.28778704
_cell_length_b   9.35528919
_cell_length_c   9.35528900
_cell_angle_alpha   60.00000422
_cell_angle_beta   59.75929339
_cell_angle_gamma   59.75929811
_symmetry_Int_Tables_number   1
_chemical_formula_structural   Ho4Tm12ZnNi4Ag3
_chemical_formula_sum   'Ho4 Tm12 Zn1 Ni4 Ag3'
_cell_volume   572.69316814
_cell_formula_units_Z   1
loop_
 _symmetry_equiv_pos_site_id
 _symmetry_equiv_pos_as_xyz
  1  'x, y, z'
loop_
 _atom_site_type_symbol
 _atom_site_label
 _atom_site_symmetry_multiplicity
 _atom_site_fract_x
 _atom_site_fract_y
 _atom_site_fract_z
 _atom_site_occupancy
  Ho  Ho0  1  0.350455  0.352055  0.352055  1
  Ho  Ho1  1  0.350455  0.352055  0.945436  1
  Ho  Ho2  1  0.350455  0.945436  0.352055  1
  Ho  Ho3  1  0.946955  0.351015  0.351015  1
  Tm  Tm4  1  0.811813  0.188233  0.188233  1
  Tm  Tm5  1  0.188641  0.810848  0.810848  1
  Tm  Tm6  1  0.188641  0.810848  0.189664  1
  Tm  Tm7  1  0.811813  0.188233  0.811721  1
  Tm  Tm8  1  0.188641  0.189664  0.810848  1
  Tm  Tm9  1  0.811813  0.811721  0.188233  1
  Tm  Tm10  1  0.936692  0.564923  0.564923  1
  Tm  Tm11  1  0.564249  0.935744  0.935744  1
  Tm  Tm12  1  0.564249  0.935744  0.564262  1
  Tm  Tm13  1  0.936692  0.564923  0.933463  1
  Tm  Tm14  1  0.564249  0.564262  0.935744  1
  Tm  Tm15  1  0.936692  0.933463  0.564923  1
  Zn  Zn16  1  0.257686  0.580772  0.580772  1
  Ni  Ni17  1  0.142624  0.143053  0.143053  1
  Ni  Ni18  1  0.142624  0.143053  0.571272  1
  Ni  Ni19  1  0.142624  0.571272  0.143053  1
  Ni  Ni20  1  0.571093  0.142969  0.142969  1
  Ag  Ag21  1  0.580286  0.583165  0.583165  1
  Ag  Ag22  1  0.580286  0.583165  0.253387  1
  Ag  Ag23  1  0.580286  0.253387  0.583165  1
