# generated using pymatgen
data_Ta6AlCdS12
_symmetry_space_group_name_H-M   'P 1'
_cell_length_a   5.79346600
_cell_length_b   5.79346673
_cell_length_c   13.08896300
_cell_angle_alpha   90.00000000
_cell_angle_beta   90.00000000
_cell_angle_gamma   120.00000724
_symmetry_Int_Tables_number   1
_chemical_formula_structural   Ta6AlCdS12
_chemical_formula_sum   'Ta6 Al1 Cd1 S12'
_cell_volume   380.46334344
_cell_formula_units_Z   1
loop_
 _symmetry_equiv_pos_site_id
 _symmetry_equiv_pos_as_xyz
  1  'x, y, z'
loop_
 _atom_site_type_symbol
 _atom_site_label
 _atom_site_symmetry_multiplicity
 _atom_site_fract_x
 _atom_site_fract_y
 _atom_site_fract_z
 _atom_site_occupancy
  Ta  Ta0  1  0.000000  0.000000  0.517630  1
  Ta  Ta1  1  0.000000  0.000000  0.982370  1
  Ta  Ta2  1  0.333333  0.666667  0.980455  1
  Ta  Ta3  1  0.666667  0.333333  0.985347  1
  Ta  Ta4  1  0.666667  0.333333  0.514653  1
  Ta  Ta5  1  0.333333  0.666667  0.519545  1
  Al  Al6  1  0.666667  0.333333  0.750000  1
  Cd  Cd7  1  0.333333  0.666667  0.250000  1
  S  S8  1  0.331510  0.331213  0.397403  1
  S  S9  1  0.668787  0.000297  0.397403  1
  S  S10  1  0.999703  0.668490  0.397403  1
  S  S11  1  0.332836  0.332851  0.638077  1
  S  S12  1  0.000015  0.667164  0.638077  1
  S  S13  1  0.667149  0.999985  0.638077  1
  S  S14  1  0.667149  0.667164  0.861923  1
  S  S15  1  0.332836  0.999985  0.861923  1
  S  S16  1  0.000015  0.332851  0.861923  1
  S  S17  1  0.668787  0.668490  0.102597  1
  S  S18  1  0.999703  0.331213  0.102597  1
  S  S19  1  0.331510  0.000297  0.102597  1
