# generated using pymatgen
data_Dy7YSi12PtRh3
_symmetry_space_group_name_H-M   'P 1'
_cell_length_a   8.17254700
_cell_length_b   8.17254734
_cell_length_c   7.92666500
_cell_angle_alpha   90.00000000
_cell_angle_beta   90.00000000
_cell_angle_gamma   119.99999457
_symmetry_Int_Tables_number   1
_chemical_formula_structural   Dy7YSi12PtRh3
_chemical_formula_sum   'Dy7 Y1 Si12 Pt1 Rh3'
_cell_volume   458.49650730
_cell_formula_units_Z   1
loop_
 _symmetry_equiv_pos_site_id
 _symmetry_equiv_pos_as_xyz
  1  'x, y, z'
loop_
 _atom_site_type_symbol
 _atom_site_label
 _atom_site_symmetry_multiplicity
 _atom_site_fract_x
 _atom_site_fract_y
 _atom_site_fract_z
 _atom_site_occupancy
  Dy  Dy0  1  0.000000  0.000000  0.749356  1
  Dy  Dy1  1  0.015923  0.507962  0.252061  1
  Dy  Dy2  1  0.492038  0.507962  0.252061  1
  Dy  Dy3  1  0.509443  0.018887  0.747517  1
  Dy  Dy4  1  0.492038  0.984077  0.252061  1
  Dy  Dy5  1  0.509443  0.490557  0.747517  1
  Dy  Dy6  1  0.981113  0.490557  0.747517  1
  Y  Y7  1  0.000000  0.000000  0.251150  1
  Si  Si8  1  0.164353  0.328707  0.000729  1
  Si  Si9  1  0.671293  0.835647  0.000729  1
  Si  Si10  1  0.166855  0.333708  0.500198  1
  Si  Si11  1  0.335975  0.167988  0.998628  1
  Si  Si12  1  0.164353  0.835647  0.000729  1
  Si  Si13  1  0.666292  0.833145  0.500198  1
  Si  Si14  1  0.832012  0.664025  0.998628  1
  Si  Si15  1  0.333701  0.166850  0.500010  1
  Si  Si16  1  0.166855  0.833145  0.500198  1
  Si  Si17  1  0.833150  0.666299  0.500010  1
  Si  Si18  1  0.832012  0.167988  0.998628  1
  Si  Si19  1  0.833150  0.166850  0.500010  1
  Pt  Pt20  1  0.333333  0.666667  0.969424  1
  Rh  Rh21  1  0.333333  0.666667  0.532842  1
  Rh  Rh22  1  0.666667  0.333333  0.035890  1
  Rh  Rh23  1  0.666667  0.333333  0.463914  1
