# generated using pymatgen
data_Pr10GaSi4Pt
_symmetry_space_group_name_H-M   'P 1'
_cell_length_a   7.74782100
_cell_length_b   9.22142142
_cell_length_c   7.74782100
_cell_angle_alpha   114.84083849
_cell_angle_beta   90.00000000
_cell_angle_gamma   114.84083849
_symmetry_Int_Tables_number   1
_chemical_formula_structural   Pr10GaSi4Pt
_chemical_formula_sum   'Pr10 Ga1 Si4 Pt1'
_cell_volume   445.26694845
_cell_formula_units_Z   1
loop_
 _symmetry_equiv_pos_site_id
 _symmetry_equiv_pos_as_xyz
  1  'x, y, z'
loop_
 _atom_site_type_symbol
 _atom_site_label
 _atom_site_symmetry_multiplicity
 _atom_site_fract_x
 _atom_site_fract_y
 _atom_site_fract_z
 _atom_site_occupancy
  Pr  Pr0  1  0.970853  0.941708  0.970853  1
  Pr  Pr1  1  0.529147  0.058292  0.529147  1
  Pr  Pr2  1  0.522049  0.716773  0.666525  1
  Pr  Pr3  1  0.194724  0.716773  0.050248  1
  Pr  Pr4  1  0.666525  0.716773  0.194724  1
  Pr  Pr5  1  0.050248  0.716773  0.522049  1
  Pr  Pr6  1  0.449752  0.283227  0.305276  1
  Pr  Pr7  1  0.833475  0.283227  0.977951  1
  Pr  Pr8  1  0.305276  0.283227  0.833475  1
  Pr  Pr9  1  0.977951  0.283227  0.449752  1
  Ga  Ga10  1  0.750000  0.500000  0.750000  1
  Si  Si11  1  0.885892  0.000000  0.614108  1
  Si  Si12  1  0.114108  0.000000  0.385892  1
  Si  Si13  1  0.614108  0.000000  0.114108  1
  Si  Si14  1  0.385892  0.000000  0.885892  1
  Pt  Pt15  1  0.250000  0.500000  0.250000  1
