# generated using pymatgen
data_Er8Hf12Si15As
_symmetry_space_group_name_H-M   'P 1'
_cell_length_a   7.25764166
_cell_length_b   7.26812775
_cell_length_c   13.33025914
_cell_angle_alpha   89.75533169
_cell_angle_beta   89.95358149
_cell_angle_gamma   89.96420693
_symmetry_Int_Tables_number   1
_chemical_formula_structural   Er8Hf12Si15As
_chemical_formula_sum   'Er8 Hf12 Si15 As1'
_cell_volume   703.15728348
_cell_formula_units_Z   1
loop_
 _symmetry_equiv_pos_site_id
 _symmetry_equiv_pos_as_xyz
  1  'x, y, z'
loop_
 _atom_site_type_symbol
 _atom_site_label
 _atom_site_symmetry_multiplicity
 _atom_site_fract_x
 _atom_site_fract_y
 _atom_site_fract_z
 _atom_site_occupancy
  Er  Er0  1  0.995569  0.345511  0.215068  1
  Er  Er1  1  0.004759  0.656060  0.715286  1
  Er  Er2  1  0.152400  0.499752  0.466887  1
  Er  Er3  1  0.506702  0.842536  0.033564  1
  Er  Er4  1  0.844441  0.503415  0.965050  1
  Er  Er5  1  0.496387  0.154582  0.535764  1
  Er  Er6  1  0.345126  0.996061  0.784948  1
  Er  Er7  1  0.654500  0.003734  0.284155  1
  Hf  Hf8  1  0.174396  0.174832  0.000070  1
  Hf  Hf9  1  0.826367  0.826474  0.500106  1
  Hf  Hf10  1  0.325200  0.677469  0.249740  1
  Hf  Hf11  1  0.674524  0.325505  0.750096  1
  Hf  Hf12  1  0.148601  0.996139  0.373024  1
  Hf  Hf13  1  0.851712  0.003158  0.874891  1
  Hf  Hf14  1  0.502800  0.649393  0.624887  1
  Hf  Hf15  1  0.351974  0.496935  0.875315  1
  Hf  Hf16  1  0.495348  0.348842  0.125189  1
  Hf  Hf17  1  0.652418  0.506078  0.376731  1
  Hf  Hf18  1  0.997230  0.149288  0.625481  1
  Hf  Hf19  1  0.000418  0.848944  0.124147  1
  Si  Si20  1  0.638805  0.705502  0.817524  1
  Si  Si21  1  0.204152  0.862283  0.567041  1
  Si  Si22  1  0.138688  0.794432  0.931574  1
  Si  Si23  1  0.794843  0.139524  0.067985  1
  Si  Si24  1  0.861367  0.204547  0.431954  1
  Si  Si25  1  0.295455  0.360914  0.682078  1
  Si  Si26  1  0.703296  0.637040  0.182861  1
  Si  Si27  1  0.295638  0.038721  0.179842  1
  Si  Si28  1  0.703837  0.951409  0.685636  1
  Si  Si29  1  0.451771  0.797437  0.435687  1
  Si  Si30  1  0.203093  0.547649  0.064605  1
  Si  Si31  1  0.548843  0.203086  0.935758  1
  Si  Si32  1  0.796250  0.451748  0.565226  1
  Si  Si33  1  0.048958  0.296884  0.814263  1
  Si  Si34  1  0.952072  0.703533  0.314700  1
  As  As35  1  0.362063  0.300584  0.322865  1
