# generated using pymatgen
data_Eu2NiPt2Rh
_symmetry_space_group_name_H-M   'P 1'
_cell_length_a   5.52457259
_cell_length_b   5.52457370
_cell_length_c   5.34364875
_cell_angle_alpha   58.27864790
_cell_angle_beta   58.27864402
_cell_angle_gamma   59.75186412
_symmetry_Int_Tables_number   1
_chemical_formula_structural   Eu2NiPt2Rh
_chemical_formula_sum   'Eu2 Ni1 Pt2 Rh1'
_cell_volume   112.03165908
_cell_formula_units_Z   1
loop_
 _symmetry_equiv_pos_site_id
 _symmetry_equiv_pos_as_xyz
  1  'x, y, z'
loop_
 _atom_site_type_symbol
 _atom_site_label
 _atom_site_symmetry_multiplicity
 _atom_site_fract_x
 _atom_site_fract_y
 _atom_site_fract_z
 _atom_site_occupancy
  Eu  Eu0  1  0.251652  0.251652  0.249375  1
  Eu  Eu1  1  0.998348  0.998348  0.000625  1
  Ni  Ni2  1  0.625000  0.625000  0.125000  1
  Pt  Pt3  1  0.125000  0.625000  0.625000  1
  Pt  Pt4  1  0.625000  0.125000  0.625000  1
  Rh  Rh5  1  0.625000  0.625000  0.625000  1
