# generated using pymatgen
data_La4Y12Cd4RuPt3
_symmetry_space_group_name_H-M   'P 1'
_cell_length_a   9.88368640
_cell_length_b   9.88368629
_cell_length_c   9.88368681
_cell_angle_alpha   59.49954949
_cell_angle_beta   59.49954872
_cell_angle_gamma   59.49954861
_symmetry_Int_Tables_number   1
_chemical_formula_structural   La4Y12Cd4RuPt3
_chemical_formula_sum   'La4 Y12 Cd4 Ru1 Pt3'
_cell_volume   674.94838504
_cell_formula_units_Z   1
loop_
 _symmetry_equiv_pos_site_id
 _symmetry_equiv_pos_as_xyz
  1  'x, y, z'
loop_
 _atom_site_type_symbol
 _atom_site_label
 _atom_site_symmetry_multiplicity
 _atom_site_fract_x
 _atom_site_fract_y
 _atom_site_fract_z
 _atom_site_occupancy
  La  La0  1  0.353488  0.353488  0.353488  1
  La  La1  1  0.348654  0.348654  0.946909  1
  La  La2  1  0.348654  0.946909  0.348654  1
  La  La3  1  0.946909  0.348654  0.348654  1
  Y  Y4  1  0.817555  0.186435  0.186435  1
  Y  Y5  1  0.187123  0.811497  0.811497  1
  Y  Y6  1  0.186435  0.817555  0.186435  1
  Y  Y7  1  0.811497  0.187123  0.811497  1
  Y  Y8  1  0.186435  0.186435  0.817555  1
  Y  Y9  1  0.811497  0.811497  0.187123  1
  Y  Y10  1  0.933997  0.566439  0.566439  1
  Y  Y11  1  0.563412  0.933673  0.933673  1
  Y  Y12  1  0.566439  0.933997  0.566439  1
  Y  Y13  1  0.933673  0.563412  0.933673  1
  Y  Y14  1  0.566439  0.566439  0.933997  1
  Y  Y15  1  0.933673  0.933673  0.563412  1
  Cd  Cd16  1  0.581481  0.581481  0.581481  1
  Cd  Cd17  1  0.582692  0.582692  0.250821  1
  Cd  Cd18  1  0.582692  0.250821  0.582692  1
  Cd  Cd19  1  0.250821  0.582692  0.582692  1
  Ru  Ru20  1  0.143459  0.143459  0.143459  1
  Pt  Pt21  1  0.142178  0.142178  0.578614  1
  Pt  Pt22  1  0.142178  0.578614  0.142178  1
  Pt  Pt23  1  0.578614  0.142178  0.142178  1
