# generated using pymatgen
data_Pr2Mo3P7Rh9
_symmetry_space_group_name_H-M   'P 1'
_cell_length_a   9.60582500
_cell_length_b   9.60582571
_cell_length_c   3.97457500
_cell_angle_alpha   90.00000000
_cell_angle_beta   90.00000000
_cell_angle_gamma   120.00000101
_symmetry_Int_Tables_number   1
_chemical_formula_structural   Pr2Mo3P7Rh9
_chemical_formula_sum   'Pr2 Mo3 P7 Rh9'
_cell_volume   317.60746125
_cell_formula_units_Z   1
loop_
 _symmetry_equiv_pos_site_id
 _symmetry_equiv_pos_as_xyz
  1  'x, y, z'
loop_
 _atom_site_type_symbol
 _atom_site_label
 _atom_site_symmetry_multiplicity
 _atom_site_fract_x
 _atom_site_fract_y
 _atom_site_fract_z
 _atom_site_occupancy
  Pr  Pr0  1  0.000000  0.000000  0.763959  1
  Pr  Pr1  1  0.333333  0.666667  0.263701  1
  Mo  Mo2  1  0.793942  0.551532  0.763757  1
  Mo  Mo3  1  0.448468  0.242410  0.763757  1
  Mo  Mo4  1  0.757590  0.206058  0.763757  1
  P  P5  1  0.666667  0.333333  0.263743  1
  P  P6  1  0.068615  0.622132  0.763815  1
  P  P7  1  0.377868  0.446484  0.763815  1
  P  P8  1  0.553516  0.931385  0.763815  1
  P  P9  1  0.256783  0.037373  0.263901  1
  P  P10  1  0.962627  0.219410  0.263901  1
  P  P11  1  0.780590  0.743217  0.263901  1
  Rh  Rh12  1  0.508238  0.059883  0.263782  1
  Rh  Rh13  1  0.940117  0.448355  0.263782  1
  Rh  Rh14  1  0.551645  0.491762  0.263782  1
  Rh  Rh15  1  0.104198  0.383668  0.763772  1
  Rh  Rh16  1  0.616332  0.720530  0.763772  1
  Rh  Rh17  1  0.279470  0.895802  0.763772  1
  Rh  Rh18  1  0.231388  0.266721  0.263817  1
  Rh  Rh19  1  0.733279  0.964667  0.263817  1
  Rh  Rh20  1  0.035333  0.768612  0.263817  1
