# generated using pymatgen
data_Hf18FeCuRe5MoW2
_symmetry_space_group_name_H-M   'P 1'
_cell_length_a   8.46093400
_cell_length_b   8.64210107
_cell_length_c   8.63993000
_cell_angle_alpha   120.00685546
_cell_angle_beta   90.00000000
_cell_angle_gamma   90.00000000
_symmetry_Int_Tables_number   1
_chemical_formula_structural   Hf18FeCuRe5MoW2
_chemical_formula_sum   'Hf18 Fe1 Cu1 Re5 Mo1 W2'
_cell_volume   547.07705292
_cell_formula_units_Z   1
loop_
 _symmetry_equiv_pos_site_id
 _symmetry_equiv_pos_as_xyz
  1  'x, y, z'
loop_
 _atom_site_type_symbol
 _atom_site_label
 _atom_site_symmetry_multiplicity
 _atom_site_fract_x
 _atom_site_fract_y
 _atom_site_fract_z
 _atom_site_occupancy
  Hf  Hf0  1  0.554638  0.803865  0.607742  1
  Hf  Hf1  1  0.553481  0.802989  0.196168  1
  Hf  Hf2  1  0.553474  0.393151  0.196158  1
  Hf  Hf3  1  0.440293  0.201732  0.403466  1
  Hf  Hf4  1  0.440968  0.201470  0.798225  1
  Hf  Hf5  1  0.440976  0.596758  0.798216  1
  Hf  Hf6  1  0.059707  0.201732  0.403466  1
  Hf  Hf7  1  0.059032  0.201470  0.798225  1
  Hf  Hf8  1  0.059024  0.596758  0.798216  1
  Hf  Hf9  1  0.945362  0.803865  0.607742  1
  Hf  Hf10  1  0.946519  0.802989  0.196168  1
  Hf  Hf11  1  0.946526  0.393151  0.196158  1
  Hf  Hf12  1  0.750000  0.458507  0.917039  1
  Hf  Hf13  1  0.750000  0.460120  0.542775  1
  Hf  Hf14  1  0.750000  0.082651  0.542786  1
  Hf  Hf15  1  0.250000  0.540640  0.081251  1
  Hf  Hf16  1  0.250000  0.541184  0.459712  1
  Hf  Hf17  1  0.250000  0.918532  0.459706  1
  Fe  Fe18  1  0.250000  0.333821  0.667585  1
  Cu  Cu19  1  0.750000  0.666633  0.333185  1
  Re  Re20  1  0.750000  0.111321  0.887087  1
  Re  Re21  1  0.750000  0.775750  0.887089  1
  Re  Re22  1  0.250000  0.888966  0.777910  1
  Re  Re23  1  0.250000  0.888329  0.111274  1
  Re  Re24  1  0.250000  0.222940  0.111247  1
  Mo  Mo25  1  0.750000  0.111102  0.222245  1
  W  W26  1  0.499738  0.999785  0.999579  1
  W  W27  1  0.000262  0.999785  0.999579  1
