# generated using pymatgen
data_NaLiEuPt3
_symmetry_space_group_name_H-M   'P 1'
_cell_length_a   5.30703243
_cell_length_b   5.30703134
_cell_length_c   5.30703202
_cell_angle_alpha   62.57940107
_cell_angle_beta   62.57940060
_cell_angle_gamma   62.57940753
_symmetry_Int_Tables_number   1
_chemical_formula_structural   NaLiEuPt3
_chemical_formula_sum   'Na1 Li1 Eu1 Pt3'
_cell_volume   111.76331769
_cell_formula_units_Z   1
loop_
 _symmetry_equiv_pos_site_id
 _symmetry_equiv_pos_as_xyz
  1  'x, y, z'
loop_
 _atom_site_type_symbol
 _atom_site_label
 _atom_site_symmetry_multiplicity
 _atom_site_fract_x
 _atom_site_fract_y
 _atom_site_fract_z
 _atom_site_occupancy
  Na  Na0  1  0.249636  0.249636  0.249636  1
  Li  Li1  1  0.623644  0.623644  0.623644  1
  Eu  Eu2  1  0.004470  0.004470  0.004470  1
  Pt  Pt3  1  0.623795  0.124660  0.623795  1
  Pt  Pt4  1  0.623795  0.623795  0.124660  1
  Pt  Pt5  1  0.124660  0.623795  0.623795  1
