# generated using pymatgen
data_Dy5SnGePb2
_symmetry_space_group_name_H-M   'P 1'
_cell_length_a   9.30669700
_cell_length_b   9.27200116
_cell_length_c   6.57062700
_cell_angle_alpha   90.00000000
_cell_angle_beta   90.00000000
_cell_angle_gamma   120.12385821
_symmetry_Int_Tables_number   1
_chemical_formula_structural   Dy5SnGePb2
_chemical_formula_sum   'Dy10 Sn2 Ge2 Pb4'
_cell_volume   490.41428339
_cell_formula_units_Z   2
loop_
 _symmetry_equiv_pos_site_id
 _symmetry_equiv_pos_as_xyz
  1  'x, y, z'
loop_
 _atom_site_type_symbol
 _atom_site_label
 _atom_site_symmetry_multiplicity
 _atom_site_fract_x
 _atom_site_fract_y
 _atom_site_fract_z
 _atom_site_occupancy
  Dy  Dy0  1  0.254798  0.000000  0.250000  1
  Dy  Dy1  1  0.745202  0.000000  0.750000  1
  Dy  Dy2  1  0.996914  0.249633  0.250000  1
  Dy  Dy3  1  0.003086  0.750367  0.750000  1
  Dy  Dy4  1  0.747281  0.750367  0.250000  1
  Dy  Dy5  1  0.252719  0.249633  0.750000  1
  Dy  Dy6  1  0.335495  0.670992  0.000000  1
  Dy  Dy7  1  0.664505  0.329008  0.000000  1
  Dy  Dy8  1  0.664505  0.329008  0.500000  1
  Dy  Dy9  1  0.335495  0.670992  0.500000  1
  Sn  Sn10  1  0.607600  0.000000  0.250000  1
  Sn  Sn11  1  0.392400  0.000000  0.750000  1
  Ge  Ge12  1  0.000000  0.000000  0.000000  1
  Ge  Ge13  1  0.000000  0.000000  0.500000  1
  Pb  Pb14  1  0.999576  0.607950  0.250000  1
  Pb  Pb15  1  0.000424  0.392050  0.750000  1
  Pb  Pb16  1  0.391626  0.392050  0.250000  1
  Pb  Pb17  1  0.608374  0.607950  0.750000  1
