# generated using pymatgen
data_Ti10Ge5AsC
_symmetry_space_group_name_H-M   'P 1'
_cell_length_a   7.55786058
_cell_length_b   7.56355971
_cell_length_c   5.23012994
_cell_angle_alpha   90.19955504
_cell_angle_beta   89.90014634
_cell_angle_gamma   120.02493995
_symmetry_Int_Tables_number   1
_chemical_formula_structural   Ti10Ge5AsC
_chemical_formula_sum   'Ti10 Ge5 As1 C1'
_cell_volume   258.85490223
_cell_formula_units_Z   1
loop_
 _symmetry_equiv_pos_site_id
 _symmetry_equiv_pos_as_xyz
  1  'x, y, z'
loop_
 _atom_site_type_symbol
 _atom_site_label
 _atom_site_symmetry_multiplicity
 _atom_site_fract_x
 _atom_site_fract_y
 _atom_site_fract_z
 _atom_site_occupancy
  Ti  Ti0  1  0.000000  0.762361  0.261465  1
  Ti  Ti1  1  0.237558  0.237416  0.260195  1
  Ti  Ti2  1  0.762442  0.999858  0.260195  1
  Ti  Ti3  1  0.000000  0.238750  0.738523  1
  Ti  Ti4  1  0.762421  0.762768  0.739817  1
  Ti  Ti5  1  0.237579  0.000347  0.739817  1
  Ti  Ti6  1  0.331904  0.665609  0.999650  1
  Ti  Ti7  1  0.668096  0.333704  0.999650  1
  Ti  Ti8  1  0.667895  0.333310  0.500256  1
  Ti  Ti9  1  0.332105  0.665416  0.500256  1
  Ge  Ge10  1  0.601855  0.602045  0.246884  1
  Ge  Ge11  1  0.398145  0.000190  0.246884  1
  Ge  Ge12  1  0.000000  0.605377  0.752689  1
  Ge  Ge13  1  0.398746  0.397794  0.753592  1
  Ge  Ge14  1  0.601254  0.999048  0.753592  1
  As  As15  1  0.000000  0.395869  0.246369  1
  C  C16  1  0.000000  0.000137  0.500166  1
