# generated using pymatgen
data_YAgRh2O7
_symmetry_space_group_name_H-M   'P 1'
_cell_length_a   7.20917416
_cell_length_b   7.37179998
_cell_length_c   7.20917349
_cell_angle_alpha   59.25093616
_cell_angle_beta   59.31063590
_cell_angle_gamma   59.25093053
_symmetry_Int_Tables_number   1
_chemical_formula_structural   YAgRh2O7
_chemical_formula_sum   'Y2 Ag2 Rh4 O14'
_cell_volume   266.41381789
_cell_formula_units_Z   2
loop_
 _symmetry_equiv_pos_site_id
 _symmetry_equiv_pos_as_xyz
  1  'x, y, z'
loop_
 _atom_site_type_symbol
 _atom_site_label
 _atom_site_symmetry_multiplicity
 _atom_site_fract_x
 _atom_site_fract_y
 _atom_site_fract_z
 _atom_site_occupancy
  Y  Y0  1  0.125000  0.625000  0.125000  1
  Y  Y1  1  0.125000  0.125000  0.125000  1
  Ag  Ag2  1  0.125000  0.125000  0.625000  1
  Ag  Ag3  1  0.625000  0.125000  0.125000  1
  Rh  Rh4  1  0.625000  0.625000  0.625000  1
  Rh  Rh5  1  0.125000  0.625000  0.625000  1
  Rh  Rh6  1  0.625000  0.625000  0.125000  1
  Rh  Rh7  1  0.625000  0.125000  0.625000  1
  O  O8  1  0.294283  0.694503  0.712708  1
  O  O9  1  0.537292  0.951494  0.955717  1
  O  O10  1  0.712708  0.694503  0.294283  1
  O  O11  1  0.294283  0.298506  0.712708  1
  O  O12  1  0.990341  0.009659  0.990341  1
  O  O13  1  0.284754  0.715246  0.284754  1
  O  O14  1  0.699724  0.300276  0.699724  1
  O  O15  1  0.965246  0.534754  0.965246  1
  O  O16  1  0.537292  0.555497  0.955717  1
  O  O17  1  0.955717  0.951494  0.537292  1
  O  O18  1  0.259659  0.240341  0.259659  1
  O  O19  1  0.550276  0.949724  0.550276  1
  O  O20  1  0.712708  0.298506  0.294283  1
  O  O21  1  0.955717  0.555497  0.537292  1
