# generated using pymatgen
data_Yb2YEr(Ga3Ir)6
_symmetry_space_group_name_H-M   'P 1'
_cell_length_a   7.56350229
_cell_length_b   7.56296771
_cell_length_c   9.58394800
_cell_angle_alpha   90.00000000
_cell_angle_beta   90.00000000
_cell_angle_gamma   119.80673775
_symmetry_Int_Tables_number   1
_chemical_formula_structural   Yb2YEr(Ga3Ir)6
_chemical_formula_sum   'Yb2 Y1 Er1 Ga18 Ir6'
_cell_volume   475.69955090
_cell_formula_units_Z   1
loop_
 _symmetry_equiv_pos_site_id
 _symmetry_equiv_pos_as_xyz
  1  'x, y, z'
loop_
 _atom_site_type_symbol
 _atom_site_label
 _atom_site_symmetry_multiplicity
 _atom_site_fract_x
 _atom_site_fract_y
 _atom_site_fract_z
 _atom_site_occupancy
  Yb  Yb0  1  0.003172  0.331548  0.250000  1
  Yb  Yb1  1  0.668657  0.996772  0.750000  1
  Y  Y2  1  0.996844  0.668562  0.750000  1
  Er  Er3  1  0.331434  0.002390  0.250000  1
  Ga  Ga4  1  0.127464  0.127914  0.750000  1
  Ga  Ga5  1  0.872925  0.871976  0.250000  1
  Ga  Ga6  1  0.998793  0.332934  0.577965  1
  Ga  Ga7  1  0.000104  0.664845  0.420689  1
  Ga  Ga8  1  0.000104  0.664845  0.079311  1
  Ga  Ga9  1  0.335150  0.999957  0.920829  1
  Ga  Ga10  1  0.998793  0.332934  0.922035  1
  Ga  Ga11  1  0.667206  0.001263  0.077953  1
  Ga  Ga12  1  0.667206  0.001263  0.422047  1
  Ga  Ga13  1  0.335150  0.999957  0.579171  1
  Ga  Ga14  1  0.332105  0.333064  0.064831  1
  Ga  Ga15  1  0.666643  0.667790  0.936457  1
  Ga  Ga16  1  0.666643  0.667790  0.563543  1
  Ga  Ga17  1  0.332105  0.333064  0.435169  1
  Ga  Ga18  1  0.337406  0.545796  0.750000  1
  Ga  Ga19  1  0.660878  0.453083  0.250000  1
  Ga  Ga20  1  0.546527  0.338227  0.750000  1
  Ga  Ga21  1  0.454766  0.663913  0.250000  1
  Ir  Ir22  1  0.670914  0.328106  0.499709  1
  Ir  Ir23  1  0.328435  0.671652  0.499686  1
  Ir  Ir24  1  0.328435  0.671652  0.000314  1
  Ir  Ir25  1  0.670914  0.328106  0.000291  1
  Ir  Ir26  1  0.000615  0.000297  0.499617  1
  Ir  Ir27  1  0.000615  0.000297  0.000383  1
