# generated using pymatgen
data_YbDy(CuO2)4
_symmetry_space_group_name_H-M   'P 1'
_cell_length_a   6.24793570
_cell_length_b   6.24793616
_cell_length_c   6.24793553
_cell_angle_alpha   125.90313218
_cell_angle_beta   125.90313275
_cell_angle_gamma   80.04739991
_symmetry_Int_Tables_number   1
_chemical_formula_structural   YbDy(CuO2)4
_chemical_formula_sum   'Yb1 Dy1 Cu4 O8'
_cell_volume   154.49196243
_cell_formula_units_Z   1
loop_
 _symmetry_equiv_pos_site_id
 _symmetry_equiv_pos_as_xyz
  1  'x, y, z'
loop_
 _atom_site_type_symbol
 _atom_site_label
 _atom_site_symmetry_multiplicity
 _atom_site_fract_x
 _atom_site_fract_y
 _atom_site_fract_z
 _atom_site_occupancy
  Yb  Yb0  1  0.000000  0.000000  0.000000  1
  Dy  Dy1  1  0.750000  0.250000  0.500000  1
  Cu  Cu2  1  0.875504  0.622467  0.248948  1
  Cu  Cu3  1  0.373519  0.626556  0.751052  1
  Cu  Cu4  1  0.373444  0.124496  0.746963  1
  Cu  Cu5  1  0.377533  0.626481  0.253037  1
  O  O6  1  0.409786  0.839358  0.144617  1
  O  O7  1  0.694741  0.265170  0.855383  1
  O  O8  1  0.349466  0.414738  0.364826  1
  O  O9  1  0.049912  0.984640  0.635174  1
  O  O10  1  0.015360  0.650534  0.065272  1
  O  O11  1  0.585262  0.950088  0.934728  1
  O  O12  1  0.160642  0.305259  0.570429  1
  O  O13  1  0.734830  0.590214  0.429571  1
