# generated using pymatgen
data_Mn3Zn3Pd10
_symmetry_space_group_name_H-M   'P 1'
_cell_length_a   4.12332500
_cell_length_b   5.42406826
_cell_length_c   10.67897109
_cell_angle_alpha   90.91627706
_cell_angle_beta   90.00000000
_cell_angle_gamma   90.00000000
_symmetry_Int_Tables_number   1
_chemical_formula_structural   Mn3Zn3Pd10
_chemical_formula_sum   'Mn3 Zn3 Pd10'
_cell_volume   238.80674404
_cell_formula_units_Z   1
loop_
 _symmetry_equiv_pos_site_id
 _symmetry_equiv_pos_as_xyz
  1  'x, y, z'
loop_
 _atom_site_type_symbol
 _atom_site_label
 _atom_site_symmetry_multiplicity
 _atom_site_fract_x
 _atom_site_fract_y
 _atom_site_fract_z
 _atom_site_occupancy
  Mn  Mn0  1  0.500000  0.819891  0.865850  1
  Mn  Mn1  1  0.500000  0.312757  0.634911  1
  Mn  Mn2  1  0.500000  0.680419  0.364287  1
  Zn  Zn3  1  0.000000  0.000063  0.501180  1
  Zn  Zn4  1  0.000000  0.512619  0.997492  1
  Zn  Zn5  1  0.500000  0.180503  0.135882  1
  Pd  Pd6  1  0.500000  0.188246  0.387102  1
  Pd  Pd7  1  0.500000  0.807375  0.613014  1
  Pd  Pd8  1  0.500000  0.314294  0.887974  1
  Pd  Pd9  1  0.500000  0.690792  0.112451  1
  Pd  Pd10  1  0.000000  0.415103  0.238307  1
  Pd  Pd11  1  0.000000  0.577132  0.756112  1
  Pd  Pd12  1  0.000000  0.076489  0.744407  1
  Pd  Pd13  1  0.000000  0.914857  0.260109  1
  Pd  Pd14  1  0.000000  0.010337  0.002966  1
  Pd  Pd15  1  0.000000  0.499122  0.497954  1
