# generated using pymatgen
data_Hf4CrBi2
_symmetry_space_group_name_H-M   'P 1'
_cell_length_a   8.27414866
_cell_length_b   8.27414833
_cell_length_c   8.27414882
_cell_angle_alpha   96.19372769
_cell_angle_beta   96.19372559
_cell_angle_gamma   141.64850151
_symmetry_Int_Tables_number   1
_chemical_formula_structural   Hf4CrBi2
_chemical_formula_sum   'Hf8 Cr2 Bi4'
_cell_volume   331.97832138
_cell_formula_units_Z   2
loop_
 _symmetry_equiv_pos_site_id
 _symmetry_equiv_pos_as_xyz
  1  'x, y, z'
loop_
 _atom_site_type_symbol
 _atom_site_label
 _atom_site_symmetry_multiplicity
 _atom_site_fract_x
 _atom_site_fract_y
 _atom_site_fract_z
 _atom_site_occupancy
  Hf  Hf0  1  0.080668  0.193004  0.273671  1
  Hf  Hf1  1  0.919332  0.806996  0.726329  1
  Hf  Hf2  1  0.806996  0.080668  0.887663  1
  Hf  Hf3  1  0.419332  0.693004  0.112337  1
  Hf  Hf4  1  0.193004  0.919332  0.112337  1
  Hf  Hf5  1  0.580668  0.306996  0.887663  1
  Hf  Hf6  1  0.693004  0.580668  0.273671  1
  Hf  Hf7  1  0.306996  0.419332  0.726329  1
  Cr  Cr8  1  0.250000  0.250000  0.000000  1
  Cr  Cr9  1  0.750000  0.750000  0.000000  1
  Bi  Bi10  1  0.138895  0.638895  0.777789  1
  Bi  Bi11  1  0.861105  0.361105  0.222211  1
  Bi  Bi12  1  0.361105  0.138895  0.500000  1
  Bi  Bi13  1  0.638895  0.861105  0.500000  1
