# generated using pymatgen
data_Dy5ScP12(Ir8Rh)2
_symmetry_space_group_name_H-M   'P 1'
_cell_length_a   12.70955924
_cell_length_b   12.89390038
_cell_length_c   3.96754800
_cell_angle_alpha   90.00000000
_cell_angle_beta   90.00000000
_cell_angle_gamma   120.48096595
_symmetry_Int_Tables_number   1
_chemical_formula_structural   Dy5ScP12(Ir8Rh)2
_chemical_formula_sum   'Dy5 Sc1 P12 Ir16 Rh2'
_cell_volume   560.32800770
_cell_formula_units_Z   1
loop_
 _symmetry_equiv_pos_site_id
 _symmetry_equiv_pos_as_xyz
  1  'x, y, z'
loop_
 _atom_site_type_symbol
 _atom_site_label
 _atom_site_symmetry_multiplicity
 _atom_site_fract_x
 _atom_site_fract_y
 _atom_site_fract_z
 _atom_site_occupancy
  Dy  Dy0  1  0.329643  0.664908  0.500000  1
  Dy  Dy1  1  0.670357  0.335265  0.500000  1
  Dy  Dy2  1  0.000000  0.813993  0.000000  1
  Dy  Dy3  1  0.185547  0.188103  0.000000  1
  Dy  Dy4  1  0.814453  0.002556  0.000000  1
  Sc  Sc5  1  0.000000  0.444038  0.500000  1
  P  P6  1  0.000000  0.645061  0.500000  1
  P  P7  1  0.360031  0.355264  0.500000  1
  P  P8  1  0.639969  0.995234  0.500000  1
  P  P9  1  0.514799  0.687871  0.000000  1
  P  P10  1  0.312604  0.831352  0.000000  1
  P  P11  1  0.167860  0.484182  0.000000  1
  P  P12  1  0.485201  0.173072  0.000000  1
  P  P13  1  0.687396  0.518748  0.000000  1
  P  P14  1  0.832140  0.316322  0.000000  1
  P  P15  1  0.000000  0.175956  0.500000  1
  P  P16  1  0.819748  0.820931  0.500000  1
  P  P17  1  0.180252  0.001183  0.500000  1
  Ir  Ir18  1  0.508796  0.868550  0.000000  1
  Ir  Ir19  1  0.131715  0.643698  0.000000  1
  Ir  Ir20  1  0.358541  0.494421  0.000000  1
  Ir  Ir21  1  0.491204  0.359753  0.000000  1
  Ir  Ir22  1  0.868285  0.511981  0.000000  1
  Ir  Ir23  1  0.641459  0.135879  0.000000  1
  Ir  Ir24  1  0.000000  0.279227  0.000000  1
  Ir  Ir25  1  0.716145  0.718250  0.000000  1
  Ir  Ir26  1  0.283855  0.002105  0.000000  1
  Ir  Ir27  1  0.620647  0.801224  0.500000  1
  Ir  Ir28  1  0.197652  0.825581  0.500000  1
  Ir  Ir29  1  0.183570  0.373247  0.500000  1
  Ir  Ir30  1  0.379353  0.180577  0.500000  1
  Ir  Ir31  1  0.802348  0.627930  0.500000  1
  Ir  Ir32  1  0.816430  0.189677  0.500000  1
  Ir  Ir33  1  0.000000  0.998312  0.500000  1
  Rh  Rh34  1  0.536965  0.536256  0.500000  1
  Rh  Rh35  1  0.463035  0.999292  0.500000  1
