# generated using pymatgen
data_Dy3LuSb10
_symmetry_space_group_name_H-M   'P 1'
_cell_length_a   4.24881000
_cell_length_b   13.14432935
_cell_length_c   14.61535696
_cell_angle_alpha   77.76717275
_cell_angle_beta   90.00000000
_cell_angle_gamma   90.00000000
_symmetry_Int_Tables_number   1
_chemical_formula_structural   Dy3LuSb10
_chemical_formula_sum   'Dy6 Lu2 Sb20'
_cell_volume   797.70202452
_cell_formula_units_Z   2
loop_
 _symmetry_equiv_pos_site_id
 _symmetry_equiv_pos_as_xyz
  1  'x, y, z'
loop_
 _atom_site_type_symbol
 _atom_site_label
 _atom_site_symmetry_multiplicity
 _atom_site_fract_x
 _atom_site_fract_y
 _atom_site_fract_z
 _atom_site_occupancy
  Dy  Dy0  1  0.250000  0.662504  0.855932  1
  Dy  Dy1  1  0.750000  0.337496  0.144068  1
  Dy  Dy2  1  0.250000  0.668976  0.576999  1
  Dy  Dy3  1  0.750000  0.331024  0.423001  1
  Dy  Dy4  1  0.250000  0.952442  0.360440  1
  Dy  Dy5  1  0.750000  0.047558  0.639560  1
  Lu  Lu6  1  0.250000  0.394796  0.771102  1
  Lu  Lu7  1  0.750000  0.605204  0.228898  1
  Sb  Sb8  1  0.250000  0.144209  0.780066  1
  Sb  Sb9  1  0.750000  0.855791  0.219934  1
  Sb  Sb10  1  0.250000  0.143145  0.482364  1
  Sb  Sb11  1  0.750000  0.856855  0.517636  1
  Sb  Sb12  1  0.250000  0.152662  0.172619  1
  Sb  Sb13  1  0.750000  0.847338  0.827381  1
  Sb  Sb14  1  0.250000  0.420126  0.974307  1
  Sb  Sb15  1  0.750000  0.579874  0.025693  1
  Sb  Sb16  1  0.750000  0.030549  0.906436  1
  Sb  Sb17  1  0.250000  0.969451  0.093564  1
  Sb  Sb18  1  0.750000  0.138508  0.322441  1
  Sb  Sb19  1  0.250000  0.861492  0.677559  1
  Sb  Sb20  1  0.750000  0.279857  0.937057  1
  Sb  Sb21  1  0.250000  0.720143  0.062943  1
  Sb  Sb22  1  0.750000  0.287613  0.653907  1
  Sb  Sb23  1  0.250000  0.712387  0.346093  1
  Sb  Sb24  1  0.750000  0.573333  0.735373  1
  Sb  Sb25  1  0.250000  0.426667  0.264627  1
  Sb  Sb26  1  0.750000  0.574255  0.445827  1
  Sb  Sb27  1  0.250000  0.425745  0.554173  1
