# generated using pymatgen
data_Er2Tm2TcRu7
_symmetry_space_group_name_H-M   'P 1'
_cell_length_a   5.19394863
_cell_length_b   5.36469539
_cell_length_c   8.94288502
_cell_angle_alpha   89.99999867
_cell_angle_beta   90.00612223
_cell_angle_gamma   121.09356690
_symmetry_Int_Tables_number   1
_chemical_formula_structural   Er2Tm2TcRu7
_chemical_formula_sum   'Er2 Tm2 Tc1 Ru7'
_cell_volume   213.38260977
_cell_formula_units_Z   1
loop_
 _symmetry_equiv_pos_site_id
 _symmetry_equiv_pos_as_xyz
  1  'x, y, z'
loop_
 _atom_site_type_symbol
 _atom_site_label
 _atom_site_symmetry_multiplicity
 _atom_site_fract_x
 _atom_site_fract_y
 _atom_site_fract_z
 _atom_site_occupancy
  Er  Er0  1  0.327534  0.663767  0.433048  1
  Er  Er1  1  0.656050  0.328024  0.565691  1
  Tm  Tm2  1  0.655727  0.327863  0.934481  1
  Tm  Tm3  1  0.327862  0.663931  0.066652  1
  Tc  Tc4  1  0.684525  0.842262  0.750594  1
  Ru  Ru5  1  0.980082  0.990041  0.499365  1
  Ru  Ru6  1  0.979975  0.989988  0.000701  1
  Ru  Ru7  1  0.835492  0.167706  0.249371  1
  Ru  Ru8  1  0.835492  0.667786  0.249371  1
  Ru  Ru9  1  0.355754  0.177877  0.249324  1
  Ru  Ru10  1  0.180754  0.827253  0.750701  1
  Ru  Ru11  1  0.180754  0.353501  0.750701  1
