# generated using pymatgen
data_Tb7Dy2Lu11Pt16
_symmetry_space_group_name_H-M   'P 1'
_cell_length_a   7.41267243
_cell_length_b   7.49459057
_cell_length_c   14.61522558
_cell_angle_alpha   90.01108569
_cell_angle_beta   90.12514870
_cell_angle_gamma   90.03603640
_symmetry_Int_Tables_number   1
_chemical_formula_structural   Tb7Dy2Lu11Pt16
_chemical_formula_sum   'Tb7 Dy2 Lu11 Pt16'
_cell_volume   811.94593926
_cell_formula_units_Z   1
loop_
 _symmetry_equiv_pos_site_id
 _symmetry_equiv_pos_as_xyz
  1  'x, y, z'
loop_
 _atom_site_type_symbol
 _atom_site_label
 _atom_site_symmetry_multiplicity
 _atom_site_fract_x
 _atom_site_fract_y
 _atom_site_fract_z
 _atom_site_occupancy
  Tb  Tb0  1  0.990907  0.824491  0.906706  1
  Tb  Tb1  1  0.509491  0.324719  0.094104  1
  Tb  Tb2  1  0.011047  0.173374  0.403354  1
  Tb  Tb3  1  0.509889  0.324630  0.405942  1
  Tb  Tb4  1  0.009050  0.175609  0.094222  1
  Tb  Tb5  1  0.490429  0.674810  0.906635  1
  Tb  Tb6  1  0.989405  0.824811  0.594437  1
  Dy  Dy7  1  0.146394  0.331513  0.621012  1
  Dy  Dy8  1  0.490839  0.677680  0.594307  1
  Lu  Lu9  1  0.646424  0.167668  0.623013  1
  Lu  Lu10  1  0.147068  0.331895  0.877805  1
  Lu  Lu11  1  0.352953  0.832374  0.122363  1
  Lu  Lu12  1  0.853009  0.668357  0.377143  1
  Lu  Lu13  1  0.355448  0.832100  0.376815  1
  Lu  Lu14  1  0.852661  0.668100  0.122246  1
  Lu  Lu15  1  0.647182  0.167859  0.878160  1
  Lu  Lu16  1  0.808259  0.509318  0.750793  1
  Lu  Lu17  1  0.309402  0.990661  0.751071  1
  Lu  Lu18  1  0.190863  0.491704  0.249752  1
  Lu  Lu19  1  0.691094  0.008790  0.249358  1
  Pt  Pt20  1  0.689215  0.967582  0.457935  1
  Pt  Pt21  1  0.186695  0.534086  0.041756  1
  Pt  Pt22  1  0.313349  0.033935  0.958453  1
  Pt  Pt23  1  0.807584  0.469410  0.541729  1
  Pt  Pt24  1  0.315530  0.028066  0.541778  1
  Pt  Pt25  1  0.813628  0.466156  0.958420  1
  Pt  Pt26  1  0.686666  0.966607  0.042098  1
  Pt  Pt27  1  0.187152  0.535205  0.455742  1
  Pt  Pt28  1  0.443917  0.381486  0.751182  1
  Pt  Pt29  1  0.941659  0.117176  0.751498  1
  Pt  Pt30  1  0.557358  0.619669  0.249483  1
  Pt  Pt31  1  0.057547  0.879748  0.249543  1
  Pt  Pt32  1  0.669099  0.857412  0.750755  1
  Pt  Pt33  1  0.171198  0.642365  0.751432  1
  Pt  Pt34  1  0.329329  0.141796  0.249664  1
  Pt  Pt35  1  0.828262  0.358836  0.249294  1
