# generated using pymatgen
data_Rb3Li2SiAs3
_symmetry_space_group_name_H-M   'P 1'
_cell_length_a   10.16813486
_cell_length_b   10.16813638
_cell_length_c   15.87109500
_cell_angle_alpha   90.00000000
_cell_angle_beta   90.00000000
_cell_angle_gamma   142.94786039
_symmetry_Int_Tables_number   1
_chemical_formula_structural   Rb3Li2SiAs3
_chemical_formula_sum   'Rb12 Li8 Si4 As12'
_cell_volume   988.72733956
_cell_formula_units_Z   4
loop_
 _symmetry_equiv_pos_site_id
 _symmetry_equiv_pos_as_xyz
  1  'x, y, z'
loop_
 _atom_site_type_symbol
 _atom_site_label
 _atom_site_symmetry_multiplicity
 _atom_site_fract_x
 _atom_site_fract_y
 _atom_site_fract_z
 _atom_site_occupancy
  Rb  Rb0  1  0.606561  0.942699  0.832470  1
  Rb  Rb1  1  0.278451  0.278451  0.324645  1
  Rb  Rb2  1  0.221549  0.221549  0.824645  1
  Rb  Rb3  1  0.721549  0.721549  0.675355  1
  Rb  Rb4  1  0.442699  0.106561  0.667530  1
  Rb  Rb5  1  0.893439  0.557301  0.332470  1
  Rb  Rb6  1  0.057301  0.393439  0.167530  1
  Rb  Rb7  1  0.393439  0.057301  0.167530  1
  Rb  Rb8  1  0.557301  0.893439  0.332470  1
  Rb  Rb9  1  0.106561  0.442699  0.667530  1
  Rb  Rb10  1  0.942699  0.606561  0.832470  1
  Rb  Rb11  1  0.778451  0.778451  0.175355  1
  Li  Li12  1  0.081174  0.918826  0.000000  1
  Li  Li13  1  0.581174  0.418826  0.500000  1
  Li  Li14  1  0.918826  0.081174  0.000000  1
  Li  Li15  1  0.752089  0.247911  0.000000  1
  Li  Li16  1  0.747911  0.252089  0.500000  1
  Li  Li17  1  0.247911  0.752089  0.000000  1
  Li  Li18  1  0.252089  0.747911  0.500000  1
  Li  Li19  1  0.418826  0.581174  0.500000  1
  Si  Si20  1  0.087794  0.912206  0.500000  1
  Si  Si21  1  0.412206  0.587794  0.000000  1
  Si  Si22  1  0.912206  0.087794  0.500000  1
  Si  Si23  1  0.587794  0.412206  0.000000  1
  As  As24  1  0.063235  0.380550  0.413566  1
  As  As25  1  0.880550  0.563235  0.086434  1
  As  As26  1  0.436765  0.119450  0.913566  1
  As  As27  1  0.619450  0.936765  0.586434  1
  As  As28  1  0.936765  0.619450  0.586434  1
  As  As29  1  0.119450  0.436765  0.913566  1
  As  As30  1  0.563235  0.880550  0.086434  1
  As  As31  1  0.380550  0.063235  0.413566  1
  As  As32  1  0.202822  0.202822  0.579681  1
  As  As33  1  0.702822  0.702822  0.920319  1
  As  As34  1  0.297178  0.297178  0.079681  1
  As  As35  1  0.797178  0.797178  0.420319  1
