# generated using pymatgen
data_Tm4Ga2B4Ir7Rh3
_symmetry_space_group_name_H-M   'P 1'
_cell_length_a   9.49980632
_cell_length_b   9.49260432
_cell_length_c   3.17912600
_cell_angle_alpha   90.00000000
_cell_angle_beta   90.00000000
_cell_angle_gamma   89.97020032
_symmetry_Int_Tables_number   1
_chemical_formula_structural   Tm4Ga2B4Ir7Rh3
_chemical_formula_sum   'Tm4 Ga2 B4 Ir7 Rh3'
_cell_volume   286.68687579
_cell_formula_units_Z   1
loop_
 _symmetry_equiv_pos_site_id
 _symmetry_equiv_pos_as_xyz
  1  'x, y, z'
loop_
 _atom_site_type_symbol
 _atom_site_label
 _atom_site_symmetry_multiplicity
 _atom_site_fract_x
 _atom_site_fract_y
 _atom_site_fract_z
 _atom_site_occupancy
  Tm  Tm0  1  0.822087  0.324003  0.000000  1
  Tm  Tm1  1  0.324382  0.177716  0.000000  1
  Tm  Tm2  1  0.676375  0.822456  0.000000  1
  Tm  Tm3  1  0.176795  0.675297  0.000000  1
  Ga  Ga4  1  0.000183  0.000199  0.000000  1
  Ga  Ga5  1  0.499958  0.499486  0.000000  1
  B  B6  1  0.623816  0.120381  0.000000  1
  B  B7  1  0.119885  0.375870  0.000000  1
  B  B8  1  0.879784  0.624388  0.000000  1
  B  B9  1  0.376660  0.877339  0.000000  1
  Ir  Ir10  1  0.069563  0.219371  0.500000  1
  Ir  Ir11  1  0.218578  0.931501  0.500000  1
  Ir  Ir12  1  0.781096  0.069314  0.500000  1
  Ir  Ir13  1  0.930857  0.781022  0.500000  1
  Ir  Ir14  1  0.430466  0.718643  0.500000  1
  Ir  Ir15  1  0.500570  0.000626  0.500000  1
  Ir  Ir16  1  0.999343  0.499568  0.500000  1
  Rh  Rh17  1  0.570103  0.282160  0.500000  1
  Rh  Rh18  1  0.718025  0.570239  0.500000  1
  Rh  Rh19  1  0.281473  0.430422  0.500000  1
