# generated using pymatgen
data_Ho10Ag3Ru
_symmetry_space_group_name_H-M   'P 1'
_cell_length_a   9.44700622
_cell_length_b   9.45252326
_cell_length_c   9.61315706
_cell_angle_alpha   90.00466444
_cell_angle_beta   89.98750793
_cell_angle_gamma   119.95923849
_symmetry_Int_Tables_number   1
_chemical_formula_structural   Ho10Ag3Ru
_chemical_formula_sum   'Ho20 Ag6 Ru2'
_cell_volume   743.73265543
_cell_formula_units_Z   2
loop_
 _symmetry_equiv_pos_site_id
 _symmetry_equiv_pos_as_xyz
  1  'x, y, z'
loop_
 _atom_site_type_symbol
 _atom_site_label
 _atom_site_symmetry_multiplicity
 _atom_site_fract_x
 _atom_site_fract_y
 _atom_site_fract_z
 _atom_site_occupancy
  Ho  Ho0  1  0.999990  0.000019  0.499960  1
  Ho  Ho1  1  0.999990  0.000023  0.000032  1
  Ho  Ho2  1  0.209050  0.790923  0.441467  1
  Ho  Ho3  1  0.209140  0.418251  0.441454  1
  Ho  Ho4  1  0.581949  0.790943  0.441342  1
  Ho  Ho5  1  0.790980  0.209046  0.558429  1
  Ho  Ho6  1  0.790878  0.581805  0.558421  1
  Ho  Ho7  1  0.417995  0.209037  0.558537  1
  Ho  Ho8  1  0.791040  0.208986  0.941477  1
  Ho  Ho9  1  0.790932  0.581873  0.941562  1
  Ho  Ho10  1  0.418136  0.209086  0.941591  1
  Ho  Ho11  1  0.208990  0.790981  0.058628  1
  Ho  Ho12  1  0.209089  0.418189  0.058567  1
  Ho  Ho13  1  0.581809  0.790897  0.058528  1
  Ho  Ho14  1  0.541262  0.458716  0.250015  1
  Ho  Ho15  1  0.541316  0.082598  0.250028  1
  Ho  Ho16  1  0.917401  0.458671  0.249941  1
  Ho  Ho17  1  0.458692  0.541303  0.749988  1
  Ho  Ho18  1  0.458677  0.917319  0.749973  1
  Ho  Ho19  1  0.082666  0.541311  0.750059  1
  Ag  Ag20  1  0.883693  0.116306  0.250013  1
  Ag  Ag21  1  0.883709  0.767388  0.249997  1
  Ag  Ag22  1  0.232619  0.116292  0.249995  1
  Ag  Ag23  1  0.116310  0.883693  0.749989  1
  Ag  Ag24  1  0.116314  0.232622  0.750000  1
  Ag  Ag25  1  0.767392  0.883705  0.750006  1
  Ru  Ru26  1  0.333331  0.666633  0.249990  1
  Ru  Ru27  1  0.666649  0.333385  0.750011  1
