# generated using pymatgen
data_PuBr4
_symmetry_space_group_name_H-M   'P 1'
_cell_length_a   8.32517001
_cell_length_b   8.32516945
_cell_length_c   8.32517005
_cell_angle_alpha   130.83215569
_cell_angle_beta   130.83215631
_cell_angle_gamma   72.07987806
_symmetry_Int_Tables_number   1
_chemical_formula_structural   PuBr4
_chemical_formula_sum   'Pu2 Br8'
_cell_volume   323.01077488
_cell_formula_units_Z   2
loop_
 _symmetry_equiv_pos_site_id
 _symmetry_equiv_pos_as_xyz
  1  'x, y, z'
loop_
 _atom_site_type_symbol
 _atom_site_label
 _atom_site_symmetry_multiplicity
 _atom_site_fract_x
 _atom_site_fract_y
 _atom_site_fract_z
 _atom_site_occupancy
  Pu  Pu0  1  0.000000  0.000000  0.000000  1
  Pu  Pu1  1  0.750000  0.250000  0.500000  1
  Br  Br2  1  0.400188  0.865547  0.115320  1
  Br  Br3  1  0.034868  0.650188  0.034641  1
  Br  Br4  1  0.349812  0.384453  0.384680  1
  Br  Br5  1  0.134453  0.249773  0.534641  1
  Br  Br6  1  0.615547  0.000227  0.965359  1
  Br  Br7  1  0.999773  0.965132  0.615320  1
  Br  Br8  1  0.715132  0.599812  0.465359  1
  Br  Br9  1  0.750227  0.284868  0.884680  1
