# generated using pymatgen
data_Ti3Al(CuRh3)2
_symmetry_space_group_name_H-M   'P 1'
_cell_length_a   4.30037900
_cell_length_b   6.10210300
_cell_length_c   12.85749000
_cell_angle_alpha   90.00000000
_cell_angle_beta   90.00000000
_cell_angle_gamma   90.00000000
_symmetry_Int_Tables_number   1
_chemical_formula_structural   Ti3Al(CuRh3)2
_chemical_formula_sum   'Ti6 Al2 Cu4 Rh12'
_cell_volume   337.39796718
_cell_formula_units_Z   2
loop_
 _symmetry_equiv_pos_site_id
 _symmetry_equiv_pos_as_xyz
  1  'x, y, z'
loop_
 _atom_site_type_symbol
 _atom_site_label
 _atom_site_symmetry_multiplicity
 _atom_site_fract_x
 _atom_site_fract_y
 _atom_site_fract_z
 _atom_site_occupancy
  Ti  Ti0  1  0.000000  0.500000  0.008270  1
  Ti  Ti1  1  0.500003  0.000000  0.167962  1
  Ti  Ti2  1  0.000000  0.500000  0.332036  1
  Ti  Ti3  1  0.500000  0.000000  0.491730  1
  Ti  Ti4  1  0.000000  0.500000  0.659973  1
  Ti  Ti5  1  0.499996  0.000000  0.840029  1
  Al  Al6  1  0.000000  0.000000  0.667319  1
  Al  Al7  1  0.499998  0.500000  0.832684  1
  Cu  Cu8  1  0.000000  0.000000  0.998905  1
  Cu  Cu9  1  0.500003  0.500000  0.165949  1
  Cu  Cu10  1  0.000000  0.000000  0.334049  1
  Cu  Cu11  1  0.500000  0.500000  0.501092  1
  Rh  Rh12  1  0.500000  0.254047  0.997621  1
  Rh  Rh13  1  0.500000  0.745954  0.997621  1
  Rh  Rh14  1  0.000000  0.248206  0.167324  1
  Rh  Rh15  1  0.000000  0.751794  0.167324  1
  Rh  Rh16  1  0.500003  0.251799  0.332674  1
  Rh  Rh17  1  0.500003  0.748202  0.332674  1
  Rh  Rh18  1  0.000000  0.245955  0.502379  1
  Rh  Rh19  1  0.000000  0.754045  0.502379  1
  Rh  Rh20  1  0.499998  0.246524  0.668706  1
  Rh  Rh21  1  0.499998  0.753477  0.668706  1
  Rh  Rh22  1  0.000000  0.253475  0.831298  1
  Rh  Rh23  1  0.000000  0.746525  0.831298  1
