# generated using pymatgen
data_Sc5Zn6SnRh12
_symmetry_space_group_name_H-M   'P 1'
_cell_length_a   4.39991911
_cell_length_b   6.29352300
_cell_length_c   13.26441952
_cell_angle_alpha   89.99951220
_cell_angle_beta   89.99655394
_cell_angle_gamma   89.99929341
_symmetry_Int_Tables_number   1
_chemical_formula_structural   Sc5Zn6SnRh12
_chemical_formula_sum   'Sc5 Zn6 Sn1 Rh12'
_cell_volume   367.30493536
_cell_formula_units_Z   1
loop_
 _symmetry_equiv_pos_site_id
 _symmetry_equiv_pos_as_xyz
  1  'x, y, z'
loop_
 _atom_site_type_symbol
 _atom_site_label
 _atom_site_symmetry_multiplicity
 _atom_site_fract_x
 _atom_site_fract_y
 _atom_site_fract_z
 _atom_site_occupancy
  Sc  Sc0  1  0.000009  0.000000  0.000130  1
  Sc  Sc1  1  0.499908  0.500001  0.168459  1
  Sc  Sc2  1  0.999928  0.999999  0.333314  1
  Sc  Sc3  1  0.500003  0.499999  0.498151  1
  Sc  Sc4  1  0.000079  0.999999  0.666510  1
  Zn  Zn5  1  0.000001  0.500000  0.005451  1
  Zn  Zn6  1  0.499920  0.000001  0.164800  1
  Zn  Zn7  1  0.999917  0.500005  0.333311  1
  Zn  Zn8  1  0.500002  0.000000  0.501850  1
  Zn  Zn9  1  0.000081  0.499999  0.661219  1
  Zn  Zn10  1  0.500084  0.000004  0.833319  1
  Sn  Sn11  1  0.500049  0.500008  0.833569  1
  Rh  Rh12  1  0.500015  0.254154  0.998674  1
  Rh  Rh13  1  0.500014  0.745845  0.998679  1
  Rh  Rh14  1  0.999910  0.248813  0.167023  1
  Rh  Rh15  1  0.999907  0.751188  0.167028  1
  Rh  Rh16  1  0.499909  0.250312  0.333309  1
  Rh  Rh17  1  0.499929  0.749697  0.333315  1
  Rh  Rh18  1  0.999998  0.248872  0.499611  1
  Rh  Rh19  1  0.000006  0.751119  0.499612  1
  Rh  Rh20  1  0.500086  0.254385  0.668041  1
  Rh  Rh21  1  0.500086  0.745617  0.668036  1
  Rh  Rh22  1  0.000083  0.254010  0.833295  1
  Rh  Rh23  1  0.000080  0.745979  0.833294  1
