# generated using pymatgen
data_YNb8AlSe16
_symmetry_space_group_name_H-M   'P 1'
_cell_length_a   7.01852400
_cell_length_b   7.01852393
_cell_length_c   13.66348100
_cell_angle_alpha   90.00000000
_cell_angle_beta   90.00000000
_cell_angle_gamma   120.00000033
_symmetry_Int_Tables_number   1
_chemical_formula_structural   YNb8AlSe16
_chemical_formula_sum   'Y1 Nb8 Al1 Se16'
_cell_volume   582.88591598
_cell_formula_units_Z   1
loop_
 _symmetry_equiv_pos_site_id
 _symmetry_equiv_pos_as_xyz
  1  'x, y, z'
loop_
 _atom_site_type_symbol
 _atom_site_label
 _atom_site_symmetry_multiplicity
 _atom_site_fract_x
 _atom_site_fract_y
 _atom_site_fract_z
 _atom_site_occupancy
  Y  Y0  1  0.000000  0.000000  0.500000  1
  Nb  Nb1  1  0.000000  0.000000  0.238711  1
  Nb  Nb2  1  0.000000  0.000000  0.761289  1
  Nb  Nb3  1  0.506523  0.013048  0.235633  1
  Nb  Nb4  1  0.986952  0.493477  0.235633  1
  Nb  Nb5  1  0.506523  0.493477  0.235633  1
  Nb  Nb6  1  0.493477  0.986952  0.764367  1
  Nb  Nb7  1  0.013048  0.506523  0.764367  1
  Nb  Nb8  1  0.493477  0.506523  0.764367  1
  Al  Al9  1  0.000000  0.000000  0.000000  1
  Se  Se10  1  0.333333  0.666667  0.888880  1
  Se  Se11  1  0.666667  0.333333  0.111120  1
  Se  Se12  1  0.666667  0.333333  0.362381  1
  Se  Se13  1  0.333333  0.666667  0.637619  1
  Se  Se14  1  0.170426  0.829574  0.358079  1
  Se  Se15  1  0.170426  0.340851  0.358079  1
  Se  Se16  1  0.659149  0.829574  0.358079  1
  Se  Se17  1  0.829574  0.170426  0.641921  1
  Se  Se18  1  0.829574  0.659149  0.641921  1
  Se  Se19  1  0.340851  0.170426  0.641921  1
  Se  Se20  1  0.832355  0.167645  0.885465  1
  Se  Se21  1  0.832355  0.664711  0.885465  1
  Se  Se22  1  0.335289  0.167645  0.885465  1
  Se  Se23  1  0.167645  0.832355  0.114535  1
  Se  Se24  1  0.167645  0.335289  0.114535  1
  Se  Se25  1  0.664711  0.832355  0.114535  1
