# generated using pymatgen
data_Na5Ca3(ReN3)4
_symmetry_space_group_name_H-M   'P 1'
_cell_length_a   6.14010572
_cell_length_b   6.08357259
_cell_length_c   12.17133349
_cell_angle_alpha   89.62034419
_cell_angle_beta   90.31570495
_cell_angle_gamma   122.81145572
_symmetry_Int_Tables_number   1
_chemical_formula_structural   Na5Ca3(ReN3)4
_chemical_formula_sum   'Na5 Ca3 Re4 N12'
_cell_volume   382.10102050
_cell_formula_units_Z   1
loop_
 _symmetry_equiv_pos_site_id
 _symmetry_equiv_pos_as_xyz
  1  'x, y, z'
loop_
 _atom_site_type_symbol
 _atom_site_label
 _atom_site_symmetry_multiplicity
 _atom_site_fract_x
 _atom_site_fract_y
 _atom_site_fract_z
 _atom_site_occupancy
  Na  Na0  1  0.552885  0.965811  0.868557  1
  Na  Na1  1  0.058042  0.455225  0.623462  1
  Na  Na2  1  0.447511  0.036459  0.131133  1
  Na  Na3  1  0.957315  0.552669  0.372878  1
  Na  Na4  1  0.341075  0.115862  0.582187  1
  Ca  Ca5  1  0.896675  0.685817  0.914370  1
  Ca  Ca6  1  0.675574  0.890049  0.416108  1
  Ca  Ca7  1  0.099287  0.314561  0.087930  1
  Re  Re8  1  0.732418  0.754522  0.659958  1
  Re  Re9  1  0.249042  0.281589  0.845139  1
  Re  Re10  1  0.270304  0.241169  0.340580  1
  Re  Re11  1  0.745178  0.718610  0.156491  1
  N  N12  1  0.559148  0.461945  0.761004  1
  N  N13  1  0.439673  0.547377  0.245730  1
  N  N14  1  0.533671  0.866502  0.613260  1
  N  N15  1  0.134339  0.482260  0.889105  1
  N  N16  1  0.476044  0.126743  0.375301  1
  N  N17  1  0.861218  0.518893  0.112906  1
  N  N18  1  0.704025  0.875027  0.037066  1
  N  N19  1  0.123754  0.297990  0.456024  1
  N  N20  1  0.293056  0.126537  0.964340  1
  N  N21  1  0.859119  0.684571  0.541861  1
  N  N22  1  0.999756  0.007561  0.755655  1
  N  N23  1  0.990892  0.992251  0.248954  1
