# generated using pymatgen
data_CaZrSi7Ir12
_symmetry_space_group_name_H-M   'P 1'
_cell_length_a   9.74692700
_cell_length_b   9.74692778
_cell_length_c   3.87013100
_cell_angle_alpha   90.00000000
_cell_angle_beta   90.00000000
_cell_angle_gamma   120.00000075
_symmetry_Int_Tables_number   1
_chemical_formula_structural   CaZrSi7Ir12
_chemical_formula_sum   'Ca1 Zr1 Si7 Ir12'
_cell_volume   318.41370750
_cell_formula_units_Z   1
loop_
 _symmetry_equiv_pos_site_id
 _symmetry_equiv_pos_as_xyz
  1  'x, y, z'
loop_
 _atom_site_type_symbol
 _atom_site_label
 _atom_site_symmetry_multiplicity
 _atom_site_fract_x
 _atom_site_fract_y
 _atom_site_fract_z
 _atom_site_occupancy
  Ca  Ca0  1  0.666667  0.333333  0.250705  1
  Zr  Zr1  1  0.333333  0.666667  0.751048  1
  Si  Si2  1  0.000000  0.000000  0.505638  1
  Si  Si3  1  0.291964  0.886260  0.247846  1
  Si  Si4  1  0.594296  0.708036  0.247846  1
  Si  Si5  1  0.113740  0.405704  0.247846  1
  Si  Si6  1  0.711939  0.119736  0.750865  1
  Si  Si7  1  0.407796  0.288061  0.750865  1
  Si  Si8  1  0.880264  0.592204  0.750865  1
  Ir  Ir9  1  0.262266  0.118202  0.253096  1
  Ir  Ir10  1  0.855936  0.737734  0.253096  1
  Ir  Ir11  1  0.881798  0.144064  0.253096  1
  Ir  Ir12  1  0.737855  0.885169  0.745881  1
  Ir  Ir13  1  0.147314  0.262145  0.745881  1
  Ir  Ir14  1  0.114831  0.852686  0.745881  1
  Ir  Ir15  1  0.070675  0.623581  0.248959  1
  Ir  Ir16  1  0.552906  0.929325  0.248959  1
  Ir  Ir17  1  0.376419  0.447094  0.248959  1
  Ir  Ir18  1  0.944085  0.385783  0.750889  1
  Ir  Ir19  1  0.441698  0.055915  0.750889  1
  Ir  Ir20  1  0.614217  0.558302  0.750889  1
