# generated using pymatgen
data_TbYTh2(GaIr)4
_symmetry_space_group_name_H-M   'P 1'
_cell_length_a   4.38865100
_cell_length_b   6.91799623
_cell_length_c   7.93354365
_cell_angle_alpha   89.88968920
_cell_angle_beta   90.00000000
_cell_angle_gamma   90.00000000
_symmetry_Int_Tables_number   1
_chemical_formula_structural   TbYTh2(GaIr)4
_chemical_formula_sum   'Tb1 Y1 Th2 Ga4 Ir4'
_cell_volume   240.86726272
_cell_formula_units_Z   1
loop_
 _symmetry_equiv_pos_site_id
 _symmetry_equiv_pos_as_xyz
  1  'x, y, z'
loop_
 _atom_site_type_symbol
 _atom_site_label
 _atom_site_symmetry_multiplicity
 _atom_site_fract_x
 _atom_site_fract_y
 _atom_site_fract_z
 _atom_site_occupancy
  Tb  Tb0  1  0.750000  0.027699  0.693548  1
  Y  Y1  1  0.750000  0.527676  0.805666  1
  Th  Th2  1  0.250000  0.973124  0.315777  1
  Th  Th3  1  0.250000  0.473009  0.183326  1
  Ga  Ga4  1  0.250000  0.348615  0.576220  1
  Ga  Ga5  1  0.250000  0.846434  0.923996  1
  Ga  Ga6  1  0.750000  0.652333  0.440171  1
  Ga  Ga7  1  0.750000  0.152959  0.060091  1
  Ir  Ir8  1  0.250000  0.233209  0.891998  1
  Ir  Ir9  1  0.250000  0.735149  0.608038  1
  Ir  Ir10  1  0.750000  0.764664  0.115331  1
  Ir  Ir11  1  0.750000  0.265132  0.385837  1
