# generated using pymatgen
data_Tb5Ho11Cd4(OsRh)2
_symmetry_space_group_name_H-M   'P 1'
_cell_length_a   9.67561724
_cell_length_b   9.66461859
_cell_length_c   9.68469400
_cell_angle_alpha   59.54885758
_cell_angle_beta   59.59196014
_cell_angle_gamma   59.61464728
_symmetry_Int_Tables_number   1
_chemical_formula_structural   Tb5Ho11Cd4(OsRh)2
_chemical_formula_sum   'Tb5 Ho11 Cd4 Os2 Rh2'
_cell_volume   634.33586112
_cell_formula_units_Z   1
loop_
 _symmetry_equiv_pos_site_id
 _symmetry_equiv_pos_as_xyz
  1  'x, y, z'
loop_
 _atom_site_type_symbol
 _atom_site_label
 _atom_site_symmetry_multiplicity
 _atom_site_fract_x
 _atom_site_fract_y
 _atom_site_fract_z
 _atom_site_occupancy
  Tb  Tb0  1  0.554651  0.939784  0.941641  1
  Tb  Tb1  1  0.556710  0.937788  0.564106  1
  Tb  Tb2  1  0.939356  0.555499  0.940228  1
  Tb  Tb3  1  0.564221  0.563302  0.935310  1
  Tb  Tb4  1  0.939272  0.938791  0.559626  1
  Ho  Ho5  1  0.350071  0.349138  0.348074  1
  Ho  Ho6  1  0.349036  0.350466  0.956147  1
  Ho  Ho7  1  0.344821  0.960896  0.348935  1
  Ho  Ho8  1  0.959693  0.345579  0.348199  1
  Ho  Ho9  1  0.813666  0.186651  0.187970  1
  Ho  Ho10  1  0.185431  0.813273  0.810179  1
  Ho  Ho11  1  0.186861  0.812971  0.188598  1
  Ho  Ho12  1  0.812831  0.186145  0.809531  1
  Ho  Ho13  1  0.188654  0.188748  0.810325  1
  Ho  Ho14  1  0.809744  0.809622  0.189959  1
  Ho  Ho15  1  0.940302  0.554133  0.563172  1
  Cd  Cd16  1  0.580586  0.579745  0.580029  1
  Cd  Cd17  1  0.579920  0.580026  0.258084  1
  Cd  Cd18  1  0.581143  0.256757  0.580309  1
  Cd  Cd19  1  0.256544  0.581245  0.580241  1
  Os  Os20  1  0.142930  0.142648  0.137673  1
  Os  Os21  1  0.143333  0.146027  0.576462  1
  Rh  Rh22  1  0.142067  0.577892  0.143440  1
  Rh  Rh23  1  0.578160  0.142877  0.141763  1
