# generated using pymatgen
data_Er5Tm3(B6Ir)4
_symmetry_space_group_name_H-M   'P 1'
_cell_length_a   3.61466800
_cell_length_b   9.13316006
_cell_length_c   11.47457303
_cell_angle_alpha   90.01027875
_cell_angle_beta   90.00000000
_cell_angle_gamma   90.00000000
_symmetry_Int_Tables_number   1
_chemical_formula_structural   Er5Tm3(B6Ir)4
_chemical_formula_sum   'Er5 Tm3 B24 Ir4'
_cell_volume   378.81399061
_cell_formula_units_Z   1
loop_
 _symmetry_equiv_pos_site_id
 _symmetry_equiv_pos_as_xyz
  1  'x, y, z'
loop_
 _atom_site_type_symbol
 _atom_site_label
 _atom_site_symmetry_multiplicity
 _atom_site_fract_x
 _atom_site_fract_y
 _atom_site_fract_z
 _atom_site_occupancy
  Er  Er0  1  0.000000  0.321728  0.412999  1
  Er  Er1  1  0.000000  0.678260  0.587222  1
  Er  Er2  1  0.000000  0.821477  0.086987  1
  Er  Er3  1  0.000000  0.178460  0.912921  1
  Er  Er4  1  0.000000  0.944112  0.374733  1
  Tm  Tm5  1  0.000000  0.055999  0.625497  1
  Tm  Tm6  1  0.000000  0.444136  0.125173  1
  Tm  Tm7  1  0.000000  0.555958  0.874722  1
  B  B8  1  0.500000  0.552966  0.434016  1
  B  B9  1  0.500000  0.446824  0.566070  1
  B  B10  1  0.500000  0.053287  0.065844  1
  B  B11  1  0.500000  0.946797  0.933988  1
  B  B12  1  0.500000  0.749302  0.421090  1
  B  B13  1  0.500000  0.250297  0.579102  1
  B  B14  1  0.500000  0.249951  0.078842  1
  B  B15  1  0.500000  0.750105  0.921041  1
  B  B16  1  0.500000  0.793087  0.265194  1
  B  B17  1  0.500000  0.206615  0.734693  1
  B  B18  1  0.500000  0.293562  0.234432  1
  B  B19  1  0.500000  0.706528  0.765500  1
  B  B20  1  0.500000  0.631569  0.183879  1
  B  B21  1  0.500000  0.368372  0.816032  1
  B  B22  1  0.500000  0.132072  0.315824  1
  B  B23  1  0.500000  0.868245  0.684128  1
  B  B24  1  0.500000  0.981315  0.212986  1
  B  B25  1  0.500000  0.018855  0.786762  1
  B  B26  1  0.500000  0.481056  0.286609  1
  B  B27  1  0.500000  0.518901  0.713322  1
  B  B28  1  0.500000  0.609276  0.029935  1
  B  B29  1  0.500000  0.390744  0.969954  1
  B  B30  1  0.500000  0.110295  0.470070  1
  B  B31  1  0.500000  0.889928  0.530501  1
  Ir  Ir32  1  0.000000  0.637893  0.320975  1
  Ir  Ir33  1  0.000000  0.361765  0.679074  1
  Ir  Ir34  1  0.000000  0.138663  0.178763  1
  Ir  Ir35  1  0.000000  0.861598  0.821116  1
