# generated using pymatgen
data_Ho4Er15MgIr12
_symmetry_space_group_name_H-M   'P 1'
_cell_length_a   10.77423100
_cell_length_b   10.78096300
_cell_length_c   6.29455700
_cell_angle_alpha   90.00000000
_cell_angle_beta   90.00000000
_cell_angle_gamma   90.00160017
_symmetry_Int_Tables_number   1
_chemical_formula_structural   Ho4Er15MgIr12
_chemical_formula_sum   'Ho4 Er15 Mg1 Ir12'
_cell_volume   731.15424988
_cell_formula_units_Z   1
loop_
 _symmetry_equiv_pos_site_id
 _symmetry_equiv_pos_as_xyz
  1  'x, y, z'
loop_
 _atom_site_type_symbol
 _atom_site_label
 _atom_site_symmetry_multiplicity
 _atom_site_fract_x
 _atom_site_fract_y
 _atom_site_fract_z
 _atom_site_occupancy
  Ho  Ho0  1  0.282794  0.084616  0.378724  1
  Ho  Ho1  1  0.290970  0.911390  0.880366  1
  Ho  Ho2  1  0.709030  0.088610  0.880366  1
  Ho  Ho3  1  0.717206  0.915384  0.378724  1
  Er  Er4  1  0.588771  0.792135  0.878551  1
  Er  Er5  1  0.586506  0.207892  0.377054  1
  Er  Er6  1  0.413494  0.792108  0.377054  1
  Er  Er7  1  0.411229  0.207865  0.878551  1
  Er  Er8  1  0.207884  0.413622  0.622742  1
  Er  Er9  1  0.207735  0.588637  0.121378  1
  Er  Er10  1  0.792265  0.411363  0.121378  1
  Er  Er11  1  0.792116  0.586378  0.622742  1
  Er  Er12  1  0.912108  0.708042  0.119026  1
  Er  Er13  1  0.916340  0.283771  0.620749  1
  Er  Er14  1  0.083660  0.716229  0.620749  1
  Er  Er15  1  0.087892  0.291958  0.119026  1
  Er  Er16  1  0.000000  0.000000  0.001664  1
  Er  Er17  1  0.500000  0.500000  0.999749  1
  Er  Er18  1  0.500000  0.500000  0.499820  1
  Mg  Mg19  1  0.000000  0.000000  0.501651  1
  Ir  Ir20  1  0.847161  0.155913  0.246843  1
  Ir  Ir21  1  0.844805  0.846163  0.755096  1
  Ir  Ir22  1  0.155195  0.153837  0.755096  1
  Ir  Ir23  1  0.152839  0.844087  0.246843  1
  Ir  Ir24  1  0.654027  0.346599  0.748120  1
  Ir  Ir25  1  0.653797  0.653652  0.250825  1
  Ir  Ir26  1  0.346203  0.346348  0.250825  1
  Ir  Ir27  1  0.345973  0.653401  0.748120  1
  Ir  Ir28  1  0.500000  0.000000  0.124826  1
  Ir  Ir29  1  0.500000  0.000000  0.621208  1
  Ir  Ir30  1  0.000000  0.500000  0.873753  1
  Ir  Ir31  1  0.000000  0.500000  0.378381  1
