# generated using pymatgen
data_TbYb(HoOs4)2
_symmetry_space_group_name_H-M   'P 1'
_cell_length_a   5.30647500
_cell_length_b   5.30647375
_cell_length_c   8.84550500
_cell_angle_alpha   90.00000000
_cell_angle_beta   90.00000000
_cell_angle_gamma   120.00000156
_symmetry_Int_Tables_number   1
_chemical_formula_structural   TbYb(HoOs4)2
_chemical_formula_sum   'Tb1 Yb1 Ho2 Os8'
_cell_volume   215.70757671
_cell_formula_units_Z   1
loop_
 _symmetry_equiv_pos_site_id
 _symmetry_equiv_pos_as_xyz
  1  'x, y, z'
loop_
 _atom_site_type_symbol
 _atom_site_label
 _atom_site_symmetry_multiplicity
 _atom_site_fract_x
 _atom_site_fract_y
 _atom_site_fract_z
 _atom_site_occupancy
  Tb  Tb0  1  0.333333  0.666667  0.429797  1
  Yb  Yb1  1  0.333333  0.666667  0.062832  1
  Ho  Ho2  1  0.666667  0.333333  0.565961  1
  Ho  Ho3  1  0.666667  0.333333  0.939259  1
  Os  Os4  1  0.000000  0.000000  0.501388  1
  Os  Os5  1  0.000000  0.000000  0.000450  1
  Os  Os6  1  0.828094  0.171906  0.249867  1
  Os  Os7  1  0.828094  0.656187  0.249867  1
  Os  Os8  1  0.343813  0.171906  0.249867  1
  Os  Os9  1  0.172708  0.827292  0.750238  1
  Os  Os10  1  0.172708  0.345416  0.750238  1
  Os  Os11  1  0.654584  0.827292  0.750238  1
