# generated using pymatgen
data_SrTbEr5PtI12
_symmetry_space_group_name_H-M   'P 1'
_cell_length_a   9.79797127
_cell_length_b   9.79030124
_cell_length_c   9.78250426
_cell_angle_alpha   106.32495098
_cell_angle_beta   106.26200988
_cell_angle_gamma   106.13334089
_symmetry_Int_Tables_number   1
_chemical_formula_structural   SrTbEr5PtI12
_chemical_formula_sum   'Sr1 Tb1 Er5 Pt1 I12'
_cell_volume   797.14167773
_cell_formula_units_Z   1
loop_
 _symmetry_equiv_pos_site_id
 _symmetry_equiv_pos_as_xyz
  1  'x, y, z'
loop_
 _atom_site_type_symbol
 _atom_site_label
 _atom_site_symmetry_multiplicity
 _atom_site_fract_x
 _atom_site_fract_y
 _atom_site_fract_z
 _atom_site_occupancy
  Sr  Sr0  1  0.500083  0.500014  0.500059  1
  Tb  Tb1  1  0.979649  0.700818  0.905266  1
  Er  Er2  1  0.093871  0.021454  0.295916  1
  Er  Er3  1  0.295913  0.094911  0.021226  1
  Er  Er4  1  0.020673  0.294767  0.093812  1
  Er  Er5  1  0.905952  0.978481  0.704160  1
  Er  Er6  1  0.704433  0.906973  0.979041  1
  Pt  Pt7  1  0.000279  0.999954  0.000143  1
  I  I8  1  0.074912  0.674824  0.225079  1
  I  I9  1  0.221408  0.073839  0.674155  1
  I  I10  1  0.673962  0.221916  0.073624  1
  I  I11  1  0.925089  0.322931  0.777293  1
  I  I12  1  0.778564  0.926961  0.325898  1
  I  I13  1  0.329149  0.781084  0.927242  1
  I  I14  1  0.448113  0.135008  0.368412  1
  I  I15  1  0.368071  0.448160  0.134592  1
  I  I16  1  0.134423  0.368270  0.448217  1
  I  I17  1  0.551914  0.865016  0.631266  1
  I  I18  1  0.629409  0.552753  0.865535  1
  I  I19  1  0.864133  0.631867  0.549065  1
