# generated using pymatgen
data_Cs2NaBS3
_symmetry_space_group_name_H-M   'P 1'
_cell_length_a   8.16580348
_cell_length_b   8.16580224
_cell_length_c   11.02761499
_cell_angle_alpha   56.17392667
_cell_angle_beta   56.17393049
_cell_angle_gamma   58.19778721
_symmetry_Int_Tables_number   1
_chemical_formula_structural   Cs2NaBS3
_chemical_formula_sum   'Cs4 Na2 B2 S6'
_cell_volume   481.69359049
_cell_formula_units_Z   2
loop_
 _symmetry_equiv_pos_site_id
 _symmetry_equiv_pos_as_xyz
  1  'x, y, z'
loop_
 _atom_site_type_symbol
 _atom_site_label
 _atom_site_symmetry_multiplicity
 _atom_site_fract_x
 _atom_site_fract_y
 _atom_site_fract_z
 _atom_site_occupancy
  Cs  Cs0  1  0.374160  0.815283  0.986302  1
  Cs  Cs1  1  0.815283  0.374160  0.486302  1
  Cs  Cs2  1  0.625840  0.184717  0.013698  1
  Cs  Cs3  1  0.184717  0.625840  0.513698  1
  Na  Na4  1  0.000000  0.500000  0.000000  1
  Na  Na5  1  0.500000  0.000000  0.500000  1
  B  B6  1  0.894916  0.105084  0.250000  1
  B  B7  1  0.105084  0.894916  0.750000  1
  S  S8  1  0.119338  0.137969  0.711072  1
  S  S9  1  0.862031  0.880662  0.788928  1
  S  S10  1  0.880662  0.862031  0.288928  1
  S  S11  1  0.137969  0.119338  0.211072  1
  S  S12  1  0.338489  0.661511  0.750000  1
  S  S13  1  0.661511  0.338489  0.250000  1
