# generated using pymatgen
data_TbDy2HfPt2
_symmetry_space_group_name_H-M   'P 1'
_cell_length_a   4.74124900
_cell_length_b   7.16503874
_cell_length_c   8.45467561
_cell_angle_alpha   89.98092963
_cell_angle_beta   90.00000000
_cell_angle_gamma   90.00000000
_symmetry_Int_Tables_number   1
_chemical_formula_structural   TbDy2HfPt2
_chemical_formula_sum   'Tb2 Dy4 Hf2 Pt4'
_cell_volume   287.21573728
_cell_formula_units_Z   2
loop_
 _symmetry_equiv_pos_site_id
 _symmetry_equiv_pos_as_xyz
  1  'x, y, z'
loop_
 _atom_site_type_symbol
 _atom_site_label
 _atom_site_symmetry_multiplicity
 _atom_site_fract_x
 _atom_site_fract_y
 _atom_site_fract_z
 _atom_site_occupancy
  Tb  Tb0  1  0.750000  0.018158  0.668636  1
  Tb  Tb1  1  0.250000  0.981842  0.331364  1
  Dy  Dy2  1  0.750000  0.145179  0.082790  1
  Dy  Dy3  1  0.250000  0.854821  0.917210  1
  Dy  Dy4  1  0.750000  0.509595  0.822277  1
  Dy  Dy5  1  0.250000  0.490405  0.177723  1
  Hf  Hf6  1  0.750000  0.642704  0.424359  1
  Hf  Hf7  1  0.250000  0.357296  0.575641  1
  Pt  Pt8  1  0.750000  0.274904  0.418705  1
  Pt  Pt9  1  0.250000  0.725096  0.581295  1
  Pt  Pt10  1  0.750000  0.744364  0.106339  1
  Pt  Pt11  1  0.250000  0.255636  0.893661  1
