# generated using pymatgen
data_Er20GaCo4Sb7
_symmetry_space_group_name_H-M   'P 1'
_cell_length_a   7.77531082
_cell_length_b   8.71703336
_cell_length_c   12.02966539
_cell_angle_alpha   90.10134190
_cell_angle_beta   89.89909765
_cell_angle_gamma   89.92263861
_symmetry_Int_Tables_number   1
_chemical_formula_structural   Er20GaCo4Sb7
_chemical_formula_sum   'Er20 Ga1 Co4 Sb7'
_cell_volume   815.33908905
_cell_formula_units_Z   1
loop_
 _symmetry_equiv_pos_site_id
 _symmetry_equiv_pos_as_xyz
  1  'x, y, z'
loop_
 _atom_site_type_symbol
 _atom_site_label
 _atom_site_symmetry_multiplicity
 _atom_site_fract_x
 _atom_site_fract_y
 _atom_site_fract_z
 _atom_site_occupancy
  Er  Er0  1  0.149828  0.756706  0.207376  1
  Er  Er1  1  0.662498  0.244304  0.293274  1
  Er  Er2  1  0.845924  0.251263  0.796150  1
  Er  Er3  1  0.344420  0.749953  0.701601  1
  Er  Er4  1  0.449937  0.748713  0.997843  1
  Er  Er5  1  0.951993  0.241148  0.497342  1
  Er  Er6  1  0.545829  0.251497  0.002417  1
  Er  Er7  1  0.039777  0.759149  0.492166  1
  Er  Er8  1  0.633753  0.755941  0.307963  1
  Er  Er9  1  0.116336  0.243448  0.196481  1
  Er  Er10  1  0.377930  0.249549  0.691986  1
  Er  Er11  1  0.877583  0.749238  0.808119  1
  Er  Er12  1  0.824046  0.966593  0.071937  1
  Er  Er13  1  0.319895  0.035188  0.432698  1
  Er  Er14  1  0.176480  0.461744  0.935157  1
  Er  Er15  1  0.680886  0.533074  0.564954  1
  Er  Er16  1  0.176147  0.035198  0.934449  1
  Er  Er17  1  0.676975  0.963810  0.565241  1
  Er  Er18  1  0.821037  0.536561  0.066608  1
  Er  Er19  1  0.323654  0.465754  0.433674  1
  Ga  Ga20  1  0.931259  0.995454  0.329641  1
  Co  Co21  1  0.439051  0.749402  0.490490  1
  Co  Co22  1  0.931640  0.249624  0.010114  1
  Co  Co23  1  0.566244  0.249085  0.507711  1
  Co  Co24  1  0.066001  0.749398  0.991835  1
  Sb  Sb25  1  0.428808  0.007415  0.171625  1
  Sb  Sb26  1  0.071240  0.492199  0.668794  1
  Sb  Sb27  1  0.569648  0.508203  0.826818  1
  Sb  Sb28  1  0.070718  0.007991  0.673854  1
  Sb  Sb29  1  0.570337  0.991892  0.828673  1
  Sb  Sb30  1  0.930561  0.506936  0.328411  1
  Sb  Sb31  1  0.429564  0.493570  0.174598  1
