# generated using pymatgen
data_Sc12Tc2AgBr16
_symmetry_space_group_name_H-M   'P 1'
_cell_length_a   9.05383923
_cell_length_b   11.17005321
_cell_length_c   11.90216504
_cell_angle_alpha   116.81866175
_cell_angle_beta   101.86119929
_cell_angle_gamma   101.36247622
_symmetry_Int_Tables_number   1
_chemical_formula_structural   Sc12Tc2AgBr16
_chemical_formula_sum   'Sc12 Tc2 Ag1 Br16'
_cell_volume   991.74330687
_cell_formula_units_Z   1
loop_
 _symmetry_equiv_pos_site_id
 _symmetry_equiv_pos_as_xyz
  1  'x, y, z'
loop_
 _atom_site_type_symbol
 _atom_site_label
 _atom_site_symmetry_multiplicity
 _atom_site_fract_x
 _atom_site_fract_y
 _atom_site_fract_z
 _atom_site_occupancy
  Sc  Sc0  1  0.089408  0.251377  0.346724  1
  Sc  Sc1  1  0.910592  0.748623  0.653276  1
  Sc  Sc2  1  0.763613  0.537091  0.313773  1
  Sc  Sc3  1  0.236387  0.462909  0.686227  1
  Sc  Sc4  1  0.297332  0.751227  0.655566  1
  Sc  Sc5  1  0.702668  0.248773  0.344434  1
  Sc  Sc6  1  0.149745  0.537556  0.316716  1
  Sc  Sc7  1  0.850255  0.462444  0.683284  1
  Sc  Sc8  1  0.402616  0.354727  0.268363  1
  Sc  Sc9  1  0.597384  0.645273  0.731637  1
  Sc  Sc10  1  0.457564  0.304867  0.520606  1
  Sc  Sc11  1  0.542436  0.695133  0.479394  1
  Tc  Tc12  1  0.332762  0.500272  0.499724  1
  Tc  Tc13  1  0.667239  0.499728  0.500276  1
  Ag  Ag14  1  0.000000  0.500000  0.500000  1
  Br  Br15  1  0.400973  0.743999  0.887515  1
  Br  Br16  1  0.599027  0.256001  0.112485  1
  Br  Br17  1  0.189878  0.966650  0.784380  1
  Br  Br18  1  0.810122  0.033350  0.215620  1
  Br  Br19  1  0.340567  0.090857  0.249853  1
  Br  Br20  1  0.659433  0.909143  0.750147  1
  Br  Br21  1  0.550348  0.435946  0.799794  1
  Br  Br22  1  0.449652  0.564054  0.200206  1
  Br  Br23  1  0.310599  0.827226  0.462223  1
  Br  Br24  1  0.689401  0.172774  0.537777  1
  Br  Br25  1  0.167553  0.169992  0.531877  1
  Br  Br26  1  0.832447  0.830008  0.468123  1
  Br  Br27  1  0.925456  0.575415  0.160220  1
  Br  Br28  1  0.074544  0.424585  0.839780  1
  Br  Br29  1  0.922715  0.741149  0.886337  1
  Br  Br30  1  0.077285  0.258851  0.113663  1
