# generated using pymatgen
data_Nd4Ga5Rh9
_symmetry_space_group_name_H-M   'P 1'
_cell_length_a   12.19246098
_cell_length_b   12.19246118
_cell_length_c   12.19246002
_cell_angle_alpha   26.86368074
_cell_angle_beta   26.86367877
_cell_angle_gamma   26.86367958
_symmetry_Int_Tables_number   1
_chemical_formula_structural   Nd4Ga5Rh9
_chemical_formula_sum   'Nd4 Ga5 Rh9'
_cell_volume   326.36761885
_cell_formula_units_Z   1
loop_
 _symmetry_equiv_pos_site_id
 _symmetry_equiv_pos_as_xyz
  1  'x, y, z'
loop_
 _atom_site_type_symbol
 _atom_site_label
 _atom_site_symmetry_multiplicity
 _atom_site_fract_x
 _atom_site_fract_y
 _atom_site_fract_z
 _atom_site_occupancy
  Nd  Nd0  1  0.950414  0.950414  0.950414  1
  Nd  Nd1  1  0.853175  0.853175  0.853175  1
  Nd  Nd2  1  0.146825  0.146825  0.146825  1
  Nd  Nd3  1  0.049586  0.049586  0.049586  1
  Ga  Ga4  1  0.278240  0.278240  0.278240  1
  Ga  Ga5  1  0.500000  0.500000  0.500000  1
  Ga  Ga6  1  0.388806  0.388806  0.388806  1
  Ga  Ga7  1  0.721760  0.721760  0.721760  1
  Ga  Ga8  1  0.611194  0.611194  0.611194  1
  Rh  Rh9  1  0.612321  0.612321  0.105846  1
  Rh  Rh10  1  0.894154  0.387679  0.387679  1
  Rh  Rh11  1  0.500000  0.000000  0.500000  1
  Rh  Rh12  1  0.387679  0.894154  0.387679  1
  Rh  Rh13  1  0.500000  0.500000  0.000000  1
  Rh  Rh14  1  0.105846  0.612321  0.612321  1
  Rh  Rh15  1  0.000000  0.500000  0.500000  1
  Rh  Rh16  1  0.387679  0.387679  0.894154  1
  Rh  Rh17  1  0.612321  0.105846  0.612321  1
