# generated using pymatgen
data_Na4LuOsO6
_symmetry_space_group_name_H-M   'P 1'
_cell_length_a   5.60898909
_cell_length_b   5.60898235
_cell_length_c   5.78615147
_cell_angle_alpha   99.23311676
_cell_angle_beta   99.23203442
_cell_angle_gamma   120.04036798
_symmetry_Int_Tables_number   1
_chemical_formula_structural   Na4LuOsO6
_chemical_formula_sum   'Na4 Lu1 Os1 O6'
_cell_volume   149.24027535
_cell_formula_units_Z   1
loop_
 _symmetry_equiv_pos_site_id
 _symmetry_equiv_pos_as_xyz
  1  'x, y, z'
loop_
 _atom_site_type_symbol
 _atom_site_label
 _atom_site_symmetry_multiplicity
 _atom_site_fract_x
 _atom_site_fract_y
 _atom_site_fract_z
 _atom_site_occupancy
  Na  Na0  1  0.499209  0.500795  0.000000  1
  Na  Na1  1  0.010849  0.989156  0.500004  1
  Na  Na2  1  0.656709  0.343288  0.500002  1
  Na  Na3  1  0.336806  0.663190  0.499998  1
  Lu  Lu4  1  0.832982  0.167024  0.999996  1
  Os  Os5  1  0.166919  0.833076  0.999997  1
  O  O6  1  0.948048  0.594363  0.207680  1
  O  O7  1  0.542005  0.924080  0.212178  1
  O  O8  1  0.215352  0.190442  0.211723  1
  O  O9  1  0.809562  0.784649  0.788284  1
  O  O10  1  0.075912  0.457986  0.787819  1
  O  O11  1  0.405647  0.051953  0.792326  1
