# generated using pymatgen
data_TbY(ClO4)6
_symmetry_space_group_name_H-M   'P 1'
_cell_length_a   9.69187900
_cell_length_b   9.69187802
_cell_length_c   5.60001300
_cell_angle_alpha   90.00000000
_cell_angle_beta   90.00000000
_cell_angle_gamma   120.00000677
_symmetry_Int_Tables_number   1
_chemical_formula_structural   TbY(ClO4)6
_chemical_formula_sum   'Tb1 Y1 Cl6 O24'
_cell_volume   455.54948513
_cell_formula_units_Z   1
loop_
 _symmetry_equiv_pos_site_id
 _symmetry_equiv_pos_as_xyz
  1  'x, y, z'
loop_
 _atom_site_type_symbol
 _atom_site_label
 _atom_site_symmetry_multiplicity
 _atom_site_fract_x
 _atom_site_fract_y
 _atom_site_fract_z
 _atom_site_occupancy
  Tb  Tb0  1  0.666667  0.333333  0.250000  1
  Y  Y1  1  0.333333  0.666667  0.750000  1
  Cl  Cl2  1  0.094408  0.393117  0.250000  1
  Cl  Cl3  1  0.905986  0.607485  0.750000  1
  Cl  Cl4  1  0.606883  0.701291  0.250000  1
  Cl  Cl5  1  0.392515  0.298501  0.750000  1
  Cl  Cl6  1  0.298709  0.905592  0.250000  1
  Cl  Cl7  1  0.701499  0.094014  0.750000  1
  O  O8  1  0.149435  0.498278  0.038689  1
  O  O9  1  0.850751  0.502188  0.961187  1
  O  O10  1  0.501722  0.651157  0.038689  1
  O  O11  1  0.850751  0.502188  0.538813  1
  O  O12  1  0.497812  0.348562  0.961187  1
  O  O13  1  0.149435  0.498278  0.461311  1
  O  O14  1  0.348843  0.850565  0.038689  1
  O  O15  1  0.497812  0.348562  0.538813  1
  O  O16  1  0.651438  0.149249  0.961187  1
  O  O17  1  0.501722  0.651157  0.461311  1
  O  O18  1  0.651438  0.149249  0.538813  1
  O  O19  1  0.348843  0.850565  0.461311  1
  O  O20  1  0.154043  0.285687  0.250000  1
  O  O21  1  0.846435  0.714984  0.750000  1
  O  O22  1  0.714313  0.868355  0.250000  1
  O  O23  1  0.285016  0.131452  0.750000  1
  O  O24  1  0.131645  0.845957  0.250000  1
  O  O25  1  0.868548  0.153565  0.750000  1
  O  O26  1  0.387013  0.078342  0.250000  1
  O  O27  1  0.613293  0.921328  0.750000  1
  O  O28  1  0.921658  0.308671  0.250000  1
  O  O29  1  0.078672  0.691964  0.750000  1
  O  O30  1  0.691329  0.612987  0.250000  1
  O  O31  1  0.308036  0.386707  0.750000  1
