# generated using pymatgen
data_Er5Mn3(Co4As3)4
_symmetry_space_group_name_H-M   'P 1'
_cell_length_a   12.50721000
_cell_length_b   12.50720999
_cell_length_c   3.79386300
_cell_angle_alpha   90.00000000
_cell_angle_beta   90.00000000
_cell_angle_gamma   120.00000532
_symmetry_Int_Tables_number   1
_chemical_formula_structural   Er5Mn3(Co4As3)4
_chemical_formula_sum   'Er5 Mn3 Co16 As12'
_cell_volume   513.96451521
_cell_formula_units_Z   1
loop_
 _symmetry_equiv_pos_site_id
 _symmetry_equiv_pos_as_xyz
  1  'x, y, z'
loop_
 _atom_site_type_symbol
 _atom_site_label
 _atom_site_symmetry_multiplicity
 _atom_site_fract_x
 _atom_site_fract_y
 _atom_site_fract_z
 _atom_site_occupancy
  Er  Er0  1  0.187006  0.187006  0.500000  1
  Er  Er1  1  0.812994  0.000000  0.500000  1
  Er  Er2  1  0.000000  0.812994  0.500000  1
  Er  Er3  1  0.333333  0.666667  0.000000  1
  Er  Er4  1  0.666667  0.333333  0.000000  1
  Mn  Mn5  1  0.561426  0.561426  0.000000  1
  Mn  Mn6  1  0.438574  0.000000  0.000000  1
  Mn  Mn7  1  0.000000  0.438574  0.000000  1
  Co  Co8  1  0.715749  0.715749  0.500000  1
  Co  Co9  1  0.284251  0.000000  0.500000  1
  Co  Co10  1  0.000000  0.284251  0.500000  1
  Co  Co11  1  0.178189  0.376646  0.000000  1
  Co  Co12  1  0.623354  0.801542  0.000000  1
  Co  Co13  1  0.198458  0.821811  0.000000  1
  Co  Co14  1  0.801542  0.623354  0.000000  1
  Co  Co15  1  0.821811  0.198458  0.000000  1
  Co  Co16  1  0.376646  0.178189  0.000000  1
  Co  Co17  1  0.356775  0.481487  0.500000  1
  Co  Co18  1  0.518513  0.875289  0.500000  1
  Co  Co19  1  0.124711  0.643225  0.500000  1
  Co  Co20  1  0.875289  0.518513  0.500000  1
  Co  Co21  1  0.643225  0.124711  0.500000  1
  Co  Co22  1  0.481487  0.356775  0.500000  1
  Co  Co23  1  0.000000  0.000000  0.000000  1
  As  As24  1  0.821139  0.821139  0.000000  1
  As  As25  1  0.178861  0.000000  0.000000  1
  As  As26  1  0.000000  0.178861  0.000000  1
  As  As27  1  0.168519  0.482905  0.500000  1
  As  As28  1  0.517095  0.685615  0.500000  1
  As  As29  1  0.314385  0.831481  0.500000  1
  As  As30  1  0.685615  0.517095  0.500000  1
  As  As31  1  0.831481  0.314385  0.500000  1
  As  As32  1  0.482905  0.168519  0.500000  1
  As  As33  1  0.363205  0.363205  0.000000  1
  As  As34  1  0.636795  0.000000  0.000000  1
  As  As35  1  0.000000  0.636795  0.000000  1
