# generated using pymatgen
data_Pr2Nd3Pb4
_symmetry_space_group_name_H-M   'P 1'
_cell_length_a   8.46917800
_cell_length_b   8.56044000
_cell_length_c   16.25615300
_cell_angle_alpha   90.00000000
_cell_angle_beta   90.00000000
_cell_angle_gamma   90.00000000
_symmetry_Int_Tables_number   1
_chemical_formula_structural   Pr2Nd3Pb4
_chemical_formula_sum   'Pr8 Nd12 Pb16'
_cell_volume   1178.56930625
_cell_formula_units_Z   4
loop_
 _symmetry_equiv_pos_site_id
 _symmetry_equiv_pos_as_xyz
  1  'x, y, z'
loop_
 _atom_site_type_symbol
 _atom_site_label
 _atom_site_symmetry_multiplicity
 _atom_site_fract_x
 _atom_site_fract_y
 _atom_site_fract_z
 _atom_site_occupancy
  Pr  Pr0  1  0.029341  0.179118  0.100371  1
  Pr  Pr1  1  0.529341  0.320882  0.399629  1
  Pr  Pr2  1  0.470659  0.679118  0.899629  1
  Pr  Pr3  1  0.970659  0.820882  0.600371  1
  Pr  Pr4  1  0.970659  0.820882  0.899629  1
  Pr  Pr5  1  0.470659  0.679118  0.600371  1
  Pr  Pr6  1  0.529341  0.320882  0.100371  1
  Pr  Pr7  1  0.029341  0.179118  0.399629  1
  Nd  Nd8  1  0.876240  0.658928  0.118906  1
  Nd  Nd9  1  0.376240  0.841072  0.381094  1
  Nd  Nd10  1  0.623760  0.158928  0.881094  1
  Nd  Nd11  1  0.123760  0.341072  0.618906  1
  Nd  Nd12  1  0.123760  0.341072  0.881094  1
  Nd  Nd13  1  0.623760  0.158928  0.618906  1
  Nd  Nd14  1  0.376240  0.841072  0.118906  1
  Nd  Nd15  1  0.876240  0.658928  0.381094  1
  Nd  Nd16  1  0.708470  0.997090  0.250000  1
  Nd  Nd17  1  0.208470  0.502910  0.250000  1
  Nd  Nd18  1  0.791530  0.497090  0.750000  1
  Nd  Nd19  1  0.291530  0.002910  0.750000  1
  Pb  Pb20  1  0.073418  0.872888  0.250000  1
  Pb  Pb21  1  0.573418  0.627112  0.250000  1
  Pb  Pb22  1  0.426582  0.372888  0.750000  1
  Pb  Pb23  1  0.926582  0.127112  0.750000  1
  Pb  Pb24  1  0.838742  0.353359  0.250000  1
  Pb  Pb25  1  0.338742  0.146641  0.250000  1
  Pb  Pb26  1  0.661258  0.853359  0.750000  1
  Pb  Pb27  1  0.161258  0.646641  0.750000  1
  Pb  Pb28  1  0.783221  0.465822  0.956401  1
  Pb  Pb29  1  0.283221  0.034178  0.543599  1
  Pb  Pb30  1  0.716779  0.965822  0.043599  1
  Pb  Pb31  1  0.216779  0.534178  0.456401  1
  Pb  Pb32  1  0.216779  0.534178  0.043599  1
  Pb  Pb33  1  0.716779  0.965822  0.456401  1
  Pb  Pb34  1  0.283221  0.034178  0.956401  1
  Pb  Pb35  1  0.783221  0.465822  0.543599  1
