# generated using pymatgen
data_YbLu2Sc(Pt2O7)2
_symmetry_space_group_name_H-M   'P 1'
_cell_length_a   7.13482289
_cell_length_b   7.17392318
_cell_length_c   7.13482311
_cell_angle_alpha   60.36324988
_cell_angle_beta   60.32293941
_cell_angle_gamma   60.36325240
_symmetry_Int_Tables_number   1
_chemical_formula_structural   YbLu2Sc(Pt2O7)2
_chemical_formula_sum   'Yb1 Lu2 Sc1 Pt4 O14'
_cell_volume   260.27427193
_cell_formula_units_Z   1
loop_
 _symmetry_equiv_pos_site_id
 _symmetry_equiv_pos_as_xyz
  1  'x, y, z'
loop_
 _atom_site_type_symbol
 _atom_site_label
 _atom_site_symmetry_multiplicity
 _atom_site_fract_x
 _atom_site_fract_y
 _atom_site_fract_z
 _atom_site_occupancy
  Yb  Yb0  1  0.625000  0.125000  0.625000  1
  Lu  Lu1  1  0.625000  0.625000  0.125000  1
  Lu  Lu2  1  0.125000  0.625000  0.625000  1
  Sc  Sc3  1  0.625000  0.625000  0.625000  1
  Pt  Pt4  1  0.625000  0.125000  0.125000  1
  Pt  Pt5  1  0.125000  0.125000  0.125000  1
  Pt  Pt6  1  0.125000  0.625000  0.125000  1
  Pt  Pt7  1  0.125000  0.125000  0.625000  1
  O  O8  1  0.029047  0.468242  0.467682  1
  O  O9  1  0.782318  0.781758  0.220953  1
  O  O10  1  0.783832  0.224674  0.207594  1
  O  O11  1  0.030820  0.469246  0.030820  1
  O  O12  1  0.464391  0.022546  0.464391  1
  O  O13  1  0.749609  0.734690  0.749609  1
  O  O14  1  0.042406  0.025326  0.466168  1
  O  O15  1  0.785609  0.227454  0.785609  1
  O  O16  1  0.500391  0.515310  0.500391  1
  O  O17  1  0.207594  0.224674  0.783832  1
  O  O18  1  0.219180  0.780754  0.219180  1
  O  O19  1  0.466168  0.025326  0.042406  1
  O  O20  1  0.467682  0.468242  0.029047  1
  O  O21  1  0.220953  0.781758  0.782318  1
