# generated using pymatgen
data_Rb8MgNp3Br20
_symmetry_space_group_name_H-M   'P 1'
_cell_length_a   8.81001900
_cell_length_b   9.36970400
_cell_length_c   14.19407000
_cell_angle_alpha   90.00000000
_cell_angle_beta   90.19686072
_cell_angle_gamma   90.00000000
_symmetry_Int_Tables_number   1
_chemical_formula_structural   Rb8MgNp3Br20
_chemical_formula_sum   'Rb8 Mg1 Np3 Br20'
_cell_volume   1171.67481674
_cell_formula_units_Z   1
loop_
 _symmetry_equiv_pos_site_id
 _symmetry_equiv_pos_as_xyz
  1  'x, y, z'
loop_
 _atom_site_type_symbol
 _atom_site_label
 _atom_site_symmetry_multiplicity
 _atom_site_fract_x
 _atom_site_fract_y
 _atom_site_fract_z
 _atom_site_occupancy
  Rb  Rb0  1  0.549502  0.504336  0.837356  1
  Rb  Rb1  1  0.449856  0.504991  0.164538  1
  Rb  Rb2  1  0.046188  0.503908  0.679407  1
  Rb  Rb3  1  0.449856  0.995009  0.164538  1
  Rb  Rb4  1  0.955090  0.501093  0.319033  1
  Rb  Rb5  1  0.549502  0.995664  0.837356  1
  Rb  Rb6  1  0.955090  0.998907  0.319033  1
  Rb  Rb7  1  0.046188  0.996092  0.679407  1
  Mg  Mg8  1  0.932493  0.750000  0.997912  1
  Np  Np9  1  0.567206  0.750000  0.502056  1
  Np  Np10  1  0.433553  0.250000  0.498853  1
  Np  Np11  1  0.060006  0.250000  0.998343  1
  Br  Br12  1  0.849486  0.750000  0.814834  1
  Br  Br13  1  0.163911  0.250000  0.193390  1
  Br  Br14  1  0.343982  0.250000  0.695146  1
  Br  Br15  1  0.656236  0.750000  0.306494  1
  Br  Br16  1  0.375677  0.750000  0.668445  1
  Br  Br17  1  0.624748  0.250000  0.332382  1
  Br  Br18  1  0.874443  0.250000  0.829670  1
  Br  Br19  1  0.102095  0.750000  0.154804  1
  Br  Br20  1  0.905487  0.750000  0.511859  1
  Br  Br21  1  0.096305  0.250000  0.486682  1
  Br  Br22  1  0.400254  0.250000  0.988649  1
  Br  Br23  1  0.615043  0.750000  0.019872  1
  Br  Br24  1  0.656229  0.039453  0.576631  1
  Br  Br25  1  0.343487  0.959585  0.424171  1
  Br  Br26  1  0.154287  0.967888  0.926616  1
  Br  Br27  1  0.343487  0.540415  0.424171  1
  Br  Br28  1  0.844898  0.050800  0.072551  1
  Br  Br29  1  0.656229  0.460547  0.576631  1
  Br  Br30  1  0.844898  0.449200  0.072551  1
  Br  Br31  1  0.154287  0.532112  0.926616  1
