# generated using pymatgen
data_HfMgSiPt8
_symmetry_space_group_name_H-M   'P 1'
_cell_length_a   3.98053600
_cell_length_b   3.98053600
_cell_length_c   10.97619200
_cell_angle_alpha   90.00000000
_cell_angle_beta   90.00000000
_cell_angle_gamma   90.00000000
_symmetry_Int_Tables_number   1
_chemical_formula_structural   HfMgSiPt8
_chemical_formula_sum   'Hf1 Mg1 Si1 Pt8'
_cell_volume   173.91410549
_cell_formula_units_Z   1
loop_
 _symmetry_equiv_pos_site_id
 _symmetry_equiv_pos_as_xyz
  1  'x, y, z'
loop_
 _atom_site_type_symbol
 _atom_site_label
 _atom_site_symmetry_multiplicity
 _atom_site_fract_x
 _atom_site_fract_y
 _atom_site_fract_z
 _atom_site_occupancy
  Hf  Hf0  1  0.500000  0.500000  0.818541  1
  Mg  Mg1  1  0.500000  0.500000  0.187000  1
  Si  Si2  1  0.000000  0.000000  0.497437  1
  Pt  Pt3  1  0.500000  0.000000  0.000551  1
  Pt  Pt4  1  0.000000  0.500000  0.000551  1
  Pt  Pt5  1  0.500000  0.000000  0.632182  1
  Pt  Pt6  1  0.000000  0.500000  0.632182  1
  Pt  Pt7  1  0.500000  0.000000  0.366120  1
  Pt  Pt8  1  0.000000  0.500000  0.366120  1
  Pt  Pt9  1  0.000000  0.000000  0.819932  1
  Pt  Pt10  1  0.000000  0.000000  0.179382  1
