# generated using pymatgen
data_K3Tl2(AsO4)3
_symmetry_space_group_name_H-M   'P 1'
_cell_length_a   7.19115452
_cell_length_b   9.87447391
_cell_length_c   9.87447300
_cell_angle_alpha   89.68638379
_cell_angle_beta   106.88210251
_cell_angle_gamma   73.11789496
_symmetry_Int_Tables_number   1
_chemical_formula_structural   K3Tl2(AsO4)3
_chemical_formula_sum   'K6 Tl4 As6 O24'
_cell_volume   638.94665153
_cell_formula_units_Z   2
loop_
 _symmetry_equiv_pos_site_id
 _symmetry_equiv_pos_as_xyz
  1  'x, y, z'
loop_
 _atom_site_type_symbol
 _atom_site_label
 _atom_site_symmetry_multiplicity
 _atom_site_fract_x
 _atom_site_fract_y
 _atom_site_fract_z
 _atom_site_occupancy
  K  K0  1  0.249996  0.999501  0.999500  1
  K  K1  1  0.749998  0.272446  0.272445  1
  K  K2  1  0.499999  0.499998  0.500001  1
  K  K3  1  0.000000  0.500001  0.500000  1
  K  K4  1  0.249999  0.727557  0.727554  1
  K  K5  1  0.750000  0.000498  0.000502  1
  Tl  Tl6  1  0.159088  0.608486  0.077438  1
  Tl  Tl7  1  0.659088  0.922562  0.391513  1
  Tl  Tl8  1  0.340914  0.077438  0.608486  1
  Tl  Tl9  1  0.840913  0.391513  0.922562  1
  As  As10  1  0.634017  0.654973  0.144602  1
  As  As11  1  0.249999  0.260221  0.260220  1
  As  As12  1  0.134017  0.855399  0.345026  1
  As  As13  1  0.865984  0.144602  0.654974  1
  As  As14  1  0.750001  0.739779  0.739780  1
  As  As15  1  0.365984  0.345027  0.855398  1
  O  O16  1  0.407879  0.667082  0.011864  1
  O  O17  1  0.834081  0.581307  0.071283  1
  O  O18  1  0.039024  0.244046  0.130356  1
  O  O19  1  0.634170  0.828558  0.176281  1
  O  O20  1  0.134170  0.823719  0.171442  1
  O  O21  1  0.460976  0.130355  0.244045  1
  O  O22  1  0.292607  0.424327  0.251296  1
  O  O23  1  0.657596  0.557262  0.291946  1
  O  O24  1  0.907879  0.988136  0.332918  1
  O  O25  1  0.157597  0.708054  0.442738  1
  O  O26  1  0.334081  0.928717  0.418693  1
  O  O27  1  0.207394  0.251296  0.424328  1
  O  O28  1  0.792608  0.748704  0.575673  1
  O  O29  1  0.665921  0.071283  0.581307  1
  O  O30  1  0.842405  0.291947  0.557263  1
  O  O31  1  0.092122  0.011864  0.667082  1
  O  O32  1  0.342404  0.442739  0.708054  1
  O  O33  1  0.707395  0.575672  0.748704  1
  O  O34  1  0.539024  0.869644  0.755954  1
  O  O35  1  0.865831  0.176281  0.828558  1
  O  O36  1  0.365832  0.171442  0.823719  1
  O  O37  1  0.960976  0.755955  0.869645  1
  O  O38  1  0.165920  0.418693  0.928717  1
  O  O39  1  0.592121  0.332918  0.988136  1
