# generated using pymatgen
data_Li4B4RuRh3
_symmetry_space_group_name_H-M   'P 1'
_cell_length_a   6.90497400
_cell_length_b   6.02929925
_cell_length_c   5.54680690
_cell_angle_alpha   73.10291497
_cell_angle_beta   56.66643338
_cell_angle_gamma   50.23810168
_symmetry_Int_Tables_number   1
_chemical_formula_structural   Li4B4RuRh3
_chemical_formula_sum   'Li4 B4 Ru1 Rh3'
_cell_volume   147.64445043
_cell_formula_units_Z   1
loop_
 _symmetry_equiv_pos_site_id
 _symmetry_equiv_pos_as_xyz
  1  'x, y, z'
loop_
 _atom_site_type_symbol
 _atom_site_label
 _atom_site_symmetry_multiplicity
 _atom_site_fract_x
 _atom_site_fract_y
 _atom_site_fract_z
 _atom_site_occupancy
  Li  Li0  1  0.125332  0.623483  0.626607  1
  Li  Li1  1  0.619431  0.628522  0.625640  1
  Li  Li2  1  0.628522  0.619431  0.126407  1
  Li  Li3  1  0.623483  0.125332  0.624578  1
  B  B4  1  0.425802  0.067791  0.420545  1
  B  B5  1  0.183222  0.822569  0.175323  1
  B  B6  1  0.067791  0.425802  0.085861  1
  B  B7  1  0.822569  0.183222  0.818886  1
  Ru  Ru8  1  0.116054  0.116054  0.383946  1
  Rh  Rh9  1  0.384545  0.384545  0.115455  1
  Rh  Rh10  1  0.867917  0.867917  0.132083  1
  Rh  Rh11  1  0.135333  0.135333  0.864667  1
