# generated using pymatgen
data_Ba3NdHfSe6
_symmetry_space_group_name_H-M   'P 1'
_cell_length_a   8.79593295
_cell_length_b   8.79593273
_cell_length_c   8.79593383
_cell_angle_alpha   92.54510292
_cell_angle_beta   92.54509654
_cell_angle_gamma   92.54510282
_symmetry_Int_Tables_number   1
_chemical_formula_structural   Ba3NdHfSe6
_chemical_formula_sum   'Ba6 Nd2 Hf2 Se12'
_cell_volume   678.45200552
_cell_formula_units_Z   2
loop_
 _symmetry_equiv_pos_site_id
 _symmetry_equiv_pos_as_xyz
  1  'x, y, z'
loop_
 _atom_site_type_symbol
 _atom_site_label
 _atom_site_symmetry_multiplicity
 _atom_site_fract_x
 _atom_site_fract_y
 _atom_site_fract_z
 _atom_site_occupancy
  Ba  Ba0  1  0.875828  0.624172  0.250000  1
  Ba  Ba1  1  0.250000  0.875828  0.624172  1
  Ba  Ba2  1  0.624172  0.250000  0.875828  1
  Ba  Ba3  1  0.750000  0.124172  0.375828  1
  Ba  Ba4  1  0.375828  0.750000  0.124172  1
  Ba  Ba5  1  0.124172  0.375828  0.750000  1
  Nd  Nd6  1  0.250000  0.250000  0.250000  1
  Nd  Nd7  1  0.750000  0.750000  0.750000  1
  Hf  Hf8  1  0.500000  0.500000  0.500000  1
  Hf  Hf9  1  0.000000  0.000000  0.000000  1
  Se  Se10  1  0.205686  0.547130  0.416083  1
  Se  Se11  1  0.416083  0.205686  0.547130  1
  Se  Se12  1  0.547130  0.416083  0.205686  1
  Se  Se13  1  0.916083  0.047130  0.705686  1
  Se  Se14  1  0.705686  0.916083  0.047130  1
  Se  Se15  1  0.047130  0.705686  0.916083  1
  Se  Se16  1  0.794314  0.452870  0.583917  1
  Se  Se17  1  0.583917  0.794314  0.452870  1
  Se  Se18  1  0.452870  0.583917  0.794314  1
  Se  Se19  1  0.083917  0.952870  0.294314  1
  Se  Se20  1  0.294314  0.083917  0.952870  1
  Se  Se21  1  0.952870  0.294314  0.083917  1
