# generated using pymatgen
data_La3Er2In3Br
_symmetry_space_group_name_H-M   'P 1'
_cell_length_a   9.58958900
_cell_length_b   9.58958866
_cell_length_c   6.81198600
_cell_angle_alpha   90.00000000
_cell_angle_beta   90.00000000
_cell_angle_gamma   120.00000464
_symmetry_Int_Tables_number   1
_chemical_formula_structural   La3Er2In3Br
_chemical_formula_sum   'La6 Er4 In6 Br2'
_cell_volume   542.50573157
_cell_formula_units_Z   2
loop_
 _symmetry_equiv_pos_site_id
 _symmetry_equiv_pos_as_xyz
  1  'x, y, z'
loop_
 _atom_site_type_symbol
 _atom_site_label
 _atom_site_symmetry_multiplicity
 _atom_site_fract_x
 _atom_site_fract_y
 _atom_site_fract_z
 _atom_site_occupancy
  La  La0  1  0.731302  0.731302  0.250000  1
  La  La1  1  0.000000  0.731302  0.750000  1
  La  La2  1  0.731302  0.000000  0.750000  1
  La  La3  1  0.268698  0.268698  0.750000  1
  La  La4  1  0.000000  0.268698  0.250000  1
  La  La5  1  0.268698  0.000000  0.250000  1
  Er  Er6  1  0.333333  0.666667  0.500000  1
  Er  Er7  1  0.666667  0.333333  0.500000  1
  Er  Er8  1  0.333333  0.666667  0.000000  1
  Er  Er9  1  0.666667  0.333333  0.000000  1
  In  In10  1  0.393956  0.000000  0.750000  1
  In  In11  1  0.000000  0.606044  0.250000  1
  In  In12  1  0.606044  0.000000  0.250000  1
  In  In13  1  0.000000  0.393956  0.750000  1
  In  In14  1  0.393956  0.393956  0.250000  1
  In  In15  1  0.606044  0.606044  0.750000  1
  Br  Br16  1  0.000000  0.000000  0.500000  1
  Br  Br17  1  0.000000  0.000000  0.000000  1
