# generated using pymatgen
data_Sr3LiP2H
_symmetry_space_group_name_H-M   'P 1'
_cell_length_a   4.39135500
_cell_length_b   11.85844100
_cell_length_c   12.41302400
_cell_angle_alpha   90.00000000
_cell_angle_beta   90.00000000
_cell_angle_gamma   90.00000000
_symmetry_Int_Tables_number   1
_chemical_formula_structural   Sr3LiP2H
_chemical_formula_sum   'Sr12 Li4 P8 H4'
_cell_volume   646.40355971
_cell_formula_units_Z   4
loop_
 _symmetry_equiv_pos_site_id
 _symmetry_equiv_pos_as_xyz
  1  'x, y, z'
loop_
 _atom_site_type_symbol
 _atom_site_label
 _atom_site_symmetry_multiplicity
 _atom_site_fract_x
 _atom_site_fract_y
 _atom_site_fract_z
 _atom_site_occupancy
  Sr  Sr0  1  0.250000  0.061277  0.620585  1
  Sr  Sr1  1  0.250000  0.561277  0.879415  1
  Sr  Sr2  1  0.750000  0.938723  0.379415  1
  Sr  Sr3  1  0.750000  0.438723  0.120585  1
  Sr  Sr4  1  0.250000  0.368055  0.559442  1
  Sr  Sr5  1  0.250000  0.868055  0.940558  1
  Sr  Sr6  1  0.750000  0.631945  0.440558  1
  Sr  Sr7  1  0.750000  0.131945  0.059442  1
  Sr  Sr8  1  0.250000  0.205673  0.298987  1
  Sr  Sr9  1  0.250000  0.705673  0.201013  1
  Sr  Sr10  1  0.750000  0.794327  0.701013  1
  Sr  Sr11  1  0.750000  0.294327  0.798987  1
  Li  Li12  1  0.250000  0.131524  0.858400  1
  Li  Li13  1  0.250000  0.631524  0.641600  1
  Li  Li14  1  0.750000  0.868476  0.141600  1
  Li  Li15  1  0.750000  0.368476  0.358400  1
  P  P16  1  0.250000  0.475680  0.325267  1
  P  P17  1  0.250000  0.975680  0.174733  1
  P  P18  1  0.750000  0.524320  0.674733  1
  P  P19  1  0.750000  0.024320  0.825267  1
  P  P20  1  0.250000  0.312494  0.984090  1
  P  P21  1  0.250000  0.812494  0.515910  1
  P  P22  1  0.750000  0.687506  0.015910  1
  P  P23  1  0.750000  0.187506  0.484090  1
  H  H24  1  0.250000  0.236293  0.724242  1
  H  H25  1  0.250000  0.736293  0.775758  1
  H  H26  1  0.750000  0.763707  0.275758  1
  H  H27  1  0.750000  0.263707  0.224242  1
