# generated using pymatgen
data_Er3GaSn3IrRu
_symmetry_space_group_name_H-M   'P 1'
_cell_length_a   7.44413300
_cell_length_b   7.44413250
_cell_length_c   4.05327600
_cell_angle_alpha   90.00000000
_cell_angle_beta   90.00000000
_cell_angle_gamma   119.99999777
_symmetry_Int_Tables_number   1
_chemical_formula_structural   Er3GaSn3IrRu
_chemical_formula_sum   'Er3 Ga1 Sn3 Ir1 Ru1'
_cell_volume   194.52034769
_cell_formula_units_Z   1
loop_
 _symmetry_equiv_pos_site_id
 _symmetry_equiv_pos_as_xyz
  1  'x, y, z'
loop_
 _atom_site_type_symbol
 _atom_site_label
 _atom_site_symmetry_multiplicity
 _atom_site_fract_x
 _atom_site_fract_y
 _atom_site_fract_z
 _atom_site_occupancy
  Er  Er0  1  0.396386  0.411341  0.500000  1
  Er  Er1  1  0.588659  0.985046  0.500000  1
  Er  Er2  1  0.014954  0.603614  0.500000  1
  Ga  Ga3  1  0.666667  0.333333  0.000000  1
  Sn  Sn4  1  0.744285  0.747797  0.000000  1
  Sn  Sn5  1  0.252203  0.996488  0.000000  1
  Sn  Sn6  1  0.003512  0.255715  0.000000  1
  Ir  Ir7  1  0.333333  0.666667  0.000000  1
  Ru  Ru8  1  0.000000  0.000000  0.500000  1
