# generated using pymatgen
data_Ba3P3Br2
_symmetry_space_group_name_H-M   'P 1'
_cell_length_a   4.51155300
_cell_length_b   14.12854400
_cell_length_c   16.82216300
_cell_angle_alpha   90.00000000
_cell_angle_beta   90.00000000
_cell_angle_gamma   90.00000000
_symmetry_Int_Tables_number   1
_chemical_formula_structural   Ba3P3Br2
_chemical_formula_sum   'Ba12 P12 Br8'
_cell_volume   1072.27284790
_cell_formula_units_Z   4
loop_
 _symmetry_equiv_pos_site_id
 _symmetry_equiv_pos_as_xyz
  1  'x, y, z'
loop_
 _atom_site_type_symbol
 _atom_site_label
 _atom_site_symmetry_multiplicity
 _atom_site_fract_x
 _atom_site_fract_y
 _atom_site_fract_z
 _atom_site_occupancy
  Ba  Ba0  1  0.250000  0.457527  0.637134  1
  Ba  Ba1  1  0.750000  0.542473  0.362866  1
  Ba  Ba2  1  0.750000  0.957527  0.862866  1
  Ba  Ba3  1  0.250000  0.042473  0.137134  1
  Ba  Ba4  1  0.250000  0.711722  0.152663  1
  Ba  Ba5  1  0.750000  0.288278  0.847337  1
  Ba  Ba6  1  0.750000  0.211722  0.347337  1
  Ba  Ba7  1  0.250000  0.788278  0.652663  1
  Ba  Ba8  1  0.250000  0.614163  0.875765  1
  Ba  Ba9  1  0.750000  0.385837  0.124235  1
  Ba  Ba10  1  0.750000  0.114163  0.624235  1
  Ba  Ba11  1  0.250000  0.885837  0.375765  1
  P  P12  1  0.250000  0.373654  0.287609  1
  P  P13  1  0.750000  0.626346  0.712391  1
  P  P14  1  0.750000  0.873654  0.212391  1
  P  P15  1  0.250000  0.126346  0.787609  1
  P  P16  1  0.250000  0.251613  0.210442  1
  P  P17  1  0.750000  0.748387  0.789558  1
  P  P18  1  0.750000  0.751613  0.289558  1
  P  P19  1  0.250000  0.248387  0.710442  1
  P  P20  1  0.250000  0.506187  0.225107  1
  P  P21  1  0.750000  0.493813  0.774893  1
  P  P22  1  0.750000  0.006187  0.274893  1
  P  P23  1  0.250000  0.993813  0.725107  1
  Br  Br24  1  0.250000  0.113111  0.470972  1
  Br  Br25  1  0.750000  0.886889  0.529028  1
  Br  Br26  1  0.750000  0.613111  0.029028  1
  Br  Br27  1  0.250000  0.386889  0.970972  1
  Br  Br28  1  0.250000  0.631454  0.491849  1
  Br  Br29  1  0.750000  0.368546  0.508151  1
  Br  Br30  1  0.750000  0.131454  0.008151  1
  Br  Br31  1  0.250000  0.868546  0.991849  1
