# generated using pymatgen
data_Sr10Mg2Fe3(RuO6)5
_symmetry_space_group_name_H-M   'P 1'
_cell_length_a   7.90888199
_cell_length_b   9.71211946
_cell_length_c   9.78041502
_cell_angle_alpha   81.07170322
_cell_angle_beta   66.14346723
_cell_angle_gamma   65.95850283
_symmetry_Int_Tables_number   1
_chemical_formula_structural   Sr10Mg2Fe3(RuO6)5
_chemical_formula_sum   'Sr10 Mg2 Fe3 Ru5 O30'
_cell_volume   627.42316770
_cell_formula_units_Z   1
loop_
 _symmetry_equiv_pos_site_id
 _symmetry_equiv_pos_as_xyz
  1  'x, y, z'
loop_
 _atom_site_type_symbol
 _atom_site_label
 _atom_site_symmetry_multiplicity
 _atom_site_fract_x
 _atom_site_fract_y
 _atom_site_fract_z
 _atom_site_occupancy
  Sr  Sr0  1  0.749464  0.500192  0.500782  1
  Sr  Sr1  1  0.150299  0.300650  0.899949  1
  Sr  Sr2  1  0.549609  0.100102  0.299457  1
  Sr  Sr3  1  0.950157  0.899967  0.700084  1
  Sr  Sr4  1  0.350533  0.699155  0.099868  1
  Sr  Sr5  1  0.249843  0.500033  0.499916  1
  Sr  Sr6  1  0.650391  0.299898  0.900543  1
  Sr  Sr7  1  0.049701  0.099350  0.300051  1
  Sr  Sr8  1  0.450536  0.899808  0.699218  1
  Sr  Sr9  1  0.849467  0.700845  0.100132  1
  Mg  Mg10  1  0.800490  0.599814  0.800275  1
  Mg  Mg11  1  0.399510  0.800186  0.399725  1
  Fe  Fe12  1  0.999849  0.000137  0.000847  1
  Fe  Fe13  1  0.600000  0.200000  0.600000  1
  Fe  Fe14  1  0.200151  0.399863  0.199153  1
  Ru  Ru15  1  0.700078  0.401051  0.199791  1
  Ru  Ru16  1  0.100000  0.200000  0.600000  1
  Ru  Ru17  1  0.499922  0.998949  0.000209  1
  Ru  Ru18  1  0.899435  0.799080  0.401348  1
  Ru  Ru19  1  0.300565  0.600920  0.798652  1
  O  O20  1  0.348840  0.697697  0.606143  1
  O  O21  1  0.749163  0.495525  0.006284  1
  O  O22  1  0.149238  0.298793  0.402157  1
  O  O23  1  0.548959  0.100288  0.801866  1
  O  O24  1  0.950185  0.898935  0.201641  1
  O  O25  1  0.651041  0.299712  0.398134  1
  O  O26  1  0.050762  0.101207  0.797843  1
  O  O27  1  0.450837  0.904475  0.193716  1
  O  O28  1  0.851160  0.702303  0.593857  1
  O  O29  1  0.249815  0.501065  0.998359  1
  O  O30  1  0.189795  0.798487  0.899927  1
  O  O31  1  0.788983  0.997840  0.499598  1
  O  O32  1  0.387849  0.198748  0.097752  1
  O  O33  1  0.990357  0.393390  0.696419  1
  O  O34  1  0.589967  0.592846  0.297768  1
  O  O35  1  0.010205  0.601513  0.300073  1
  O  O36  1  0.610033  0.807154  0.902232  1
  O  O37  1  0.209643  0.006610  0.503581  1
  O  O38  1  0.812151  0.201252  0.102248  1
  O  O39  1  0.411017  0.402160  0.700402  1
  O  O40  1  0.637168  0.828938  0.412267  1
  O  O41  1  0.229827  0.031605  0.014184  1
  O  O42  1  0.829914  0.230004  0.615276  1
  O  O43  1  0.430352  0.428009  0.215470  1
  O  O44  1  0.036351  0.628884  0.815418  1
  O  O45  1  0.562832  0.571062  0.787733  1
  O  O46  1  0.163649  0.771116  0.384582  1
  O  O47  1  0.769648  0.971991  0.984530  1
  O  O48  1  0.370086  0.169996  0.584724  1
  O  O49  1  0.970173  0.368395  0.185816  1
