# generated using pymatgen
data_HoPa(Ga2Pd)2
_symmetry_space_group_name_H-M   'P 1'
_cell_length_a   5.52505760
_cell_length_b   5.52505805
_cell_length_c   6.60289400
_cell_angle_alpha   90.00000000
_cell_angle_beta   90.00000000
_cell_angle_gamma   132.03537152
_symmetry_Int_Tables_number   1
_chemical_formula_structural   HoPa(Ga2Pd)2
_chemical_formula_sum   'Ho1 Pa1 Ga4 Pd2'
_cell_volume   149.70623223
_cell_formula_units_Z   1
loop_
 _symmetry_equiv_pos_site_id
 _symmetry_equiv_pos_as_xyz
  1  'x, y, z'
loop_
 _atom_site_type_symbol
 _atom_site_label
 _atom_site_symmetry_multiplicity
 _atom_site_fract_x
 _atom_site_fract_y
 _atom_site_fract_z
 _atom_site_occupancy
  Ho  Ho0  1  0.906544  0.093456  0.750000  1
  Pa  Pa1  1  0.092591  0.907409  0.250000  1
  Ga  Ga2  1  0.376100  0.623900  0.051472  1
  Ga  Ga3  1  0.625066  0.374934  0.552778  1
  Ga  Ga4  1  0.625066  0.374934  0.947222  1
  Ga  Ga5  1  0.376100  0.623900  0.448528  1
  Pd  Pd6  1  0.801408  0.198592  0.250000  1
  Pd  Pd7  1  0.197124  0.802876  0.750000  1
