# generated using pymatgen
data_Dy6Er10CdHg3Pt4
_symmetry_space_group_name_H-M   'P 1'
_cell_length_a   9.60833335
_cell_length_b   9.60985852
_cell_length_c   9.60986000
_cell_angle_alpha   59.99999492
_cell_angle_beta   59.99474388
_cell_angle_gamma   59.99473679
_symmetry_Int_Tables_number   1
_chemical_formula_structural   Dy6Er10CdHg3Pt4
_chemical_formula_sum   'Dy6 Er10 Cd1 Hg3 Pt4'
_cell_volume   627.38274685
_cell_formula_units_Z   1
loop_
 _symmetry_equiv_pos_site_id
 _symmetry_equiv_pos_as_xyz
  1  'x, y, z'
loop_
 _atom_site_type_symbol
 _atom_site_label
 _atom_site_symmetry_multiplicity
 _atom_site_fract_x
 _atom_site_fract_y
 _atom_site_fract_z
 _atom_site_occupancy
  Dy  Dy0  1  0.933809  0.564937  0.564937  1
  Dy  Dy1  1  0.564061  0.935758  0.935758  1
  Dy  Dy2  1  0.564061  0.935758  0.564424  1
  Dy  Dy3  1  0.933809  0.564936  0.936318  1
  Dy  Dy4  1  0.564061  0.564424  0.935758  1
  Dy  Dy5  1  0.933809  0.936318  0.564936  1
  Er  Er6  1  0.354096  0.353020  0.353020  1
  Er  Er7  1  0.354096  0.353020  0.939865  1
  Er  Er8  1  0.354096  0.939865  0.353020  1
  Er  Er9  1  0.937709  0.354098  0.354098  1
  Er  Er10  1  0.810190  0.189654  0.189654  1
  Er  Er11  1  0.188599  0.811007  0.811007  1
  Er  Er12  1  0.188599  0.811007  0.189388  1
  Er  Er13  1  0.810190  0.189654  0.810503  1
  Er  Er14  1  0.188599  0.189388  0.811007  1
  Er  Er15  1  0.810190  0.810503  0.189654  1
  Cd  Cd16  1  0.254621  0.581793  0.581793  1
  Hg  Hg17  1  0.585226  0.587015  0.587015  1
  Hg  Hg18  1  0.585226  0.587015  0.240742  1
  Hg  Hg19  1  0.585226  0.240742  0.587015  1
  Pt  Pt20  1  0.143314  0.143646  0.143646  1
  Pt  Pt21  1  0.143314  0.143646  0.569396  1
  Pt  Pt22  1  0.143314  0.569396  0.143646  1
  Pt  Pt23  1  0.569790  0.143404  0.143404  1
