# generated using pymatgen
data_LiCa3ZnPd2
_symmetry_space_group_name_H-M   'P 1'
_cell_length_a   5.76281000
_cell_length_b   7.98794800
_cell_length_c   14.19190300
_cell_angle_alpha   90.00000000
_cell_angle_beta   90.00000000
_cell_angle_gamma   90.00000000
_symmetry_Int_Tables_number   1
_chemical_formula_structural   LiCa3ZnPd2
_chemical_formula_sum   'Li4 Ca12 Zn4 Pd8'
_cell_volume   653.29624850
_cell_formula_units_Z   4
loop_
 _symmetry_equiv_pos_site_id
 _symmetry_equiv_pos_as_xyz
  1  'x, y, z'
loop_
 _atom_site_type_symbol
 _atom_site_label
 _atom_site_symmetry_multiplicity
 _atom_site_fract_x
 _atom_site_fract_y
 _atom_site_fract_z
 _atom_site_occupancy
  Li  Li0  1  0.375910  0.250000  0.000000  1
  Li  Li1  1  0.624090  0.750000  0.500000  1
  Li  Li2  1  0.624090  0.750000  0.000000  1
  Li  Li3  1  0.375910  0.250000  0.500000  1
  Ca  Ca4  1  0.144512  0.605129  0.100070  1
  Ca  Ca5  1  0.144512  0.894871  0.899930  1
  Ca  Ca6  1  0.855488  0.105129  0.399930  1
  Ca  Ca7  1  0.855488  0.394871  0.600070  1
  Ca  Ca8  1  0.855488  0.394871  0.899930  1
  Ca  Ca9  1  0.855488  0.105129  0.100070  1
  Ca  Ca10  1  0.144512  0.894871  0.600070  1
  Ca  Ca11  1  0.144512  0.605129  0.399930  1
  Ca  Ca12  1  0.376322  0.247208  0.250000  1
  Ca  Ca13  1  0.376322  0.252792  0.750000  1
  Ca  Ca14  1  0.623678  0.747208  0.250000  1
  Ca  Ca15  1  0.623678  0.752792  0.750000  1
  Zn  Zn16  1  0.861859  0.401873  0.250000  1
  Zn  Zn17  1  0.861859  0.098127  0.750000  1
  Zn  Zn18  1  0.138141  0.901873  0.250000  1
  Zn  Zn19  1  0.138141  0.598127  0.750000  1
  Pd  Pd20  1  0.637212  0.465614  0.094008  1
  Pd  Pd21  1  0.637212  0.034386  0.905992  1
  Pd  Pd22  1  0.362788  0.965614  0.405992  1
  Pd  Pd23  1  0.362788  0.534386  0.594008  1
  Pd  Pd24  1  0.362788  0.534386  0.905992  1
  Pd  Pd25  1  0.362788  0.965614  0.094008  1
  Pd  Pd26  1  0.637212  0.034386  0.594008  1
  Pd  Pd27  1  0.637212  0.465614  0.405992  1
