# generated using pymatgen
data_Pr2NdBi(SO6)2
_symmetry_space_group_name_H-M   'P 1'
_cell_length_a   4.28070656
_cell_length_b   7.46222418
_cell_length_c   8.32406127
_cell_angle_alpha   106.22690096
_cell_angle_beta   90.50123437
_cell_angle_gamma   106.37052773
_symmetry_Int_Tables_number   1
_chemical_formula_structural   Pr2NdBi(SO6)2
_chemical_formula_sum   'Pr2 Nd1 Bi1 S2 O12'
_cell_volume   243.84958762
_cell_formula_units_Z   1
loop_
 _symmetry_equiv_pos_site_id
 _symmetry_equiv_pos_as_xyz
  1  'x, y, z'
loop_
 _atom_site_type_symbol
 _atom_site_label
 _atom_site_symmetry_multiplicity
 _atom_site_fract_x
 _atom_site_fract_y
 _atom_site_fract_z
 _atom_site_occupancy
  Pr  Pr0  1  0.339634  0.669313  0.919562  1
  Pr  Pr1  1  0.658675  0.331092  0.083100  1
  Nd  Nd2  1  0.326276  0.670152  0.415315  1
  Bi  Bi3  1  0.677340  0.354613  0.587952  1
  S  S4  1  0.942010  0.996491  0.752358  1
  S  S5  1  0.055833  0.997531  0.246049  1
  O  O6  1  0.764469  0.506847  0.872174  1
  O  O7  1  0.231713  0.495158  0.125724  1
  O  O8  1  0.268684  0.499378  0.622370  1
  O  O9  1  0.744059  0.512466  0.383223  1
  O  O10  1  0.735985  0.984112  0.602581  1
  O  O11  1  0.253504  0.993464  0.392362  1
  O  O12  1  0.733826  0.997803  0.897226  1
  O  O13  1  0.265367  0.994700  0.101703  1
  O  O14  1  0.216908  0.179796  0.799794  1
  O  O15  1  0.768983  0.818124  0.198402  1
  O  O16  1  0.059476  0.820600  0.714870  1
  O  O17  1  0.957258  0.178364  0.285236  1
