# generated using pymatgen
data_Ti8Mn(Al2Co)7
_symmetry_space_group_name_H-M   'P 1'
_cell_length_a   8.38329919
_cell_length_b   8.38329832
_cell_length_c   8.38329881
_cell_angle_alpha   120.19868367
_cell_angle_beta   119.80314926
_cell_angle_gamma   89.99875648
_symmetry_Int_Tables_number   1
_chemical_formula_structural   Ti8Mn(Al2Co)7
_chemical_formula_sum   'Ti8 Mn1 Al14 Co7'
_cell_volume   416.59815390
_cell_formula_units_Z   1
loop_
 _symmetry_equiv_pos_site_id
 _symmetry_equiv_pos_as_xyz
  1  'x, y, z'
loop_
 _atom_site_type_symbol
 _atom_site_label
 _atom_site_symmetry_multiplicity
 _atom_site_fract_x
 _atom_site_fract_y
 _atom_site_fract_z
 _atom_site_occupancy
  Ti  Ti0  1  0.801184  0.296079  0.091118  1
  Ti  Ti1  1  0.204961  0.296079  0.494895  1
  Ti  Ti2  1  0.199655  0.699655  0.500000  1
  Ti  Ti3  1  0.204961  0.710065  0.908882  1
  Ti  Ti4  1  0.801184  0.710065  0.505105  1
  Ti  Ti5  1  0.790632  0.290632  0.500000  1
  Ti  Ti6  1  0.379885  0.120603  0.740718  1
  Ti  Ti7  1  0.379885  0.639166  0.259282  1
  Mn  Mn8  1  0.996281  0.496281  0.500000  1
  Al  Al9  1  0.159617  0.338854  0.179235  1
  Al  Al10  1  0.159617  0.980383  0.820765  1
  Al  Al11  1  0.154607  0.343669  0.810938  1
  Al  Al12  1  0.532729  0.343669  0.189062  1
  Al  Al13  1  0.841767  0.656431  0.814665  1
  Al  Al14  1  0.841767  0.027102  0.185335  1
  Al  Al15  1  0.839532  0.658232  0.181299  1
  Al  Al16  1  0.476933  0.658232  0.818701  1
  Al  Al17  1  0.380948  0.119187  0.261761  1
  Al  Al18  1  0.857427  0.119187  0.738239  1
  Al  Al19  1  0.619772  0.879224  0.259452  1
  Al  Al20  1  0.619772  0.360321  0.740548  1
  Al  Al21  1  0.620044  0.879292  0.740751  1
  Al  Al22  1  0.138540  0.879292  0.259249  1
  Co  Co23  1  0.003756  0.000092  0.502648  1
  Co  Co24  1  0.497444  0.000092  0.996336  1
  Co  Co25  1  0.497921  0.497921  0.000000  1
  Co  Co26  1  0.497444  0.501109  0.497352  1
  Co  Co27  1  0.003756  0.501109  0.003664  1
  Co  Co28  1  0.000711  0.000711  0.000000  1
  Co  Co29  1  0.497262  0.997262  0.500000  1
