# generated using pymatgen
data_Y5Ti3(P3Pd4)4
_symmetry_space_group_name_H-M   'P 1'
_cell_length_a   13.04836500
_cell_length_b   13.04836426
_cell_length_c   3.96766300
_cell_angle_alpha   90.00000000
_cell_angle_beta   90.00000000
_cell_angle_gamma   119.99999935
_symmetry_Int_Tables_number   1
_chemical_formula_structural   Y5Ti3(P3Pd4)4
_chemical_formula_sum   'Y5 Ti3 P12 Pd16'
_cell_volume   585.02925061
_cell_formula_units_Z   1
loop_
 _symmetry_equiv_pos_site_id
 _symmetry_equiv_pos_as_xyz
  1  'x, y, z'
loop_
 _atom_site_type_symbol
 _atom_site_label
 _atom_site_symmetry_multiplicity
 _atom_site_fract_x
 _atom_site_fract_y
 _atom_site_fract_z
 _atom_site_occupancy
  Y  Y0  1  0.189085  0.189085  0.500000  1
  Y  Y1  1  0.810915  0.000000  0.500000  1
  Y  Y2  1  0.000000  0.810915  0.500000  1
  Y  Y3  1  0.333333  0.666667  0.000000  1
  Y  Y4  1  0.666667  0.333333  0.000000  1
  Ti  Ti5  1  0.552318  0.552318  0.000000  1
  Ti  Ti6  1  0.447682  0.000000  0.000000  1
  Ti  Ti7  1  0.000000  0.447682  0.000000  1
  P  P8  1  0.825544  0.825544  0.000000  1
  P  P9  1  0.174456  0.000000  0.000000  1
  P  P10  1  0.000000  0.174456  0.000000  1
  P  P11  1  0.162727  0.480984  0.500000  1
  P  P12  1  0.519016  0.681743  0.500000  1
  P  P13  1  0.318257  0.837273  0.500000  1
  P  P14  1  0.681743  0.519016  0.500000  1
  P  P15  1  0.837273  0.318257  0.500000  1
  P  P16  1  0.480984  0.162727  0.500000  1
  P  P17  1  0.362875  0.362875  0.000000  1
  P  P18  1  0.637125  0.000000  0.000000  1
  P  P19  1  0.000000  0.637125  0.000000  1
  Pd  Pd20  1  0.721652  0.721652  0.500000  1
  Pd  Pd21  1  0.278348  0.000000  0.500000  1
  Pd  Pd22  1  0.000000  0.278348  0.500000  1
  Pd  Pd23  1  0.182697  0.375648  0.000000  1
  Pd  Pd24  1  0.624352  0.807049  0.000000  1
  Pd  Pd25  1  0.192951  0.817303  0.000000  1
  Pd  Pd26  1  0.807049  0.624352  0.000000  1
  Pd  Pd27  1  0.817303  0.192951  0.000000  1
  Pd  Pd28  1  0.375648  0.182697  0.000000  1
  Pd  Pd29  1  0.358859  0.488086  0.500000  1
  Pd  Pd30  1  0.511914  0.870773  0.500000  1
  Pd  Pd31  1  0.129227  0.641141  0.500000  1
  Pd  Pd32  1  0.870773  0.511914  0.500000  1
  Pd  Pd33  1  0.641141  0.129227  0.500000  1
  Pd  Pd34  1  0.488086  0.358859  0.500000  1
  Pd  Pd35  1  0.000000  0.000000  0.000000  1
