# generated using pymatgen
data_Er2Lu6Cr3OsC8
_symmetry_space_group_name_H-M   'P 1'
_cell_length_a   4.94463100
_cell_length_b   6.40238514
_cell_length_c   9.58526073
_cell_angle_alpha   90.07903650
_cell_angle_beta   90.00000000
_cell_angle_gamma   90.00000000
_symmetry_Int_Tables_number   1
_chemical_formula_structural   Er2Lu6Cr3OsC8
_chemical_formula_sum   'Er2 Lu6 Cr3 Os1 C8'
_cell_volume   303.44445127
_cell_formula_units_Z   1
loop_
 _symmetry_equiv_pos_site_id
 _symmetry_equiv_pos_as_xyz
  1  'x, y, z'
loop_
 _atom_site_type_symbol
 _atom_site_label
 _atom_site_symmetry_multiplicity
 _atom_site_fract_x
 _atom_site_fract_y
 _atom_site_fract_z
 _atom_site_occupancy
  Er  Er0  1  0.750000  0.465713  0.784271  1
  Er  Er1  1  0.750000  0.968479  0.713902  1
  Lu  Lu2  1  0.250000  0.681575  0.557198  1
  Lu  Lu3  1  0.750000  0.323499  0.440363  1
  Lu  Lu4  1  0.750000  0.821444  0.058541  1
  Lu  Lu5  1  0.250000  0.174564  0.944463  1
  Lu  Lu6  1  0.250000  0.533206  0.218286  1
  Lu  Lu7  1  0.250000  0.032987  0.281011  1
  Cr  Cr8  1  0.250000  0.723226  0.864609  1
  Cr  Cr9  1  0.750000  0.273662  0.138974  1
  Cr  Cr10  1  0.750000  0.774121  0.363005  1
  Os  Os11  1  0.250000  0.222887  0.634095  1
  C  C12  1  0.250000  0.461197  0.764279  1
  C  C13  1  0.750000  0.544719  0.237902  1
  C  C14  1  0.750000  0.042879  0.262616  1
  C  C15  1  0.250000  0.949232  0.743164  1
  C  C16  1  0.250000  0.816230  0.045461  1
  C  C17  1  0.750000  0.183428  0.959539  1
  C  C18  1  0.750000  0.681981  0.542929  1
  C  C19  1  0.250000  0.324971  0.445395  1
