# generated using pymatgen
data_YEr2Pa(Al3Ir)6
_symmetry_space_group_name_H-M   'P 1'
_cell_length_a   7.57158112
_cell_length_b   7.56611503
_cell_length_c   9.42654500
_cell_angle_alpha   90.00000000
_cell_angle_beta   90.00000000
_cell_angle_gamma   119.58541903
_symmetry_Int_Tables_number   1
_chemical_formula_structural   YEr2Pa(Al3Ir)6
_chemical_formula_sum   'Y1 Er2 Pa1 Al18 Ir6'
_cell_volume   469.61491842
_cell_formula_units_Z   1
loop_
 _symmetry_equiv_pos_site_id
 _symmetry_equiv_pos_as_xyz
  1  'x, y, z'
loop_
 _atom_site_type_symbol
 _atom_site_label
 _atom_site_symmetry_multiplicity
 _atom_site_fract_x
 _atom_site_fract_y
 _atom_site_fract_z
 _atom_site_occupancy
  Y  Y0  1  0.329262  0.004500  0.750000  1
  Er  Er1  1  0.004720  0.328933  0.750000  1
  Er  Er2  1  0.672771  0.994855  0.250000  1
  Pa  Pa3  1  0.995874  0.671733  0.250000  1
  Al  Al4  1  0.131836  0.131054  0.250000  1
  Al  Al5  1  0.872233  0.874309  0.750000  1
  Al  Al6  1  0.000500  0.332174  0.074881  1
  Al  Al7  1  0.998946  0.664199  0.921222  1
  Al  Al8  1  0.998946  0.664199  0.578778  1
  Al  Al9  1  0.338991  0.003729  0.424456  1
  Al  Al10  1  0.000500  0.332174  0.425119  1
  Al  Al11  1  0.665616  0.000205  0.575418  1
  Al  Al12  1  0.665616  0.000205  0.924582  1
  Al  Al13  1  0.338991  0.003729  0.075544  1
  Al  Al14  1  0.332187  0.332714  0.554758  1
  Al  Al15  1  0.663244  0.666026  0.448342  1
  Al  Al16  1  0.663244  0.666026  0.051658  1
  Al  Al17  1  0.332187  0.332714  0.945242  1
  Al  Al18  1  0.339629  0.547410  0.250000  1
  Al  Al19  1  0.659680  0.449973  0.750000  1
  Al  Al20  1  0.547099  0.341934  0.250000  1
  Al  Al21  1  0.450391  0.660116  0.750000  1
  Ir  Ir22  1  0.674142  0.330043  0.002209  1
  Ir  Ir23  1  0.325698  0.671947  0.002257  1
  Ir  Ir24  1  0.325698  0.671947  0.497743  1
  Ir  Ir25  1  0.674142  0.330043  0.497791  1
  Ir  Ir26  1  0.998928  0.996554  0.003315  1
  Ir  Ir27  1  0.998928  0.996554  0.496685  1
