# generated using pymatgen
data_Ti13Mn4Al9Pt4
_symmetry_space_group_name_H-M   'P 1'
_cell_length_a   8.68151430
_cell_length_b   8.68151450
_cell_length_c   8.61831100
_cell_angle_alpha   59.84035618
_cell_angle_beta   59.84035541
_cell_angle_gamma   59.35972602
_symmetry_Int_Tables_number   1
_chemical_formula_structural   Ti13Mn4Al9Pt4
_chemical_formula_sum   'Ti13 Mn4 Al9 Pt4'
_cell_volume   455.94282375
_cell_formula_units_Z   1
loop_
 _symmetry_equiv_pos_site_id
 _symmetry_equiv_pos_as_xyz
  1  'x, y, z'
loop_
 _atom_site_type_symbol
 _atom_site_label
 _atom_site_symmetry_multiplicity
 _atom_site_fract_x
 _atom_site_fract_y
 _atom_site_fract_z
 _atom_site_occupancy
  Ti  Ti0  1  0.208454  0.208454  0.786599  1
  Ti  Ti1  1  0.788352  0.208470  0.208211  1
  Ti  Ti2  1  0.208470  0.788352  0.208211  1
  Ti  Ti3  1  0.805771  0.805771  0.180853  1
  Ti  Ti4  1  0.179617  0.806656  0.804907  1
  Ti  Ti5  1  0.806656  0.179617  0.804907  1
  Ti  Ti6  1  0.378688  0.378688  0.388576  1
  Ti  Ti7  1  0.386834  0.854305  0.390052  1
  Ti  Ti8  1  0.854305  0.386834  0.390052  1
  Ti  Ti9  1  0.385943  0.385943  0.851124  1
  Ti  Ti10  1  0.849311  0.472326  0.829190  1
  Ti  Ti11  1  0.472326  0.849311  0.829190  1
  Ti  Ti12  1  0.836652  0.836652  0.473452  1
  Mn  Mn13  1  0.998864  0.501377  0.505973  1
  Mn  Mn14  1  0.501377  0.998864  0.505973  1
  Mn  Mn15  1  0.500344  0.500344  0.502372  1
  Mn  Mn16  1  0.004680  0.004680  0.004238  1
  Al  Al17  1  0.151765  0.151765  0.152635  1
  Al  Al18  1  0.153635  0.523710  0.173905  1
  Al  Al19  1  0.523710  0.153635  0.173905  1
  Al  Al20  1  0.165953  0.165953  0.521447  1
  Al  Al21  1  0.621259  0.621259  0.610379  1
  Al  Al22  1  0.615771  0.150411  0.609968  1
  Al  Al23  1  0.150411  0.615771  0.609968  1
  Al  Al24  1  0.616177  0.616177  0.151604  1
  Al  Al25  1  0.827026  0.827026  0.825451  1
  Pt  Pt26  1  0.004400  0.004400  0.499790  1
  Pt  Pt27  1  0.499336  0.005711  0.003105  1
  Pt  Pt28  1  0.005711  0.499336  0.003105  1
  Pt  Pt29  1  0.498196  0.498196  0.000851  1
