# generated using pymatgen
data_Li2La2Si2Sb
_symmetry_space_group_name_H-M   'P 1'
_cell_length_a   9.90318532
_cell_length_b   9.90318529
_cell_length_c   6.97396800
_cell_angle_alpha   90.00000000
_cell_angle_beta   90.00000000
_cell_angle_gamma   153.06285632
_symmetry_Int_Tables_number   1
_chemical_formula_structural   Li2La2Si2Sb
_chemical_formula_sum   'Li4 La4 Si4 Sb2'
_cell_volume   309.84192709
_cell_formula_units_Z   2
loop_
 _symmetry_equiv_pos_site_id
 _symmetry_equiv_pos_as_xyz
  1  'x, y, z'
loop_
 _atom_site_type_symbol
 _atom_site_label
 _atom_site_symmetry_multiplicity
 _atom_site_fract_x
 _atom_site_fract_y
 _atom_site_fract_z
 _atom_site_occupancy
  Li  Li0  1  0.815047  0.184953  0.441189  1
  Li  Li1  1  0.184953  0.815047  0.558811  1
  Li  Li2  1  0.815047  0.184953  0.058811  1
  Li  Li3  1  0.184953  0.815047  0.941189  1
  La  La4  1  0.546008  0.453992  0.750000  1
  La  La5  1  0.453992  0.546008  0.250000  1
  La  La6  1  0.350327  0.649673  0.750000  1
  La  La7  1  0.649673  0.350327  0.250000  1
  Si  Si8  1  0.943017  0.056983  0.923996  1
  Si  Si9  1  0.056983  0.943017  0.076004  1
  Si  Si10  1  0.943017  0.056983  0.576004  1
  Si  Si11  1  0.056983  0.943017  0.423996  1
  Sb  Sb12  1  0.719489  0.280511  0.750000  1
  Sb  Sb13  1  0.280511  0.719489  0.250000  1
