# generated using pymatgen
data_Tb4Ga18Ir5Pt
_symmetry_space_group_name_H-M   'P 1'
_cell_length_a   7.62893667
_cell_length_b   7.62893653
_cell_length_c   9.52276253
_cell_angle_alpha   89.98096900
_cell_angle_beta   89.98096864
_cell_angle_gamma   119.92395239
_symmetry_Int_Tables_number   1
_chemical_formula_structural   Tb4Ga18Ir5Pt
_chemical_formula_sum   'Tb4 Ga18 Ir5 Pt1'
_cell_volume   480.34557509
_cell_formula_units_Z   1
loop_
 _symmetry_equiv_pos_site_id
 _symmetry_equiv_pos_as_xyz
  1  'x, y, z'
loop_
 _atom_site_type_symbol
 _atom_site_label
 _atom_site_symmetry_multiplicity
 _atom_site_fract_x
 _atom_site_fract_y
 _atom_site_fract_z
 _atom_site_occupancy
  Tb  Tb0  1  0.996825  0.668708  0.250743  1
  Tb  Tb1  1  0.003446  0.331414  0.749286  1
  Tb  Tb2  1  0.668586  0.996554  0.250714  1
  Tb  Tb3  1  0.331292  0.003175  0.749257  1
  Ga  Ga4  1  0.127199  0.126596  0.250231  1
  Ga  Ga5  1  0.873404  0.872801  0.749769  1
  Ga  Ga6  1  0.002040  0.334042  0.081244  1
  Ga  Ga7  1  0.003805  0.668833  0.918827  1
  Ga  Ga8  1  0.001136  0.665854  0.579655  1
  Ga  Ga9  1  0.334146  0.998864  0.420345  1
  Ga  Ga10  1  0.998916  0.333992  0.420109  1
  Ga  Ga11  1  0.666008  0.001084  0.579891  1
  Ga  Ga12  1  0.665958  0.997960  0.918756  1
  Ga  Ga13  1  0.331167  0.996195  0.081173  1
  Ga  Ga14  1  0.332133  0.332115  0.563815  1
  Ga  Ga15  1  0.667885  0.667867  0.436185  1
  Ga  Ga16  1  0.667497  0.670461  0.065704  1
  Ga  Ga17  1  0.329539  0.332503  0.934296  1
  Ga  Ga18  1  0.340072  0.546844  0.250357  1
  Ga  Ga19  1  0.660230  0.455113  0.747686  1
  Ga  Ga20  1  0.544887  0.339770  0.252314  1
  Ga  Ga21  1  0.453156  0.659928  0.749643  1
  Ir  Ir22  1  0.328943  0.671057  0.000000  1
  Ir  Ir23  1  0.328534  0.671466  0.500000  1
  Ir  Ir24  1  0.671664  0.328336  0.500000  1
  Ir  Ir25  1  0.000151  0.999849  0.000000  1
  Ir  Ir26  1  0.999928  0.000072  0.500000  1
  Pt  Pt27  1  0.671453  0.328547  0.000000  1
