# generated using pymatgen
data_YEr15Cd4OsPt3
_symmetry_space_group_name_H-M   'P 1'
_cell_length_a   9.62406824
_cell_length_b   9.62406849
_cell_length_c   9.62541011
_cell_angle_alpha   59.53275955
_cell_angle_beta   59.53276779
_cell_angle_gamma   59.49669823
_symmetry_Int_Tables_number   1
_chemical_formula_structural   YEr15Cd4OsPt3
_chemical_formula_sum   'Y1 Er15 Cd4 Os1 Pt3'
_cell_volume   623.53738950
_cell_formula_units_Z   1
loop_
 _symmetry_equiv_pos_site_id
 _symmetry_equiv_pos_as_xyz
  1  'x, y, z'
loop_
 _atom_site_type_symbol
 _atom_site_label
 _atom_site_symmetry_multiplicity
 _atom_site_fract_x
 _atom_site_fract_y
 _atom_site_fract_z
 _atom_site_occupancy
  Y  Y0  1  0.937246  0.937246  0.559268  1
  Er  Er1  1  0.351966  0.351966  0.352023  1
  Er  Er2  1  0.350361  0.350361  0.946695  1
  Er  Er3  1  0.350619  0.946611  0.350189  1
  Er  Er4  1  0.946611  0.350619  0.350189  1
  Er  Er5  1  0.814225  0.189307  0.188684  1
  Er  Er6  1  0.189247  0.809764  0.810005  1
  Er  Er7  1  0.189307  0.814225  0.188684  1
  Er  Er8  1  0.809764  0.189247  0.810005  1
  Er  Er9  1  0.189070  0.189070  0.814212  1
  Er  Er10  1  0.809883  0.809883  0.188940  1
  Er  Er11  1  0.935417  0.564999  0.565505  1
  Er  Er12  1  0.558599  0.937470  0.937747  1
  Er  Er13  1  0.564999  0.935417  0.565505  1
  Er  Er14  1  0.937470  0.558599  0.937747  1
  Er  Er15  1  0.565466  0.565466  0.935412  1
  Cd  Cd16  1  0.580671  0.580671  0.580665  1
  Cd  Cd17  1  0.581269  0.581269  0.254190  1
  Cd  Cd18  1  0.580960  0.254577  0.581231  1
  Cd  Cd19  1  0.254577  0.580960  0.581231  1
  Os  Os20  1  0.143374  0.143374  0.143030  1
  Pt  Pt21  1  0.143478  0.143478  0.572049  1
  Pt  Pt22  1  0.143463  0.571960  0.143399  1
  Pt  Pt23  1  0.571960  0.143463  0.143399  1
