# generated using pymatgen
data_Ho6Al24ZnRu7
_symmetry_space_group_name_H-M   'P 1'
_cell_length_a   8.83207461
_cell_length_b   8.83207494
_cell_length_c   9.54239402
_cell_angle_alpha   90.00616362
_cell_angle_beta   89.99383705
_cell_angle_gamma   119.95803732
_symmetry_Int_Tables_number   1
_chemical_formula_structural   Ho6Al24ZnRu7
_chemical_formula_sum   'Ho6 Al24 Zn1 Ru7'
_cell_volume   644.90676318
_cell_formula_units_Z   1
loop_
 _symmetry_equiv_pos_site_id
 _symmetry_equiv_pos_as_xyz
  1  'x, y, z'
loop_
 _atom_site_type_symbol
 _atom_site_label
 _atom_site_symmetry_multiplicity
 _atom_site_fract_x
 _atom_site_fract_y
 _atom_site_fract_z
 _atom_site_occupancy
  Ho  Ho0  1  0.192994  0.386671  0.247665  1
  Ho  Ho1  1  0.807006  0.613329  0.752335  1
  Ho  Ho2  1  0.613329  0.807006  0.247665  1
  Ho  Ho3  1  0.386671  0.192994  0.752335  1
  Ho  Ho4  1  0.194413  0.805587  0.253171  1
  Ho  Ho5  1  0.805587  0.194413  0.746829  1
  Al  Al6  1  0.329309  0.670691  0.021206  1
  Al  Al7  1  0.670691  0.329309  0.978794  1
  Al  Al8  1  0.666376  0.333624  0.516274  1
  Al  Al9  1  0.333624  0.666376  0.483726  1
  Al  Al10  1  0.162027  0.324112  0.576889  1
  Al  Al11  1  0.837973  0.675888  0.423111  1
  Al  Al12  1  0.675888  0.837973  0.576889  1
  Al  Al13  1  0.849408  0.678010  0.081786  1
  Al  Al14  1  0.324112  0.162027  0.423111  1
  Al  Al15  1  0.150592  0.321990  0.918214  1
  Al  Al16  1  0.162488  0.837512  0.578055  1
  Al  Al17  1  0.321990  0.150592  0.081786  1
  Al  Al18  1  0.837512  0.162488  0.421945  1
  Al  Al19  1  0.678010  0.849408  0.918214  1
  Al  Al20  1  0.837354  0.162646  0.078643  1
  Al  Al21  1  0.162646  0.837354  0.921357  1
  Al  Al22  1  0.561007  0.121152  0.248650  1
  Al  Al23  1  0.438993  0.878848  0.751350  1
  Al  Al24  1  0.878848  0.438993  0.248650  1
  Al  Al25  1  0.121152  0.561007  0.751350  1
  Al  Al26  1  0.563291  0.436709  0.254445  1
  Al  Al27  1  0.436709  0.563291  0.745555  1
  Al  Al28  1  0.999120  0.000880  0.250376  1
  Al  Al29  1  0.000880  0.999120  0.749624  1
  Zn  Zn30  1  0.500000  0.500000  0.000000  1
  Ru  Ru31  1  0.500000  0.000000  0.000000  1
  Ru  Ru32  1  0.000000  0.500000  0.000000  1
  Ru  Ru33  1  0.500000  0.000000  0.500000  1
  Ru  Ru34  1  0.000000  0.500000  0.500000  1
  Ru  Ru35  1  0.500000  0.500000  0.500000  1
  Ru  Ru36  1  0.000000  0.000000  0.000000  1
  Ru  Ru37  1  0.000000  0.000000  0.500000  1
