# generated using pymatgen
data_La12RuPt(AuI6)2
_symmetry_space_group_name_H-M   'P 1'
_cell_length_a   11.00573594
_cell_length_b   11.00573563
_cell_length_c   11.27487942
_cell_angle_alpha   109.75734489
_cell_angle_beta   109.75734914
_cell_angle_gamma   108.80548091
_symmetry_Int_Tables_number   1
_chemical_formula_structural   La12RuPt(AuI6)2
_chemical_formula_sum   'La12 Ru1 Pt1 Au2 I12'
_cell_volume   1052.44240666
_cell_formula_units_Z   1
loop_
 _symmetry_equiv_pos_site_id
 _symmetry_equiv_pos_as_xyz
  1  'x, y, z'
loop_
 _atom_site_type_symbol
 _atom_site_label
 _atom_site_symmetry_multiplicity
 _atom_site_fract_x
 _atom_site_fract_y
 _atom_site_fract_z
 _atom_site_occupancy
  La  La0  1  0.463273  0.474995  0.237049  1
  La  La1  1  0.730498  0.221533  0.260098  1
  La  La2  1  0.733568  0.009997  0.470353  1
  La  La3  1  0.235044  0.464952  0.477317  1
  La  La4  1  0.278467  0.769502  0.239902  1
  La  La5  1  0.035048  0.264956  0.022683  1
  La  La6  1  0.025005  0.036727  0.262951  1
  La  La7  1  0.490003  0.766432  0.029647  1
  La  La8  1  0.484862  0.227771  0.462059  1
  La  La9  1  0.016907  0.483093  0.750000  1
  La  La10  1  0.272229  0.015138  0.037941  1
  La  La11  1  0.233845  0.266155  0.750000  1
  Ru  Ru12  1  0.499727  0.000273  0.250000  1
  Pt  Pt13  1  0.251402  0.248598  0.250000  1
  Au  Au14  1  0.998262  0.248616  0.496554  1
  Au  Au15  1  0.251384  0.501738  0.003446  1
  I  I16  1  0.251030  0.755504  0.742161  1
  I  I17  1  0.512853  0.507982  0.756751  1
  I  I18  1  0.980640  0.738103  0.988312  1
  I  I19  1  0.744496  0.248970  0.757839  1
  I  I20  1  0.992018  0.987147  0.743249  1
  I  I21  1  0.249453  0.992552  0.511562  1
  I  I22  1  0.761897  0.519360  0.511688  1
  I  I23  1  0.507448  0.250547  0.988438  1
  I  I24  1  0.758466  0.741534  0.250000  1
  I  I25  1  0.741157  0.990802  0.981367  1
  I  I26  1  0.991820  0.508180  0.250000  1
  I  I27  1  0.509198  0.758843  0.518633  1
