# generated using pymatgen
data_Tb3Pr(Fe2Br)2
_symmetry_space_group_name_H-M   'P 1'
_cell_length_a   3.94023800
_cell_length_b   3.94023869
_cell_length_c   16.90662400
_cell_angle_alpha   90.00000000
_cell_angle_beta   90.00000000
_cell_angle_gamma   119.99999422
_symmetry_Int_Tables_number   1
_chemical_formula_structural   Tb3Pr(Fe2Br)2
_chemical_formula_sum   'Tb3 Pr1 Fe4 Br2'
_cell_volume   227.31732521
_cell_formula_units_Z   1
loop_
 _symmetry_equiv_pos_site_id
 _symmetry_equiv_pos_as_xyz
  1  'x, y, z'
loop_
 _atom_site_type_symbol
 _atom_site_label
 _atom_site_symmetry_multiplicity
 _atom_site_fract_x
 _atom_site_fract_y
 _atom_site_fract_z
 _atom_site_occupancy
  Tb  Tb0  1  0.000000  0.000000  0.112855  1
  Tb  Tb1  1  0.000000  0.000000  0.391913  1
  Tb  Tb2  1  0.000000  0.000000  0.606004  1
  Pr  Pr3  1  0.000000  0.000000  0.887963  1
  Fe  Fe4  1  0.333333  0.666666  0.008977  1
  Fe  Fe5  1  0.333333  0.666666  0.492863  1
  Fe  Fe6  1  0.666667  0.333333  0.504680  1
  Fe  Fe7  1  0.666667  0.333333  0.000530  1
  Br  Br8  1  0.666667  0.333333  0.251510  1
  Br  Br9  1  0.333333  0.666666  0.742704  1
