# generated using pymatgen
data_La4Y12Cd4CoNi3
_symmetry_space_group_name_H-M   'P 1'
_cell_length_a   9.71660294
_cell_length_b   9.71660297
_cell_length_c   9.71660423
_cell_angle_alpha   59.78813818
_cell_angle_beta   59.78814138
_cell_angle_gamma   59.78813554
_symmetry_Int_Tables_number   1
_chemical_formula_structural   La4Y12Cd4CoNi3
_chemical_formula_sum   'La4 Y12 Cd4 Co1 Ni3'
_cell_volume   645.55689256
_cell_formula_units_Z   1
loop_
 _symmetry_equiv_pos_site_id
 _symmetry_equiv_pos_as_xyz
  1  'x, y, z'
loop_
 _atom_site_type_symbol
 _atom_site_label
 _atom_site_symmetry_multiplicity
 _atom_site_fract_x
 _atom_site_fract_y
 _atom_site_fract_z
 _atom_site_occupancy
  La  La0  1  0.599534  0.599534  0.599534  1
  La  La1  1  0.597783  0.597783  0.202984  1
  La  La2  1  0.597783  0.202984  0.597783  1
  La  La3  1  0.202984  0.597783  0.597783  1
  Y  Y4  1  0.066476  0.436634  0.436634  1
  Y  Y5  1  0.435555  0.063461  0.063461  1
  Y  Y6  1  0.436634  0.066476  0.436634  1
  Y  Y7  1  0.063461  0.435555  0.063461  1
  Y  Y8  1  0.436634  0.436634  0.066476  1
  Y  Y9  1  0.063461  0.063461  0.435555  1
  Y  Y10  1  0.184875  0.815746  0.815746  1
  Y  Y11  1  0.814306  0.184555  0.184555  1
  Y  Y12  1  0.815746  0.184875  0.815746  1
  Y  Y13  1  0.184555  0.814306  0.184555  1
  Y  Y14  1  0.815746  0.815746  0.184875  1
  Y  Y15  1  0.184555  0.184555  0.814306  1
  Cd  Cd16  1  0.831142  0.831142  0.831142  1
  Cd  Cd17  1  0.831529  0.831529  0.502829  1
  Cd  Cd18  1  0.831529  0.502829  0.831529  1
  Cd  Cd19  1  0.502829  0.831529  0.831529  1
  Co  Co20  1  0.392602  0.392602  0.392602  1
  Ni  Ni21  1  0.391197  0.391197  0.827887  1
  Ni  Ni22  1  0.391197  0.827887  0.391197  1
  Ni  Ni23  1  0.827887  0.391197  0.391197  1
