# generated using pymatgen
data_Th2Mg(Ga2Ni3)3
_symmetry_space_group_name_H-M   'P 1'
_cell_length_a   8.86460100
_cell_length_b   8.86460191
_cell_length_c   4.09009500
_cell_angle_alpha   90.00000000
_cell_angle_beta   90.00000000
_cell_angle_gamma   119.99999287
_symmetry_Int_Tables_number   1
_chemical_formula_structural   Th2Mg(Ga2Ni3)3
_chemical_formula_sum   'Th2 Mg1 Ga6 Ni9'
_cell_volume   278.34439991
_cell_formula_units_Z   1
loop_
 _symmetry_equiv_pos_site_id
 _symmetry_equiv_pos_as_xyz
  1  'x, y, z'
loop_
 _atom_site_type_symbol
 _atom_site_label
 _atom_site_symmetry_multiplicity
 _atom_site_fract_x
 _atom_site_fract_y
 _atom_site_fract_z
 _atom_site_occupancy
  Th  Th0  1  0.666667  0.333333  0.500000  1
  Th  Th1  1  0.333333  0.666667  0.500000  1
  Mg  Mg2  1  0.000000  0.000000  0.000000  1
  Ga  Ga3  1  0.479437  0.479437  0.000000  1
  Ga  Ga4  1  0.520563  0.000000  0.000000  1
  Ga  Ga5  1  0.000000  0.520563  0.000000  1
  Ga  Ga6  1  0.745889  0.745889  0.500000  1
  Ga  Ga7  1  0.254111  0.000000  0.500000  1
  Ga  Ga8  1  0.000000  0.254111  0.500000  1
  Ni  Ni9  1  0.831627  0.194713  0.000000  1
  Ni  Ni10  1  0.805287  0.636913  0.000000  1
  Ni  Ni11  1  0.363087  0.168373  0.000000  1
  Ni  Ni12  1  0.194713  0.831627  0.000000  1
  Ni  Ni13  1  0.636913  0.805287  0.000000  1
  Ni  Ni14  1  0.168373  0.363087  0.000000  1
  Ni  Ni15  1  0.302189  0.302189  0.500000  1
  Ni  Ni16  1  0.697811  0.000000  0.500000  1
  Ni  Ni17  1  0.000000  0.697811  0.500000  1
