# generated using pymatgen
data_Tm2(P2Pd7)3
_symmetry_space_group_name_H-M   'P 1'
_cell_length_a   8.61320209
_cell_length_b   8.61321107
_cell_length_c   8.61316700
_cell_angle_alpha   60.00016605
_cell_angle_beta   59.99992924
_cell_angle_gamma   60.00027340
_symmetry_Int_Tables_number   1
_chemical_formula_structural   Tm2(P2Pd7)3
_chemical_formula_sum   'Tm2 P6 Pd21'
_cell_volume   451.83389509
_cell_formula_units_Z   1
loop_
 _symmetry_equiv_pos_site_id
 _symmetry_equiv_pos_as_xyz
  1  'x, y, z'
loop_
 _atom_site_type_symbol
 _atom_site_label
 _atom_site_symmetry_multiplicity
 _atom_site_fract_x
 _atom_site_fract_y
 _atom_site_fract_z
 _atom_site_occupancy
  Tm  Tm0  1  0.249981  0.249980  0.250030  1
  Tm  Tm1  1  0.750019  0.750020  0.749970  1
  P  P2  1  0.738978  0.738977  0.261022  1
  P  P3  1  0.261022  0.261023  0.738978  1
  P  P4  1  0.261024  0.738975  0.738979  1
  P  P5  1  0.738976  0.261024  0.738980  1
  P  P6  1  0.261024  0.738976  0.261020  1
  P  P7  1  0.738976  0.261025  0.261021  1
  Pd  Pd8  1  0.000000  0.000000  0.000000  1
  Pd  Pd9  1  0.615496  0.615496  0.615495  1
  Pd  Pd10  1  0.384504  0.846486  0.384504  1
  Pd  Pd11  1  0.655158  0.344842  0.999999  1
  Pd  Pd12  1  0.000000  0.344838  0.655161  1
  Pd  Pd13  1  0.655160  0.000000  0.999999  1
  Pd  Pd14  1  0.615497  0.615498  0.153508  1
  Pd  Pd15  1  0.999999  0.000001  0.655162  1
  Pd  Pd16  1  0.000001  0.344839  0.000000  1
  Pd  Pd17  1  0.655159  0.000000  0.344840  1
  Pd  Pd18  1  0.344840  0.000000  0.000001  1
  Pd  Pd19  1  0.999999  0.655161  0.000000  1
  Pd  Pd20  1  0.344841  0.000000  0.655160  1
  Pd  Pd21  1  0.000000  0.655162  0.344839  1
  Pd  Pd22  1  0.344842  0.655158  0.000001  1
  Pd  Pd23  1  0.153515  0.615495  0.615495  1
  Pd  Pd24  1  0.384504  0.384504  0.384505  1
  Pd  Pd25  1  0.846485  0.384505  0.384505  1
  Pd  Pd26  1  0.384503  0.384502  0.846492  1
  Pd  Pd27  1  0.615496  0.153514  0.615496  1
  Pd  Pd28  1  0.000001  0.999999  0.344838  1
