# generated using pymatgen
data_Tb4Zn4In3Sn
_symmetry_space_group_name_H-M   'P 1'
_cell_length_a   4.65311000
_cell_length_b   4.65311083
_cell_length_c   14.89658500
_cell_angle_alpha   90.00000000
_cell_angle_beta   90.00000000
_cell_angle_gamma   119.99997990
_symmetry_Int_Tables_number   1
_chemical_formula_structural   Tb4Zn4In3Sn
_chemical_formula_sum   'Tb4 Zn4 In3 Sn1'
_cell_volume   279.32136444
_cell_formula_units_Z   1
loop_
 _symmetry_equiv_pos_site_id
 _symmetry_equiv_pos_as_xyz
  1  'x, y, z'
loop_
 _atom_site_type_symbol
 _atom_site_label
 _atom_site_symmetry_multiplicity
 _atom_site_fract_x
 _atom_site_fract_y
 _atom_site_fract_z
 _atom_site_occupancy
  Tb  Tb0  1  0.000000  0.000000  0.753435  1
  Tb  Tb1  1  0.000000  0.000000  0.247436  1
  Tb  Tb2  1  0.000000  0.000000  0.495517  1
  Tb  Tb3  1  0.000000  0.000000  0.001668  1
  Zn  Zn4  1  0.666667  0.333333  0.854095  1
  Zn  Zn5  1  0.666667  0.333333  0.658978  1
  Zn  Zn6  1  0.333333  0.666667  0.103646  1
  Zn  Zn7  1  0.333333  0.666667  0.387179  1
  In  In8  1  0.666667  0.333333  0.134342  1
  In  In9  1  0.666667  0.333333  0.361300  1
  In  In10  1  0.333333  0.666667  0.891304  1
  Sn  Sn11  1  0.333333  0.666667  0.611099  1
