# generated using pymatgen
data_ErPuB6Os
_symmetry_space_group_name_H-M   'P 1'
_cell_length_a   3.64292300
_cell_length_b   9.17040400
_cell_length_c   11.55703000
_cell_angle_alpha   90.00000000
_cell_angle_beta   90.00000000
_cell_angle_gamma   90.00000000
_symmetry_Int_Tables_number   1
_chemical_formula_structural   ErPuB6Os
_chemical_formula_sum   'Er4 Pu4 B24 Os4'
_cell_volume   386.08657551
_cell_formula_units_Z   4
loop_
 _symmetry_equiv_pos_site_id
 _symmetry_equiv_pos_as_xyz
  1  'x, y, z'
loop_
 _atom_site_type_symbol
 _atom_site_label
 _atom_site_symmetry_multiplicity
 _atom_site_fract_x
 _atom_site_fract_y
 _atom_site_fract_z
 _atom_site_occupancy
  Er  Er0  1  0.000000  0.944672  0.374061  1
  Er  Er1  1  0.000000  0.055328  0.625939  1
  Er  Er2  1  0.000000  0.444672  0.125939  1
  Er  Er3  1  0.000000  0.555328  0.874061  1
  Pu  Pu4  1  0.000000  0.323956  0.413426  1
  Pu  Pu5  1  0.000000  0.676044  0.586574  1
  Pu  Pu6  1  0.000000  0.823956  0.086574  1
  Pu  Pu7  1  0.000000  0.176044  0.913426  1
  B  B8  1  0.500000  0.553776  0.432537  1
  B  B9  1  0.500000  0.446224  0.567463  1
  B  B10  1  0.500000  0.053776  0.067463  1
  B  B11  1  0.500000  0.946224  0.932537  1
  B  B12  1  0.500000  0.748578  0.420220  1
  B  B13  1  0.500000  0.251422  0.579780  1
  B  B14  1  0.500000  0.248578  0.079780  1
  B  B15  1  0.500000  0.751422  0.920220  1
  B  B16  1  0.500000  0.792932  0.266471  1
  B  B17  1  0.500000  0.207068  0.733529  1
  B  B18  1  0.500000  0.292932  0.233529  1
  B  B19  1  0.500000  0.707068  0.766471  1
  B  B20  1  0.500000  0.633212  0.184583  1
  B  B21  1  0.500000  0.366788  0.815417  1
  B  B22  1  0.500000  0.133212  0.315417  1
  B  B23  1  0.500000  0.866788  0.684583  1
  B  B24  1  0.500000  0.983539  0.213761  1
  B  B25  1  0.500000  0.016461  0.786239  1
  B  B26  1  0.500000  0.483539  0.286239  1
  B  B27  1  0.500000  0.516461  0.713761  1
  B  B28  1  0.500000  0.609249  0.029918  1
  B  B29  1  0.500000  0.390751  0.970082  1
  B  B30  1  0.500000  0.109249  0.470082  1
  B  B31  1  0.500000  0.890751  0.529918  1
  Os  Os32  1  0.000000  0.639273  0.320107  1
  Os  Os33  1  0.000000  0.360727  0.679893  1
  Os  Os34  1  0.000000  0.139273  0.179893  1
  Os  Os35  1  0.000000  0.860727  0.820107  1
