# generated using pymatgen
data_LaThMgSi2
_symmetry_space_group_name_H-M   'P 1'
_cell_length_a   7.41744113
_cell_length_b   7.41744113
_cell_length_c   4.41242300
_cell_angle_alpha   90.00000000
_cell_angle_beta   90.00000000
_cell_angle_gamma   90.92781132
_symmetry_Int_Tables_number   1
_chemical_formula_structural   LaThMgSi2
_chemical_formula_sum   'La2 Th2 Mg2 Si4'
_cell_volume   242.73276995
_cell_formula_units_Z   2
loop_
 _symmetry_equiv_pos_site_id
 _symmetry_equiv_pos_as_xyz
  1  'x, y, z'
loop_
 _atom_site_type_symbol
 _atom_site_label
 _atom_site_symmetry_multiplicity
 _atom_site_fract_x
 _atom_site_fract_y
 _atom_site_fract_z
 _atom_site_occupancy
  La  La0  1  0.179109  0.320891  0.500000  1
  La  La1  1  0.820891  0.679109  0.500000  1
  Th  Th2  1  0.677726  0.177726  0.500000  1
  Th  Th3  1  0.322274  0.822274  0.500000  1
  Mg  Mg4  1  0.000000  0.000000  0.000000  1
  Mg  Mg5  1  0.500000  0.500000  0.000000  1
  Si  Si6  1  0.117300  0.617300  0.000000  1
  Si  Si7  1  0.882700  0.382700  0.000000  1
  Si  Si8  1  0.613653  0.886347  0.000000  1
  Si  Si9  1  0.386347  0.113653  0.000000  1
