# generated using pymatgen
data_Ba4LuRhO8
_symmetry_space_group_name_H-M   'P 1'
_cell_length_a   7.42226800
_cell_length_b   7.42226766
_cell_length_c   5.91395000
_cell_angle_alpha   90.00000000
_cell_angle_beta   90.00000000
_cell_angle_gamma   133.13209689
_symmetry_Int_Tables_number   1
_chemical_formula_structural   Ba4LuRhO8
_chemical_formula_sum   'Ba4 Lu1 Rh1 O8'
_cell_volume   237.76202374
_cell_formula_units_Z   1
loop_
 _symmetry_equiv_pos_site_id
 _symmetry_equiv_pos_as_xyz
  1  'x, y, z'
loop_
 _atom_site_type_symbol
 _atom_site_label
 _atom_site_symmetry_multiplicity
 _atom_site_fract_x
 _atom_site_fract_y
 _atom_site_fract_z
 _atom_site_occupancy
  Ba  Ba0  1  0.355149  0.644851  0.000000  1
  Ba  Ba1  1  0.855127  0.144873  0.500000  1
  Ba  Ba2  1  0.144873  0.855127  0.500000  1
  Ba  Ba3  1  0.644851  0.355149  0.000000  1
  Lu  Lu4  1  0.000000  0.000000  0.000000  1
  Rh  Rh5  1  0.500000  0.500000  0.500000  1
  O  O6  1  0.259034  0.259034  0.737288  1
  O  O7  1  0.740966  0.740966  0.262712  1
  O  O8  1  0.740966  0.740966  0.737288  1
  O  O9  1  0.259034  0.259034  0.262712  1
  O  O10  1  0.162497  0.837503  0.000000  1
  O  O11  1  0.649891  0.350109  0.500000  1
  O  O12  1  0.350109  0.649891  0.500000  1
  O  O13  1  0.837503  0.162497  0.000000  1
