# generated using pymatgen
data_Tb2Dy(AgGe)3
_symmetry_space_group_name_H-M   'P 1'
_cell_length_a   7.20409028
_cell_length_b   7.20409001
_cell_length_c   4.22640000
_cell_angle_alpha   90.00000000
_cell_angle_beta   90.00000000
_cell_angle_gamma   119.96786443
_symmetry_Int_Tables_number   1
_chemical_formula_structural   Tb2Dy(AgGe)3
_chemical_formula_sum   'Tb2 Dy1 Ag3 Ge3'
_cell_volume   190.02032151
_cell_formula_units_Z   1
loop_
 _symmetry_equiv_pos_site_id
 _symmetry_equiv_pos_as_xyz
  1  'x, y, z'
loop_
 _atom_site_type_symbol
 _atom_site_label
 _atom_site_symmetry_multiplicity
 _atom_site_fract_x
 _atom_site_fract_y
 _atom_site_fract_z
 _atom_site_occupancy
  Tb  Tb0  1  0.999914  0.583354  0.000000  1
  Tb  Tb1  1  0.583354  0.999914  0.000000  1
  Dy  Dy2  1  0.416522  0.416522  0.000000  1
  Ag  Ag3  1  0.749287  0.749287  0.500000  1
  Ag  Ag4  1  0.250553  0.000175  0.500000  1
  Ag  Ag5  1  0.000175  0.250553  0.500000  1
  Ge  Ge6  1  0.000311  0.000311  0.000000  1
  Ge  Ge7  1  0.666364  0.333519  0.500000  1
  Ge  Ge8  1  0.333519  0.666364  0.500000  1
