# generated using pymatgen
data_DyEr3Si4(IrRh)2
_symmetry_space_group_name_H-M   'P 1'
_cell_length_a   4.22786100
_cell_length_b   6.83176456
_cell_length_c   7.43265874
_cell_angle_alpha   90.07795332
_cell_angle_beta   90.00000000
_cell_angle_gamma   90.00000000
_symmetry_Int_Tables_number   1
_chemical_formula_structural   DyEr3Si4(IrRh)2
_chemical_formula_sum   'Dy1 Er3 Si4 Ir2 Rh2'
_cell_volume   214.68286528
_cell_formula_units_Z   1
loop_
 _symmetry_equiv_pos_site_id
 _symmetry_equiv_pos_as_xyz
  1  'x, y, z'
loop_
 _atom_site_type_symbol
 _atom_site_label
 _atom_site_symmetry_multiplicity
 _atom_site_fract_x
 _atom_site_fract_y
 _atom_site_fract_z
 _atom_site_occupancy
  Dy  Dy0  1  0.750000  0.501555  0.810594  1
  Er  Er1  1  0.250000  0.998073  0.310408  1
  Er  Er2  1  0.750000  0.001419  0.689668  1
  Er  Er3  1  0.250000  0.497626  0.190329  1
  Si  Si4  1  0.250000  0.704862  0.603741  1
  Si  Si5  1  0.250000  0.203186  0.895604  1
  Si  Si6  1  0.750000  0.295306  0.389926  1
  Si  Si7  1  0.750000  0.796082  0.110730  1
  Ir  Ir8  1  0.750000  0.657466  0.431420  1
  Ir  Ir9  1  0.750000  0.156012  0.068073  1
  Rh  Rh10  1  0.250000  0.844429  0.933188  1
  Rh  Rh11  1  0.250000  0.343985  0.566320  1
