# generated using pymatgen
data_YbTcO4
_symmetry_space_group_name_H-M   'P 1'
_cell_length_a   6.79001868
_cell_length_b   6.79001886
_cell_length_c   6.79001824
_cell_angle_alpha   134.90998939
_cell_angle_beta   134.90999513
_cell_angle_gamma   65.67008355
_symmetry_Int_Tables_number   1
_chemical_formula_structural   YbTcO4
_chemical_formula_sum   'Yb2 Tc2 O8'
_cell_volume   154.66722949
_cell_formula_units_Z   2
loop_
 _symmetry_equiv_pos_site_id
 _symmetry_equiv_pos_as_xyz
  1  'x, y, z'
loop_
 _atom_site_type_symbol
 _atom_site_label
 _atom_site_symmetry_multiplicity
 _atom_site_fract_x
 _atom_site_fract_y
 _atom_site_fract_z
 _atom_site_occupancy
  Yb  Yb0  1  0.250000  0.750000  0.500000  1
  Yb  Yb1  1  0.500000  0.500000  0.000000  1
  Tc  Tc2  1  0.750000  0.250000  0.500000  1
  Tc  Tc3  1  0.000000  0.000000  0.000000  1
  O  O4  1  0.579040  0.486389  0.402903  1
  O  O5  1  0.083486  0.176137  0.597097  1
  O  O6  1  0.513611  0.916514  0.092651  1
  O  O7  1  0.823863  0.420960  0.907349  1
  O  O8  1  0.236389  0.333486  0.407349  1
  O  O9  1  0.926137  0.829040  0.592651  1
  O  O10  1  0.666514  0.073863  0.902903  1
  O  O11  1  0.170960  0.763611  0.097097  1
