# generated using pymatgen
data_Nd5Si6P6Ir19
_symmetry_space_group_name_H-M   'P 1'
_cell_length_a   12.87298900
_cell_length_b   12.87298832
_cell_length_c   3.99307600
_cell_angle_alpha   90.00000000
_cell_angle_beta   90.00000000
_cell_angle_gamma   119.99999918
_symmetry_Int_Tables_number   1
_chemical_formula_structural   Nd5Si6P6Ir19
_chemical_formula_sum   'Nd5 Si6 P6 Ir19'
_cell_volume   573.05589548
_cell_formula_units_Z   1
loop_
 _symmetry_equiv_pos_site_id
 _symmetry_equiv_pos_as_xyz
  1  'x, y, z'
loop_
 _atom_site_type_symbol
 _atom_site_label
 _atom_site_symmetry_multiplicity
 _atom_site_fract_x
 _atom_site_fract_y
 _atom_site_fract_z
 _atom_site_occupancy
  Nd  Nd0  1  0.333333  0.666667  0.500000  1
  Nd  Nd1  1  0.666667  0.333333  0.500000  1
  Nd  Nd2  1  0.001266  0.815809  0.000000  1
  Nd  Nd3  1  0.184191  0.185457  0.000000  1
  Nd  Nd4  1  0.814543  0.998734  0.000000  1
  Si  Si5  1  0.000939  0.634102  0.500000  1
  Si  Si6  1  0.365898  0.366838  0.500000  1
  Si  Si7  1  0.633162  0.999061  0.500000  1
  Si  Si8  1  0.520538  0.682363  0.000000  1
  Si  Si9  1  0.317637  0.838175  0.000000  1
  Si  Si10  1  0.161825  0.479462  0.000000  1
  P  P11  1  0.482187  0.177095  0.000000  1
  P  P12  1  0.694908  0.517813  0.000000  1
  P  P13  1  0.822905  0.305092  0.000000  1
  P  P14  1  0.996847  0.178664  0.500000  1
  P  P15  1  0.821336  0.818183  0.500000  1
  P  P16  1  0.181817  0.003153  0.500000  1
  Ir  Ir17  1  0.516265  0.870406  0.000000  1
  Ir  Ir18  1  0.129594  0.645860  0.000000  1
  Ir  Ir19  1  0.354140  0.483735  0.000000  1
  Ir  Ir20  1  0.493121  0.368817  0.000000  1
  Ir  Ir21  1  0.875696  0.506879  0.000000  1
  Ir  Ir22  1  0.631183  0.124304  0.000000  1
  Ir  Ir23  1  0.014895  0.457617  0.500000  1
  Ir  Ir24  1  0.542383  0.557279  0.500000  1
  Ir  Ir25  1  0.442721  0.985105  0.500000  1
  Ir  Ir26  1  0.993960  0.280195  0.000000  1
  Ir  Ir27  1  0.719805  0.713765  0.000000  1
  Ir  Ir28  1  0.286235  0.006040  0.000000  1
  Ir  Ir29  1  0.630415  0.806690  0.500000  1
  Ir  Ir30  1  0.193310  0.823724  0.500000  1
  Ir  Ir31  1  0.176276  0.369585  0.500000  1
  Ir  Ir32  1  0.382408  0.181908  0.500000  1
  Ir  Ir33  1  0.799500  0.617592  0.500000  1
  Ir  Ir34  1  0.818092  0.200500  0.500000  1
  Ir  Ir35  1  0.000000  0.000000  0.500000  1
