# generated using pymatgen
data_LiSmSi2Ag
_symmetry_space_group_name_H-M   'P 1'
_cell_length_a   4.11055570
_cell_length_b   4.11055540
_cell_length_c   6.16612155
_cell_angle_alpha   109.47027116
_cell_angle_beta   109.47027383
_cell_angle_gamma   90.00000621
_symmetry_Int_Tables_number   1
_chemical_formula_structural   LiSmSi2Ag
_chemical_formula_sum   'Li1 Sm1 Si2 Ag1'
_cell_volume   91.88543838
_cell_formula_units_Z   1
loop_
 _symmetry_equiv_pos_site_id
 _symmetry_equiv_pos_as_xyz
  1  'x, y, z'
loop_
 _atom_site_type_symbol
 _atom_site_label
 _atom_site_symmetry_multiplicity
 _atom_site_fract_x
 _atom_site_fract_y
 _atom_site_fract_z
 _atom_site_occupancy
  Li  Li0  1  0.750000  0.250000  0.499999  1
  Sm  Sm1  1  0.000000  0.000000  0.000000  1
  Si  Si2  1  0.606480  0.606480  0.212961  1
  Si  Si3  1  0.393520  0.393520  0.787040  1
  Ag  Ag4  1  0.250000  0.750000  0.499999  1
