# generated using pymatgen
data_ZrSc3Mn7Si
_symmetry_space_group_name_H-M   'P 1'
_cell_length_a   4.89590300
_cell_length_b   4.89590293
_cell_length_c   8.15642800
_cell_angle_alpha   90.00000000
_cell_angle_beta   90.00000000
_cell_angle_gamma   120.00000725
_symmetry_Int_Tables_number   1
_chemical_formula_structural   ZrSc3Mn7Si
_chemical_formula_sum   'Zr1 Sc3 Mn7 Si1'
_cell_volume   169.31530214
_cell_formula_units_Z   1
loop_
 _symmetry_equiv_pos_site_id
 _symmetry_equiv_pos_as_xyz
  1  'x, y, z'
loop_
 _atom_site_type_symbol
 _atom_site_label
 _atom_site_symmetry_multiplicity
 _atom_site_fract_x
 _atom_site_fract_y
 _atom_site_fract_z
 _atom_site_occupancy
  Zr  Zr0  1  0.333333  0.666667  0.068447  1
  Sc  Sc1  1  0.666667  0.333333  0.563940  1
  Sc  Sc2  1  0.666667  0.333333  0.932251  1
  Sc  Sc3  1  0.333333  0.666667  0.437895  1
  Mn  Mn4  1  0.000000  0.000000  0.498658  1
  Mn  Mn5  1  0.829496  0.658993  0.251794  1
  Mn  Mn6  1  0.170731  0.829269  0.748050  1
  Mn  Mn7  1  0.658538  0.829269  0.748050  1
  Mn  Mn8  1  0.341007  0.170504  0.251794  1
  Mn  Mn9  1  0.829496  0.170504  0.251794  1
  Mn  Mn10  1  0.170731  0.341462  0.748050  1
  Si  Si11  1  0.000000  0.000000  0.999275  1
