# generated using pymatgen
data_AcYbIn5Au3
_symmetry_space_group_name_H-M   'P 1'
_cell_length_a   4.84905021
_cell_length_b   7.41530900
_cell_length_c   13.98167580
_cell_angle_alpha   90.00000000
_cell_angle_beta   99.98598699
_cell_angle_gamma   90.00000000
_symmetry_Int_Tables_number   1
_chemical_formula_structural   AcYbIn5Au3
_chemical_formula_sum   'Ac2 Yb2 In10 Au6'
_cell_volume   495.12554843
_cell_formula_units_Z   2
loop_
 _symmetry_equiv_pos_site_id
 _symmetry_equiv_pos_as_xyz
  1  'x, y, z'
loop_
 _atom_site_type_symbol
 _atom_site_label
 _atom_site_symmetry_multiplicity
 _atom_site_fract_x
 _atom_site_fract_y
 _atom_site_fract_z
 _atom_site_occupancy
  Ac  Ac0  1  0.828184  0.268589  0.656367  1
  Ac  Ac1  1  0.171816  0.768589  0.343633  1
  Yb  Yb2  1  0.518755  0.222456  0.037511  1
  Yb  Yb3  1  0.481245  0.722456  0.962489  1
  In  In4  1  0.120660  0.237650  0.241320  1
  In  In5  1  0.879340  0.737650  0.758680  1
  In  In6  1  0.705610  0.074746  0.411220  1
  In  In7  1  0.294390  0.574746  0.588780  1
  In  In8  1  0.403044  0.071596  0.806088  1
  In  In9  1  0.596956  0.571596  0.193912  1
  In  In10  1  0.049307  0.900690  0.098613  1
  In  In11  1  0.950693  0.400690  0.901387  1
  In  In12  1  0.707326  0.481743  0.414652  1
  In  In13  1  0.292674  0.981743  0.585348  1
  Au  Au14  1  0.953312  0.008524  0.906623  1
  Au  Au15  1  0.046688  0.508524  0.093377  1
  Au  Au16  1  0.223796  0.280809  0.447593  1
  Au  Au17  1  0.776204  0.780809  0.552407  1
  Au  Au18  1  0.604825  0.967159  0.209651  1
  Au  Au19  1  0.395175  0.467159  0.790349  1
