# generated using pymatgen
data_LaTb4(RhO6)2
_symmetry_space_group_name_H-M   'P 1'
_cell_length_a   6.95076332
_cell_length_b   6.95076400
_cell_length_c   7.42170053
_cell_angle_alpha   74.59620486
_cell_angle_beta   74.59620048
_cell_angle_gamma   50.80078620
_symmetry_Int_Tables_number   1
_chemical_formula_structural   LaTb4(RhO6)2
_chemical_formula_sum   'La1 Tb4 Rh2 O12'
_cell_volume   265.58722245
_cell_formula_units_Z   1
loop_
 _symmetry_equiv_pos_site_id
 _symmetry_equiv_pos_as_xyz
  1  'x, y, z'
loop_
 _atom_site_type_symbol
 _atom_site_label
 _atom_site_symmetry_multiplicity
 _atom_site_fract_x
 _atom_site_fract_y
 _atom_site_fract_z
 _atom_site_occupancy
  La  La0  1  0.000000  0.000000  0.500000  1
  Tb  Tb1  1  0.304154  0.304154  0.359131  1
  Tb  Tb2  1  0.695846  0.695846  0.640869  1
  Tb  Tb3  1  0.305745  0.305745  0.833120  1
  Tb  Tb4  1  0.694255  0.694255  0.166880  1
  Rh  Rh5  1  0.751268  0.248732  0.000000  1
  Rh  Rh6  1  0.248732  0.751268  0.000000  1
  O  O7  1  0.899150  0.429892  0.918500  1
  O  O8  1  0.429892  0.899150  0.918500  1
  O  O9  1  0.100850  0.570108  0.081500  1
  O  O10  1  0.570108  0.100850  0.081500  1
  O  O11  1  0.094834  0.586837  0.579905  1
  O  O12  1  0.586837  0.094834  0.579905  1
  O  O13  1  0.905166  0.413163  0.420095  1
  O  O14  1  0.413163  0.905166  0.420095  1
  O  O15  1  0.000883  0.000883  0.825334  1
  O  O16  1  0.999117  0.999117  0.174666  1
  O  O17  1  0.499371  0.499371  0.811066  1
  O  O18  1  0.500629  0.500629  0.188934  1
