# generated using pymatgen
data_Tm3Hf(SbRh5)2
_symmetry_space_group_name_H-M   'P 1'
_cell_length_a   4.21307000
_cell_length_b   5.69673589
_cell_length_c   11.20952127
_cell_angle_alpha   89.74707121
_cell_angle_beta   90.00000000
_cell_angle_gamma   90.00000000
_symmetry_Int_Tables_number   1
_chemical_formula_structural   Tm3Hf(SbRh5)2
_chemical_formula_sum   'Tm3 Hf1 Sb2 Rh10'
_cell_volume   269.03426367
_cell_formula_units_Z   1
loop_
 _symmetry_equiv_pos_site_id
 _symmetry_equiv_pos_as_xyz
  1  'x, y, z'
loop_
 _atom_site_type_symbol
 _atom_site_label
 _atom_site_symmetry_multiplicity
 _atom_site_fract_x
 _atom_site_fract_y
 _atom_site_fract_z
 _atom_site_occupancy
  Tm  Tm0  1  0.500000  0.178792  0.642339  1
  Tm  Tm1  1  0.500000  0.823595  0.358415  1
  Tm  Tm2  1  0.500000  0.677305  0.858636  1
  Hf  Hf3  1  0.500000  0.327330  0.143559  1
  Sb  Sb4  1  0.000000  0.498865  0.499065  1
  Sb  Sb5  1  0.000000  0.997179  0.000591  1
  Rh  Rh6  1  0.500000  0.192911  0.895312  1
  Rh  Rh7  1  0.500000  0.803126  0.110496  1
  Rh  Rh8  1  0.500000  0.692130  0.610791  1
  Rh  Rh9  1  0.500000  0.308362  0.383191  1
  Rh  Rh10  1  0.000000  0.435727  0.748461  1
  Rh  Rh11  1  0.000000  0.563386  0.250248  1
  Rh  Rh12  1  0.000000  0.000763  0.498887  1
  Rh  Rh13  1  0.000000  0.490338  0.004722  1
  Rh  Rh14  1  0.000000  0.073338  0.240906  1
  Rh  Rh15  1  0.000000  0.936854  0.754379  1
