# generated using pymatgen
data_Y20Ir8PtRh3
_symmetry_space_group_name_H-M   'P 1'
_cell_length_a   10.95623465
_cell_length_b   10.95523865
_cell_length_c   6.40332300
_cell_angle_alpha   89.99816785
_cell_angle_beta   89.99605157
_cell_angle_gamma   89.88367982
_symmetry_Int_Tables_number   1
_chemical_formula_structural   Y20Ir8PtRh3
_chemical_formula_sum   'Y20 Ir8 Pt1 Rh3'
_cell_volume   768.57752571
_cell_formula_units_Z   1
loop_
 _symmetry_equiv_pos_site_id
 _symmetry_equiv_pos_as_xyz
  1  'x, y, z'
loop_
 _atom_site_type_symbol
 _atom_site_label
 _atom_site_symmetry_multiplicity
 _atom_site_fract_x
 _atom_site_fract_y
 _atom_site_fract_z
 _atom_site_occupancy
  Y  Y0  1  0.290027  0.088607  0.380013  1
  Y  Y1  1  0.290998  0.910368  0.879024  1
  Y  Y2  1  0.707443  0.087776  0.875191  1
  Y  Y3  1  0.708069  0.908119  0.381021  1
  Y  Y4  1  0.589196  0.790186  0.880481  1
  Y  Y5  1  0.585153  0.209888  0.380259  1
  Y  Y6  1  0.410807  0.790379  0.380334  1
  Y  Y7  1  0.410127  0.209566  0.880039  1
  Y  Y8  1  0.208881  0.411283  0.618236  1
  Y  Y9  1  0.209271  0.589613  0.121162  1
  Y  Y10  1  0.790459  0.414348  0.121231  1
  Y  Y11  1  0.791329  0.589402  0.618636  1
  Y  Y12  1  0.910988  0.709602  0.121436  1
  Y  Y13  1  0.912745  0.293456  0.623032  1
  Y  Y14  1  0.089151  0.708107  0.619517  1
  Y  Y15  1  0.092147  0.292289  0.120446  1
  Y  Y16  1  0.001127  0.998337  0.501182  1
  Y  Y17  1  0.001720  0.998890  0.999122  1
  Y  Y18  1  0.499790  0.499812  0.999699  1
  Y  Y19  1  0.500146  0.500240  0.500764  1
  Ir  Ir20  1  0.845714  0.847446  0.750080  1
  Ir  Ir21  1  0.153075  0.153822  0.749865  1
  Ir  Ir22  1  0.154796  0.846580  0.249918  1
  Ir  Ir23  1  0.654946  0.344600  0.749930  1
  Ir  Ir24  1  0.653403  0.654129  0.249701  1
  Ir  Ir25  1  0.347181  0.345297  0.250371  1
  Ir  Ir26  1  0.346103  0.654326  0.750011  1
  Ir  Ir27  1  0.999909  0.499627  0.372733  1
  Pt  Pt28  1  0.844882  0.153818  0.249889  1
  Rh  Rh29  1  0.500397  0.000084  0.126115  1
  Rh  Rh30  1  0.500332  0.000328  0.625174  1
  Rh  Rh31  1  0.999689  0.499676  0.875387  1
