# generated using pymatgen
data_NpPa(AlC)6
_symmetry_space_group_name_H-M   'P 1'
_cell_length_a   3.40486400
_cell_length_b   3.40486424
_cell_length_c   17.50595100
_cell_angle_alpha   90.00000000
_cell_angle_beta   90.00000000
_cell_angle_gamma   119.99999765
_symmetry_Int_Tables_number   1
_chemical_formula_structural   NpPa(AlC)6
_chemical_formula_sum   'Np1 Pa1 Al6 C6'
_cell_volume   175.75833132
_cell_formula_units_Z   1
loop_
 _symmetry_equiv_pos_site_id
 _symmetry_equiv_pos_as_xyz
  1  'x, y, z'
loop_
 _atom_site_type_symbol
 _atom_site_label
 _atom_site_symmetry_multiplicity
 _atom_site_fract_x
 _atom_site_fract_y
 _atom_site_fract_z
 _atom_site_occupancy
  Np  Np0  1  0.000000  0.000000  0.503044  1
  Pa  Pa1  1  0.000000  0.000000  0.003095  1
  Al  Al2  1  0.333333  0.666667  0.138806  1
  Al  Al3  1  0.666667  0.333333  0.867802  1
  Al  Al4  1  0.666667  0.333333  0.636665  1
  Al  Al5  1  0.333333  0.666667  0.753210  1
  Al  Al6  1  0.333333  0.666667  0.369843  1
  Al  Al7  1  0.666667  0.333333  0.256227  1
  C  C8  1  0.333333  0.666667  0.596723  1
  C  C9  1  0.666667  0.333333  0.408044  1
  C  C10  1  0.333333  0.666667  0.905599  1
  C  C11  1  0.666667  0.333333  0.099255  1
  C  C12  1  0.666667  0.333333  0.752034  1
  C  C13  1  0.333333  0.666667  0.254250  1
