# generated using pymatgen
data_Pr7Dy(Si3Au)4
_symmetry_space_group_name_H-M   'P 1'
_cell_length_a   8.28097200
_cell_length_b   8.31876324
_cell_length_c   8.71456800
_cell_angle_alpha   90.00000000
_cell_angle_beta   90.00000000
_cell_angle_gamma   120.15107486
_symmetry_Int_Tables_number   1
_chemical_formula_structural   Pr7Dy(Si3Au)4
_chemical_formula_sum   'Pr7 Dy1 Si12 Au4'
_cell_volume   519.10285851
_cell_formula_units_Z   1
loop_
 _symmetry_equiv_pos_site_id
 _symmetry_equiv_pos_as_xyz
  1  'x, y, z'
loop_
 _atom_site_type_symbol
 _atom_site_label
 _atom_site_symmetry_multiplicity
 _atom_site_fract_x
 _atom_site_fract_y
 _atom_site_fract_z
 _atom_site_occupancy
  Pr  Pr0  1  0.000046  0.000023  0.250000  1
  Pr  Pr1  1  0.999814  0.999908  0.750000  1
  Pr  Pr2  1  0.500408  0.499312  0.250000  1
  Pr  Pr3  1  0.500408  0.001097  0.250000  1
  Pr  Pr4  1  0.998432  0.499215  0.250000  1
  Pr  Pr5  1  0.499240  0.500974  0.750000  1
  Pr  Pr6  1  0.499240  0.998266  0.750000  1
  Dy  Dy7  1  0.001769  0.500885  0.750000  1
  Si  Si8  1  0.163931  0.836678  0.502983  1
  Si  Si9  1  0.163931  0.327253  0.502983  1
  Si  Si10  1  0.669956  0.834977  0.500215  1
  Si  Si11  1  0.835988  0.163267  0.500454  1
  Si  Si12  1  0.835988  0.672722  0.500454  1
  Si  Si13  1  0.330267  0.165134  0.498533  1
  Si  Si14  1  0.835988  0.163267  0.999546  1
  Si  Si15  1  0.835988  0.672722  0.999546  1
  Si  Si16  1  0.330267  0.165134  0.001467  1
  Si  Si17  1  0.163931  0.836678  0.997017  1
  Si  Si18  1  0.163931  0.327253  0.997017  1
  Si  Si19  1  0.669956  0.834977  0.999785  1
  Au  Au20  1  0.328589  0.664296  0.503111  1
  Au  Au21  1  0.671672  0.335835  0.508899  1
  Au  Au22  1  0.671672  0.335835  0.991101  1
  Au  Au23  1  0.328589  0.664296  0.996889  1
