# generated using pymatgen
data_Sr3Ta2MnO9
_symmetry_space_group_name_H-M   'P 1'
_cell_length_a   5.77701200
_cell_length_b   5.77701187
_cell_length_c   7.10932600
_cell_angle_alpha   90.00000000
_cell_angle_beta   90.00000000
_cell_angle_gamma   120.00000074
_symmetry_Int_Tables_number   1
_chemical_formula_structural   Sr3Ta2MnO9
_chemical_formula_sum   'Sr3 Ta2 Mn1 O9'
_cell_volume   205.47812181
_cell_formula_units_Z   1
loop_
 _symmetry_equiv_pos_site_id
 _symmetry_equiv_pos_as_xyz
  1  'x, y, z'
loop_
 _atom_site_type_symbol
 _atom_site_label
 _atom_site_symmetry_multiplicity
 _atom_site_fract_x
 _atom_site_fract_y
 _atom_site_fract_z
 _atom_site_occupancy
  Sr  Sr0  1  0.333333  0.666667  0.662060  1
  Sr  Sr1  1  0.666667  0.333333  0.337940  1
  Sr  Sr2  1  0.000000  0.000000  0.000000  1
  Ta  Ta3  1  0.333333  0.666667  0.173970  1
  Ta  Ta4  1  0.666667  0.333333  0.826030  1
  Mn  Mn5  1  0.000000  0.000000  0.500000  1
  O  O6  1  0.172166  0.827834  0.322622  1
  O  O7  1  0.827834  0.172166  0.677378  1
  O  O8  1  0.172166  0.344331  0.322622  1
  O  O9  1  0.827834  0.655669  0.677378  1
  O  O10  1  0.655669  0.827834  0.322622  1
  O  O11  1  0.344331  0.172166  0.677378  1
  O  O12  1  0.500000  0.000000  0.000000  1
  O  O13  1  0.000000  0.500000  0.000000  1
  O  O14  1  0.500000  0.500000  0.000000  1
