# generated using pymatgen
data_TbNd7(Sc3Pt4)4
_symmetry_space_group_name_H-M   'P 1'
_cell_length_a   7.60381599
_cell_length_b   7.43600288
_cell_length_c   13.78734600
_cell_angle_alpha   89.84655876
_cell_angle_beta   90.02922125
_cell_angle_gamma   89.78128902
_symmetry_Int_Tables_number   1
_chemical_formula_structural   TbNd7(Sc3Pt4)4
_chemical_formula_sum   'Tb1 Nd7 Sc12 Pt16'
_cell_volume   779.55550378
_cell_formula_units_Z   1
loop_
 _symmetry_equiv_pos_site_id
 _symmetry_equiv_pos_as_xyz
  1  'x, y, z'
loop_
 _atom_site_type_symbol
 _atom_site_label
 _atom_site_symmetry_multiplicity
 _atom_site_fract_x
 _atom_site_fract_y
 _atom_site_fract_z
 _atom_site_occupancy
  Tb  Tb0  1  0.490034  0.676015  0.599444  1
  Nd  Nd1  1  0.009314  0.172960  0.096641  1
  Nd  Nd2  1  0.990398  0.826409  0.901287  1
  Nd  Nd3  1  0.490261  0.674058  0.903311  1
  Nd  Nd4  1  0.990602  0.825776  0.596455  1
  Nd  Nd5  1  0.509686  0.326611  0.097277  1
  Nd  Nd6  1  0.011309  0.172790  0.403657  1
  Nd  Nd7  1  0.510665  0.329963  0.405376  1
  Sc  Sc8  1  0.168852  0.494241  0.748892  1
  Sc  Sc9  1  0.833596  0.505617  0.250733  1
  Sc  Sc10  1  0.334378  0.994868  0.251197  1
  Sc  Sc11  1  0.665906  0.006043  0.748656  1
  Sc  Sc12  1  0.333504  0.161740  0.623750  1
  Sc  Sc13  1  0.663592  0.835394  0.377835  1
  Sc  Sc14  1  0.167219  0.661930  0.375435  1
  Sc  Sc15  1  0.666054  0.839058  0.125181  1
  Sc  Sc16  1  0.833165  0.339393  0.623249  1
  Sc  Sc17  1  0.335300  0.161864  0.874574  1
  Sc  Sc18  1  0.833227  0.339337  0.873869  1
  Sc  Sc19  1  0.164178  0.662345  0.124171  1
  Pt  Pt20  1  0.036274  0.137441  0.748723  1
  Pt  Pt21  1  0.963287  0.862366  0.251234  1
  Pt  Pt22  1  0.463632  0.637189  0.249816  1
  Pt  Pt23  1  0.533248  0.365676  0.747042  1
  Pt  Pt24  1  0.294434  0.859604  0.747566  1
  Pt  Pt25  1  0.706299  0.137274  0.251851  1
  Pt  Pt26  1  0.206600  0.362606  0.250460  1
  Pt  Pt27  1  0.788818  0.638173  0.747635  1
  Pt  Pt28  1  0.173966  0.456870  0.545936  1
  Pt  Pt29  1  0.835291  0.547108  0.455565  1
  Pt  Pt30  1  0.334106  0.947913  0.456526  1
  Pt  Pt31  1  0.832228  0.547932  0.045196  1
  Pt  Pt32  1  0.664134  0.041706  0.547912  1
  Pt  Pt33  1  0.165953  0.451510  0.953793  1
  Pt  Pt34  1  0.666657  0.047311  0.953405  1
  Pt  Pt35  1  0.333833  0.952910  0.046348  1
