# generated using pymatgen
data_Pr2YHf(Al3Ir)6
_symmetry_space_group_name_H-M   'P 1'
_cell_length_a   7.58439547
_cell_length_b   7.57524901
_cell_length_c   9.48707500
_cell_angle_alpha   90.00000000
_cell_angle_beta   90.00000000
_cell_angle_gamma   119.55757350
_symmetry_Int_Tables_number   1
_chemical_formula_structural   Pr2YHf(Al3Ir)6
_chemical_formula_sum   'Pr2 Y1 Hf1 Al18 Ir6'
_cell_volume   474.13258210
_cell_formula_units_Z   1
loop_
 _symmetry_equiv_pos_site_id
 _symmetry_equiv_pos_as_xyz
  1  'x, y, z'
loop_
 _atom_site_type_symbol
 _atom_site_label
 _atom_site_symmetry_multiplicity
 _atom_site_fract_x
 _atom_site_fract_y
 _atom_site_fract_z
 _atom_site_occupancy
  Pr  Pr0  1  0.004964  0.327510  0.750000  1
  Pr  Pr1  1  0.329818  0.006426  0.750000  1
  Y  Y2  1  0.671390  0.995678  0.250000  1
  Hf  Hf3  1  0.997896  0.674792  0.250000  1
  Al  Al4  1  0.125372  0.123176  0.250000  1
  Al  Al5  1  0.867588  0.866105  0.750000  1
  Al  Al6  1  0.999847  0.338929  0.082043  1
  Al  Al7  1  0.997628  0.664914  0.934975  1
  Al  Al8  1  0.997628  0.664914  0.565025  1
  Al  Al9  1  0.332638  0.997721  0.417893  1
  Al  Al10  1  0.999847  0.338929  0.417957  1
  Al  Al11  1  0.664546  0.995927  0.569497  1
  Al  Al12  1  0.664546  0.995927  0.930503  1
  Al  Al13  1  0.332638  0.997721  0.082107  1
  Al  Al14  1  0.334451  0.334667  0.541437  1
  Al  Al15  1  0.669396  0.666990  0.441024  1
  Al  Al16  1  0.669396  0.666990  0.058976  1
  Al  Al17  1  0.334451  0.334667  0.958563  1
  Al  Al18  1  0.336529  0.550434  0.250000  1
  Al  Al19  1  0.660898  0.455090  0.750000  1
  Al  Al20  1  0.556969  0.345754  0.250000  1
  Al  Al21  1  0.453496  0.659286  0.750000  1
  Ir  Ir22  1  0.672885  0.329430  0.003297  1
  Ir  Ir23  1  0.328271  0.672332  0.004151  1
  Ir  Ir24  1  0.328271  0.672332  0.495849  1
  Ir  Ir25  1  0.672885  0.329430  0.496703  1
  Ir  Ir26  1  0.997877  0.996967  0.004038  1
  Ir  Ir27  1  0.997877  0.996967  0.495962  1
