# generated using pymatgen
data_Y6ZnGa3Pt13
_symmetry_space_group_name_H-M   'P 1'
_cell_length_a   8.28321975
_cell_length_b   8.28322114
_cell_length_c   8.28322060
_cell_angle_alpha   109.58567675
_cell_angle_beta   109.58567237
_cell_angle_gamma   109.58566663
_symmetry_Int_Tables_number   1
_chemical_formula_structural   Y6ZnGa3Pt13
_chemical_formula_sum   'Y6 Zn1 Ga3 Pt13'
_cell_volume   435.63396801
_cell_formula_units_Z   1
loop_
 _symmetry_equiv_pos_site_id
 _symmetry_equiv_pos_as_xyz
  1  'x, y, z'
loop_
 _atom_site_type_symbol
 _atom_site_label
 _atom_site_symmetry_multiplicity
 _atom_site_fract_x
 _atom_site_fract_y
 _atom_site_fract_z
 _atom_site_occupancy
  Y  Y0  1  0.698119  0.698119  0.998269  1
  Y  Y1  1  0.301881  0.001731  0.301881  1
  Y  Y2  1  0.001731  0.301881  0.301881  1
  Y  Y3  1  0.301881  0.301881  0.001731  1
  Y  Y4  1  0.698119  0.998269  0.698119  1
  Y  Y5  1  0.998269  0.698119  0.698119  1
  Zn  Zn6  1  0.500000  0.500000  0.500000  1
  Ga  Ga7  1  0.000000  0.000000  0.500000  1
  Ga  Ga8  1  0.000000  0.500000  0.000000  1
  Ga  Ga9  1  0.500000  0.000000  0.000000  1
  Pt  Pt10  1  0.324957  0.324957  0.650523  1
  Pt  Pt11  1  0.677040  0.000000  0.322960  1
  Pt  Pt12  1  0.000000  0.677040  0.322960  1
  Pt  Pt13  1  0.677040  0.322960  0.000000  1
  Pt  Pt14  1  0.324957  0.650523  0.324957  1
  Pt  Pt15  1  0.000000  0.322960  0.677040  1
  Pt  Pt16  1  0.322960  0.677040  0.000000  1
  Pt  Pt17  1  0.322960  0.000000  0.677040  1
  Pt  Pt18  1  0.650523  0.324957  0.324957  1
  Pt  Pt19  1  0.675043  0.675043  0.349477  1
  Pt  Pt20  1  0.675043  0.349477  0.675043  1
  Pt  Pt21  1  0.349477  0.675043  0.675043  1
  Pt  Pt22  1  0.000000  0.000000  0.000000  1
