# generated using pymatgen
data_Tm2Sb5
_symmetry_space_group_name_H-M   'P 1'
_cell_length_a   4.20118800
_cell_length_b   13.11636105
_cell_length_c   14.56033987
_cell_angle_alpha   78.46387230
_cell_angle_beta   90.00000000
_cell_angle_gamma   90.00000000
_symmetry_Int_Tables_number   1
_chemical_formula_structural   Tm2Sb5
_chemical_formula_sum   'Tm8 Sb20'
_cell_volume   786.12913883
_cell_formula_units_Z   4
loop_
 _symmetry_equiv_pos_site_id
 _symmetry_equiv_pos_as_xyz
  1  'x, y, z'
loop_
 _atom_site_type_symbol
 _atom_site_label
 _atom_site_symmetry_multiplicity
 _atom_site_fract_x
 _atom_site_fract_y
 _atom_site_fract_z
 _atom_site_occupancy
  Tm  Tm0  1  0.250000  0.395103  0.770636  1
  Tm  Tm1  1  0.750000  0.604897  0.229364  1
  Tm  Tm2  1  0.250000  0.661914  0.856337  1
  Tm  Tm3  1  0.750000  0.338086  0.143663  1
  Tm  Tm4  1  0.250000  0.669262  0.576045  1
  Tm  Tm5  1  0.750000  0.330738  0.423955  1
  Tm  Tm6  1  0.250000  0.954001  0.358979  1
  Tm  Tm7  1  0.750000  0.045999  0.641021  1
  Sb  Sb8  1  0.250000  0.143522  0.777533  1
  Sb  Sb9  1  0.750000  0.856478  0.222467  1
  Sb  Sb10  1  0.250000  0.143225  0.483781  1
  Sb  Sb11  1  0.750000  0.856775  0.516219  1
  Sb  Sb12  1  0.250000  0.152972  0.170367  1
  Sb  Sb13  1  0.750000  0.847028  0.829633  1
  Sb  Sb14  1  0.250000  0.420772  0.975552  1
  Sb  Sb15  1  0.750000  0.579228  0.024448  1
  Sb  Sb16  1  0.750000  0.028999  0.912094  1
  Sb  Sb17  1  0.250000  0.971001  0.087906  1
  Sb  Sb18  1  0.750000  0.139300  0.322298  1
  Sb  Sb19  1  0.250000  0.860700  0.677702  1
  Sb  Sb20  1  0.750000  0.278727  0.936496  1
  Sb  Sb21  1  0.250000  0.721273  0.063504  1
  Sb  Sb22  1  0.750000  0.284392  0.652752  1
  Sb  Sb23  1  0.250000  0.715608  0.347248  1
  Sb  Sb24  1  0.750000  0.576598  0.734308  1
  Sb  Sb25  1  0.250000  0.423402  0.265692  1
  Sb  Sb26  1  0.750000  0.571590  0.447055  1
  Sb  Sb27  1  0.250000  0.428410  0.552945  1
