# generated using pymatgen
data_Tb9Dy11Co3Bi8Ru
_symmetry_space_group_name_H-M   'P 1'
_cell_length_a   8.03709448
_cell_length_b   8.93091500
_cell_length_c   12.46624818
_cell_angle_alpha   90.00000000
_cell_angle_beta   90.16765389
_cell_angle_gamma   90.00000000
_symmetry_Int_Tables_number   1
_chemical_formula_structural   Tb9Dy11Co3Bi8Ru
_chemical_formula_sum   'Tb9 Dy11 Co3 Bi8 Ru1'
_cell_volume   894.80610585
_cell_formula_units_Z   1
loop_
 _symmetry_equiv_pos_site_id
 _symmetry_equiv_pos_as_xyz
  1  'x, y, z'
loop_
 _atom_site_type_symbol
 _atom_site_label
 _atom_site_symmetry_multiplicity
 _atom_site_fract_x
 _atom_site_fract_y
 _atom_site_fract_z
 _atom_site_occupancy
  Tb  Tb0  1  0.846670  0.750000  0.800341  1
  Tb  Tb1  1  0.152574  0.250000  0.198359  1
  Tb  Tb2  1  0.347419  0.250000  0.699141  1
  Tb  Tb3  1  0.654091  0.750000  0.296249  1
  Tb  Tb4  1  0.378458  0.750000  0.693043  1
  Tb  Tb5  1  0.618696  0.250000  0.310502  1
  Tb  Tb6  1  0.880861  0.250000  0.811236  1
  Tb  Tb7  1  0.118325  0.750000  0.187359  1
  Tb  Tb8  1  0.050181  0.250000  0.496743  1
  Dy  Dy9  1  0.949780  0.750000  0.503794  1
  Dy  Dy10  1  0.451275  0.250000  0.997211  1
  Dy  Dy11  1  0.549166  0.750000  0.002604  1
  Dy  Dy12  1  0.676830  0.041705  0.564411  1
  Dy  Dy13  1  0.323854  0.965751  0.436310  1
  Dy  Dy14  1  0.175407  0.965505  0.936982  1
  Dy  Dy15  1  0.323854  0.534249  0.436310  1
  Dy  Dy16  1  0.823733  0.036312  0.063041  1
  Dy  Dy17  1  0.676830  0.458295  0.564411  1
  Dy  Dy18  1  0.823733  0.463688  0.063041  1
  Dy  Dy19  1  0.175407  0.534495  0.936982  1
  Co  Co20  1  0.434347  0.250000  0.490993  1
  Co  Co21  1  0.061285  0.250000  0.991977  1
  Co  Co22  1  0.936998  0.750000  0.007397  1
  Bi  Bi23  1  0.570727  0.491795  0.827165  1
  Bi  Bi24  1  0.428696  0.507876  0.173073  1
  Bi  Bi25  1  0.070889  0.507796  0.674364  1
  Bi  Bi26  1  0.428696  0.992124  0.173073  1
  Bi  Bi27  1  0.930379  0.492333  0.326067  1
  Bi  Bi28  1  0.570727  0.008205  0.827165  1
  Bi  Bi29  1  0.930379  0.007667  0.326067  1
  Bi  Bi30  1  0.070889  0.992204  0.674364  1
  Ru  Ru31  1  0.568842  0.750000  0.510224  1
