# generated using pymatgen
data_Sc8In3Ir
_symmetry_space_group_name_H-M   'P 1'
_cell_length_a   9.82851700
_cell_length_b   9.82851553
_cell_length_c   6.51565800
_cell_angle_alpha   90.00000000
_cell_angle_beta   90.00000000
_cell_angle_gamma   120.00000157
_symmetry_Int_Tables_number   1
_chemical_formula_structural   Sc8In3Ir
_chemical_formula_sum   'Sc16 In6 Ir2'
_cell_volume   545.08574808
_cell_formula_units_Z   2
loop_
 _symmetry_equiv_pos_site_id
 _symmetry_equiv_pos_as_xyz
  1  'x, y, z'
loop_
 _atom_site_type_symbol
 _atom_site_label
 _atom_site_symmetry_multiplicity
 _atom_site_fract_x
 _atom_site_fract_y
 _atom_site_fract_z
 _atom_site_occupancy
  Sc  Sc0  1  0.528182  0.056364  0.519935  1
  Sc  Sc1  1  0.943636  0.471818  0.519935  1
  Sc  Sc2  1  0.528182  0.471818  0.519935  1
  Sc  Sc3  1  0.471818  0.943636  0.019935  1
  Sc  Sc4  1  0.056364  0.528182  0.019935  1
  Sc  Sc5  1  0.471818  0.528182  0.019935  1
  Sc  Sc6  1  0.177207  0.354413  0.736123  1
  Sc  Sc7  1  0.645587  0.822793  0.736123  1
  Sc  Sc8  1  0.177207  0.822793  0.736123  1
  Sc  Sc9  1  0.822793  0.645587  0.236123  1
  Sc  Sc10  1  0.354413  0.177207  0.236123  1
  Sc  Sc11  1  0.822793  0.177207  0.236123  1
  Sc  Sc12  1  0.666667  0.333333  0.896832  1
  Sc  Sc13  1  0.333333  0.666667  0.396832  1
  Sc  Sc14  1  0.000000  0.000000  0.510478  1
  Sc  Sc15  1  0.000000  0.000000  0.010478  1
  In  In16  1  0.836927  0.673854  0.766678  1
  In  In17  1  0.326146  0.163073  0.766678  1
  In  In18  1  0.836927  0.163073  0.766678  1
  In  In19  1  0.163073  0.326146  0.266678  1
  In  In20  1  0.673854  0.836927  0.266678  1
  In  In21  1  0.163073  0.836927  0.266678  1
  Ir  Ir22  1  0.666667  0.333333  0.302322  1
  Ir  Ir23  1  0.333333  0.666667  0.802322  1
