# generated using pymatgen
data_Y3Mn2Ni7P6
_symmetry_space_group_name_H-M   'P 1'
_cell_length_a   3.77759400
_cell_length_b   10.53380900
_cell_length_c   12.34971600
_cell_angle_alpha   90.00000000
_cell_angle_beta   90.00000000
_cell_angle_gamma   90.00000000
_symmetry_Int_Tables_number   1
_chemical_formula_structural   Y3Mn2Ni7P6
_chemical_formula_sum   'Y6 Mn4 Ni14 P12'
_cell_volume   491.42550184
_cell_formula_units_Z   2
loop_
 _symmetry_equiv_pos_site_id
 _symmetry_equiv_pos_as_xyz
  1  'x, y, z'
loop_
 _atom_site_type_symbol
 _atom_site_label
 _atom_site_symmetry_multiplicity
 _atom_site_fract_x
 _atom_site_fract_y
 _atom_site_fract_z
 _atom_site_occupancy
  Y  Y0  1  0.000000  0.500000  0.520768  1
  Y  Y1  1  0.500000  0.000000  0.479232  1
  Y  Y2  1  0.500000  0.819486  0.207240  1
  Y  Y3  1  0.500000  0.180514  0.207240  1
  Y  Y4  1  0.000000  0.680514  0.792760  1
  Y  Y5  1  0.000000  0.319486  0.792760  1
  Mn  Mn6  1  0.500000  0.500000  0.154159  1
  Mn  Mn7  1  0.000000  0.000000  0.845841  1
  Mn  Mn8  1  0.000000  0.500000  0.987959  1
  Mn  Mn9  1  0.500000  0.000000  0.012041  1
  Ni  Ni10  1  0.500000  0.500000  0.700792  1
  Ni  Ni11  1  0.000000  0.000000  0.299208  1
  Ni  Ni12  1  0.500000  0.330224  0.991958  1
  Ni  Ni13  1  0.500000  0.669776  0.991958  1
  Ni  Ni14  1  0.000000  0.169776  0.008042  1
  Ni  Ni15  1  0.000000  0.830224  0.008042  1
  Ni  Ni16  1  0.500000  0.301860  0.427929  1
  Ni  Ni17  1  0.500000  0.698140  0.427929  1
  Ni  Ni18  1  0.000000  0.198140  0.572071  1
  Ni  Ni19  1  0.000000  0.801860  0.572071  1
  Ni  Ni20  1  0.500000  0.880097  0.709816  1
  Ni  Ni21  1  0.500000  0.119903  0.709816  1
  Ni  Ni22  1  0.000000  0.619903  0.290184  1
  Ni  Ni23  1  0.000000  0.380097  0.290184  1
  P  P24  1  0.500000  0.500000  0.880474  1
  P  P25  1  0.000000  0.000000  0.119526  1
  P  P26  1  0.500000  0.500000  0.344264  1
  P  P27  1  0.000000  0.000000  0.655736  1
  P  P28  1  0.500000  0.313096  0.613722  1
  P  P29  1  0.500000  0.686904  0.613722  1
  P  P30  1  0.000000  0.186904  0.386278  1
  P  P31  1  0.000000  0.813096  0.386278  1
  P  P32  1  0.500000  0.848736  0.890442  1
  P  P33  1  0.500000  0.151264  0.890442  1
  P  P34  1  0.000000  0.651264  0.109558  1
  P  P35  1  0.000000  0.348736  0.109558  1
