# generated using pymatgen
data_MgNi3(PdO4)2
_symmetry_space_group_name_H-M   'P 1'
_cell_length_a   6.06873097
_cell_length_b   6.03531732
_cell_length_c   6.04173050
_cell_angle_alpha   120.61992952
_cell_angle_beta   120.16089471
_cell_angle_gamma   59.86180041
_symmetry_Int_Tables_number   1
_chemical_formula_structural   MgNi3(PdO4)2
_chemical_formula_sum   'Mg1 Ni3 Pd2 O8'
_cell_volume   155.37886771
_cell_formula_units_Z   1
loop_
 _symmetry_equiv_pos_site_id
 _symmetry_equiv_pos_as_xyz
  1  'x, y, z'
loop_
 _atom_site_type_symbol
 _atom_site_label
 _atom_site_symmetry_multiplicity
 _atom_site_fract_x
 _atom_site_fract_y
 _atom_site_fract_z
 _atom_site_occupancy
  Mg  Mg0  1  0.500000  0.500000  0.500000  1
  Ni  Ni1  1  0.000000  0.500000  0.500000  1
  Ni  Ni2  1  0.999998  0.000001  0.999999  1
  Ni  Ni3  1  0.500002  0.000000  0.000002  1
  Pd  Pd4  1  0.500000  0.500000  0.000001  1
  Pd  Pd5  1  0.000001  0.499999  0.000000  1
  O  O6  1  0.249726  0.724623  0.223608  1
  O  O7  1  0.750072  0.723781  0.223483  1
  O  O8  1  0.249928  0.276218  0.776514  1
  O  O9  1  0.750273  0.275377  0.776391  1
  O  O10  1  0.236546  0.263221  0.236784  1
  O  O11  1  0.736598  0.263229  0.236771  1
  O  O12  1  0.263402  0.736771  0.763228  1
  O  O13  1  0.763453  0.736780  0.763215  1
