# generated using pymatgen
data_HoTm3Sc6(GaSi3)2
_symmetry_space_group_name_H-M   'P 1'
_cell_length_a   7.08984884
_cell_length_b   7.37533563
_cell_length_c   14.07402427
_cell_angle_alpha   90.04589822
_cell_angle_beta   89.86054522
_cell_angle_gamma   90.16909192
_symmetry_Int_Tables_number   1
_chemical_formula_structural   HoTm3Sc6(GaSi3)2
_chemical_formula_sum   'Ho2 Tm6 Sc12 Ga4 Si12'
_cell_volume   735.92531982
_cell_formula_units_Z   2
loop_
 _symmetry_equiv_pos_site_id
 _symmetry_equiv_pos_as_xyz
  1  'x, y, z'
loop_
 _atom_site_type_symbol
 _atom_site_label
 _atom_site_symmetry_multiplicity
 _atom_site_fract_x
 _atom_site_fract_y
 _atom_site_fract_z
 _atom_site_occupancy
  Ho  Ho0  1  0.013493  0.175210  0.096894  1
  Ho  Ho1  1  0.988154  0.824597  0.902089  1
  Tm  Tm2  1  0.487273  0.677508  0.901640  1
  Tm  Tm3  1  0.988056  0.826860  0.600290  1
  Tm  Tm4  1  0.510582  0.320811  0.097207  1
  Tm  Tm5  1  0.009486  0.175428  0.400516  1
  Tm  Tm6  1  0.510874  0.323970  0.400662  1
  Tm  Tm7  1  0.490462  0.676361  0.600435  1
  Sc  Sc8  1  0.162862  0.501498  0.751405  1
  Sc  Sc9  1  0.836513  0.497702  0.250144  1
  Sc  Sc10  1  0.336360  0.002791  0.248438  1
  Sc  Sc11  1  0.663345  0.997619  0.749929  1
  Sc  Sc12  1  0.333621  0.174506  0.627850  1
  Sc  Sc13  1  0.669063  0.826410  0.373662  1
  Sc  Sc14  1  0.170017  0.673475  0.372988  1
  Sc  Sc15  1  0.668467  0.826205  0.125636  1
  Sc  Sc16  1  0.829041  0.324840  0.626701  1
  Sc  Sc17  1  0.330708  0.175630  0.874565  1
  Sc  Sc18  1  0.829138  0.323601  0.874203  1
  Sc  Sc19  1  0.173281  0.675189  0.124532  1
  Ga  Ga20  1  0.162807  0.461814  0.539705  1
  Ga  Ga21  1  0.838154  0.537565  0.461383  1
  Ga  Ga22  1  0.338351  0.962345  0.461434  1
  Ga  Ga23  1  0.838545  0.537819  0.038689  1
  Si  Si24  1  0.032908  0.115157  0.751066  1
  Si  Si25  1  0.967237  0.884939  0.249296  1
  Si  Si26  1  0.467615  0.612895  0.248440  1
  Si  Si27  1  0.532815  0.387090  0.751260  1
  Si  Si28  1  0.286416  0.870060  0.750932  1
  Si  Si29  1  0.714294  0.129611  0.248843  1
  Si  Si30  1  0.214309  0.370531  0.248885  1
  Si  Si31  1  0.786231  0.630228  0.751287  1
  Si  Si32  1  0.659180  0.035832  0.539273  1
  Si  Si33  1  0.159414  0.463848  0.960775  1
  Si  Si34  1  0.656822  0.035919  0.961347  1
  Si  Si35  1  0.344108  0.964139  0.037600  1
