# generated using pymatgen
data_Hf18BeRe6AsW2
_symmetry_space_group_name_H-M   'P 1'
_cell_length_a   8.63739705
_cell_length_b   8.63739770
_cell_length_c   8.54942100
_cell_angle_alpha   90.00000000
_cell_angle_beta   90.00000000
_cell_angle_gamma   119.99729675
_symmetry_Int_Tables_number   1
_chemical_formula_structural   Hf18BeRe6AsW2
_chemical_formula_sum   'Hf18 Be1 Re6 As1 W2'
_cell_volume   552.38892831
_cell_formula_units_Z   1
loop_
 _symmetry_equiv_pos_site_id
 _symmetry_equiv_pos_as_xyz
  1  'x, y, z'
loop_
 _atom_site_type_symbol
 _atom_site_label
 _atom_site_symmetry_multiplicity
 _atom_site_fract_x
 _atom_site_fract_y
 _atom_site_fract_z
 _atom_site_occupancy
  Hf  Hf0  1  0.801022  0.602041  0.553450  1
  Hf  Hf1  1  0.800965  0.199035  0.553398  1
  Hf  Hf2  1  0.397959  0.198978  0.553450  1
  Hf  Hf3  1  0.193894  0.387860  0.453258  1
  Hf  Hf4  1  0.194000  0.806000  0.453309  1
  Hf  Hf5  1  0.612140  0.806106  0.453258  1
  Hf  Hf6  1  0.193894  0.387860  0.046742  1
  Hf  Hf7  1  0.194000  0.806000  0.046691  1
  Hf  Hf8  1  0.612140  0.806106  0.046742  1
  Hf  Hf9  1  0.801022  0.602041  0.946550  1
  Hf  Hf10  1  0.800965  0.199035  0.946602  1
  Hf  Hf11  1  0.397959  0.198978  0.946550  1
  Hf  Hf12  1  0.460309  0.920550  0.750000  1
  Hf  Hf13  1  0.460207  0.539793  0.750000  1
  Hf  Hf14  1  0.079450  0.539691  0.750000  1
  Hf  Hf15  1  0.541883  0.083846  0.250000  1
  Hf  Hf16  1  0.541932  0.458068  0.250000  1
  Hf  Hf17  1  0.916154  0.458117  0.250000  1
  Be  Be18  1  0.666647  0.333353  0.750000  1
  Re  Re19  1  0.110705  0.221431  0.750000  1
  Re  Re20  1  0.110760  0.889240  0.750000  1
  Re  Re21  1  0.778569  0.889295  0.750000  1
  Re  Re22  1  0.888878  0.777672  0.250000  1
  Re  Re23  1  0.888821  0.111179  0.250000  1
  Re  Re24  1  0.222328  0.111122  0.250000  1
  As  As25  1  0.333375  0.666625  0.250000  1
  W  W26  1  0.000009  0.999991  0.500675  1
  W  W27  1  0.000009  0.999991  0.999325  1
