# generated using pymatgen
data_TmZr(Al3Ir)3
_symmetry_space_group_name_H-M   'P 1'
_cell_length_a   7.51308201
_cell_length_b   7.49937635
_cell_length_c   9.34406000
_cell_angle_alpha   90.00000000
_cell_angle_beta   90.00000000
_cell_angle_gamma   119.75041014
_symmetry_Int_Tables_number   1
_chemical_formula_structural   TmZr(Al3Ir)3
_chemical_formula_sum   'Tm2 Zr2 Al18 Ir6'
_cell_volume   457.08430414
_cell_formula_units_Z   2
loop_
 _symmetry_equiv_pos_site_id
 _symmetry_equiv_pos_as_xyz
  1  'x, y, z'
loop_
 _atom_site_type_symbol
 _atom_site_label
 _atom_site_symmetry_multiplicity
 _atom_site_fract_x
 _atom_site_fract_y
 _atom_site_fract_z
 _atom_site_occupancy
  Tm  Tm0  1  0.670584  0.994512  0.250000  1
  Tm  Tm1  1  0.329416  0.005488  0.750000  1
  Zr  Zr2  1  0.995217  0.670674  0.250000  1
  Zr  Zr3  1  0.004783  0.329326  0.750000  1
  Al  Al4  1  0.125696  0.123826  0.250000  1
  Al  Al5  1  0.874304  0.876174  0.750000  1
  Al  Al6  1  0.999735  0.336641  0.075109  1
  Al  Al7  1  0.000265  0.663359  0.924891  1
  Al  Al8  1  0.000265  0.663359  0.575109  1
  Al  Al9  1  0.332464  0.998338  0.422464  1
  Al  Al10  1  0.999735  0.336641  0.424891  1
  Al  Al11  1  0.667536  0.001662  0.577536  1
  Al  Al12  1  0.667536  0.001662  0.922464  1
  Al  Al13  1  0.332464  0.998338  0.077536  1
  Al  Al14  1  0.331370  0.333304  0.556733  1
  Al  Al15  1  0.668630  0.666696  0.443267  1
  Al  Al16  1  0.668630  0.666696  0.056733  1
  Al  Al17  1  0.331370  0.333304  0.943267  1
  Al  Al18  1  0.335228  0.548494  0.250000  1
  Al  Al19  1  0.664772  0.451506  0.750000  1
  Al  Al20  1  0.553528  0.342855  0.250000  1
  Al  Al21  1  0.446472  0.657145  0.750000  1
  Ir  Ir22  1  0.671909  0.327160  0.999544  1
  Ir  Ir23  1  0.328091  0.672840  0.000456  1
  Ir  Ir24  1  0.328091  0.672840  0.499544  1
  Ir  Ir25  1  0.671909  0.327160  0.500456  1
  Ir  Ir26  1  0.000000  0.000000  0.000000  1
  Ir  Ir27  1  0.000000  0.000000  0.500000  1
