# generated using pymatgen
data_CdHg2Ru4PbO14
_symmetry_space_group_name_H-M   'P 1'
_cell_length_a   7.29987742
_cell_length_b   7.38823877
_cell_length_c   7.29987791
_cell_angle_alpha   59.92801034
_cell_angle_beta   59.59884510
_cell_angle_gamma   59.92801605
_symmetry_Int_Tables_number   1
_chemical_formula_structural   CdHg2Ru4PbO14
_chemical_formula_sum   'Cd1 Hg2 Ru4 Pb1 O14'
_cell_volume   277.23786913
_cell_formula_units_Z   1
loop_
 _symmetry_equiv_pos_site_id
 _symmetry_equiv_pos_as_xyz
  1  'x, y, z'
loop_
 _atom_site_type_symbol
 _atom_site_label
 _atom_site_symmetry_multiplicity
 _atom_site_fract_x
 _atom_site_fract_y
 _atom_site_fract_z
 _atom_site_occupancy
  Cd  Cd0  1  0.125000  0.125000  0.125000  1
  Hg  Hg1  1  0.125000  0.125000  0.625000  1
  Hg  Hg2  1  0.625000  0.125000  0.125000  1
  Ru  Ru3  1  0.625000  0.125000  0.625000  1
  Ru  Ru4  1  0.625000  0.625000  0.125000  1
  Ru  Ru5  1  0.125000  0.625000  0.625000  1
  Ru  Ru6  1  0.625000  0.625000  0.625000  1
  Pb  Pb7  1  0.125000  0.625000  0.125000  1
  O  O8  1  0.702775  0.686229  0.304927  1
  O  O9  1  0.945073  0.563771  0.547225  1
  O  O10  1  0.555486  0.939052  0.942843  1
  O  O11  1  0.942843  0.939052  0.555486  1
  O  O12  1  0.946927  0.558617  0.946927  1
  O  O13  1  0.561602  0.937117  0.561602  1
  O  O14  1  0.303073  0.691383  0.303073  1
  O  O15  1  0.304927  0.686229  0.702775  1
  O  O16  1  0.694514  0.310948  0.307157  1
  O  O17  1  0.688398  0.312883  0.688398  1
  O  O18  1  0.547225  0.563771  0.945073  1
  O  O19  1  0.307157  0.310948  0.694514  1
  O  O20  1  0.259870  0.224515  0.259870  1
  O  O21  1  0.990130  0.025485  0.990130  1
