# generated using pymatgen
data_Lu8Cr3TcC8
_symmetry_space_group_name_H-M   'P 1'
_cell_length_a   4.92559800
_cell_length_b   6.38969780
_cell_length_c   9.60924909
_cell_angle_alpha   89.68496661
_cell_angle_beta   90.00000000
_cell_angle_gamma   90.00000000
_symmetry_Int_Tables_number   1
_chemical_formula_structural   Lu8Cr3TcC8
_chemical_formula_sum   'Lu8 Cr3 Tc1 C8'
_cell_volume   302.42811969
_cell_formula_units_Z   1
loop_
 _symmetry_equiv_pos_site_id
 _symmetry_equiv_pos_as_xyz
  1  'x, y, z'
loop_
 _atom_site_type_symbol
 _atom_site_label
 _atom_site_symmetry_multiplicity
 _atom_site_fract_x
 _atom_site_fract_y
 _atom_site_fract_z
 _atom_site_occupancy
  Lu  Lu0  1  0.250000  0.821525  0.941709  1
  Lu  Lu1  1  0.250000  0.324507  0.560186  1
  Lu  Lu2  1  0.750000  0.175245  0.056136  1
  Lu  Lu3  1  0.750000  0.680194  0.442268  1
  Lu  Lu4  1  0.250000  0.463252  0.217134  1
  Lu  Lu5  1  0.250000  0.964123  0.282690  1
  Lu  Lu6  1  0.750000  0.536116  0.781359  1
  Lu  Lu7  1  0.750000  0.035729  0.720801  1
  Cr  Cr8  1  0.250000  0.277136  0.862526  1
  Cr  Cr9  1  0.250000  0.778526  0.636342  1
  Cr  Cr10  1  0.750000  0.719387  0.133595  1
  Tc  Tc11  1  0.750000  0.218304  0.366269  1
  C  C12  1  0.250000  0.046660  0.738879  1
  C  C13  1  0.250000  0.547928  0.761959  1
  C  C14  1  0.750000  0.943546  0.256328  1
  C  C15  1  0.750000  0.456575  0.234876  1
  C  C16  1  0.250000  0.685786  0.456973  1
  C  C17  1  0.250000  0.184783  0.042329  1
  C  C18  1  0.750000  0.324243  0.553545  1
  C  C19  1  0.750000  0.816438  0.954095  1
