# generated using pymatgen
data_Dy20Si4Bi7Pb
_symmetry_space_group_name_H-M   'P 1'
_cell_length_a   8.04881464
_cell_length_b   9.19245876
_cell_length_c   12.08352802
_cell_angle_alpha   89.96884355
_cell_angle_beta   90.03552142
_cell_angle_gamma   89.93622715
_symmetry_Int_Tables_number   1
_chemical_formula_structural   Dy20Si4Bi7Pb
_chemical_formula_sum   'Dy20 Si4 Bi7 Pb1'
_cell_volume   894.04000610
_cell_formula_units_Z   1
loop_
 _symmetry_equiv_pos_site_id
 _symmetry_equiv_pos_as_xyz
  1  'x, y, z'
loop_
 _atom_site_type_symbol
 _atom_site_label
 _atom_site_symmetry_multiplicity
 _atom_site_fract_x
 _atom_site_fract_y
 _atom_site_fract_z
 _atom_site_occupancy
  Dy  Dy0  1  0.821533  0.551946  0.064916  1
  Dy  Dy1  1  0.679606  0.948350  0.563223  1
  Dy  Dy2  1  0.179341  0.052516  0.936486  1
  Dy  Dy3  1  0.318041  0.449584  0.436602  1
  Dy  Dy4  1  0.179476  0.447273  0.936877  1
  Dy  Dy5  1  0.320480  0.051941  0.436926  1
  Dy  Dy6  1  0.820239  0.948139  0.063351  1
  Dy  Dy7  1  0.680066  0.551749  0.563292  1
  Dy  Dy8  1  0.164431  0.748265  0.212980  1
  Dy  Dy9  1  0.334020  0.749856  0.711747  1
  Dy  Dy10  1  0.834230  0.250075  0.787873  1
  Dy  Dy11  1  0.668152  0.251599  0.287813  1
  Dy  Dy12  1  0.459184  0.750097  0.001669  1
  Dy  Dy13  1  0.038312  0.747090  0.499742  1
  Dy  Dy14  1  0.539697  0.249877  0.998367  1
  Dy  Dy15  1  0.959540  0.253316  0.497116  1
  Dy  Dy16  1  0.640155  0.747631  0.295248  1
  Dy  Dy17  1  0.863614  0.750167  0.795303  1
  Dy  Dy18  1  0.363171  0.250097  0.704880  1
  Dy  Dy19  1  0.134361  0.251613  0.205754  1
  Si  Si20  1  0.414243  0.750472  0.479068  1
  Si  Si21  1  0.086670  0.750290  0.979529  1
  Si  Si22  1  0.585288  0.249908  0.520629  1
  Si  Si23  1  0.913361  0.249564  0.020005  1
  Bi  Bi24  1  0.567563  0.988842  0.825815  1
  Bi  Bi25  1  0.067356  0.010565  0.673237  1
  Bi  Bi26  1  0.432821  0.489007  0.173918  1
  Bi  Bi27  1  0.067694  0.489315  0.675195  1
  Bi  Bi28  1  0.432774  0.010862  0.174614  1
  Bi  Bi29  1  0.932618  0.989673  0.326130  1
  Bi  Bi30  1  0.567656  0.510925  0.826083  1
  Pb  Pb31  1  0.934308  0.509397  0.325608  1
