# generated using pymatgen
data_Na3Ca2OsO6
_symmetry_space_group_name_H-M   'P 1'
_cell_length_a   10.90297087
_cell_length_b   10.35899924
_cell_length_c   5.79853113
_cell_angle_alpha   79.42026080
_cell_angle_beta   69.06019055
_cell_angle_gamma   31.51955063
_symmetry_Int_Tables_number   1
_chemical_formula_structural   Na3Ca2OsO6
_chemical_formula_sum   'Na6 Ca4 Os2 O12'
_cell_volume   309.78351446
_cell_formula_units_Z   2
loop_
 _symmetry_equiv_pos_site_id
 _symmetry_equiv_pos_as_xyz
  1  'x, y, z'
loop_
 _atom_site_type_symbol
 _atom_site_label
 _atom_site_symmetry_multiplicity
 _atom_site_fract_x
 _atom_site_fract_y
 _atom_site_fract_z
 _atom_site_occupancy
  Na  Na0  1  0.000000  0.000000  0.000000  1
  Na  Na1  1  0.086089  0.086089  0.413911  1
  Na  Na2  1  0.836089  0.836089  0.163911  1
  Na  Na3  1  0.163911  0.163911  0.836089  1
  Na  Na4  1  0.250000  0.250000  0.250000  1
  Na  Na5  1  0.413911  0.413911  0.086089  1
  Ca  Ca6  1  0.580450  0.580450  0.919550  1
  Ca  Ca7  1  0.919550  0.919550  0.580450  1
  Ca  Ca8  1  0.669550  0.669550  0.330450  1
  Ca  Ca9  1  0.330450  0.330450  0.669550  1
  Os  Os10  1  0.750000  0.750000  0.750000  1
  Os  Os11  1  0.500000  0.500000  0.500000  1
  O  O12  1  0.287293  0.712707  0.287293  1
  O  O13  1  0.712707  0.287293  0.712707  1
  O  O14  1  0.962707  0.537293  0.962707  1
  O  O15  1  0.537293  0.962707  0.537293  1
  O  O16  1  0.207878  0.645009  0.787241  1
  O  O17  1  0.359872  0.787241  0.645009  1
  O  O18  1  0.787241  0.359872  0.207878  1
  O  O19  1  0.645009  0.207878  0.359872  1
  O  O20  1  0.604991  0.042122  0.890128  1
  O  O21  1  0.890128  0.462759  0.604991  1
  O  O22  1  0.462759  0.890128  0.042122  1
  O  O23  1  0.042122  0.604991  0.462759  1
