# generated using pymatgen
data_Hf18Re5Ni2Mo3
_symmetry_space_group_name_H-M   'P 1'
_cell_length_a   8.64686724
_cell_length_b   8.64686827
_cell_length_c   8.44297900
_cell_angle_alpha   90.00000000
_cell_angle_beta   90.00000000
_cell_angle_gamma   120.01985641
_symmetry_Int_Tables_number   1
_chemical_formula_structural   Hf18Re5Ni2Mo3
_chemical_formula_sum   'Hf18 Re5 Ni2 Mo3'
_cell_volume   546.58416226
_cell_formula_units_Z   1
loop_
 _symmetry_equiv_pos_site_id
 _symmetry_equiv_pos_as_xyz
  1  'x, y, z'
loop_
 _atom_site_type_symbol
 _atom_site_label
 _atom_site_symmetry_multiplicity
 _atom_site_fract_x
 _atom_site_fract_y
 _atom_site_fract_z
 _atom_site_occupancy
  Hf  Hf0  1  0.198645  0.801355  0.442743  1
  Hf  Hf1  1  0.199740  0.398766  0.444165  1
  Hf  Hf2  1  0.601234  0.800260  0.444165  1
  Hf  Hf3  1  0.801162  0.198838  0.558196  1
  Hf  Hf4  1  0.801447  0.602723  0.557396  1
  Hf  Hf5  1  0.397277  0.198553  0.557396  1
  Hf  Hf6  1  0.801162  0.198838  0.941804  1
  Hf  Hf7  1  0.801447  0.602723  0.942604  1
  Hf  Hf8  1  0.397277  0.198553  0.942604  1
  Hf  Hf9  1  0.198645  0.801355  0.057257  1
  Hf  Hf10  1  0.199740  0.398766  0.055835  1
  Hf  Hf11  1  0.601234  0.800260  0.055835  1
  Hf  Hf12  1  0.541429  0.458571  0.250000  1
  Hf  Hf13  1  0.540424  0.082723  0.250000  1
  Hf  Hf14  1  0.917277  0.459576  0.250000  1
  Hf  Hf15  1  0.458471  0.541529  0.750000  1
  Hf  Hf16  1  0.457931  0.916973  0.750000  1
  Hf  Hf17  1  0.083027  0.542069  0.750000  1
  Re  Re18  1  0.888874  0.775937  0.250000  1
  Re  Re19  1  0.224063  0.111126  0.250000  1
  Re  Re20  1  0.110967  0.889033  0.750000  1
  Re  Re21  1  0.111639  0.222861  0.750000  1
  Re  Re22  1  0.777139  0.888361  0.750000  1
  Ni  Ni23  1  0.333487  0.666513  0.250000  1
  Ni  Ni24  1  0.666105  0.333895  0.750000  1
  Mo  Mo25  1  0.889841  0.110159  0.250000  1
  Mo  Mo26  1  0.000157  0.999843  0.499215  1
  Mo  Mo27  1  0.000157  0.999843  0.000785  1
