# generated using pymatgen
data_Y10Th2Ir3Rh
_symmetry_space_group_name_H-M   'P 1'
_cell_length_a   6.40899436
_cell_length_b   7.18873685
_cell_length_c   9.62231400
_cell_angle_alpha   90.00000000
_cell_angle_beta   90.00000000
_cell_angle_gamma   88.85404812
_symmetry_Int_Tables_number   1
_chemical_formula_structural   Y10Th2Ir3Rh
_chemical_formula_sum   'Y10 Th2 Ir3 Rh1'
_cell_volume   443.23610599
_cell_formula_units_Z   1
loop_
 _symmetry_equiv_pos_site_id
 _symmetry_equiv_pos_as_xyz
  1  'x, y, z'
loop_
 _atom_site_type_symbol
 _atom_site_label
 _atom_site_symmetry_multiplicity
 _atom_site_fract_x
 _atom_site_fract_y
 _atom_site_fract_z
 _atom_site_occupancy
  Y  Y0  1  0.139462  0.465367  0.750000  1
  Y  Y1  1  0.859940  0.533928  0.250000  1
  Y  Y2  1  0.170004  0.177217  0.063722  1
  Y  Y3  1  0.829488  0.823324  0.935000  1
  Y  Y4  1  0.670504  0.324168  0.934262  1
  Y  Y5  1  0.829488  0.823324  0.565000  1
  Y  Y6  1  0.331160  0.674866  0.065501  1
  Y  Y7  1  0.170004  0.177217  0.436278  1
  Y  Y8  1  0.331160  0.674866  0.434499  1
  Y  Y9  1  0.670504  0.324168  0.565738  1
  Th  Th10  1  0.653397  0.042532  0.250000  1
  Th  Th11  1  0.347662  0.957628  0.750000  1
  Ir  Ir12  1  0.450562  0.372966  0.250000  1
  Ir  Ir13  1  0.548767  0.626457  0.750000  1
  Ir  Ir14  1  0.952264  0.118932  0.750000  1
  Rh  Rh15  1  0.045633  0.883040  0.250000  1
