# generated using pymatgen
data_Zr5Mn14Co2(TcP4)3
_symmetry_space_group_name_H-M   'P 1'
_cell_length_a   12.06351531
_cell_length_b   12.13199753
_cell_length_c   3.66523100
_cell_angle_alpha   90.00000000
_cell_angle_beta   90.00000000
_cell_angle_gamma   119.68003793
_symmetry_Int_Tables_number   1
_chemical_formula_structural   Zr5Mn14Co2(TcP4)3
_chemical_formula_sum   'Zr5 Mn14 Co2 Tc3 P12'
_cell_volume   466.04665651
_cell_formula_units_Z   1
loop_
 _symmetry_equiv_pos_site_id
 _symmetry_equiv_pos_as_xyz
  1  'x, y, z'
loop_
 _atom_site_type_symbol
 _atom_site_label
 _atom_site_symmetry_multiplicity
 _atom_site_fract_x
 _atom_site_fract_y
 _atom_site_fract_z
 _atom_site_occupancy
  Zr  Zr0  1  0.667524  0.335040  0.000000  1
  Zr  Zr1  1  0.336319  0.666747  0.000000  1
  Zr  Zr2  1  0.821095  0.824482  0.500000  1
  Zr  Zr3  1  0.177364  0.999476  0.500000  1
  Zr  Zr4  1  0.997840  0.176739  0.500000  1
  Mn  Mn5  1  0.200191  0.375999  0.000000  1
  Mn  Mn6  1  0.176743  0.799389  0.000000  1
  Mn  Mn7  1  0.822859  0.624578  0.000000  1
  Mn  Mn8  1  0.799199  0.177536  0.000000  1
  Mn  Mn9  1  0.376600  0.200072  0.000000  1
  Mn  Mn10  1  0.126433  0.471034  0.500000  1
  Mn  Mn11  1  0.346604  0.872720  0.500000  1
  Mn  Mn12  1  0.526349  0.652266  0.500000  1
  Mn  Mn13  1  0.654489  0.530116  0.500000  1
  Mn  Mn14  1  0.873180  0.345952  0.500000  1
  Mn  Mn15  1  0.471624  0.126379  0.500000  1
  Mn  Mn16  1  0.716949  0.999504  0.500000  1
  Mn  Mn17  1  0.000243  0.719180  0.500000  1
  Mn  Mn18  1  0.281415  0.281179  0.500000  1
  Co  Co19  1  0.997761  0.999480  0.000000  1
  Co  Co20  1  0.625652  0.823084  0.000000  1
  Tc  Tc21  1  0.453152  0.452642  0.000000  1
  Tc  Tc22  1  0.548326  0.998276  0.000000  1
  Tc  Tc23  1  0.000888  0.548459  0.000000  1
  P  P24  1  0.647591  0.651068  0.000000  1
  P  P25  1  0.351762  0.999541  0.000000  1
  P  P26  1  0.999106  0.350887  0.000000  1
  P  P27  1  0.488147  0.326398  0.500000  1
  P  P28  1  0.675615  0.161344  0.500000  1
  P  P29  1  0.839451  0.514172  0.500000  1
  P  P30  1  0.518317  0.837265  0.500000  1
  P  P31  1  0.162191  0.673705  0.500000  1
  P  P32  1  0.820754  0.999374  0.000000  1
  P  P33  1  0.999343  0.825390  0.000000  1
  P  P34  1  0.325948  0.486979  0.500000  1
  P  P35  1  0.172975  0.173550  0.000000  1
