# generated using pymatgen
data_Hf2Zr8ZnSnPb6
_symmetry_space_group_name_H-M   'P 1'
_cell_length_a   8.88000100
_cell_length_b   8.88000122
_cell_length_c   6.00909400
_cell_angle_alpha   90.00000000
_cell_angle_beta   90.00000000
_cell_angle_gamma   119.99999544
_symmetry_Int_Tables_number   1
_chemical_formula_structural   Hf2Zr8ZnSnPb6
_chemical_formula_sum   'Hf2 Zr8 Zn1 Sn1 Pb6'
_cell_volume   410.36063176
_cell_formula_units_Z   1
loop_
 _symmetry_equiv_pos_site_id
 _symmetry_equiv_pos_as_xyz
  1  'x, y, z'
loop_
 _atom_site_type_symbol
 _atom_site_label
 _atom_site_symmetry_multiplicity
 _atom_site_fract_x
 _atom_site_fract_y
 _atom_site_fract_z
 _atom_site_occupancy
  Hf  Hf0  1  0.333333  0.666667  0.000000  1
  Hf  Hf1  1  0.666667  0.333333  0.500000  1
  Zr  Zr2  1  0.666667  0.333333  0.000000  1
  Zr  Zr3  1  0.333333  0.666667  0.500000  1
  Zr  Zr4  1  0.271048  0.000022  0.261211  1
  Zr  Zr5  1  0.271048  0.271026  0.738789  1
  Zr  Zr6  1  0.999978  0.728952  0.738789  1
  Zr  Zr7  1  0.999978  0.271026  0.261211  1
  Zr  Zr8  1  0.728974  0.728952  0.261211  1
  Zr  Zr9  1  0.728974  0.000022  0.738789  1
  Zn  Zn10  1  0.000000  0.000000  0.500000  1
  Sn  Sn11  1  0.000000  0.000000  0.000000  1
  Pb  Pb12  1  0.614271  0.999951  0.247502  1
  Pb  Pb13  1  0.614271  0.614320  0.752498  1
  Pb  Pb14  1  0.000049  0.385729  0.752498  1
  Pb  Pb15  1  0.000049  0.614320  0.247502  1
  Pb  Pb16  1  0.385680  0.385729  0.247502  1
  Pb  Pb17  1  0.385680  0.999951  0.752498  1
