# generated using pymatgen
data_Ta3AlZn2C
_symmetry_space_group_name_H-M   'P 1'
_cell_length_a   8.31846437
_cell_length_b   8.31846506
_cell_length_c   8.31846400
_cell_angle_alpha   59.99999626
_cell_angle_beta   59.99999354
_cell_angle_gamma   59.99999612
_symmetry_Int_Tables_number   1
_chemical_formula_structural   Ta3AlZn2C
_chemical_formula_sum   'Ta12 Al4 Zn8 C4'
_cell_volume   407.01878659
_cell_formula_units_Z   4
loop_
 _symmetry_equiv_pos_site_id
 _symmetry_equiv_pos_as_xyz
  1  'x, y, z'
loop_
 _atom_site_type_symbol
 _atom_site_label
 _atom_site_symmetry_multiplicity
 _atom_site_fract_x
 _atom_site_fract_y
 _atom_site_fract_z
 _atom_site_occupancy
  Ta  Ta0  1  0.817996  0.182004  0.817996  1
  Ta  Ta1  1  0.067996  0.432004  0.432004  1
  Ta  Ta2  1  0.432004  0.067996  0.067996  1
  Ta  Ta3  1  0.067996  0.432004  0.067996  1
  Ta  Ta4  1  0.432004  0.432004  0.067996  1
  Ta  Ta5  1  0.067996  0.067996  0.432004  1
  Ta  Ta6  1  0.817996  0.817996  0.182004  1
  Ta  Ta7  1  0.182004  0.817996  0.817996  1
  Ta  Ta8  1  0.817996  0.182004  0.182004  1
  Ta  Ta9  1  0.182004  0.182004  0.817996  1
  Ta  Ta10  1  0.432004  0.067996  0.432004  1
  Ta  Ta11  1  0.182004  0.817996  0.182004  1
  Al  Al12  1  0.625000  0.625000  0.625000  1
  Al  Al13  1  0.125000  0.625000  0.625000  1
  Al  Al14  1  0.625000  0.125000  0.625000  1
  Al  Al15  1  0.625000  0.625000  0.125000  1
  Zn  Zn16  1  0.416231  0.416231  0.416231  1
  Zn  Zn17  1  0.498694  0.833769  0.833769  1
  Zn  Zn18  1  0.833769  0.498694  0.833769  1
  Zn  Zn19  1  0.833769  0.833769  0.498694  1
  Zn  Zn20  1  0.416231  0.751306  0.416231  1
  Zn  Zn21  1  0.416231  0.416231  0.751306  1
  Zn  Zn22  1  0.751306  0.416231  0.416231  1
  Zn  Zn23  1  0.833769  0.833769  0.833769  1
  C  C24  1  0.125000  0.125000  0.125000  1
  C  C25  1  0.625000  0.125000  0.125000  1
  C  C26  1  0.125000  0.625000  0.125000  1
  C  C27  1  0.125000  0.125000  0.625000  1
