# generated using pymatgen
data_PrNd5Al24Os5Rh3
_symmetry_space_group_name_H-M   'P 1'
_cell_length_a   8.87255702
_cell_length_b   8.88855427
_cell_length_c   9.69683256
_cell_angle_alpha   90.01455864
_cell_angle_beta   89.91692080
_cell_angle_gamma   119.44340066
_symmetry_Int_Tables_number   1
_chemical_formula_structural   PrNd5Al24Os5Rh3
_chemical_formula_sum   'Pr1 Nd5 Al24 Os5 Rh3'
_cell_volume   665.96058933
_cell_formula_units_Z   1
loop_
 _symmetry_equiv_pos_site_id
 _symmetry_equiv_pos_as_xyz
  1  'x, y, z'
loop_
 _atom_site_type_symbol
 _atom_site_label
 _atom_site_symmetry_multiplicity
 _atom_site_fract_x
 _atom_site_fract_y
 _atom_site_fract_z
 _atom_site_occupancy
  Pr  Pr0  1  0.186571  0.380635  0.250559  1
  Nd  Nd1  1  0.813373  0.619116  0.749348  1
  Nd  Nd2  1  0.616996  0.814291  0.251304  1
  Nd  Nd3  1  0.383101  0.185784  0.748702  1
  Nd  Nd4  1  0.193873  0.810207  0.250589  1
  Nd  Nd5  1  0.806193  0.189958  0.749416  1
  Al  Al6  1  0.334269  0.668364  0.017641  1
  Al  Al7  1  0.665908  0.331966  0.982023  1
  Al  Al8  1  0.667797  0.332870  0.517746  1
  Al  Al9  1  0.332335  0.667450  0.482578  1
  Al  Al10  1  0.161474  0.326092  0.575166  1
  Al  Al11  1  0.838489  0.673891  0.425227  1
  Al  Al12  1  0.673346  0.837574  0.574815  1
  Al  Al13  1  0.836448  0.674297  0.075890  1
  Al  Al14  1  0.326767  0.162224  0.425362  1
  Al  Al15  1  0.163557  0.325662  0.923724  1
  Al  Al16  1  0.163656  0.834893  0.573975  1
  Al  Al17  1  0.326507  0.161757  0.074618  1
  Al  Al18  1  0.835997  0.164918  0.426220  1
  Al  Al19  1  0.673602  0.838028  0.925199  1
  Al  Al20  1  0.833456  0.161809  0.074864  1
  Al  Al21  1  0.166223  0.837981  0.924974  1
  Al  Al22  1  0.562047  0.127370  0.249643  1
  Al  Al23  1  0.437967  0.872626  0.750364  1
  Al  Al24  1  0.873755  0.438776  0.250564  1
  Al  Al25  1  0.125829  0.561324  0.749484  1
  Al  Al26  1  0.562287  0.438729  0.249596  1
  Al  Al27  1  0.438234  0.561364  0.750390  1
  Al  Al28  1  0.998781  0.000916  0.250150  1
  Al  Al29  1  0.000960  0.998592  0.749857  1
  Os  Os30  1  0.500048  0.000115  0.999937  1
  Os  Os31  1  0.500052  0.000113  0.500075  1
  Os  Os32  1  0.999835  0.500125  0.500203  1
  Os  Os33  1  0.999933  0.999875  0.999926  1
  Os  Os34  1  0.999931  0.999893  0.500080  1
  Rh  Rh35  1  0.999840  0.500137  0.999811  1
  Rh  Rh36  1  0.500290  0.500137  0.999818  1
  Rh  Rh37  1  0.500274  0.500141  0.500164  1
