# generated using pymatgen
data_TmTaB2SbRu5
_symmetry_space_group_name_H-M   'P 1'
_cell_length_a   9.56372020
_cell_length_b   9.56372139
_cell_length_c   3.10172000
_cell_angle_alpha   90.00000000
_cell_angle_beta   90.00000000
_cell_angle_gamma   91.15879272
_symmetry_Int_Tables_number   1
_chemical_formula_structural   TmTaB2SbRu5
_chemical_formula_sum   'Tm2 Ta2 B4 Sb2 Ru10'
_cell_volume   283.64004120
_cell_formula_units_Z   2
loop_
 _symmetry_equiv_pos_site_id
 _symmetry_equiv_pos_as_xyz
  1  'x, y, z'
loop_
 _atom_site_type_symbol
 _atom_site_label
 _atom_site_symmetry_multiplicity
 _atom_site_fract_x
 _atom_site_fract_y
 _atom_site_fract_z
 _atom_site_occupancy
  Tm  Tm0  1  0.824264  0.675736  0.000000  1
  Tm  Tm1  1  0.175736  0.324264  0.000000  1
  Ta  Ta2  1  0.325628  0.825628  0.000000  1
  Ta  Ta3  1  0.674372  0.174372  0.000000  1
  B  B4  1  0.620493  0.879507  0.000000  1
  B  B5  1  0.379507  0.120493  0.000000  1
  B  B6  1  0.121429  0.621429  0.000000  1
  B  B7  1  0.878571  0.378571  0.000000  1
  Sb  Sb8  1  0.500000  0.500000  0.000000  1
  Sb  Sb9  1  0.000000  0.000000  0.000000  1
  Ru  Ru10  1  0.557323  0.726143  0.500000  1
  Ru  Ru11  1  0.442677  0.273857  0.500000  1
  Ru  Ru12  1  0.083889  0.784194  0.500000  1
  Ru  Ru13  1  0.916111  0.215806  0.500000  1
  Ru  Ru14  1  0.284194  0.583889  0.500000  1
  Ru  Ru15  1  0.715806  0.416111  0.500000  1
  Ru  Ru16  1  0.226143  0.057323  0.500000  1
  Ru  Ru17  1  0.773857  0.942677  0.500000  1
  Ru  Ru18  1  0.500000  0.000000  0.500000  1
  Ru  Ru19  1  0.000000  0.500000  0.500000  1
