# generated using pymatgen
data_Y4MnTc6Os
_symmetry_space_group_name_H-M   'P 1'
_cell_length_a   5.29936700
_cell_length_b   5.29936773
_cell_length_c   9.09847300
_cell_angle_alpha   90.00000000
_cell_angle_beta   90.00000000
_cell_angle_gamma   120.00000169
_symmetry_Int_Tables_number   1
_chemical_formula_structural   Y4MnTc6Os
_chemical_formula_sum   'Y4 Mn1 Tc6 Os1'
_cell_volume   221.28256083
_cell_formula_units_Z   1
loop_
 _symmetry_equiv_pos_site_id
 _symmetry_equiv_pos_as_xyz
  1  'x, y, z'
loop_
 _atom_site_type_symbol
 _atom_site_label
 _atom_site_symmetry_multiplicity
 _atom_site_fract_x
 _atom_site_fract_y
 _atom_site_fract_z
 _atom_site_occupancy
  Y  Y0  1  0.333333  0.666667  0.435299  1
  Y  Y1  1  0.666667  0.333333  0.564701  1
  Y  Y2  1  0.666667  0.333333  0.936862  1
  Y  Y3  1  0.333333  0.666667  0.063138  1
  Mn  Mn4  1  0.000000  0.000000  0.500000  1
  Tc  Tc5  1  0.830928  0.169072  0.251977  1
  Tc  Tc6  1  0.830928  0.661858  0.251977  1
  Tc  Tc7  1  0.338142  0.169072  0.251977  1
  Tc  Tc8  1  0.169072  0.830928  0.748023  1
  Tc  Tc9  1  0.169072  0.338142  0.748023  1
  Tc  Tc10  1  0.661858  0.830928  0.748023  1
  Os  Os11  1  0.000000  0.000000  0.000000  1
