# generated using pymatgen
data_Ho6Tm10MgCd2HgPt4
_symmetry_space_group_name_H-M   'P 1'
_cell_length_a   9.59822847
_cell_length_b   9.59822827
_cell_length_c   9.59822900
_cell_angle_alpha   59.93552461
_cell_angle_beta   59.93552530
_cell_angle_gamma   59.93552125
_symmetry_Int_Tables_number   1
_chemical_formula_structural   Ho6Tm10MgCd2HgPt4
_chemical_formula_sum   'Ho6 Tm10 Mg1 Cd2 Hg1 Pt4'
_cell_volume   624.34218044
_cell_formula_units_Z   1
loop_
 _symmetry_equiv_pos_site_id
 _symmetry_equiv_pos_as_xyz
  1  'x, y, z'
loop_
 _atom_site_type_symbol
 _atom_site_label
 _atom_site_symmetry_multiplicity
 _atom_site_fract_x
 _atom_site_fract_y
 _atom_site_fract_z
 _atom_site_occupancy
  Ho  Ho0  1  0.185003  0.815957  0.816213  1
  Ho  Ho1  1  0.812692  0.186312  0.189062  1
  Ho  Ho2  1  0.815957  0.185003  0.816213  1
  Ho  Ho3  1  0.186312  0.812692  0.189062  1
  Ho  Ho4  1  0.815479  0.815479  0.186983  1
  Ho  Ho5  1  0.187505  0.187505  0.813043  1
  Tm  Tm6  1  0.600294  0.600294  0.600179  1
  Tm  Tm7  1  0.603450  0.603450  0.192901  1
  Tm  Tm8  1  0.603964  0.191852  0.603540  1
  Tm  Tm9  1  0.191852  0.603964  0.603540  1
  Tm  Tm10  1  0.059830  0.440784  0.441071  1
  Tm  Tm11  1  0.438227  0.062389  0.062381  1
  Tm  Tm12  1  0.440784  0.059830  0.441071  1
  Tm  Tm13  1  0.062389  0.438227  0.062381  1
  Tm  Tm14  1  0.440412  0.440412  0.060369  1
  Tm  Tm15  1  0.062223  0.062223  0.438772  1
  Mg  Mg16  1  0.826495  0.826495  0.825748  1
  Cd  Cd17  1  0.830739  0.503457  0.831425  1
  Cd  Cd18  1  0.503457  0.830739  0.831425  1
  Hg  Hg19  1  0.834195  0.834195  0.496176  1
  Pt  Pt20  1  0.393870  0.393870  0.393995  1
  Pt  Pt21  1  0.391769  0.391769  0.821071  1
  Pt  Pt22  1  0.391763  0.821337  0.391690  1
  Pt  Pt23  1  0.821337  0.391763  0.391690  1
