# generated using pymatgen
data_Dy2Ho2Ga16Ir3
_symmetry_space_group_name_H-M   'P 1'
_cell_length_a   6.14938700
_cell_length_b   6.14938700
_cell_length_c   11.18532100
_cell_angle_alpha   90.00000000
_cell_angle_beta   90.00000000
_cell_angle_gamma   90.00000000
_symmetry_Int_Tables_number   1
_chemical_formula_structural   Dy2Ho2Ga16Ir3
_chemical_formula_sum   'Dy2 Ho2 Ga16 Ir3'
_cell_volume   422.97247152
_cell_formula_units_Z   1
loop_
 _symmetry_equiv_pos_site_id
 _symmetry_equiv_pos_as_xyz
  1  'x, y, z'
loop_
 _atom_site_type_symbol
 _atom_site_label
 _atom_site_symmetry_multiplicity
 _atom_site_fract_x
 _atom_site_fract_y
 _atom_site_fract_z
 _atom_site_occupancy
  Dy  Dy0  1  0.500000  0.000000  0.194046  1
  Dy  Dy1  1  0.000000  0.500000  0.194046  1
  Ho  Ho2  1  0.500000  0.000000  0.805942  1
  Ho  Ho3  1  0.000000  0.500000  0.805942  1
  Ga  Ga4  1  0.248718  0.248718  0.620719  1
  Ga  Ga5  1  0.751282  0.751282  0.620719  1
  Ga  Ga6  1  0.751282  0.248718  0.620719  1
  Ga  Ga7  1  0.248718  0.751282  0.620719  1
  Ga  Ga8  1  0.751281  0.751281  0.379295  1
  Ga  Ga9  1  0.248719  0.248719  0.379295  1
  Ga  Ga10  1  0.248719  0.751281  0.379295  1
  Ga  Ga11  1  0.751281  0.248719  0.379295  1
  Ga  Ga12  1  0.288340  0.288340  0.999988  1
  Ga  Ga13  1  0.711660  0.711660  0.999988  1
  Ga  Ga14  1  0.711660  0.288340  0.999988  1
  Ga  Ga15  1  0.288340  0.711660  0.999988  1
  Ga  Ga16  1  0.500000  0.500000  0.803581  1
  Ga  Ga17  1  0.500000  0.500000  0.196421  1
  Ga  Ga18  1  0.000000  0.000000  0.775442  1
  Ga  Ga19  1  0.000000  0.000000  0.224562  1
  Ir  Ir20  1  0.500000  0.000000  0.500005  1
  Ir  Ir21  1  0.000000  0.500000  0.500005  1
  Ir  Ir22  1  0.000000  0.000000  0.000004  1
