# generated using pymatgen
data_Tb2Yb3Y(MnC3)4
_symmetry_space_group_name_H-M   'P 1'
_cell_length_a   8.07727503
_cell_length_b   8.08090443
_cell_length_c   4.98430400
_cell_angle_alpha   90.00000000
_cell_angle_beta   90.00000000
_cell_angle_gamma   120.16109960
_symmetry_Int_Tables_number   1
_chemical_formula_structural   Tb2Yb3Y(MnC3)4
_chemical_formula_sum   'Tb2 Yb3 Y1 Mn4 C12'
_cell_volume   281.28896411
_cell_formula_units_Z   1
loop_
 _symmetry_equiv_pos_site_id
 _symmetry_equiv_pos_as_xyz
  1  'x, y, z'
loop_
 _atom_site_type_symbol
 _atom_site_label
 _atom_site_symmetry_multiplicity
 _atom_site_fract_x
 _atom_site_fract_y
 _atom_site_fract_z
 _atom_site_occupancy
  Tb  Tb0  1  0.068641  0.385040  0.750000  1
  Tb  Tb1  1  0.384024  0.315683  0.250000  1
  Yb  Yb2  1  0.613740  0.686406  0.750000  1
  Yb  Yb3  1  0.926376  0.614724  0.250000  1
  Yb  Yb4  1  0.683197  0.071857  0.250000  1
  Y  Y5  1  0.312656  0.931958  0.750000  1
  Mn  Mn6  1  0.996394  0.997712  0.501393  1
  Mn  Mn7  1  0.996394  0.997712  0.998607  1
  Mn  Mn8  1  0.667641  0.330786  0.750000  1
  Mn  Mn9  1  0.332289  0.663323  0.250000  1
  C  C10  1  0.957617  0.771966  0.750000  1
  C  C11  1  0.194600  0.963474  0.250000  1
  C  C12  1  0.774213  0.819481  0.250000  1
  C  C13  1  0.229003  0.192552  0.750000  1
  C  C14  1  0.821240  0.044031  0.750000  1
  C  C15  1  0.040089  0.222757  0.250000  1
  C  C16  1  0.858273  0.578171  0.750000  1
  C  C17  1  0.279181  0.854780  0.250000  1
  C  C18  1  0.581421  0.721565  0.250000  1
  C  C19  1  0.424269  0.281628  0.750000  1
  C  C20  1  0.138131  0.417053  0.250000  1
  C  C21  1  0.720609  0.137341  0.750000  1
