# generated using pymatgen
data_PrDyHo6(CdPt)2
_symmetry_space_group_name_H-M   'P 1'
_cell_length_a   9.70975022
_cell_length_b   9.70908176
_cell_length_c   9.68622602
_cell_angle_alpha   60.08240371
_cell_angle_beta   60.07554842
_cell_angle_gamma   59.84204154
_symmetry_Int_Tables_number   1
_chemical_formula_structural   PrDyHo6(CdPt)2
_chemical_formula_sum   'Pr2 Dy2 Ho12 Cd4 Pt4'
_cell_volume   645.68522682
_cell_formula_units_Z   2
loop_
 _symmetry_equiv_pos_site_id
 _symmetry_equiv_pos_as_xyz
  1  'x, y, z'
loop_
 _atom_site_type_symbol
 _atom_site_label
 _atom_site_symmetry_multiplicity
 _atom_site_fract_x
 _atom_site_fract_y
 _atom_site_fract_z
 _atom_site_occupancy
  Pr  Pr0  1  0.568325  0.568325  0.931675  1
  Pr  Pr1  1  0.931675  0.931675  0.568325  1
  Dy  Dy2  1  0.560918  0.939082  0.560918  1
  Dy  Dy3  1  0.939082  0.560918  0.939082  1
  Ho  Ho4  1  0.351715  0.351859  0.350827  1
  Ho  Ho5  1  0.351859  0.351715  0.945598  1
  Ho  Ho6  1  0.350827  0.945598  0.351715  1
  Ho  Ho7  1  0.945598  0.350827  0.351859  1
  Ho  Ho8  1  0.810820  0.189180  0.189180  1
  Ho  Ho9  1  0.189180  0.810820  0.810820  1
  Ho  Ho10  1  0.189200  0.810800  0.189200  1
  Ho  Ho11  1  0.810800  0.189200  0.810800  1
  Ho  Ho12  1  0.189365  0.189365  0.810635  1
  Ho  Ho13  1  0.810635  0.810635  0.189365  1
  Ho  Ho14  1  0.939278  0.560722  0.560722  1
  Ho  Ho15  1  0.560722  0.939278  0.939278  1
  Cd  Cd16  1  0.583000  0.582878  0.577380  1
  Cd  Cd17  1  0.582878  0.583000  0.256739  1
  Cd  Cd18  1  0.577380  0.256739  0.583000  1
  Cd  Cd19  1  0.256739  0.577380  0.582878  1
  Pt  Pt20  1  0.144724  0.144610  0.140003  1
  Pt  Pt21  1  0.144610  0.144724  0.570663  1
  Pt  Pt22  1  0.140003  0.570663  0.144724  1
  Pt  Pt23  1  0.570663  0.140003  0.144610  1
