# generated using pymatgen
data_Yb7DyBi6
_symmetry_space_group_name_H-M   'P 1'
_cell_length_a   8.29265922
_cell_length_b   8.36870652
_cell_length_c   8.36870614
_cell_angle_alpha   109.65456972
_cell_angle_beta   109.28724490
_cell_angle_gamma   109.28724613
_symmetry_Int_Tables_number   1
_chemical_formula_structural   Yb7DyBi6
_chemical_formula_sum   'Yb7 Dy1 Bi6'
_cell_volume   448.09449120
_cell_formula_units_Z   1
loop_
 _symmetry_equiv_pos_site_id
 _symmetry_equiv_pos_as_xyz
  1  'x, y, z'
loop_
 _atom_site_type_symbol
 _atom_site_label
 _atom_site_symmetry_multiplicity
 _atom_site_fract_x
 _atom_site_fract_y
 _atom_site_fract_z
 _atom_site_occupancy
  Yb  Yb0  1  0.649101  0.500000  0.000000  1
  Yb  Yb1  1  0.500043  0.001276  0.651155  1
  Yb  Yb2  1  0.355034  0.351573  0.355051  1
  Yb  Yb3  1  0.503462  0.003478  0.148427  1
  Yb  Yb4  1  0.998766  0.649878  0.498724  1
  Yb  Yb5  1  0.848888  0.848845  0.850122  1
  Yb  Yb6  1  0.999984  0.144949  0.496522  1
  Dy  Dy7  1  0.147078  0.500000  0.000000  1
  Bi  Bi8  1  0.371135  0.624133  0.755726  1
  Bi  Bi9  1  0.881568  0.254862  0.125744  1
  Bi  Bi10  1  0.615409  0.744274  0.368407  1
  Bi  Bi11  1  0.126706  0.870882  0.245138  1
  Bi  Bi12  1  0.247002  0.131593  0.875867  1
  Bi  Bi13  1  0.755824  0.374256  0.629118  1
