# generated using pymatgen
data_Yb3Dy2Hf3(Co4P3)4
_symmetry_space_group_name_H-M   'P 1'
_cell_length_a   12.27328000
_cell_length_b   12.27327804
_cell_length_c   3.70635500
_cell_angle_alpha   90.00000000
_cell_angle_beta   90.00000000
_cell_angle_gamma   120.00000529
_symmetry_Int_Tables_number   1
_chemical_formula_structural   Yb3Dy2Hf3(Co4P3)4
_chemical_formula_sum   'Yb3 Dy2 Hf3 Co16 P12'
_cell_volume   483.50262673
_cell_formula_units_Z   1
loop_
 _symmetry_equiv_pos_site_id
 _symmetry_equiv_pos_as_xyz
  1  'x, y, z'
loop_
 _atom_site_type_symbol
 _atom_site_label
 _atom_site_symmetry_multiplicity
 _atom_site_fract_x
 _atom_site_fract_y
 _atom_site_fract_z
 _atom_site_occupancy
  Yb  Yb0  1  0.819000  0.819000  0.500000  1
  Yb  Yb1  1  0.181000  0.000000  0.500000  1
  Yb  Yb2  1  0.000000  0.181000  0.500000  1
  Dy  Dy3  1  0.666667  0.333333  0.000000  1
  Dy  Dy4  1  0.333333  0.666667  0.000000  1
  Hf  Hf5  1  0.441873  0.441873  0.000000  1
  Hf  Hf6  1  0.558127  0.000000  0.000000  1
  Hf  Hf7  1  0.000000  0.558127  0.000000  1
  Co  Co8  1  0.876155  0.356978  0.500000  1
  Co  Co9  1  0.643022  0.519178  0.500000  1
  Co  Co10  1  0.480822  0.123845  0.500000  1
  Co  Co11  1  0.356978  0.876155  0.500000  1
  Co  Co12  1  0.519178  0.643022  0.500000  1
  Co  Co13  1  0.123845  0.480822  0.500000  1
  Co  Co14  1  0.804955  0.179229  0.000000  1
  Co  Co15  1  0.820771  0.625725  0.000000  1
  Co  Co16  1  0.374275  0.195045  0.000000  1
  Co  Co17  1  0.179229  0.804955  0.000000  1
  Co  Co18  1  0.625725  0.820771  0.000000  1
  Co  Co19  1  0.195045  0.374275  0.000000  1
  Co  Co20  1  0.278843  0.278843  0.500000  1
  Co  Co21  1  0.721157  0.000000  0.500000  1
  Co  Co22  1  0.000000  0.721157  0.500000  1
  Co  Co23  1  0.000000  0.000000  0.000000  1
  P  P24  1  0.693982  0.171251  0.500000  1
  P  P25  1  0.828749  0.522731  0.500000  1
  P  P26  1  0.477269  0.306018  0.500000  1
  P  P27  1  0.171251  0.693982  0.500000  1
  P  P28  1  0.522731  0.828749  0.500000  1
  P  P29  1  0.306018  0.477269  0.500000  1
  P  P30  1  0.178538  0.178538  0.000000  1
  P  P31  1  0.821462  0.000000  0.000000  1
  P  P32  1  0.000000  0.821462  0.000000  1
  P  P33  1  0.649369  0.649369  0.000000  1
  P  P34  1  0.350631  0.000000  0.000000  1
  P  P35  1  0.000000  0.350631  0.000000  1
