# generated using pymatgen
data_Nd4Ga24IrPd
_symmetry_space_group_name_H-M   'P 1'
_cell_length_a   6.14889600
_cell_length_b   6.14889600
_cell_length_c   15.54363200
_cell_angle_alpha   90.00000000
_cell_angle_beta   90.00000000
_cell_angle_gamma   90.00000000
_symmetry_Int_Tables_number   1
_chemical_formula_structural   Nd4Ga24IrPd
_chemical_formula_sum   'Nd4 Ga24 Ir1 Pd1'
_cell_volume   587.68797018
_cell_formula_units_Z   1
loop_
 _symmetry_equiv_pos_site_id
 _symmetry_equiv_pos_as_xyz
  1  'x, y, z'
loop_
 _atom_site_type_symbol
 _atom_site_label
 _atom_site_symmetry_multiplicity
 _atom_site_fract_x
 _atom_site_fract_y
 _atom_site_fract_z
 _atom_site_occupancy
  Nd  Nd0  1  0.750000  0.250000  0.245082  1
  Nd  Nd1  1  0.250000  0.750000  0.243517  1
  Nd  Nd2  1  0.250000  0.750000  0.756483  1
  Nd  Nd3  1  0.750000  0.250000  0.754918  1
  Ga  Ga4  1  0.250000  0.250000  0.187608  1
  Ga  Ga5  1  0.750000  0.750000  0.187608  1
  Ga  Ga6  1  0.750000  0.750000  0.812392  1
  Ga  Ga7  1  0.250000  0.250000  0.812392  1
  Ga  Ga8  1  0.250000  0.250000  0.346288  1
  Ga  Ga9  1  0.750000  0.750000  0.346288  1
  Ga  Ga10  1  0.750000  0.750000  0.653712  1
  Ga  Ga11  1  0.250000  0.250000  0.653712  1
  Ga  Ga12  1  0.502017  0.002017  0.911855  1
  Ga  Ga13  1  0.997969  0.002031  0.912159  1
  Ga  Ga14  1  0.502031  0.497969  0.912159  1
  Ga  Ga15  1  0.997983  0.497983  0.911855  1
  Ga  Ga16  1  0.502031  0.002031  0.087841  1
  Ga  Ga17  1  0.997983  0.002017  0.088145  1
  Ga  Ga18  1  0.502017  0.497983  0.088145  1
  Ga  Ga19  1  0.997969  0.497969  0.087841  1
  Ga  Ga20  1  0.581898  0.081898  0.431876  1
  Ga  Ga21  1  0.082512  0.917488  0.431206  1
  Ga  Ga22  1  0.417488  0.582512  0.431206  1
  Ga  Ga23  1  0.918102  0.418102  0.431876  1
  Ga  Ga24  1  0.417488  0.917488  0.568794  1
  Ga  Ga25  1  0.918102  0.081898  0.568124  1
  Ga  Ga26  1  0.581898  0.418102  0.568124  1
  Ga  Ga27  1  0.082512  0.582512  0.568794  1
  Ir  Ir28  1  0.750000  0.250000  0.000000  1
  Pd  Pd29  1  0.250000  0.750000  0.000000  1
