# generated using pymatgen
data_Pr10Si4HgAu
_symmetry_space_group_name_H-M   'P 1'
_cell_length_a   7.79704181
_cell_length_b   7.79704165
_cell_length_c   9.34534524
_cell_angle_alpha   114.65552445
_cell_angle_beta   114.65553587
_cell_angle_gamma   89.99999668
_symmetry_Int_Tables_number   1
_chemical_formula_structural   Pr10Si4HgAu
_chemical_formula_sum   'Pr10 Si4 Hg1 Au1'
_cell_volume   458.73607997
_cell_formula_units_Z   1
loop_
 _symmetry_equiv_pos_site_id
 _symmetry_equiv_pos_as_xyz
  1  'x, y, z'
loop_
 _atom_site_type_symbol
 _atom_site_label
 _atom_site_symmetry_multiplicity
 _atom_site_fract_x
 _atom_site_fract_y
 _atom_site_fract_z
 _atom_site_occupancy
  Pr  Pr0  1  0.476418  0.476418  0.952836  1
  Pr  Pr1  1  0.023582  0.023582  0.047164  1
  Pr  Pr2  1  0.951731  0.803101  0.277740  1
  Pr  Pr3  1  0.326009  0.474639  0.277740  1
  Pr  Pr4  1  0.803101  0.326009  0.277740  1
  Pr  Pr5  1  0.474639  0.951731  0.277740  1
  Pr  Pr6  1  0.025361  0.173991  0.722260  1
  Pr  Pr7  1  0.696899  0.548269  0.722260  1
  Pr  Pr8  1  0.173991  0.696899  0.722260  1
  Pr  Pr9  1  0.548269  0.025361  0.722260  1
  Si  Si10  1  0.615158  0.884842  0.000000  1
  Si  Si11  1  0.384842  0.115158  0.000000  1
  Si  Si12  1  0.884842  0.384842  0.000000  1
  Si  Si13  1  0.115158  0.615158  0.000000  1
  Hg  Hg14  1  0.250000  0.250000  0.500000  1
  Au  Au15  1  0.750000  0.750000  0.500000  1
