# generated using pymatgen
data_Nd3Pu(Si3Ni5)4
_symmetry_space_group_name_H-M   'P 1'
_cell_length_a   3.81116900
_cell_length_b   18.86770723
_cell_length_c   6.66094005
_cell_angle_alpha   90.06682805
_cell_angle_beta   90.00000000
_cell_angle_gamma   90.00000000
_symmetry_Int_Tables_number   1
_chemical_formula_structural   Nd3Pu(Si3Ni5)4
_chemical_formula_sum   'Nd3 Pu1 Si12 Ni20'
_cell_volume   478.97469070
_cell_formula_units_Z   1
loop_
 _symmetry_equiv_pos_site_id
 _symmetry_equiv_pos_as_xyz
  1  'x, y, z'
loop_
 _atom_site_type_symbol
 _atom_site_label
 _atom_site_symmetry_multiplicity
 _atom_site_fract_x
 _atom_site_fract_y
 _atom_site_fract_z
 _atom_site_occupancy
  Nd  Nd0  1  0.750000  0.642765  0.123348  1
  Nd  Nd1  1  0.250000  0.356309  0.876248  1
  Nd  Nd2  1  0.250000  0.858105  0.623748  1
  Pu  Pu3  1  0.750000  0.143335  0.378132  1
  Si  Si4  1  0.750000  0.736137  0.616918  1
  Si  Si5  1  0.250000  0.262108  0.383288  1
  Si  Si6  1  0.250000  0.764662  0.115607  1
  Si  Si7  1  0.750000  0.234260  0.883852  1
  Si  Si8  1  0.750000  0.927858  0.338956  1
  Si  Si9  1  0.250000  0.073101  0.652995  1
  Si  Si10  1  0.250000  0.571132  0.839521  1
  Si  Si11  1  0.750000  0.427679  0.160397  1
  Si  Si12  1  0.750000  0.915323  0.927904  1
  Si  Si13  1  0.250000  0.087953  0.081663  1
  Si  Si14  1  0.250000  0.587050  0.430349  1
  Si  Si15  1  0.750000  0.412279  0.569501  1
  Ni  Ni16  1  0.750000  0.801349  0.308737  1
  Ni  Ni17  1  0.250000  0.198193  0.688851  1
  Ni  Ni18  1  0.250000  0.698598  0.808633  1
  Ni  Ni19  1  0.750000  0.300124  0.191576  1
  Ni  Ni20  1  0.750000  0.995299  0.634413  1
  Ni  Ni21  1  0.250000  0.005742  0.362719  1
  Ni  Ni22  1  0.250000  0.505051  0.137961  1
  Ni  Ni23  1  0.750000  0.493806  0.861965  1
  Ni  Ni24  1  0.750000  0.516392  0.390609  1
  Ni  Ni25  1  0.250000  0.482730  0.608572  1
  Ni  Ni26  1  0.250000  0.986808  0.890292  1
  Ni  Ni27  1  0.750000  0.017733  0.115632  1
  Ni  Ni28  1  0.750000  0.793135  0.926357  1
  Ni  Ni29  1  0.250000  0.207962  0.074177  1
  Ni  Ni30  1  0.250000  0.708618  0.426331  1
  Ni  Ni31  1  0.750000  0.290782  0.573198  1
  Ni  Ni32  1  0.750000  0.615046  0.646320  1
  Ni  Ni33  1  0.250000  0.383419  0.354593  1
  Ni  Ni34  1  0.250000  0.885498  0.142607  1
  Ni  Ni35  1  0.750000  0.113657  0.854032  1
