# generated using pymatgen
data_Rb2SiS4
_symmetry_space_group_name_H-M   'P 1'
_cell_length_a   8.04628126
_cell_length_b   8.04628095
_cell_length_c   9.64532596
_cell_angle_alpha   61.58345127
_cell_angle_beta   61.58345128
_cell_angle_gamma   53.81567248
_symmetry_Int_Tables_number   1
_chemical_formula_structural   Rb2SiS4
_chemical_formula_sum   'Rb4 Si2 S8'
_cell_volume   426.24985436
_cell_formula_units_Z   2
loop_
 _symmetry_equiv_pos_site_id
 _symmetry_equiv_pos_as_xyz
  1  'x, y, z'
loop_
 _atom_site_type_symbol
 _atom_site_label
 _atom_site_symmetry_multiplicity
 _atom_site_fract_x
 _atom_site_fract_y
 _atom_site_fract_z
 _atom_site_occupancy
  Rb  Rb0  1  0.407478  0.407478  0.858181  1
  Rb  Rb1  1  0.839985  0.839985  0.291118  1
  Rb  Rb2  1  0.592522  0.592522  0.141819  1
  Rb  Rb3  1  0.160015  0.160015  0.708882  1
  Si  Si4  1  0.155755  0.155755  0.295953  1
  Si  Si5  1  0.844245  0.844245  0.704047  1
  S  S6  1  0.687536  0.687536  0.740470  1
  S  S7  1  0.845268  0.322764  0.460733  1
  S  S8  1  0.312464  0.312464  0.259530  1
  S  S9  1  0.677236  0.154732  0.539267  1
  S  S10  1  0.124311  0.124311  0.110136  1
  S  S11  1  0.875689  0.875689  0.889864  1
  S  S12  1  0.154732  0.677236  0.539267  1
  S  S13  1  0.322764  0.845268  0.460733  1
