# generated using pymatgen
data_Zr6Al16Co2Ni5
_symmetry_space_group_name_H-M   'P 1'
_cell_length_a   8.53243456
_cell_length_b   8.53243547
_cell_length_c   8.52324700
_cell_angle_alpha   60.03561286
_cell_angle_beta   60.03560936
_cell_angle_gamma   59.83582671
_symmetry_Int_Tables_number   1
_chemical_formula_structural   Zr6Al16Co2Ni5
_chemical_formula_sum   'Zr6 Al16 Co2 Ni5'
_cell_volume   438.45728194
_cell_formula_units_Z   1
loop_
 _symmetry_equiv_pos_site_id
 _symmetry_equiv_pos_as_xyz
  1  'x, y, z'
loop_
 _atom_site_type_symbol
 _atom_site_label
 _atom_site_symmetry_multiplicity
 _atom_site_fract_x
 _atom_site_fract_y
 _atom_site_fract_z
 _atom_site_occupancy
  Zr  Zr0  1  0.695117  0.695117  0.304883  1
  Zr  Zr1  1  0.310206  0.689794  0.309271  1
  Zr  Zr2  1  0.689794  0.310206  0.309271  1
  Zr  Zr3  1  0.304883  0.304883  0.695117  1
  Zr  Zr4  1  0.689794  0.310206  0.690729  1
  Zr  Zr5  1  0.310206  0.689794  0.690729  1
  Al  Al6  1  0.882174  0.882174  0.353694  1
  Al  Al7  1  0.877503  0.354674  0.883911  1
  Al  Al8  1  0.354674  0.877503  0.883911  1
  Al  Al9  1  0.882174  0.882174  0.881957  1
  Al  Al10  1  0.117826  0.117826  0.646306  1
  Al  Al11  1  0.122497  0.645326  0.116089  1
  Al  Al12  1  0.645326  0.122497  0.116089  1
  Al  Al13  1  0.117826  0.117826  0.118043  1
  Al  Al14  1  0.665436  0.665436  0.001646  1
  Al  Al15  1  0.665335  0.001392  0.666637  1
  Al  Al16  1  0.001392  0.665335  0.666637  1
  Al  Al17  1  0.665436  0.665436  0.667482  1
  Al  Al18  1  0.334564  0.334564  0.998354  1
  Al  Al19  1  0.334665  0.998608  0.333363  1
  Al  Al20  1  0.998608  0.334665  0.333363  1
  Al  Al21  1  0.334564  0.334564  0.332518  1
  Co  Co22  1  0.000000  0.000000  0.000000  1
  Co  Co23  1  0.500000  0.500000  0.000000  1
  Ni  Ni24  1  0.000000  0.000000  0.500000  1
  Ni  Ni25  1  0.500000  0.000000  0.500000  1
  Ni  Ni26  1  0.000000  0.500000  0.500000  1
  Ni  Ni27  1  0.000000  0.500000  0.000000  1
  Ni  Ni28  1  0.500000  0.000000  0.000000  1
