# generated using pymatgen
data_Sm6Zn4Pd9Pt4
_symmetry_space_group_name_H-M   'P 1'
_cell_length_a   8.34551900
_cell_length_b   8.34551955
_cell_length_c   8.32763200
_cell_angle_alpha   109.42781278
_cell_angle_beta   109.42781409
_cell_angle_gamma   109.51459782
_symmetry_Int_Tables_number   1
_chemical_formula_structural   Sm6Zn4Pd9Pt4
_chemical_formula_sum   'Sm6 Zn4 Pd9 Pt4'
_cell_volume   446.72340810
_cell_formula_units_Z   1
loop_
 _symmetry_equiv_pos_site_id
 _symmetry_equiv_pos_as_xyz
  1  'x, y, z'
loop_
 _atom_site_type_symbol
 _atom_site_label
 _atom_site_symmetry_multiplicity
 _atom_site_fract_x
 _atom_site_fract_y
 _atom_site_fract_z
 _atom_site_occupancy
  Sm  Sm0  1  0.701191  0.701191  0.002093  1
  Sm  Sm1  1  0.298809  0.000000  0.300902  1
  Sm  Sm2  1  0.000000  0.298809  0.300902  1
  Sm  Sm3  1  0.299934  0.299934  0.998905  1
  Sm  Sm4  1  0.700066  0.000000  0.698971  1
  Sm  Sm5  1  0.000000  0.700066  0.698971  1
  Zn  Zn6  1  0.000000  0.000000  0.499576  1
  Zn  Zn7  1  0.000000  0.500187  0.000163  1
  Zn  Zn8  1  0.500187  0.000000  0.000163  1
  Zn  Zn9  1  0.499813  0.499813  0.499977  1
  Pd  Pd10  1  0.667446  0.331982  0.999920  1
  Pd  Pd11  1  0.332554  0.664537  0.332474  1
  Pd  Pd12  1  0.000000  0.333056  0.668669  1
  Pd  Pd13  1  0.331982  0.667446  0.999920  1
  Pd  Pd14  1  0.333056  0.000000  0.668669  1
  Pd  Pd15  1  0.664537  0.332554  0.332474  1
  Pd  Pd16  1  0.666944  0.666944  0.335611  1
  Pd  Pd17  1  0.668018  0.335463  0.667938  1
  Pd  Pd18  1  0.335463  0.668018  0.667938  1
  Pt  Pt19  1  0.332505  0.332505  0.664068  1
  Pt  Pt20  1  0.667495  0.000000  0.331562  1
  Pt  Pt21  1  0.000000  0.667495  0.331562  1
  Pt  Pt22  1  0.000000  0.000000  0.998575  1
