# generated using pymatgen
data_Tb3Dy4Lu5TlCo5
_symmetry_space_group_name_H-M   'P 1'
_cell_length_a   8.22223712
_cell_length_b   8.21101786
_cell_length_c   8.21101892
_cell_angle_alpha   107.01707606
_cell_angle_beta   110.57219611
_cell_angle_gamma   110.79289392
_symmetry_Int_Tables_number   1
_chemical_formula_structural   Tb3Dy4Lu5TlCo5
_chemical_formula_sum   'Tb3 Dy4 Lu5 Tl1 Co5'
_cell_volume   426.47090395
_cell_formula_units_Z   1
loop_
 _symmetry_equiv_pos_site_id
 _symmetry_equiv_pos_as_xyz
  1  'x, y, z'
loop_
 _atom_site_type_symbol
 _atom_site_label
 _atom_site_symmetry_multiplicity
 _atom_site_fract_x
 _atom_site_fract_y
 _atom_site_fract_z
 _atom_site_occupancy
  Tb  Tb0  1  0.478529  0.291506  0.187023  1
  Tb  Tb1  1  0.105939  0.292387  0.813552  1
  Tb  Tb2  1  0.894181  0.710029  0.184154  1
  Dy  Dy3  1  0.194409  0.213035  0.405858  1
  Dy  Dy4  1  0.807569  0.789770  0.599436  1
  Dy  Dy5  1  0.194409  0.788551  0.981374  1
  Dy  Dy6  1  0.807569  0.208134  0.017800  1
  Lu  Lu7  1  0.523266  0.709414  0.813852  1
  Lu  Lu8  1  0.308968  0.623729  0.317400  1
  Lu  Lu9  1  0.308968  0.991570  0.685239  1
  Lu  Lu10  1  0.691357  0.376813  0.684758  1
  Lu  Lu11  1  0.691357  0.006599  0.314543  1
  Tl  Tl12  1  0.999710  0.500451  0.499259  1
  Co  Co13  1  0.498300  0.614805  0.110366  1
  Co  Co14  1  0.498300  0.387934  0.883495  1
  Co  Co15  1  0.379570  0.000128  0.379441  1
  Co  Co16  1  0.618349  0.997721  0.620629  1
  Co  Co17  1  0.999248  0.997426  0.001824  1
