# generated using pymatgen
data_ScNb(CoP)2
_symmetry_space_group_name_H-M   'P 1'
_cell_length_a   3.63907600
_cell_length_b   6.17600000
_cell_length_c   7.02998100
_cell_angle_alpha   90.00000000
_cell_angle_beta   90.00000000
_cell_angle_gamma   90.00000000
_symmetry_Int_Tables_number   1
_chemical_formula_structural   ScNb(CoP)2
_chemical_formula_sum   'Sc2 Nb2 Co4 P4'
_cell_volume   157.99835461
_cell_formula_units_Z   2
loop_
 _symmetry_equiv_pos_site_id
 _symmetry_equiv_pos_as_xyz
  1  'x, y, z'
loop_
 _atom_site_type_symbol
 _atom_site_label
 _atom_site_symmetry_multiplicity
 _atom_site_fract_x
 _atom_site_fract_y
 _atom_site_fract_z
 _atom_site_occupancy
  Sc  Sc0  1  0.750000  0.977952  0.180472  1
  Sc  Sc1  1  0.750000  0.477952  0.319528  1
  Nb  Nb2  1  0.250000  0.022739  0.818233  1
  Nb  Nb3  1  0.250000  0.522739  0.681767  1
  Co  Co4  1  0.250000  0.140674  0.439257  1
  Co  Co5  1  0.250000  0.640674  0.060743  1
  Co  Co6  1  0.750000  0.861035  0.562192  1
  Co  Co7  1  0.750000  0.361035  0.937808  1
  P  P8  1  0.250000  0.271524  0.112667  1
  P  P9  1  0.250000  0.771524  0.387333  1
  P  P10  1  0.750000  0.726077  0.879872  1
  P  P11  1  0.750000  0.226077  0.620128  1
