# generated using pymatgen
data_Y3Al12PdRu3
_symmetry_space_group_name_H-M   'P 1'
_cell_length_a   8.82384500
_cell_length_b   8.86066358
_cell_length_c   9.54978863
_cell_angle_alpha   89.90249944
_cell_angle_beta   90.00000000
_cell_angle_gamma   119.86264295
_symmetry_Int_Tables_number   1
_chemical_formula_structural   Y3Al12PdRu3
_chemical_formula_sum   'Y6 Al24 Pd2 Ru6'
_cell_volume   647.51095114
_cell_formula_units_Z   2
loop_
 _symmetry_equiv_pos_site_id
 _symmetry_equiv_pos_as_xyz
  1  'x, y, z'
loop_
 _atom_site_type_symbol
 _atom_site_label
 _atom_site_symmetry_multiplicity
 _atom_site_fract_x
 _atom_site_fract_y
 _atom_site_fract_z
 _atom_site_occupancy
  Y  Y0  1  0.805007  0.190888  0.747334  1
  Y  Y1  1  0.194993  0.809112  0.252666  1
  Y  Y2  1  0.385882  0.190888  0.747334  1
  Y  Y3  1  0.614118  0.809112  0.252666  1
  Y  Y4  1  0.808320  0.616639  0.748548  1
  Y  Y5  1  0.191680  0.383361  0.251452  1
  Al  Al6  1  0.663696  0.327392  0.977444  1
  Al  Al7  1  0.336304  0.672608  0.022556  1
  Al  Al8  1  0.333329  0.666660  0.478550  1
  Al  Al9  1  0.666671  0.333340  0.521450  1
  Al  Al10  1  0.836940  0.163893  0.423361  1
  Al  Al11  1  0.163060  0.836107  0.576639  1
  Al  Al12  1  0.326953  0.163893  0.423361  1
  Al  Al13  1  0.167586  0.842805  0.920361  1
  Al  Al14  1  0.673047  0.836107  0.576639  1
  Al  Al15  1  0.832414  0.157195  0.079639  1
  Al  Al16  1  0.836795  0.673590  0.424796  1
  Al  Al17  1  0.675219  0.842805  0.920361  1
  Al  Al18  1  0.163205  0.326410  0.575204  1
  Al  Al19  1  0.324781  0.157195  0.079639  1
  Al  Al20  1  0.161278  0.322556  0.919513  1
  Al  Al21  1  0.838722  0.677444  0.080487  1
  Al  Al22  1  0.437615  0.562196  0.747428  1
  Al  Al23  1  0.562385  0.437804  0.252572  1
  Al  Al24  1  0.124581  0.562196  0.747428  1
  Al  Al25  1  0.875419  0.437804  0.252572  1
  Al  Al26  1  0.438932  0.877863  0.750780  1
  Al  Al27  1  0.561068  0.122137  0.249220  1
  Al  Al28  1  0.999067  0.998133  0.749437  1
  Al  Al29  1  0.000933  0.001867  0.250563  1
  Pd  Pd30  1  0.500000  0.500000  0.000000  1
  Pd  Pd31  1  0.000000  0.500000  0.000000  1
  Ru  Ru32  1  0.500000  0.500000  0.500000  1
  Ru  Ru33  1  0.500000  0.000000  0.000000  1
  Ru  Ru34  1  0.000000  0.500000  0.500000  1
  Ru  Ru35  1  0.500000  0.000000  0.500000  1
  Ru  Ru36  1  0.000000  0.000000  0.000000  1
  Ru  Ru37  1  0.000000  0.000000  0.500000  1
