# generated using pymatgen
data_ZrGaRh3Se8
_symmetry_space_group_name_H-M   'P 1'
_cell_length_a   7.35774942
_cell_length_b   7.35774956
_cell_length_c   7.35775004
_cell_angle_alpha   61.81798868
_cell_angle_beta   61.81797988
_cell_angle_gamma   61.81798201
_symmetry_Int_Tables_number   1
_chemical_formula_structural   ZrGaRh3Se8
_chemical_formula_sum   'Zr1 Ga1 Rh3 Se8'
_cell_volume   293.12494227
_cell_formula_units_Z   1
loop_
 _symmetry_equiv_pos_site_id
 _symmetry_equiv_pos_as_xyz
  1  'x, y, z'
loop_
 _atom_site_type_symbol
 _atom_site_label
 _atom_site_symmetry_multiplicity
 _atom_site_fract_x
 _atom_site_fract_y
 _atom_site_fract_z
 _atom_site_occupancy
  Zr  Zr0  1  0.594993  0.594993  0.594993  1
  Ga  Ga1  1  0.010280  0.010280  0.010280  1
  Rh  Rh2  1  0.625626  0.625626  0.140830  1
  Rh  Rh3  1  0.625626  0.140830  0.625626  1
  Rh  Rh4  1  0.140830  0.625626  0.625626  1
  Se  Se5  1  0.356500  0.356500  0.882229  1
  Se  Se6  1  0.356500  0.882229  0.356500  1
  Se  Se7  1  0.882229  0.356500  0.356500  1
  Se  Se8  1  0.391278  0.391278  0.391278  1
  Se  Se9  1  0.864948  0.864948  0.417264  1
  Se  Se10  1  0.864948  0.417264  0.864948  1
  Se  Se11  1  0.417264  0.864948  0.864948  1
  Se  Se12  1  0.868976  0.868976  0.868976  1
