# generated using pymatgen
data_Y2Pa(GaIr)3
_symmetry_space_group_name_H-M   'P 1'
_cell_length_a   7.28603517
_cell_length_b   7.28603405
_cell_length_c   3.78018600
_cell_angle_alpha   90.00000000
_cell_angle_beta   90.00000000
_cell_angle_gamma   119.01593791
_symmetry_Int_Tables_number   1
_chemical_formula_structural   Y2Pa(GaIr)3
_chemical_formula_sum   'Y2 Pa1 Ga3 Ir3'
_cell_volume   175.48819261
_cell_formula_units_Z   1
loop_
 _symmetry_equiv_pos_site_id
 _symmetry_equiv_pos_as_xyz
  1  'x, y, z'
loop_
 _atom_site_type_symbol
 _atom_site_label
 _atom_site_symmetry_multiplicity
 _atom_site_fract_x
 _atom_site_fract_y
 _atom_site_fract_z
 _atom_site_occupancy
  Y  Y0  1  0.407715  0.003140  0.000000  1
  Y  Y1  1  0.003140  0.407715  0.000000  1
  Pa  Pa2  1  0.585720  0.585720  0.000000  1
  Ga  Ga3  1  0.010312  0.746501  0.500000  1
  Ga  Ga4  1  0.239200  0.239200  0.500000  1
  Ga  Ga5  1  0.746501  0.010312  0.500000  1
  Ir  Ir6  1  0.985293  0.985293  0.000000  1
  Ir  Ir7  1  0.664023  0.358096  0.500000  1
  Ir  Ir8  1  0.358096  0.664023  0.500000  1
