# generated using pymatgen
data_PrHo3(OsO4)4
_symmetry_space_group_name_H-M   'P 1'
_cell_length_a   5.41765591
_cell_length_b   7.49271648
_cell_length_c   7.70121300
_cell_angle_alpha   79.60324024
_cell_angle_beta   93.63859991
_cell_angle_gamma   90.83600461
_symmetry_Int_Tables_number   1
_chemical_formula_structural   PrHo3(OsO4)4
_chemical_formula_sum   'Pr1 Ho3 Os4 O16'
_cell_volume   306.86102427
_cell_formula_units_Z   1
loop_
 _symmetry_equiv_pos_site_id
 _symmetry_equiv_pos_as_xyz
  1  'x, y, z'
loop_
 _atom_site_type_symbol
 _atom_site_label
 _atom_site_symmetry_multiplicity
 _atom_site_fract_x
 _atom_site_fract_y
 _atom_site_fract_z
 _atom_site_occupancy
  Pr  Pr0  1  0.742255  0.891611  0.371585  1
  Ho  Ho1  1  0.265605  0.111765  0.618057  1
  Ho  Ho2  1  0.811402  0.397380  0.331783  1
  Ho  Ho3  1  0.198505  0.603503  0.674087  1
  Os  Os4  1  0.755721  0.292075  0.835767  1
  Os  Os5  1  0.244299  0.701762  0.161612  1
  Os  Os6  1  0.285597  0.202496  0.162754  1
  Os  Os7  1  0.716035  0.797114  0.835156  1
  O  O8  1  0.935739  0.794146  0.040857  1
  O  O9  1  0.055143  0.212681  0.966581  1
  O  O10  1  0.362048  0.947801  0.173873  1
  O  O11  1  0.620467  0.049951  0.826869  1
  O  O12  1  0.149710  0.448224  0.167101  1
  O  O13  1  0.840281  0.553984  0.820952  1
  O  O14  1  0.596865  0.296229  0.061751  1
  O  O15  1  0.403247  0.702927  0.937608  1
  O  O16  1  0.949685  0.321199  0.615153  1
  O  O17  1  0.061100  0.663320  0.391411  1
  O  O18  1  0.504930  0.187215  0.388074  1
  O  O19  1  0.486808  0.823946  0.611036  1
  O  O20  1  0.547931  0.621641  0.292728  1
  O  O21  1  0.449403  0.368143  0.703158  1
  O  O22  1  0.033506  0.130030  0.342100  1
  O  O23  1  0.983719  0.880859  0.669947  1
