# generated using pymatgen
data_TbDy2Tm(Mo2O7)2
_symmetry_space_group_name_H-M   'P 1'
_cell_length_a   7.37317107
_cell_length_b   7.44154256
_cell_length_c   7.34082763
_cell_angle_alpha   59.54511306
_cell_angle_beta   59.30391940
_cell_angle_gamma   59.69277994
_symmetry_Int_Tables_number   1
_chemical_formula_structural   TbDy2Tm(Mo2O7)2
_chemical_formula_sum   'Tb1 Dy2 Tm1 Mo4 O14'
_cell_volume   281.65002870
_cell_formula_units_Z   1
loop_
 _symmetry_equiv_pos_site_id
 _symmetry_equiv_pos_as_xyz
  1  'x, y, z'
loop_
 _atom_site_type_symbol
 _atom_site_label
 _atom_site_symmetry_multiplicity
 _atom_site_fract_x
 _atom_site_fract_y
 _atom_site_fract_z
 _atom_site_occupancy
  Tb  Tb0  1  0.625000  0.125000  0.125000  1
  Dy  Dy1  1  0.125000  0.625000  0.125000  1
  Dy  Dy2  1  0.125000  0.125000  0.125000  1
  Tm  Tm3  1  0.125000  0.125000  0.625000  1
  Mo  Mo4  1  0.125000  0.625000  0.625000  1
  Mo  Mo5  1  0.625000  0.125000  0.625000  1
  Mo  Mo6  1  0.625000  0.625000  0.125000  1
  Mo  Mo7  1  0.625000  0.625000  0.625000  1
  O  O8  1  0.711427  0.717479  0.285395  1
  O  O9  1  0.283582  0.285687  0.709426  1
  O  O10  1  0.723570  0.282097  0.712235  1
  O  O11  1  0.287512  0.713456  0.285575  1
  O  O12  1  0.283582  0.721305  0.709426  1
  O  O13  1  0.711427  0.285699  0.285395  1
  O  O14  1  0.538573  0.532521  0.964605  1
  O  O15  1  0.966418  0.964313  0.540574  1
  O  O16  1  0.526430  0.967903  0.537765  1
  O  O17  1  0.962488  0.536544  0.964425  1
  O  O18  1  0.966418  0.528695  0.540574  1
  O  O19  1  0.538573  0.964301  0.964605  1
  O  O20  1  0.245039  0.252486  0.249989  1
  O  O21  1  0.004961  0.997514  0.000011  1
