# generated using pymatgen
data_Tb8CdInPd2
_symmetry_space_group_name_H-M   'P 1'
_cell_length_a   9.75801808
_cell_length_b   9.75801810
_cell_length_c   9.78790700
_cell_angle_alpha   59.89862805
_cell_angle_beta   59.89862795
_cell_angle_gamma   59.92820392
_symmetry_Int_Tables_number   1
_chemical_formula_structural   Tb8CdInPd2
_chemical_formula_sum   'Tb16 Cd2 In2 Pd4'
_cell_volume   657.65095049
_cell_formula_units_Z   2
loop_
 _symmetry_equiv_pos_site_id
 _symmetry_equiv_pos_as_xyz
  1  'x, y, z'
loop_
 _atom_site_type_symbol
 _atom_site_label
 _atom_site_symmetry_multiplicity
 _atom_site_fract_x
 _atom_site_fract_y
 _atom_site_fract_z
 _atom_site_occupancy
  Tb  Tb0  1  0.352580  0.352580  0.352350  1
  Tb  Tb1  1  0.352580  0.352580  0.942492  1
  Tb  Tb2  1  0.353386  0.940233  0.353191  1
  Tb  Tb3  1  0.940233  0.353386  0.353191  1
  Tb  Tb4  1  0.809974  0.190500  0.190282  1
  Tb  Tb5  1  0.190500  0.809974  0.809244  1
  Tb  Tb6  1  0.190500  0.809974  0.190282  1
  Tb  Tb7  1  0.809974  0.190500  0.809244  1
  Tb  Tb8  1  0.189091  0.189091  0.810909  1
  Tb  Tb9  1  0.808605  0.808605  0.191395  1
  Tb  Tb10  1  0.936869  0.565279  0.564947  1
  Tb  Tb11  1  0.565279  0.936869  0.932905  1
  Tb  Tb12  1  0.565279  0.936869  0.564947  1
  Tb  Tb13  1  0.936869  0.565279  0.932905  1
  Tb  Tb14  1  0.565705  0.565705  0.934295  1
  Tb  Tb15  1  0.935906  0.935906  0.564094  1
  Cd  Cd16  1  0.581515  0.252344  0.583070  1
  Cd  Cd17  1  0.252344  0.581515  0.583070  1
  In  In18  1  0.581936  0.581936  0.582651  1
  In  In19  1  0.581936  0.581936  0.253476  1
  Pd  Pd20  1  0.143875  0.143875  0.144927  1
  Pd  Pd21  1  0.143875  0.143875  0.567323  1
  Pd  Pd22  1  0.143454  0.567735  0.144405  1
  Pd  Pd23  1  0.567735  0.143454  0.144405  1
