# generated using pymatgen
data_NaNp(TlCl3)2
_symmetry_space_group_name_H-M   'P 1'
_cell_length_a   7.58616693
_cell_length_b   7.58616730
_cell_length_c   7.79942000
_cell_angle_alpha   120.58776597
_cell_angle_beta   120.58776763
_cell_angle_gamma   59.53215247
_symmetry_Int_Tables_number   1
_chemical_formula_structural   NaNp(TlCl3)2
_chemical_formula_sum   'Na1 Np1 Tl2 Cl6'
_cell_volume   313.43297751
_cell_formula_units_Z   1
loop_
 _symmetry_equiv_pos_site_id
 _symmetry_equiv_pos_as_xyz
  1  'x, y, z'
loop_
 _atom_site_type_symbol
 _atom_site_label
 _atom_site_symmetry_multiplicity
 _atom_site_fract_x
 _atom_site_fract_y
 _atom_site_fract_z
 _atom_site_occupancy
  Na  Na0  1  0.500000  0.500000  0.500000  1
  Np  Np1  1  0.000000  0.000000  0.000000  1
  Tl  Tl2  1  0.752732  0.752732  0.227390  1
  Tl  Tl3  1  0.247268  0.247268  0.772610  1
  Cl  Cl4  1  0.689494  0.185265  0.182001  1
  Cl  Cl5  1  0.185265  0.689494  0.182001  1
  Cl  Cl6  1  0.245250  0.245250  0.344253  1
  Cl  Cl7  1  0.754750  0.754750  0.655746  1
  Cl  Cl8  1  0.814735  0.310506  0.818001  1
  Cl  Cl9  1  0.310506  0.814735  0.818001  1
