# generated using pymatgen
data_Y6IrO12
_symmetry_space_group_name_H-M   'P 1'
_cell_length_a   6.50272544
_cell_length_b   6.50272625
_cell_length_c   6.50272540
_cell_angle_alpha   98.65179426
_cell_angle_beta   98.65180409
_cell_angle_gamma   98.65179453
_symmetry_Int_Tables_number   1
_chemical_formula_structural   Y6IrO12
_chemical_formula_sum   'Y6 Ir1 O12'
_cell_volume   264.50189238
_cell_formula_units_Z   1
loop_
 _symmetry_equiv_pos_site_id
 _symmetry_equiv_pos_as_xyz
  1  'x, y, z'
loop_
 _atom_site_type_symbol
 _atom_site_label
 _atom_site_symmetry_multiplicity
 _atom_site_fract_x
 _atom_site_fract_y
 _atom_site_fract_z
 _atom_site_occupancy
  Y  Y0  1  0.856453  0.389633  0.685910  1
  Y  Y1  1  0.610367  0.314090  0.143547  1
  Y  Y2  1  0.314090  0.143547  0.610367  1
  Y  Y3  1  0.685910  0.856453  0.389633  1
  Y  Y4  1  0.389633  0.685910  0.856453  1
  Y  Y5  1  0.143547  0.610367  0.314090  1
  Ir  Ir6  1  0.000000  0.000000  0.000000  1
  O  O7  1  0.928725  0.034437  0.702629  1
  O  O8  1  0.965563  0.297371  0.071275  1
  O  O9  1  0.592261  0.177221  0.432885  1
  O  O10  1  0.822779  0.567115  0.407739  1
  O  O11  1  0.297371  0.071275  0.965563  1
  O  O12  1  0.567115  0.407739  0.822779  1
  O  O13  1  0.432885  0.592261  0.177221  1
  O  O14  1  0.702629  0.928725  0.034437  1
  O  O15  1  0.177221  0.432885  0.592261  1
  O  O16  1  0.407739  0.822779  0.567115  1
  O  O17  1  0.034437  0.702629  0.928725  1
  O  O18  1  0.071275  0.965563  0.297371  1
