# generated using pymatgen
data_AlRuI18
_symmetry_space_group_name_H-M   'P 1'
_cell_length_a   10.06708715
_cell_length_b   10.06708510
_cell_length_c   10.06708430
_cell_angle_alpha   90.51694375
_cell_angle_beta   90.51693725
_cell_angle_gamma   90.51694168
_symmetry_Int_Tables_number   1
_chemical_formula_structural   AlRuI18
_chemical_formula_sum   'Al1 Ru1 I18'
_cell_volume   1020.13564035
_cell_formula_units_Z   1
loop_
 _symmetry_equiv_pos_site_id
 _symmetry_equiv_pos_as_xyz
  1  'x, y, z'
loop_
 _atom_site_type_symbol
 _atom_site_label
 _atom_site_symmetry_multiplicity
 _atom_site_fract_x
 _atom_site_fract_y
 _atom_site_fract_z
 _atom_site_occupancy
  Al  Al0  1  0.000000  0.000000  0.000000  1
  Ru  Ru1  1  0.500000  0.500000  0.500000  1
  I  I2  1  0.275322  0.993945  0.024406  1
  I  I3  1  0.024406  0.275322  0.993945  1
  I  I4  1  0.993945  0.024406  0.275322  1
  I  I5  1  0.724678  0.006055  0.975594  1
  I  I6  1  0.975594  0.724678  0.006055  1
  I  I7  1  0.006055  0.975594  0.724678  1
  I  I8  1  0.626355  0.244950  0.120415  1
  I  I9  1  0.120415  0.626355  0.244950  1
  I  I10  1  0.244950  0.120415  0.626355  1
  I  I11  1  0.373645  0.755050  0.879585  1
  I  I12  1  0.879585  0.373645  0.755050  1
  I  I13  1  0.755050  0.879585  0.373645  1
  I  I14  1  0.489344  0.232366  0.516495  1
  I  I15  1  0.516495  0.489344  0.232366  1
  I  I16  1  0.232366  0.516495  0.489344  1
  I  I17  1  0.510656  0.767634  0.483505  1
  I  I18  1  0.483505  0.510656  0.767634  1
  I  I19  1  0.767634  0.483505  0.510656  1
