# generated using pymatgen
data_Lu8Ti9Nb2Si16Mo
_symmetry_space_group_name_H-M   'P 1'
_cell_length_a   6.79258903
_cell_length_b   6.95407687
_cell_length_c   13.20559908
_cell_angle_alpha   90.04423550
_cell_angle_beta   89.95220716
_cell_angle_gamma   89.91348174
_symmetry_Int_Tables_number   1
_chemical_formula_structural   Lu8Ti9Nb2Si16Mo
_chemical_formula_sum   'Lu8 Ti9 Nb2 Si16 Mo1'
_cell_volume   623.78102277
_cell_formula_units_Z   1
loop_
 _symmetry_equiv_pos_site_id
 _symmetry_equiv_pos_as_xyz
  1  'x, y, z'
loop_
 _atom_site_type_symbol
 _atom_site_label
 _atom_site_symmetry_multiplicity
 _atom_site_fract_x
 _atom_site_fract_y
 _atom_site_fract_z
 _atom_site_occupancy
  Lu  Lu0  1  0.502909  0.326807  0.096420  1
  Lu  Lu1  1  0.002227  0.173392  0.403746  1
  Lu  Lu2  1  0.496466  0.672173  0.595044  1
  Lu  Lu3  1  0.997486  0.827655  0.903099  1
  Lu  Lu4  1  0.496634  0.672596  0.903106  1
  Lu  Lu5  1  0.998230  0.828247  0.595253  1
  Lu  Lu6  1  0.502146  0.326058  0.405502  1
  Lu  Lu7  1  0.003360  0.173267  0.096603  1
  Ti  Ti8  1  0.837188  0.324464  0.626919  1
  Ti  Ti9  1  0.335650  0.175435  0.873411  1
  Ti  Ti10  1  0.164235  0.675536  0.126380  1
  Ti  Ti11  1  0.661814  0.826297  0.375252  1
  Ti  Ti12  1  0.163821  0.676124  0.375474  1
  Ti  Ti13  1  0.664131  0.823832  0.125973  1
  Ti  Ti14  1  0.836172  0.323734  0.871039  1
  Ti  Ti15  1  0.661669  0.009852  0.748339  1
  Ti  Ti16  1  0.165127  0.489067  0.748111  1
  Nb  Nb17  1  0.336424  0.993374  0.250107  1
  Nb  Nb18  1  0.837615  0.509195  0.250447  1
  Si  Si19  1  0.659025  0.036836  0.542493  1
  Si  Si20  1  0.161299  0.462388  0.958688  1
  Si  Si21  1  0.339020  0.963105  0.040415  1
  Si  Si22  1  0.838619  0.536180  0.459497  1
  Si  Si23  1  0.335608  0.963467  0.461870  1
  Si  Si24  1  0.838240  0.537272  0.039833  1
  Si  Si25  1  0.662758  0.036837  0.959000  1
  Si  Si26  1  0.163938  0.461003  0.541862  1
  Si  Si27  1  0.538379  0.375301  0.748944  1
  Si  Si28  1  0.040764  0.122962  0.749249  1
  Si  Si29  1  0.459888  0.622570  0.250506  1
  Si  Si30  1  0.959979  0.878571  0.250669  1
  Si  Si31  1  0.795186  0.627641  0.748966  1
  Si  Si32  1  0.296677  0.872142  0.749438  1
  Si  Si33  1  0.205855  0.372396  0.250552  1
  Si  Si34  1  0.704922  0.128822  0.250013  1
  Mo  Mo35  1  0.336538  0.175402  0.627786  1
