# generated using pymatgen
data_TbZr2Fe9
_symmetry_space_group_name_H-M   'P 1'
_cell_length_a   8.46294778
_cell_length_b   8.46294793
_cell_length_c   8.46294797
_cell_angle_alpha   34.31326124
_cell_angle_beta   34.31326319
_cell_angle_gamma   34.31326233
_symmetry_Int_Tables_number   1
_chemical_formula_structural   TbZr2Fe9
_chemical_formula_sum   'Tb1 Zr2 Fe9'
_cell_volume   171.78135376
_cell_formula_units_Z   1
loop_
 _symmetry_equiv_pos_site_id
 _symmetry_equiv_pos_as_xyz
  1  'x, y, z'
loop_
 _atom_site_type_symbol
 _atom_site_label
 _atom_site_symmetry_multiplicity
 _atom_site_fract_x
 _atom_site_fract_y
 _atom_site_fract_z
 _atom_site_occupancy
  Tb  Tb0  1  0.000000  0.000000  0.000000  1
  Zr  Zr1  1  0.142739  0.142739  0.142739  1
  Zr  Zr2  1  0.857261  0.857261  0.857261  1
  Fe  Fe3  1  0.500000  0.500000  0.500000  1
  Fe  Fe4  1  0.332757  0.332757  0.332757  1
  Fe  Fe5  1  0.667243  0.667243  0.667243  1
  Fe  Fe6  1  0.082867  0.585216  0.585216  1
  Fe  Fe7  1  0.585216  0.585216  0.082867  1
  Fe  Fe8  1  0.585216  0.082867  0.585216  1
  Fe  Fe9  1  0.414784  0.917133  0.414784  1
  Fe  Fe10  1  0.917133  0.414784  0.414784  1
  Fe  Fe11  1  0.414784  0.414784  0.917133  1
