# generated using pymatgen
data_TbHf(BeGe)2
_symmetry_space_group_name_H-M   'P 1'
_cell_length_a   3.82740000
_cell_length_b   3.82740082
_cell_length_c   7.77914200
_cell_angle_alpha   90.00000000
_cell_angle_beta   90.00000000
_cell_angle_gamma   120.00001020
_symmetry_Int_Tables_number   1
_chemical_formula_structural   TbHf(BeGe)2
_chemical_formula_sum   'Tb1 Hf1 Be2 Ge2'
_cell_volume   98.68930359
_cell_formula_units_Z   1
loop_
 _symmetry_equiv_pos_site_id
 _symmetry_equiv_pos_as_xyz
  1  'x, y, z'
loop_
 _atom_site_type_symbol
 _atom_site_label
 _atom_site_symmetry_multiplicity
 _atom_site_fract_x
 _atom_site_fract_y
 _atom_site_fract_z
 _atom_site_occupancy
  Tb  Tb0  1  0.000000  0.000000  0.000000  1
  Hf  Hf1  1  0.000000  0.000000  0.500000  1
  Be  Be2  1  0.333333  0.666667  0.272594  1
  Be  Be3  1  0.666667  0.333333  0.727406  1
  Ge  Ge4  1  0.333333  0.666667  0.737437  1
  Ge  Ge5  1  0.666667  0.333333  0.262563  1
