# generated using pymatgen
data_Nd6V(SiSe7)2
_symmetry_space_group_name_H-M   'P 1'
_cell_length_a   10.67153000
_cell_length_b   10.67153043
_cell_length_c   6.02165700
_cell_angle_alpha   90.00000000
_cell_angle_beta   90.00000000
_cell_angle_gamma   120.00000486
_symmetry_Int_Tables_number   1
_chemical_formula_structural   Nd6V(SiSe7)2
_chemical_formula_sum   'Nd6 V1 Si2 Se14'
_cell_volume   593.88180702
_cell_formula_units_Z   1
loop_
 _symmetry_equiv_pos_site_id
 _symmetry_equiv_pos_as_xyz
  1  'x, y, z'
loop_
 _atom_site_type_symbol
 _atom_site_label
 _atom_site_symmetry_multiplicity
 _atom_site_fract_x
 _atom_site_fract_y
 _atom_site_fract_z
 _atom_site_occupancy
  Nd  Nd0  1  0.875526  0.231057  0.250926  1
  Nd  Nd1  1  0.768943  0.644470  0.250926  1
  Nd  Nd2  1  0.355530  0.124474  0.250926  1
  Nd  Nd3  1  0.123247  0.769025  0.748055  1
  Nd  Nd4  1  0.230975  0.354222  0.748055  1
  Nd  Nd5  1  0.645778  0.876753  0.748055  1
  V  V6  1  0.000000  0.000000  0.485373  1
  Si  Si7  1  0.666667  0.333333  0.834152  1
  Si  Si8  1  0.333333  0.666667  0.337807  1
  Se  Se9  1  0.666667  0.333333  0.459341  1
  Se  Se10  1  0.333333  0.666667  0.963191  1
  Se  Se11  1  0.913798  0.157889  0.722893  1
  Se  Se12  1  0.842111  0.755910  0.722893  1
  Se  Se13  1  0.244090  0.086202  0.722893  1
  Se  Se14  1  0.082760  0.838907  0.251725  1
  Se  Se15  1  0.161093  0.243853  0.251725  1
  Se  Se16  1  0.756147  0.917240  0.251725  1
  Se  Se17  1  0.588074  0.107254  0.983929  1
  Se  Se18  1  0.892746  0.480820  0.983929  1
  Se  Se19  1  0.519180  0.411926  0.983929  1
  Se  Se20  1  0.412583  0.892594  0.487737  1
  Se  Se21  1  0.107406  0.519989  0.487737  1
  Se  Se22  1  0.480011  0.587417  0.487737  1
