# generated using pymatgen
data_Y7Ho(Er3Sn4)4
_symmetry_space_group_name_H-M   'P 1'
_cell_length_a   8.01151000
_cell_length_b   8.14594114
_cell_length_c   15.40057000
_cell_angle_alpha   90.01368750
_cell_angle_beta   89.99894155
_cell_angle_gamma   90.02706578
_symmetry_Int_Tables_number   1
_chemical_formula_structural   Y7Ho(Er3Sn4)4
_chemical_formula_sum   'Y7 Ho1 Er12 Sn16'
_cell_volume   1005.06090738
_cell_formula_units_Z   1
loop_
 _symmetry_equiv_pos_site_id
 _symmetry_equiv_pos_as_xyz
  1  'x, y, z'
loop_
 _atom_site_type_symbol
 _atom_site_label
 _atom_site_symmetry_multiplicity
 _atom_site_fract_x
 _atom_site_fract_y
 _atom_site_fract_z
 _atom_site_occupancy
  Y  Y0  1  0.521774  0.320366  0.902269  1
  Y  Y1  1  0.021494  0.179753  0.597660  1
  Y  Y2  1  0.478322  0.679681  0.402707  1
  Y  Y3  1  0.978593  0.820221  0.097332  1
  Y  Y4  1  0.478299  0.679694  0.097289  1
  Y  Y5  1  0.978473  0.820287  0.402686  1
  Y  Y6  1  0.521650  0.320352  0.597678  1
  Ho  Ho7  1  0.021251  0.179084  0.902586  1
  Er  Er8  1  0.367203  0.837084  0.877435  1
  Er  Er9  1  0.867320  0.663087  0.622693  1
  Er  Er10  1  0.632771  0.162961  0.377356  1
  Er  Er11  1  0.132620  0.336869  0.122518  1
  Er  Er12  1  0.632650  0.162965  0.122573  1
  Er  Er13  1  0.132735  0.337058  0.377270  1
  Er  Er14  1  0.367250  0.836952  0.622628  1
  Er  Er15  1  0.867259  0.662943  0.877312  1
  Er  Er16  1  0.198310  0.503615  0.750059  1
  Er  Er17  1  0.698560  0.996385  0.750029  1
  Er  Er18  1  0.801549  0.496313  0.249974  1
  Er  Er19  1  0.301609  0.003805  0.249976  1
  Sn  Sn20  1  0.293625  0.038037  0.041425  1
  Sn  Sn21  1  0.794305  0.462228  0.458346  1
  Sn  Sn22  1  0.705916  0.962027  0.541437  1
  Sn  Sn23  1  0.205513  0.537336  0.958361  1
  Sn  Sn24  1  0.706822  0.962622  0.958317  1
  Sn  Sn25  1  0.205663  0.537872  0.541482  1
  Sn  Sn26  1  0.294162  0.037964  0.458325  1
  Sn  Sn27  1  0.794299  0.462118  0.041583  1
  Sn  Sn28  1  0.564545  0.620037  0.750043  1
  Sn  Sn29  1  0.064679  0.880260  0.750159  1
  Sn  Sn30  1  0.435532  0.379982  0.249995  1
  Sn  Sn31  1  0.935329  0.120123  0.249949  1
  Sn  Sn32  1  0.330418  0.148115  0.750207  1
  Sn  Sn33  1  0.830905  0.351865  0.750369  1
  Sn  Sn34  1  0.669282  0.852075  0.249997  1
  Sn  Sn35  1  0.169313  0.647865  0.249973  1
