# generated using pymatgen
data_DyTh3(BiPt2)2
_symmetry_space_group_name_H-M   'P 1'
_cell_length_a   8.05270400
_cell_length_b   8.05270460
_cell_length_c   7.51314700
_cell_angle_alpha   90.00000000
_cell_angle_beta   90.00000000
_cell_angle_gamma   90.36073072
_symmetry_Int_Tables_number   1
_chemical_formula_structural   DyTh3(BiPt2)2
_chemical_formula_sum   'Dy2 Th6 Bi4 Pt8'
_cell_volume   487.18822406
_cell_formula_units_Z   2
loop_
 _symmetry_equiv_pos_site_id
 _symmetry_equiv_pos_as_xyz
  1  'x, y, z'
loop_
 _atom_site_type_symbol
 _atom_site_label
 _atom_site_symmetry_multiplicity
 _atom_site_fract_x
 _atom_site_fract_y
 _atom_site_fract_z
 _atom_site_occupancy
  Dy  Dy0  1  0.834320  0.165680  0.000000  1
  Dy  Dy1  1  0.165680  0.834320  0.000000  1
  Th  Th2  1  0.673357  0.673357  0.000000  1
  Th  Th3  1  0.330642  0.330642  0.500000  1
  Th  Th4  1  0.827574  0.172426  0.500000  1
  Th  Th5  1  0.669358  0.669358  0.500000  1
  Th  Th6  1  0.326643  0.326643  0.000000  1
  Th  Th7  1  0.172426  0.827574  0.500000  1
  Bi  Bi8  1  0.500000  0.000000  0.756021  1
  Bi  Bi9  1  0.500000  0.000000  0.243979  1
  Bi  Bi10  1  0.000000  0.500000  0.756021  1
  Bi  Bi11  1  0.000000  0.500000  0.243979  1
  Pt  Pt12  1  0.874039  0.874039  0.745876  1
  Pt  Pt13  1  0.125961  0.125961  0.745876  1
  Pt  Pt14  1  0.626559  0.373441  0.755998  1
  Pt  Pt15  1  0.626559  0.373441  0.244002  1
  Pt  Pt16  1  0.373441  0.626559  0.244002  1
  Pt  Pt17  1  0.125961  0.125961  0.254124  1
  Pt  Pt18  1  0.874039  0.874039  0.254124  1
  Pt  Pt19  1  0.373441  0.626559  0.755998  1
