# generated using pymatgen
data_Pr3TlF10
_symmetry_space_group_name_H-M   'P 1'
_cell_length_a   8.59692487
_cell_length_b   8.59692522
_cell_length_c   8.59692500
_cell_angle_alpha   59.99999699
_cell_angle_beta   59.99999563
_cell_angle_gamma   60.00000067
_symmetry_Int_Tables_number   1
_chemical_formula_structural   Pr3TlF10
_chemical_formula_sum   'Pr6 Tl2 F20'
_cell_volume   449.27721934
_cell_formula_units_Z   2
loop_
 _symmetry_equiv_pos_site_id
 _symmetry_equiv_pos_as_xyz
  1  'x, y, z'
loop_
 _atom_site_type_symbol
 _atom_site_label
 _atom_site_symmetry_multiplicity
 _atom_site_fract_x
 _atom_site_fract_y
 _atom_site_fract_z
 _atom_site_occupancy
  Pr  Pr0  1  0.760178  0.239825  0.239822  1
  Pr  Pr1  1  0.239822  0.760175  0.760178  1
  Pr  Pr2  1  0.239823  0.760174  0.239827  1
  Pr  Pr3  1  0.760177  0.239826  0.760173  1
  Pr  Pr4  1  0.239820  0.239818  0.760177  1
  Pr  Pr5  1  0.760180  0.760182  0.239823  1
  Tl  Tl6  1  0.250000  0.250000  0.250000  1
  Tl  Tl7  1  0.750000  0.750000  0.750000  1
  F  F8  1  0.832340  0.499997  0.500006  1
  F  F9  1  0.167660  0.500003  0.499994  1
  F  F10  1  0.499998  0.832344  0.167652  1
  F  F11  1  0.500002  0.167656  0.832348  1
  F  F12  1  0.500002  0.832340  0.500005  1
  F  F13  1  0.167659  0.500000  0.832343  1
  F  F14  1  0.499998  0.167660  0.499995  1
  F  F15  1  0.832341  0.500000  0.167657  1
  F  F16  1  0.500003  0.499999  0.832340  1
  F  F17  1  0.499997  0.500001  0.167660  1
  F  F18  1  0.167646  0.832352  0.499999  1
  F  F19  1  0.832354  0.167648  0.500001  1
  F  F20  1  0.111078  0.111065  0.111077  1
  F  F21  1  0.888922  0.888935  0.888923  1
  F  F22  1  0.111067  0.111077  0.666778  1
  F  F23  1  0.111076  0.666776  0.111079  1
  F  F24  1  0.888933  0.888923  0.333222  1
  F  F25  1  0.888924  0.333224  0.888921  1
  F  F26  1  0.666776  0.111077  0.111069  1
  F  F27  1  0.333224  0.888923  0.888931  1
