# generated using pymatgen
data_Li4Hg3Pd8Pb
_symmetry_space_group_name_H-M   'P 1'
_cell_length_a   5.87937700
_cell_length_b   5.87930112
_cell_length_c   7.50364700
_cell_angle_alpha   90.00046778
_cell_angle_beta   89.99859669
_cell_angle_gamma   90.01138257
_symmetry_Int_Tables_number   1
_chemical_formula_structural   Li4Hg3Pd8Pb
_chemical_formula_sum   'Li4 Hg3 Pd8 Pb1'
_cell_volume   259.37576756
_cell_formula_units_Z   1
loop_
 _symmetry_equiv_pos_site_id
 _symmetry_equiv_pos_as_xyz
  1  'x, y, z'
loop_
 _atom_site_type_symbol
 _atom_site_label
 _atom_site_symmetry_multiplicity
 _atom_site_fract_x
 _atom_site_fract_y
 _atom_site_fract_z
 _atom_site_occupancy
  Li  Li0  1  0.749992  0.250027  0.999964  1
  Li  Li1  1  0.250016  0.749982  0.999965  1
  Li  Li2  1  0.749997  0.250018  0.499995  1
  Li  Li3  1  0.250007  0.749976  0.500047  1
  Hg  Hg4  1  0.250012  0.249991  0.000038  1
  Hg  Hg5  1  0.749986  0.750012  0.000022  1
  Hg  Hg6  1  0.250019  0.250001  0.499960  1
  Pd  Pd7  1  0.999914  0.999895  0.253132  1
  Pd  Pd8  1  0.999918  0.500113  0.253133  1
  Pd  Pd9  1  0.500100  0.999895  0.253142  1
  Pd  Pd10  1  0.500101  0.500100  0.253129  1
  Pd  Pd11  1  0.500091  0.999916  0.746860  1
  Pd  Pd12  1  0.500083  0.500086  0.746873  1
  Pd  Pd13  1  0.999906  0.999916  0.746875  1
  Pd  Pd14  1  0.999899  0.500083  0.746872  1
  Pb  Pb15  1  0.749956  0.749991  0.500000  1
