# generated using pymatgen
data_Cr2Ga3Ru6W
_symmetry_space_group_name_H-M   'P 1'
_cell_length_a   4.29655500
_cell_length_b   6.07641400
_cell_length_c   12.83215900
_cell_angle_alpha   90.00000000
_cell_angle_beta   89.99906890
_cell_angle_gamma   90.00000000
_symmetry_Int_Tables_number   1
_chemical_formula_structural   Cr2Ga3Ru6W
_chemical_formula_sum   'Cr4 Ga6 Ru12 W2'
_cell_volume   335.01747680
_cell_formula_units_Z   2
loop_
 _symmetry_equiv_pos_site_id
 _symmetry_equiv_pos_as_xyz
  1  'x, y, z'
loop_
 _atom_site_type_symbol
 _atom_site_label
 _atom_site_symmetry_multiplicity
 _atom_site_fract_x
 _atom_site_fract_y
 _atom_site_fract_z
 _atom_site_occupancy
  Cr  Cr0  1  0.999797  0.000000  0.338520  1
  Cr  Cr1  1  0.500008  0.500000  0.503215  1
  Cr  Cr2  1  0.000211  0.000000  0.663314  1
  Cr  Cr3  1  0.500217  0.500000  0.828384  1
  Ga  Ga4  1  0.999994  0.500000  0.996931  1
  Ga  Ga5  1  0.499788  0.000000  0.169912  1
  Ga  Ga6  1  0.999768  0.500000  0.337692  1
  Ga  Ga7  1  0.500005  0.000000  0.501742  1
  Ga  Ga8  1  0.000228  0.500000  0.665012  1
  Ga  Ga9  1  0.500210  0.000000  0.828675  1
  Ru  Ru10  1  0.500001  0.250372  0.000004  1
  Ru  Ru11  1  0.500001  0.749629  0.000004  1
  Ru  Ru12  1  0.999810  0.249481  0.166686  1
  Ru  Ru13  1  0.999810  0.750520  0.166686  1
  Ru  Ru14  1  0.499781  0.248609  0.334731  1
  Ru  Ru15  1  0.499781  0.751390  0.334731  1
  Ru  Ru16  1  0.999999  0.249951  0.500176  1
  Ru  Ru17  1  0.999999  0.750048  0.500176  1
  Ru  Ru18  1  0.500192  0.250565  0.666414  1
  Ru  Ru19  1  0.500192  0.749434  0.666414  1
  Ru  Ru20  1  0.000208  0.251546  0.832006  1
  Ru  Ru21  1  0.000208  0.748455  0.832006  1
  W  W22  1  0.999994  0.000000  0.994413  1
  W  W23  1  0.499797  0.500000  0.172159  1
