# generated using pymatgen
data_Sr6TcRuO12
_symmetry_space_group_name_H-M   'P 1'
_cell_length_a   6.12567355
_cell_length_b   5.86572225
_cell_length_c   10.29709049
_cell_angle_alpha   54.79388384
_cell_angle_beta   89.42425719
_cell_angle_gamma   89.91892405
_symmetry_Int_Tables_number   1
_chemical_formula_structural   Sr6TcRuO12
_chemical_formula_sum   'Sr6 Tc1 Ru1 O12'
_cell_volume   302.29299075
_cell_formula_units_Z   1
loop_
 _symmetry_equiv_pos_site_id
 _symmetry_equiv_pos_as_xyz
  1  'x, y, z'
loop_
 _atom_site_type_symbol
 _atom_site_label
 _atom_site_symmetry_multiplicity
 _atom_site_fract_x
 _atom_site_fract_y
 _atom_site_fract_z
 _atom_site_occupancy
  Sr  Sr0  1  0.500000  0.500000  0.500000  1
  Sr  Sr1  1  0.951080  0.719148  0.268134  1
  Sr  Sr2  1  0.441281  0.254811  0.262001  1
  Sr  Sr3  1  0.000000  0.500000  0.000000  1
  Sr  Sr4  1  0.558719  0.745189  0.737999  1
  Sr  Sr5  1  0.048920  0.280852  0.731866  1
  Tc  Tc6  1  0.500000  0.000000  0.000000  1
  Ru  Ru7  1  0.000000  0.000000  0.500000  1
  O  O8  1  0.456875  0.111558  0.786489  1
  O  O9  1  0.238375  0.775453  0.065107  1
  O  O10  1  0.182150  0.317879  0.454101  1
  O  O11  1  0.667328  0.686867  0.046454  1
  O  O12  1  0.732948  0.235954  0.439308  1
  O  O13  1  0.954571  0.877431  0.723052  1
  O  O14  1  0.045429  0.122569  0.276948  1
  O  O15  1  0.267052  0.764046  0.560692  1
  O  O16  1  0.332672  0.313133  0.953546  1
  O  O17  1  0.817850  0.682121  0.545899  1
  O  O18  1  0.761625  0.224547  0.934893  1
  O  O19  1  0.543125  0.888442  0.213511  1
