# generated using pymatgen
data_Y4PaPd13Pt2
_symmetry_space_group_name_H-M   'P 1'
_cell_length_a   4.13872300
_cell_length_b   4.14665500
_cell_length_c   20.65736700
_cell_angle_alpha   90.00000000
_cell_angle_beta   90.00000000
_cell_angle_gamma   90.00000000
_symmetry_Int_Tables_number   1
_chemical_formula_structural   Y4PaPd13Pt2
_chemical_formula_sum   'Y4 Pa1 Pd13 Pt2'
_cell_volume   354.51876650
_cell_formula_units_Z   1
loop_
 _symmetry_equiv_pos_site_id
 _symmetry_equiv_pos_as_xyz
  1  'x, y, z'
loop_
 _atom_site_type_symbol
 _atom_site_label
 _atom_site_symmetry_multiplicity
 _atom_site_fract_x
 _atom_site_fract_y
 _atom_site_fract_z
 _atom_site_occupancy
  Y  Y0  1  0.000000  0.000000  0.203641  1
  Y  Y1  1  0.000000  0.000000  0.400231  1
  Y  Y2  1  0.000000  0.000000  0.599815  1
  Y  Y3  1  0.000000  0.000000  0.796088  1
  Pa  Pa4  1  0.000000  0.000000  0.000194  1
  Pd  Pd5  1  0.500000  0.500000  0.198413  1
  Pd  Pd6  1  0.500000  0.500000  0.399478  1
  Pd  Pd7  1  0.500000  0.500000  0.600475  1
  Pd  Pd8  1  0.500000  0.500000  0.801512  1
  Pd  Pd9  1  0.500000  0.000000  0.299614  1
  Pd  Pd10  1  0.500000  0.000000  0.499982  1
  Pd  Pd11  1  0.500000  0.000000  0.700398  1
  Pd  Pd12  1  0.500000  0.000000  0.902821  1
  Pd  Pd13  1  0.000000  0.500000  0.097391  1
  Pd  Pd14  1  0.000000  0.500000  0.299717  1
  Pd  Pd15  1  0.000000  0.500000  0.499964  1
  Pd  Pd16  1  0.000000  0.500000  0.700398  1
  Pd  Pd17  1  0.000000  0.500000  0.902771  1
  Pt  Pt18  1  0.500000  0.500000  0.000017  1
  Pt  Pt19  1  0.500000  0.000000  0.097081  1
