# generated using pymatgen
data_YTm5V2(Co4P3)4
_symmetry_space_group_name_H-M   'P 1'
_cell_length_a   3.66303000
_cell_length_b   10.50645100
_cell_length_c   12.15812400
_cell_angle_alpha   90.00000000
_cell_angle_beta   90.00000000
_cell_angle_gamma   90.00000000
_symmetry_Int_Tables_number   1
_chemical_formula_structural   YTm5V2(Co4P3)4
_chemical_formula_sum   'Y1 Tm5 V2 Co16 P12'
_cell_volume   467.91081502
_cell_formula_units_Z   1
loop_
 _symmetry_equiv_pos_site_id
 _symmetry_equiv_pos_as_xyz
  1  'x, y, z'
loop_
 _atom_site_type_symbol
 _atom_site_label
 _atom_site_symmetry_multiplicity
 _atom_site_fract_x
 _atom_site_fract_y
 _atom_site_fract_z
 _atom_site_occupancy
  Y  Y0  1  0.500000  0.000000  0.476714  1
  Tm  Tm1  1  0.000000  0.500000  0.523289  1
  Tm  Tm2  1  0.500000  0.818601  0.204181  1
  Tm  Tm3  1  0.500000  0.181399  0.204181  1
  Tm  Tm4  1  0.000000  0.681170  0.795622  1
  Tm  Tm5  1  0.000000  0.318830  0.795622  1
  V  V6  1  0.500000  0.500000  0.154672  1
  V  V7  1  0.000000  0.000000  0.845829  1
  Co  Co8  1  0.500000  0.500000  0.701680  1
  Co  Co9  1  0.000000  0.000000  0.297143  1
  Co  Co10  1  0.000000  0.500000  0.986340  1
  Co  Co11  1  0.500000  0.000000  0.013526  1
  Co  Co12  1  0.500000  0.332526  0.992601  1
  Co  Co13  1  0.500000  0.667474  0.992601  1
  Co  Co14  1  0.000000  0.167724  0.007325  1
  Co  Co15  1  0.000000  0.832276  0.007325  1
  Co  Co16  1  0.500000  0.296918  0.431233  1
  Co  Co17  1  0.500000  0.703082  0.431233  1
  Co  Co18  1  0.000000  0.204917  0.568970  1
  Co  Co19  1  0.000000  0.795083  0.568970  1
  Co  Co20  1  0.500000  0.877912  0.708085  1
  Co  Co21  1  0.500000  0.122088  0.708085  1
  Co  Co22  1  0.000000  0.621557  0.292277  1
  Co  Co23  1  0.000000  0.378443  0.292277  1
  P  P24  1  0.500000  0.500000  0.881000  1
  P  P25  1  0.000000  0.000000  0.118575  1
  P  P26  1  0.500000  0.500000  0.348257  1
  P  P27  1  0.000000  0.000000  0.653250  1
  P  P28  1  0.500000  0.312459  0.616498  1
  P  P29  1  0.500000  0.687541  0.616498  1
  P  P30  1  0.000000  0.188801  0.383013  1
  P  P31  1  0.000000  0.811199  0.383013  1
  P  P32  1  0.500000  0.845335  0.891490  1
  P  P33  1  0.500000  0.154665  0.891490  1
  P  P34  1  0.000000  0.654439  0.108570  1
  P  P35  1  0.000000  0.345561  0.108570  1
