# generated using pymatgen
data_TmMg3(GaPt)4
_symmetry_space_group_name_H-M   'P 1'
_cell_length_a   4.11545400
_cell_length_b   6.70706839
_cell_length_c   7.82476689
_cell_angle_alpha   93.22754860
_cell_angle_beta   90.00000000
_cell_angle_gamma   90.00000000
_symmetry_Int_Tables_number   1
_chemical_formula_structural   TmMg3(GaPt)4
_chemical_formula_sum   'Tm1 Mg3 Ga4 Pt4'
_cell_volume   215.64156456
_cell_formula_units_Z   1
loop_
 _symmetry_equiv_pos_site_id
 _symmetry_equiv_pos_as_xyz
  1  'x, y, z'
loop_
 _atom_site_type_symbol
 _atom_site_label
 _atom_site_symmetry_multiplicity
 _atom_site_fract_x
 _atom_site_fract_y
 _atom_site_fract_z
 _atom_site_occupancy
  Tm  Tm0  1  0.750000  0.526298  0.824613  1
  Mg  Mg1  1  0.250000  0.974648  0.329286  1
  Mg  Mg2  1  0.250000  0.472844  0.181834  1
  Mg  Mg3  1  0.750000  0.029482  0.664839  1
  Ga  Ga4  1  0.250000  0.345793  0.557642  1
  Ga  Ga5  1  0.250000  0.852948  0.945014  1
  Ga  Ga6  1  0.750000  0.649362  0.438031  1
  Ga  Ga7  1  0.750000  0.147313  0.058584  1
  Pt  Pt8  1  0.250000  0.223240  0.866474  1
  Pt  Pt9  1  0.250000  0.739854  0.625846  1
  Pt  Pt10  1  0.750000  0.773230  0.134907  1
  Pt  Pt11  1  0.750000  0.264987  0.372930  1
