# generated using pymatgen
data_NdPa3(InNi2)2
_symmetry_space_group_name_H-M   'P 1'
_cell_length_a   7.54778246
_cell_length_b   7.54778255
_cell_length_c   3.54815800
_cell_angle_alpha   90.00000000
_cell_angle_beta   90.00000000
_cell_angle_gamma   91.43275590
_symmetry_Int_Tables_number   1
_chemical_formula_structural   NdPa3(InNi2)2
_chemical_formula_sum   'Nd1 Pa3 In2 Ni4'
_cell_volume   202.07189081
_cell_formula_units_Z   1
loop_
 _symmetry_equiv_pos_site_id
 _symmetry_equiv_pos_as_xyz
  1  'x, y, z'
loop_
 _atom_site_type_symbol
 _atom_site_label
 _atom_site_symmetry_multiplicity
 _atom_site_fract_x
 _atom_site_fract_y
 _atom_site_fract_z
 _atom_site_occupancy
  Nd  Nd0  1  0.825259  0.674741  0.500000  1
  Pa  Pa1  1  0.674110  0.173081  0.500000  1
  Pa  Pa2  1  0.326919  0.825890  0.500000  1
  Pa  Pa3  1  0.171817  0.328183  0.500000  1
  In  In4  1  0.500955  0.499603  0.000000  1
  In  In5  1  0.000397  0.999045  0.000000  1
  Ni  Ni6  1  0.145933  0.615753  0.000000  1
  Ni  Ni7  1  0.884247  0.354067  0.000000  1
  Ni  Ni8  1  0.603768  0.896232  0.000000  1
  Ni  Ni9  1  0.366594  0.133406  0.000000  1
