# generated using pymatgen
data_Gd3(DyRh)2
_symmetry_space_group_name_H-M   'P 1'
_cell_length_a   6.44114408
_cell_length_b   7.17127461
_cell_length_c   8.68764600
_cell_angle_alpha   96.74461804
_cell_angle_beta   111.75924368
_cell_angle_gamma   90.00000133
_symmetry_Int_Tables_number   1
_chemical_formula_structural   Gd3(DyRh)2
_chemical_formula_sum   'Gd6 Dy4 Rh4'
_cell_volume   369.70882444
_cell_formula_units_Z   2
loop_
 _symmetry_equiv_pos_site_id
 _symmetry_equiv_pos_as_xyz
  1  'x, y, z'
loop_
 _atom_site_type_symbol
 _atom_site_label
 _atom_site_symmetry_multiplicity
 _atom_site_fract_x
 _atom_site_fract_y
 _atom_site_fract_z
 _atom_site_occupancy
  Gd  Gd0  1  0.792046  0.081173  0.811601  1
  Gd  Gd1  1  0.980445  0.418827  0.188399  1
  Gd  Gd2  1  0.208234  0.917299  0.188890  1
  Gd  Gd3  1  0.019343  0.582701  0.811110  1
  Gd  Gd4  1  0.211834  0.186121  0.563285  1
  Gd  Gd5  1  0.648547  0.313879  0.436715  1
  Dy  Dy6  1  0.788329  0.813294  0.436378  1
  Dy  Dy7  1  0.351951  0.686706  0.563622  1
  Dy  Dy8  1  0.425988  0.250000  0.000000  1
  Dy  Dy9  1  0.574058  0.750000  0.000000  1
  Rh  Rh10  1  0.595959  0.428348  0.778972  1
  Rh  Rh11  1  0.816987  0.071652  0.221028  1
  Rh  Rh12  1  0.404676  0.573572  0.223074  1
  Rh  Rh13  1  0.181603  0.926428  0.776926  1
