# generated using pymatgen
data_Lu20Bi11Ir
_symmetry_space_group_name_H-M   'P 1'
_cell_length_a   8.01963494
_cell_length_b   9.37427600
_cell_length_c   11.81203838
_cell_angle_alpha   90.00000000
_cell_angle_beta   89.60388020
_cell_angle_gamma   90.00000000
_symmetry_Int_Tables_number   1
_chemical_formula_structural   Lu20Bi11Ir
_chemical_formula_sum   'Lu20 Bi11 Ir1'
_cell_volume   887.98740360
_cell_formula_units_Z   1
loop_
 _symmetry_equiv_pos_site_id
 _symmetry_equiv_pos_as_xyz
  1  'x, y, z'
loop_
 _atom_site_type_symbol
 _atom_site_label
 _atom_site_symmetry_multiplicity
 _atom_site_fract_x
 _atom_site_fract_y
 _atom_site_fract_z
 _atom_site_occupancy
  Lu  Lu0  1  0.049600  0.250000  0.506050  1
  Lu  Lu1  1  0.984819  0.750000  0.492389  1
  Lu  Lu2  1  0.478534  0.750000  0.012051  1
  Lu  Lu3  1  0.527320  0.250000  0.991535  1
  Lu  Lu4  1  0.356753  0.250000  0.303101  1
  Lu  Lu5  1  0.654451  0.750000  0.719416  1
  Lu  Lu6  1  0.145378  0.750000  0.779378  1
  Lu  Lu7  1  0.848553  0.250000  0.215032  1
  Lu  Lu8  1  0.208640  0.250000  0.771082  1
  Lu  Lu9  1  0.808330  0.750000  0.216323  1
  Lu  Lu10  1  0.314325  0.750000  0.280323  1
  Lu  Lu11  1  0.645726  0.250000  0.702574  1
  Lu  Lu12  1  0.192901  0.067028  0.064441  1
  Lu  Lu13  1  0.807660  0.933310  0.941101  1
  Lu  Lu14  1  0.314610  0.968279  0.559096  1
  Lu  Lu15  1  0.807660  0.566690  0.941101  1
  Lu  Lu16  1  0.678548  0.075381  0.446627  1
  Lu  Lu17  1  0.192901  0.432972  0.064441  1
  Lu  Lu18  1  0.678548  0.424619  0.446627  1
  Lu  Lu19  1  0.314610  0.531721  0.559096  1
  Bi  Bi20  1  0.595470  0.750000  0.459425  1
  Bi  Bi21  1  0.097635  0.750000  0.042135  1
  Bi  Bi22  1  0.911303  0.250000  0.949718  1
  Bi  Bi23  1  0.056947  0.999238  0.322073  1
  Bi  Bi24  1  0.931397  0.001642  0.674900  1
  Bi  Bi25  1  0.433798  0.991630  0.830529  1
  Bi  Bi26  1  0.931397  0.498358  0.674900  1
  Bi  Bi27  1  0.564014  0.005047  0.175482  1
  Bi  Bi28  1  0.056947  0.500762  0.322073  1
  Bi  Bi29  1  0.564014  0.494953  0.175482  1
  Bi  Bi30  1  0.433798  0.508370  0.830529  1
  Ir  Ir31  1  0.413415  0.250000  0.530969  1
