# generated using pymatgen
data_Hf7Cu5S16
_symmetry_space_group_name_H-M   'P 1'
_cell_length_a   12.62059119
_cell_length_b   12.62059179
_cell_length_c   12.62059200
_cell_angle_alpha   33.12122558
_cell_angle_beta   33.12122138
_cell_angle_gamma   33.12122022
_symmetry_Int_Tables_number   1
_chemical_formula_structural   Hf7Cu5S16
_chemical_formula_sum   'Hf7 Cu5 S16'
_cell_volume   534.21155565
_cell_formula_units_Z   1
loop_
 _symmetry_equiv_pos_site_id
 _symmetry_equiv_pos_as_xyz
  1  'x, y, z'
loop_
 _atom_site_type_symbol
 _atom_site_label
 _atom_site_symmetry_multiplicity
 _atom_site_fract_x
 _atom_site_fract_y
 _atom_site_fract_z
 _atom_site_occupancy
  Hf  Hf0  1  0.426272  0.916195  0.916195  1
  Hf  Hf1  1  0.083805  0.083805  0.573728  1
  Hf  Hf2  1  0.916195  0.916195  0.426272  1
  Hf  Hf3  1  0.083805  0.573728  0.083805  1
  Hf  Hf4  1  0.573728  0.083805  0.083805  1
  Hf  Hf5  1  0.916195  0.426272  0.916195  1
  Hf  Hf6  1  0.000000  0.000000  0.000000  1
  Cu  Cu7  1  0.189073  0.189073  0.189073  1
  Cu  Cu8  1  0.354102  0.354102  0.354102  1
  Cu  Cu9  1  0.645898  0.645898  0.645898  1
  Cu  Cu10  1  0.810927  0.810927  0.810927  1
  Cu  Cu11  1  0.500000  0.500000  0.500000  1
  S  S12  1  0.384147  0.384147  0.860602  1
  S  S13  1  0.204346  0.204346  0.718404  1
  S  S14  1  0.795654  0.795654  0.281596  1
  S  S15  1  0.874415  0.874415  0.874415  1
  S  S16  1  0.615853  0.139398  0.615853  1
  S  S17  1  0.139398  0.615853  0.615853  1
  S  S18  1  0.281596  0.795654  0.795654  1
  S  S19  1  0.795654  0.281596  0.795654  1
  S  S20  1  0.860602  0.384147  0.384147  1
  S  S21  1  0.204346  0.718404  0.204346  1
  S  S22  1  0.718404  0.204346  0.204346  1
  S  S23  1  0.615853  0.615853  0.139398  1
  S  S24  1  0.290279  0.290279  0.290279  1
  S  S25  1  0.709721  0.709721  0.709721  1
  S  S26  1  0.384147  0.860602  0.384147  1
  S  S27  1  0.125585  0.125585  0.125585  1
