# generated using pymatgen
data_SrY2Al7Cu2
_symmetry_space_group_name_H-M   'P 1'
_cell_length_a   9.09197932
_cell_length_b   9.09198019
_cell_length_c   9.09197953
_cell_angle_alpha   35.83296981
_cell_angle_beta   35.83296273
_cell_angle_gamma   35.83296152
_symmetry_Int_Tables_number   1
_chemical_formula_structural   SrY2Al7Cu2
_chemical_formula_sum   'Sr1 Y2 Al7 Cu2'
_cell_volume   230.32170719
_cell_formula_units_Z   1
loop_
 _symmetry_equiv_pos_site_id
 _symmetry_equiv_pos_as_xyz
  1  'x, y, z'
loop_
 _atom_site_type_symbol
 _atom_site_label
 _atom_site_symmetry_multiplicity
 _atom_site_fract_x
 _atom_site_fract_y
 _atom_site_fract_z
 _atom_site_occupancy
  Sr  Sr0  1  0.000000  0.000000  0.000000  1
  Y  Y1  1  0.857663  0.857663  0.857663  1
  Y  Y2  1  0.142337  0.142337  0.142337  1
  Al  Al3  1  0.417254  0.417254  0.927173  1
  Al  Al4  1  0.927173  0.417254  0.417254  1
  Al  Al5  1  0.417254  0.927173  0.417254  1
  Al  Al6  1  0.500000  0.500000  0.500000  1
  Al  Al7  1  0.582746  0.072827  0.582746  1
  Al  Al8  1  0.072827  0.582746  0.582746  1
  Al  Al9  1  0.582746  0.582746  0.072827  1
  Cu  Cu10  1  0.664692  0.664692  0.664692  1
  Cu  Cu11  1  0.335308  0.335308  0.335308  1
