# generated using pymatgen
data_Cs2LiFe3F12
_symmetry_space_group_name_H-M   'P 1'
_cell_length_a   7.43244253
_cell_length_b   7.43244289
_cell_length_c   7.43244283
_cell_angle_alpha   60.46943356
_cell_angle_beta   60.46943216
_cell_angle_gamma   60.46943968
_symmetry_Int_Tables_number   1
_chemical_formula_structural   Cs2LiFe3F12
_chemical_formula_sum   'Cs2 Li1 Fe3 F12'
_cell_volume   293.40254035
_cell_formula_units_Z   1
loop_
 _symmetry_equiv_pos_site_id
 _symmetry_equiv_pos_as_xyz
  1  'x, y, z'
loop_
 _atom_site_type_symbol
 _atom_site_label
 _atom_site_symmetry_multiplicity
 _atom_site_fract_x
 _atom_site_fract_y
 _atom_site_fract_z
 _atom_site_occupancy
  Cs  Cs0  1  0.368999  0.368999  0.368999  1
  Cs  Cs1  1  0.631001  0.631001  0.631001  1
  Li  Li2  1  0.000000  0.000000  0.000000  1
  Fe  Fe3  1  0.500000  0.000000  0.000000  1
  Fe  Fe4  1  0.000000  0.000000  0.500000  1
  Fe  Fe5  1  0.000000  0.500000  0.000000  1
  F  F6  1  0.929196  0.315511  0.315511  1
  F  F7  1  0.333268  0.930381  0.930381  1
  F  F8  1  0.315511  0.315511  0.929196  1
  F  F9  1  0.930381  0.930381  0.333268  1
  F  F10  1  0.930381  0.333268  0.930381  1
  F  F11  1  0.315511  0.929196  0.315511  1
  F  F12  1  0.070804  0.684489  0.684489  1
  F  F13  1  0.666732  0.069619  0.069619  1
  F  F14  1  0.684489  0.684489  0.070804  1
  F  F15  1  0.069619  0.069619  0.666732  1
  F  F16  1  0.069619  0.666732  0.069619  1
  F  F17  1  0.684489  0.070804  0.684489  1
