# generated using pymatgen
data_Zr2Sc3Pb3Cl
_symmetry_space_group_name_H-M   'P 1'
_cell_length_a   8.78534300
_cell_length_b   8.78534356
_cell_length_c   6.07545300
_cell_angle_alpha   90.00000000
_cell_angle_beta   90.00000000
_cell_angle_gamma   120.00000919
_symmetry_Int_Tables_number   1
_chemical_formula_structural   Zr2Sc3Pb3Cl
_chemical_formula_sum   'Zr4 Sc6 Pb6 Cl2'
_cell_volume   406.09414573
_cell_formula_units_Z   2
loop_
 _symmetry_equiv_pos_site_id
 _symmetry_equiv_pos_as_xyz
  1  'x, y, z'
loop_
 _atom_site_type_symbol
 _atom_site_label
 _atom_site_symmetry_multiplicity
 _atom_site_fract_x
 _atom_site_fract_y
 _atom_site_fract_z
 _atom_site_occupancy
  Zr  Zr0  1  0.333333  0.666667  0.000000  1
  Zr  Zr1  1  0.666667  0.333333  0.000000  1
  Zr  Zr2  1  0.666667  0.333333  0.500000  1
  Zr  Zr3  1  0.333333  0.666667  0.500000  1
  Sc  Sc4  1  0.262028  0.000000  0.250000  1
  Sc  Sc5  1  0.737972  0.000000  0.750000  1
  Sc  Sc6  1  0.000000  0.262028  0.250000  1
  Sc  Sc7  1  0.000000  0.737972  0.750000  1
  Sc  Sc8  1  0.737972  0.737972  0.250000  1
  Sc  Sc9  1  0.262028  0.262028  0.750000  1
  Pb  Pb10  1  0.609680  0.000000  0.250000  1
  Pb  Pb11  1  0.390320  0.000000  0.750000  1
  Pb  Pb12  1  0.000000  0.609680  0.250000  1
  Pb  Pb13  1  0.000000  0.390320  0.750000  1
  Pb  Pb14  1  0.390320  0.390320  0.250000  1
  Pb  Pb15  1  0.609680  0.609680  0.750000  1
  Cl  Cl16  1  0.000000  0.000000  0.000000  1
  Cl  Cl17  1  0.000000  0.000000  0.500000  1
