# generated using pymatgen
data_Nb12Al3Ga2Pt3N4
_symmetry_space_group_name_H-M   'P 1'
_cell_length_a   7.06609018
_cell_length_b   7.06198718
_cell_length_c   7.06308210
_cell_angle_alpha   90.39548229
_cell_angle_beta   90.21924632
_cell_angle_gamma   90.26541392
_symmetry_Int_Tables_number   1
_chemical_formula_structural   Nb12Al3Ga2Pt3N4
_chemical_formula_sum   'Nb12 Al3 Ga2 Pt3 N4'
_cell_volume   352.43750394
_cell_formula_units_Z   1
loop_
 _symmetry_equiv_pos_site_id
 _symmetry_equiv_pos_as_xyz
  1  'x, y, z'
loop_
 _atom_site_type_symbol
 _atom_site_label
 _atom_site_symmetry_multiplicity
 _atom_site_fract_x
 _atom_site_fract_y
 _atom_site_fract_z
 _atom_site_occupancy
  Nb  Nb0  1  0.788062  0.956757  0.379812  1
  Nb  Nb1  1  0.709162  0.043690  0.873326  1
  Nb  Nb2  1  0.211064  0.455316  0.124082  1
  Nb  Nb3  1  0.290257  0.544055  0.622984  1
  Nb  Nb4  1  0.956268  0.380160  0.788659  1
  Nb  Nb5  1  0.043196  0.873087  0.710848  1
  Nb  Nb6  1  0.455731  0.123626  0.209921  1
  Nb  Nb7  1  0.544575  0.623797  0.290264  1
  Nb  Nb8  1  0.379152  0.788151  0.956494  1
  Nb  Nb9  1  0.873613  0.709739  0.043684  1
  Nb  Nb10  1  0.123561  0.211013  0.454977  1
  Nb  Nb11  1  0.622842  0.290037  0.544655  1
  Al  Al12  1  0.421433  0.933099  0.570209  1
  Al  Al13  1  0.933707  0.571044  0.421584  1
  Al  Al14  1  0.072566  0.072215  0.072727  1
  Ga  Ga15  1  0.677838  0.678833  0.676158  1
  Ga  Ga16  1  0.569947  0.423856  0.933323  1
  Pt  Pt17  1  0.177863  0.822992  0.318296  1
  Pt  Pt18  1  0.315901  0.175231  0.821791  1
  Pt  Pt19  1  0.825457  0.317363  0.180157  1
  N  N20  1  0.878879  0.126622  0.626004  1
  N  N21  1  0.625809  0.878709  0.125858  1
  N  N22  1  0.126923  0.625088  0.879219  1
  N  N23  1  0.376191  0.375517  0.374966  1
