# generated using pymatgen
data_Y3Tm5(AgRh)2
_symmetry_space_group_name_H-M   'P 1'
_cell_length_a   9.46468069
_cell_length_b   9.46265311
_cell_length_c   9.46370010
_cell_angle_alpha   60.00851712
_cell_angle_beta   59.99007672
_cell_angle_gamma   60.00053971
_symmetry_Int_Tables_number   1
_chemical_formula_structural   Y3Tm5(AgRh)2
_chemical_formula_sum   'Y6 Tm10 Ag4 Rh4'
_cell_volume   599.32444432
_cell_formula_units_Z   2
loop_
 _symmetry_equiv_pos_site_id
 _symmetry_equiv_pos_as_xyz
  1  'x, y, z'
loop_
 _atom_site_type_symbol
 _atom_site_label
 _atom_site_symmetry_multiplicity
 _atom_site_fract_x
 _atom_site_fract_y
 _atom_site_fract_z
 _atom_site_occupancy
  Y  Y0  1  0.186917  0.813079  0.813086  1
  Y  Y1  1  0.813080  0.186933  0.186908  1
  Y  Y2  1  0.813320  0.186693  0.813311  1
  Y  Y3  1  0.186674  0.813324  0.186688  1
  Y  Y4  1  0.813179  0.813173  0.186824  1
  Y  Y5  1  0.186827  0.186831  0.813173  1
  Tm  Tm6  1  0.603320  0.603231  0.603294  1
  Tm  Tm7  1  0.603236  0.603283  0.190189  1
  Tm  Tm8  1  0.603323  0.190168  0.603283  1
  Tm  Tm9  1  0.190133  0.603310  0.603234  1
  Tm  Tm10  1  0.063092  0.436918  0.436917  1
  Tm  Tm11  1  0.436917  0.063076  0.063078  1
  Tm  Tm12  1  0.436554  0.063445  0.436548  1
  Tm  Tm13  1  0.063446  0.436556  0.063440  1
  Tm  Tm14  1  0.436725  0.436730  0.063268  1
  Tm  Tm15  1  0.063272  0.063260  0.436733  1
  Ag  Ag16  1  0.831490  0.831533  0.831527  1
  Ag  Ag17  1  0.831532  0.831482  0.505451  1
  Ag  Ag18  1  0.831504  0.505482  0.831482  1
  Ag  Ag19  1  0.505450  0.831512  0.831549  1
  Rh  Rh20  1  0.393901  0.393698  0.393859  1
  Rh  Rh21  1  0.393699  0.393907  0.818526  1
  Rh  Rh22  1  0.393852  0.818526  0.393907  1
  Rh  Rh23  1  0.818559  0.393851  0.393726  1
