# generated using pymatgen
data_Ho3Tm5Re3B24Ru
_symmetry_space_group_name_H-M   'P 1'
_cell_length_a   3.64598100
_cell_length_b   9.10898748
_cell_length_c   11.48622901
_cell_angle_alpha   89.89516993
_cell_angle_beta   90.00000000
_cell_angle_gamma   90.00000000
_symmetry_Int_Tables_number   1
_chemical_formula_structural   Ho3Tm5Re3B24Ru
_chemical_formula_sum   'Ho3 Tm5 Re3 B24 Ru1'
_cell_volume   381.47075622
_cell_formula_units_Z   1
loop_
 _symmetry_equiv_pos_site_id
 _symmetry_equiv_pos_as_xyz
  1  'x, y, z'
loop_
 _atom_site_type_symbol
 _atom_site_label
 _atom_site_symmetry_multiplicity
 _atom_site_fract_x
 _atom_site_fract_y
 _atom_site_fract_z
 _atom_site_occupancy
  Ho  Ho0  1  0.000000  0.322705  0.413627  1
  Ho  Ho1  1  0.000000  0.675682  0.584377  1
  Ho  Ho2  1  0.000000  0.822341  0.087585  1
  Tm  Tm3  1  0.000000  0.178672  0.914162  1
  Tm  Tm4  1  0.000000  0.943142  0.371066  1
  Tm  Tm5  1  0.000000  0.056869  0.630406  1
  Tm  Tm6  1  0.000000  0.443523  0.128948  1
  Tm  Tm7  1  0.000000  0.558079  0.869984  1
  Re  Re8  1  0.000000  0.638576  0.320304  1
  Re  Re9  1  0.000000  0.361116  0.680471  1
  Re  Re10  1  0.000000  0.138142  0.178110  1
  B  B11  1  0.500000  0.552835  0.432868  1
  B  B12  1  0.500000  0.446642  0.566906  1
  B  B13  1  0.500000  0.053032  0.066301  1
  B  B14  1  0.500000  0.946529  0.932708  1
  B  B15  1  0.500000  0.749387  0.418916  1
  B  B16  1  0.500000  0.249755  0.581460  1
  B  B17  1  0.500000  0.250082  0.080440  1
  B  B18  1  0.500000  0.751046  0.918499  1
  B  B19  1  0.500000  0.792507  0.265764  1
  B  B20  1  0.500000  0.207474  0.735528  1
  B  B21  1  0.500000  0.292371  0.234112  1
  B  B22  1  0.500000  0.708855  0.765453  1
  B  B23  1  0.500000  0.630667  0.185018  1
  B  B24  1  0.500000  0.369279  0.815726  1
  B  B25  1  0.500000  0.130098  0.314451  1
  B  B26  1  0.500000  0.869196  0.685496  1
  B  B27  1  0.500000  0.981331  0.212244  1
  B  B28  1  0.500000  0.017485  0.788210  1
  B  B29  1  0.500000  0.481601  0.287221  1
  B  B30  1  0.500000  0.518258  0.712307  1
  B  B31  1  0.500000  0.601538  0.027759  1
  B  B32  1  0.500000  0.400058  0.971619  1
  B  B33  1  0.500000  0.100253  0.472557  1
  B  B34  1  0.500000  0.899117  0.528661  1
  Ru  Ru35  1  0.000000  0.861756  0.820734  1
