# generated using pymatgen
data_Sr12DyY7(GeO4)12
_symmetry_space_group_name_H-M   'P 1'
_cell_length_a   11.48575637
_cell_length_b   11.48575605
_cell_length_c   11.48577400
_cell_angle_alpha   109.47125053
_cell_angle_beta   109.47124996
_cell_angle_gamma   109.47118940
_symmetry_Int_Tables_number   1
_chemical_formula_structural   Sr12DyY7(GeO4)12
_chemical_formula_sum   'Sr12 Dy1 Y7 Ge12 O48'
_cell_volume   1166.42659688
_cell_formula_units_Z   1
loop_
 _symmetry_equiv_pos_site_id
 _symmetry_equiv_pos_as_xyz
  1  'x, y, z'
loop_
 _atom_site_type_symbol
 _atom_site_label
 _atom_site_symmetry_multiplicity
 _atom_site_fract_x
 _atom_site_fract_y
 _atom_site_fract_z
 _atom_site_occupancy
  Sr  Sr0  1  0.749998  0.124999  0.374998  1
  Sr  Sr1  1  0.250000  0.375000  0.125000  1
  Sr  Sr2  1  0.125000  0.250000  0.375000  1
  Sr  Sr3  1  0.375001  0.750002  0.125000  1
  Sr  Sr4  1  0.750000  0.625000  0.875000  1
  Sr  Sr5  1  0.125000  0.375000  0.750000  1
  Sr  Sr6  1  0.624999  0.875001  0.750001  1
  Sr  Sr7  1  0.250002  0.875001  0.625002  1
  Sr  Sr8  1  0.875000  0.625000  0.250000  1
  Sr  Sr9  1  0.624999  0.249998  0.875000  1
  Sr  Sr10  1  0.875000  0.750000  0.625000  1
  Sr  Sr11  1  0.375001  0.124999  0.249999  1
  Dy  Dy12  1  0.500000  0.000000  0.000000  1
  Y  Y13  1  0.000000  0.000000  0.000000  1
  Y  Y14  1  0.000000  0.500000  0.000000  1
  Y  Y15  1  0.500000  0.500000  0.000000  1
  Y  Y16  1  0.000000  0.500000  0.500000  1
  Y  Y17  1  0.500000  0.000000  0.500000  1
  Y  Y18  1  0.500000  0.500000  0.500000  1
  Y  Y19  1  0.000000  0.000000  0.500000  1
  Ge  Ge20  1  0.125000  0.875000  0.250000  1
  Ge  Ge21  1  0.875000  0.125000  0.750000  1
  Ge  Ge22  1  0.250000  0.625000  0.375000  1
  Ge  Ge23  1  0.375000  0.250000  0.625001  1
  Ge  Ge24  1  0.750001  0.874999  0.125005  1
  Ge  Ge25  1  0.124999  0.749999  0.875004  1
  Ge  Ge26  1  0.374999  0.624999  0.749994  1
  Ge  Ge27  1  0.625000  0.750000  0.374999  1
  Ge  Ge28  1  0.875001  0.250001  0.124996  1
  Ge  Ge29  1  0.249999  0.125001  0.874995  1
  Ge  Ge30  1  0.750000  0.375000  0.625000  1
  Ge  Ge31  1  0.625001  0.375001  0.250006  1
  O  O32  1  0.409827  0.802407  0.789959  1
  O  O33  1  0.880045  0.392505  0.090239  1
  O  O34  1  0.107495  0.987540  0.697733  1
  O  O35  1  0.512460  0.619955  0.710193  1
  O  O36  1  0.697733  0.090237  0.710191  1
  O  O37  1  0.619955  0.710192  0.512459  1
  O  O38  1  0.619954  0.409761  0.107498  1
  O  O39  1  0.710192  0.512459  0.619956  1
  O  O40  1  0.802271  0.512462  0.392505  1
  O  O41  1  0.987538  0.789808  0.880043  1
  O  O42  1  0.789807  0.880046  0.987544  1
  O  O43  1  0.710192  0.697729  0.090234  1
  O  O44  1  0.409763  0.107497  0.619954  1
  O  O45  1  0.392503  0.802267  0.512458  1
  O  O46  1  0.090239  0.710193  0.697737  1
  O  O47  1  0.107496  0.619955  0.409763  1
  O  O48  1  0.512459  0.392504  0.802268  1
  O  O49  1  0.090237  0.880045  0.392504  1
  O  O50  1  0.987541  0.697734  0.107497  1
  O  O51  1  0.197729  0.487538  0.607495  1
  O  O52  1  0.697593  0.107421  0.987552  1
  O  O53  1  0.789808  0.409763  0.802267  1
  O  O54  1  0.392579  0.090173  0.880132  1
  O  O55  1  0.880045  0.987541  0.789809  1
  O  O56  1  0.590173  0.197593  0.210041  1
  O  O57  1  0.119955  0.607495  0.909761  1
  O  O58  1  0.892505  0.012460  0.302267  1
  O  O59  1  0.487540  0.380045  0.289807  1
  O  O60  1  0.302267  0.909763  0.289809  1
  O  O61  1  0.380045  0.289808  0.487541  1
  O  O62  1  0.380046  0.590239  0.892502  1
  O  O63  1  0.289808  0.487541  0.380044  1
  O  O64  1  0.119955  0.012459  0.210191  1
  O  O65  1  0.607421  0.909827  0.119868  1
  O  O66  1  0.210192  0.590237  0.197733  1
  O  O67  1  0.197734  0.210192  0.590237  1
  O  O68  1  0.302407  0.892579  0.012448  1
  O  O69  1  0.012459  0.302266  0.892503  1
  O  O70  1  0.909763  0.119955  0.607496  1
  O  O71  1  0.487541  0.607496  0.197732  1
  O  O72  1  0.892504  0.380045  0.590237  1
  O  O73  1  0.909761  0.289807  0.302263  1
  O  O74  1  0.607497  0.197733  0.487542  1
  O  O75  1  0.590237  0.892503  0.380046  1
  O  O76  1  0.289808  0.302271  0.909766  1
  O  O77  1  0.210193  0.119954  0.012456  1
  O  O78  1  0.012462  0.210192  0.119957  1
  O  O79  1  0.802266  0.789808  0.409763  1
