# generated using pymatgen
data_TbDy2Cu2Ni7
_symmetry_space_group_name_H-M   'P 1'
_cell_length_a   8.63509990
_cell_length_b   8.63509921
_cell_length_c   8.61887655
_cell_angle_alpha   33.43644391
_cell_angle_beta   33.43644834
_cell_angle_gamma   33.45372474
_symmetry_Int_Tables_number   1
_chemical_formula_structural   TbDy2Cu2Ni7
_chemical_formula_sum   'Tb1 Dy2 Cu2 Ni7'
_cell_volume   173.82008607
_cell_formula_units_Z   1
loop_
 _symmetry_equiv_pos_site_id
 _symmetry_equiv_pos_as_xyz
  1  'x, y, z'
loop_
 _atom_site_type_symbol
 _atom_site_label
 _atom_site_symmetry_multiplicity
 _atom_site_fract_x
 _atom_site_fract_y
 _atom_site_fract_z
 _atom_site_occupancy
  Tb  Tb0  1  0.998282  0.998282  0.000596  1
  Dy  Dy1  1  0.139989  0.139989  0.140654  1
  Dy  Dy2  1  0.862745  0.862745  0.859228  1
  Cu  Cu3  1  0.582444  0.582444  0.080185  1
  Cu  Cu4  1  0.329772  0.329772  0.339910  1
  Ni  Ni5  1  0.417232  0.918536  0.415368  1
  Ni  Ni6  1  0.918536  0.417232  0.415368  1
  Ni  Ni7  1  0.500468  0.500468  0.500449  1
  Ni  Ni8  1  0.584291  0.080304  0.584721  1
  Ni  Ni9  1  0.080304  0.584291  0.584721  1
  Ni  Ni10  1  0.668674  0.668674  0.660797  1
  Ni  Ni11  1  0.417266  0.417266  0.918005  1
