# generated using pymatgen
data_Sc6GaSe2
_symmetry_space_group_name_H-M   'P 1'
_cell_length_a   3.75829200
_cell_length_b   10.42988300
_cell_length_c   19.44630000
_cell_angle_alpha   90.00000000
_cell_angle_beta   90.00000000
_cell_angle_gamma   90.00000000
_symmetry_Int_Tables_number   1
_chemical_formula_structural   Sc6GaSe2
_chemical_formula_sum   'Sc24 Ga4 Se8'
_cell_volume   762.26668197
_cell_formula_units_Z   4
loop_
 _symmetry_equiv_pos_site_id
 _symmetry_equiv_pos_as_xyz
  1  'x, y, z'
loop_
 _atom_site_type_symbol
 _atom_site_label
 _atom_site_symmetry_multiplicity
 _atom_site_fract_x
 _atom_site_fract_y
 _atom_site_fract_z
 _atom_site_occupancy
  Sc  Sc0  1  0.250000  0.386839  0.988902  1
  Sc  Sc1  1  0.750000  0.613161  0.011098  1
  Sc  Sc2  1  0.750000  0.886839  0.511098  1
  Sc  Sc3  1  0.250000  0.113161  0.488902  1
  Sc  Sc4  1  0.250000  0.924261  0.645643  1
  Sc  Sc5  1  0.750000  0.075739  0.354357  1
  Sc  Sc6  1  0.750000  0.424261  0.854357  1
  Sc  Sc7  1  0.250000  0.575739  0.145643  1
  Sc  Sc8  1  0.250000  0.873478  0.031294  1
  Sc  Sc9  1  0.750000  0.126522  0.968706  1
  Sc  Sc10  1  0.750000  0.373478  0.468706  1
  Sc  Sc11  1  0.250000  0.626522  0.531294  1
  Sc  Sc12  1  0.250000  0.832748  0.389120  1
  Sc  Sc13  1  0.750000  0.167252  0.610880  1
  Sc  Sc14  1  0.750000  0.332748  0.110880  1
  Sc  Sc15  1  0.250000  0.667252  0.889120  1
  Sc  Sc16  1  0.250000  0.526779  0.336160  1
  Sc  Sc17  1  0.750000  0.473221  0.663840  1
  Sc  Sc18  1  0.750000  0.026779  0.163840  1
  Sc  Sc19  1  0.250000  0.973221  0.836160  1
  Sc  Sc20  1  0.250000  0.253235  0.234089  1
  Sc  Sc21  1  0.750000  0.746765  0.765911  1
  Sc  Sc22  1  0.750000  0.753235  0.265911  1
  Sc  Sc23  1  0.250000  0.246765  0.734089  1
  Ga  Ga24  1  0.250000  0.137040  0.076721  1
  Ga  Ga25  1  0.750000  0.862960  0.923279  1
  Ga  Ga26  1  0.750000  0.637040  0.423279  1
  Ga  Ga27  1  0.250000  0.362960  0.576721  1
  Se  Se28  1  0.250000  0.225979  0.875040  1
  Se  Se29  1  0.750000  0.774021  0.124960  1
  Se  Se30  1  0.750000  0.725979  0.624960  1
  Se  Se31  1  0.250000  0.274021  0.375040  1
  Se  Se32  1  0.250000  0.535525  0.764283  1
  Se  Se33  1  0.750000  0.464475  0.235717  1
  Se  Se34  1  0.750000  0.035525  0.735717  1
  Se  Se35  1  0.250000  0.964475  0.264283  1
