# generated using pymatgen
data_La10Fe2Cl15
_symmetry_space_group_name_H-M   'P 1'
_cell_length_a   9.07916507
_cell_length_b   10.66250381
_cell_length_c   11.10466914
_cell_angle_alpha   90.76098462
_cell_angle_beta   114.46075354
_cell_angle_gamma   110.66522637
_symmetry_Int_Tables_number   1
_chemical_formula_structural   La10Fe2Cl15
_chemical_formula_sum   'La10 Fe2 Cl15'
_cell_volume   899.37879946
_cell_formula_units_Z   1
loop_
 _symmetry_equiv_pos_site_id
 _symmetry_equiv_pos_as_xyz
  1  'x, y, z'
loop_
 _atom_site_type_symbol
 _atom_site_label
 _atom_site_symmetry_multiplicity
 _atom_site_fract_x
 _atom_site_fract_y
 _atom_site_fract_z
 _atom_site_occupancy
  La  La0  1  0.230034  0.584954  0.050775  1
  La  La1  1  0.769966  0.415046  0.949225  1
  La  La2  1  0.330084  0.916690  0.270906  1
  La  La3  1  0.669916  0.083310  0.729094  1
  La  La4  1  0.121430  0.554536  0.358691  1
  La  La5  1  0.878570  0.445464  0.641309  1
  La  La6  1  0.836683  0.743744  0.171725  1
  La  La7  1  0.163317  0.256256  0.828275  1
  La  La8  1  0.967223  0.804565  0.881076  1
  La  La9  1  0.032777  0.195435  0.118924  1
  Fe  Fe10  1  0.034953  0.684942  0.122570  1
  Fe  Fe11  1  0.965047  0.315058  0.877430  1
  Cl  Cl12  1  0.326351  0.440286  0.291356  1
  Cl  Cl13  1  0.673649  0.559714  0.708644  1
  Cl  Cl14  1  0.174173  0.711650  0.801623  1
  Cl  Cl15  1  0.825827  0.288350  0.198377  1
  Cl  Cl16  1  0.131526  0.390505  0.589647  1
  Cl  Cl17  1  0.868474  0.609495  0.410353  1
  Cl  Cl18  1  0.400545  0.809500  0.517827  1
  Cl  Cl19  1  0.599455  0.190500  0.482173  1
  Cl  Cl20  1  0.245335  0.080252  0.047440  1
  Cl  Cl21  1  0.754665  0.919748  0.952560  1
  Cl  Cl22  1  0.567220  0.835338  0.213575  1
  Cl  Cl23  1  0.432780  0.164662  0.786425  1
  Cl  Cl24  1  0.100316  0.016187  0.324998  1
  Cl  Cl25  1  0.899684  0.983813  0.675002  1
  Cl  Cl26  1  0.500000  0.500000  0.000000  1
