# generated using pymatgen
data_Yb(Zn2Ag)4
_symmetry_space_group_name_H-M   'P 1'
_cell_length_a   7.01115568
_cell_length_b   7.01115557
_cell_length_c   7.01115481
_cell_angle_alpha   97.82909016
_cell_angle_beta   97.82909053
_cell_angle_gamma   136.68245245
_symmetry_Int_Tables_number   1
_chemical_formula_structural   Yb(Zn2Ag)4
_chemical_formula_sum   'Yb1 Zn8 Ag4'
_cell_volume   219.74597267
_cell_formula_units_Z   1
loop_
 _symmetry_equiv_pos_site_id
 _symmetry_equiv_pos_as_xyz
  1  'x, y, z'
loop_
 _atom_site_type_symbol
 _atom_site_label
 _atom_site_symmetry_multiplicity
 _atom_site_fract_x
 _atom_site_fract_y
 _atom_site_fract_z
 _atom_site_occupancy
  Yb  Yb0  1  0.000000  0.000000  0.000000  1
  Zn  Zn1  1  0.000000  0.000000  0.500000  1
  Zn  Zn2  1  0.500000  0.500000  0.500000  1
  Zn  Zn3  1  0.500000  0.000000  0.000000  1
  Zn  Zn4  1  0.000000  0.500000  0.000000  1
  Zn  Zn5  1  0.500000  0.287861  0.787861  1
  Zn  Zn6  1  0.500000  0.712139  0.212139  1
  Zn  Zn7  1  0.712139  0.500000  0.212139  1
  Zn  Zn8  1  0.287861  0.500000  0.787861  1
  Ag  Ag9  1  0.000000  0.344308  0.344308  1
  Ag  Ag10  1  0.000000  0.655692  0.655692  1
  Ag  Ag11  1  0.655692  0.000000  0.655692  1
  Ag  Ag12  1  0.344308  0.000000  0.344308  1
