# generated using pymatgen
data_Zr10BeSn5Bi2
_symmetry_space_group_name_H-M   'P 1'
_cell_length_a   8.78977993
_cell_length_b   8.77209915
_cell_length_c   5.93914202
_cell_angle_alpha   89.99008963
_cell_angle_beta   90.00494141
_cell_angle_gamma   119.93348156
_symmetry_Int_Tables_number   1
_chemical_formula_structural   Zr10BeSn5Bi2
_chemical_formula_sum   'Zr10 Be1 Sn5 Bi2'
_cell_volume   396.85017841
_cell_formula_units_Z   1
loop_
 _symmetry_equiv_pos_site_id
 _symmetry_equiv_pos_as_xyz
  1  'x, y, z'
loop_
 _atom_site_type_symbol
 _atom_site_label
 _atom_site_symmetry_multiplicity
 _atom_site_fract_x
 _atom_site_fract_y
 _atom_site_fract_z
 _atom_site_occupancy
  Zr  Zr0  1  0.329028  0.664515  0.000000  1
  Zr  Zr1  1  0.667288  0.333643  0.500000  1
  Zr  Zr2  1  0.667632  0.333815  0.000000  1
  Zr  Zr3  1  0.329507  0.664754  0.500000  1
  Zr  Zr4  1  0.263876  0.000109  0.224415  1
  Zr  Zr5  1  0.263876  0.263767  0.775585  1
  Zr  Zr6  1  0.004384  0.735053  0.775154  1
  Zr  Zr7  1  0.004384  0.269331  0.224846  1
  Zr  Zr8  1  0.735871  0.731840  0.227156  1
  Zr  Zr9  1  0.735871  0.004032  0.772844  1
  Be  Be10  1  0.999996  0.999998  0.000000  1
  Sn  Sn11  1  0.000951  0.000476  0.500000  1
  Sn  Sn12  1  0.000032  0.389874  0.742778  1
  Sn  Sn13  1  0.000032  0.610158  0.257222  1
  Sn  Sn14  1  0.388471  0.388284  0.255919  1
  Sn  Sn15  1  0.388471  0.000187  0.744081  1
  Bi  Bi16  1  0.610166  0.999892  0.257734  1
  Bi  Bi17  1  0.610166  0.610274  0.742266  1
