# generated using pymatgen
data_AcPr4Bi3O14
_symmetry_space_group_name_H-M   'P 1'
_cell_length_a   6.79817139
_cell_length_b   6.86751148
_cell_length_c   8.01795100
_cell_angle_alpha   106.68874067
_cell_angle_beta   89.68248595
_cell_angle_gamma   97.77066796
_symmetry_Int_Tables_number   1
_chemical_formula_structural   AcPr4Bi3O14
_chemical_formula_sum   'Ac1 Pr4 Bi3 O14'
_cell_volume   355.05186014
_cell_formula_units_Z   1
loop_
 _symmetry_equiv_pos_site_id
 _symmetry_equiv_pos_as_xyz
  1  'x, y, z'
loop_
 _atom_site_type_symbol
 _atom_site_label
 _atom_site_symmetry_multiplicity
 _atom_site_fract_x
 _atom_site_fract_y
 _atom_site_fract_z
 _atom_site_occupancy
  Ac  Ac0  1  0.761768  0.491516  0.619470  1
  Pr  Pr1  1  0.455708  0.008173  0.254476  1
  Pr  Pr2  1  0.535556  0.002440  0.750414  1
  Pr  Pr3  1  0.267462  0.531143  0.884473  1
  Pr  Pr4  1  0.744119  0.461603  0.114926  1
  Bi  Bi5  1  0.994659  0.997694  0.498729  1
  Bi  Bi6  1  0.998499  0.996780  0.998513  1
  Bi  Bi7  1  0.289994  0.539534  0.388251  1
  O  O8  1  0.442942  0.647889  0.173602  1
  O  O9  1  0.557550  0.359979  0.842326  1
  O  O10  1  0.294144  0.922304  0.954130  1
  O  O11  1  0.703723  0.071131  0.048502  1
  O  O12  1  0.289555  0.924453  0.510870  1
  O  O13  1  0.704034  0.078662  0.490886  1
  O  O14  1  0.543460  0.365818  0.339885  1
  O  O15  1  0.447962  0.639665  0.650401  1
  O  O16  1  0.926705  0.671525  0.950346  1
  O  O17  1  0.068017  0.314137  0.027028  1
  O  O18  1  0.080254  0.317972  0.625966  1
  O  O19  1  0.906883  0.677185  0.382051  1
  O  O20  1  0.884288  0.912810  0.728651  1
  O  O21  1  0.102720  0.067588  0.266105  1
