# generated using pymatgen
data_Nd3Fe2P6Ir7
_symmetry_space_group_name_H-M   'P 1'
_cell_length_a   3.95179700
_cell_length_b   11.28571400
_cell_length_c   12.76113200
_cell_angle_alpha   90.00000000
_cell_angle_beta   90.00000000
_cell_angle_gamma   90.00000000
_symmetry_Int_Tables_number   1
_chemical_formula_structural   Nd3Fe2P6Ir7
_chemical_formula_sum   'Nd6 Fe4 P12 Ir14'
_cell_volume   569.13182119
_cell_formula_units_Z   2
loop_
 _symmetry_equiv_pos_site_id
 _symmetry_equiv_pos_as_xyz
  1  'x, y, z'
loop_
 _atom_site_type_symbol
 _atom_site_label
 _atom_site_symmetry_multiplicity
 _atom_site_fract_x
 _atom_site_fract_y
 _atom_site_fract_z
 _atom_site_occupancy
  Nd  Nd0  1  0.000000  0.500000  0.515980  1
  Nd  Nd1  1  0.500000  0.000000  0.484020  1
  Nd  Nd2  1  0.500000  0.819761  0.199524  1
  Nd  Nd3  1  0.500000  0.180239  0.199524  1
  Nd  Nd4  1  0.000000  0.680239  0.800476  1
  Nd  Nd5  1  0.000000  0.319761  0.800476  1
  Fe  Fe6  1  0.500000  0.500000  0.161046  1
  Fe  Fe7  1  0.000000  0.000000  0.838954  1
  Fe  Fe8  1  0.000000  0.500000  0.988877  1
  Fe  Fe9  1  0.500000  0.000000  0.011123  1
  P  P10  1  0.500000  0.500000  0.887113  1
  P  P11  1  0.000000  0.000000  0.112887  1
  P  P12  1  0.500000  0.500000  0.336991  1
  P  P13  1  0.000000  0.000000  0.663009  1
  P  P14  1  0.500000  0.312299  0.619536  1
  P  P15  1  0.500000  0.687701  0.619536  1
  P  P16  1  0.000000  0.187701  0.380464  1
  P  P17  1  0.000000  0.812299  0.380464  1
  P  P18  1  0.500000  0.852023  0.897719  1
  P  P19  1  0.500000  0.147977  0.897719  1
  P  P20  1  0.000000  0.647977  0.102281  1
  P  P21  1  0.000000  0.352023  0.102281  1
  Ir  Ir22  1  0.500000  0.500000  0.701107  1
  Ir  Ir23  1  0.000000  0.000000  0.298893  1
  Ir  Ir24  1  0.500000  0.336647  0.997808  1
  Ir  Ir25  1  0.500000  0.663353  0.997808  1
  Ir  Ir26  1  0.000000  0.163353  0.002192  1
  Ir  Ir27  1  0.000000  0.836647  0.002192  1
  Ir  Ir28  1  0.500000  0.289623  0.428324  1
  Ir  Ir29  1  0.500000  0.710377  0.428324  1
  Ir  Ir30  1  0.000000  0.210377  0.571676  1
  Ir  Ir31  1  0.000000  0.789623  0.571676  1
  Ir  Ir32  1  0.500000  0.875683  0.715568  1
  Ir  Ir33  1  0.500000  0.124317  0.715568  1
  Ir  Ir34  1  0.000000  0.624317  0.284432  1
  Ir  Ir35  1  0.000000  0.375683  0.284432  1
