# generated using pymatgen
data_Sm6Zn4Pd13
_symmetry_space_group_name_H-M   'P 1'
_cell_length_a   8.34296094
_cell_length_b   8.34296193
_cell_length_c   8.34296200
_cell_angle_alpha   109.47121838
_cell_angle_beta   109.47122078
_cell_angle_gamma   109.47122152
_symmetry_Int_Tables_number   1
_chemical_formula_structural   Sm6Zn4Pd13
_chemical_formula_sum   'Sm6 Zn4 Pd13'
_cell_volume   447.03224806
_cell_formula_units_Z   1
loop_
 _symmetry_equiv_pos_site_id
 _symmetry_equiv_pos_as_xyz
  1  'x, y, z'
loop_
 _atom_site_type_symbol
 _atom_site_label
 _atom_site_symmetry_multiplicity
 _atom_site_fract_x
 _atom_site_fract_y
 _atom_site_fract_z
 _atom_site_occupancy
  Sm  Sm0  1  0.697775  0.697775  0.000000  1
  Sm  Sm1  1  0.302225  0.000000  0.302225  1
  Sm  Sm2  1  0.000000  0.302225  0.302225  1
  Sm  Sm3  1  0.302225  0.302225  0.000000  1
  Sm  Sm4  1  0.697775  0.000000  0.697775  1
  Sm  Sm5  1  0.000000  0.697775  0.697775  1
  Zn  Zn6  1  0.000000  0.000000  0.500000  1
  Zn  Zn7  1  0.000000  0.500000  0.000000  1
  Zn  Zn8  1  0.500000  0.000000  0.000000  1
  Zn  Zn9  1  0.500000  0.500000  0.500000  1
  Pd  Pd10  1  0.331056  0.331056  0.662114  1
  Pd  Pd11  1  0.668944  0.000000  0.331056  1
  Pd  Pd12  1  0.000000  0.668944  0.331056  1
  Pd  Pd13  1  0.668944  0.331056  0.000000  1
  Pd  Pd14  1  0.331056  0.662114  0.331056  1
  Pd  Pd15  1  0.000000  0.331056  0.668944  1
  Pd  Pd16  1  0.331056  0.668944  0.000000  1
  Pd  Pd17  1  0.331056  0.000000  0.668944  1
  Pd  Pd18  1  0.662114  0.331056  0.331056  1
  Pd  Pd19  1  0.668944  0.668944  0.337886  1
  Pd  Pd20  1  0.668944  0.337886  0.668944  1
  Pd  Pd21  1  0.337886  0.668944  0.668944  1
  Pd  Pd22  1  0.000000  0.000000  0.000000  1
