# generated using pymatgen
data_Er12Os3Ru
_symmetry_space_group_name_H-M   'P 1'
_cell_length_a   7.36373482
_cell_length_b   8.97104400
_cell_length_c   6.25615301
_cell_angle_alpha   90.00000000
_cell_angle_beta   89.91974896
_cell_angle_gamma   90.00000000
_symmetry_Int_Tables_number   1
_chemical_formula_structural   Er12Os3Ru
_chemical_formula_sum   'Er12 Os3 Ru1'
_cell_volume   413.28349668
_cell_formula_units_Z   1
loop_
 _symmetry_equiv_pos_site_id
 _symmetry_equiv_pos_as_xyz
  1  'x, y, z'
loop_
 _atom_site_type_symbol
 _atom_site_label
 _atom_site_symmetry_multiplicity
 _atom_site_fract_x
 _atom_site_fract_y
 _atom_site_fract_z
 _atom_site_occupancy
  Er  Er0  1  0.040729  0.250000  0.630168  1
  Er  Er1  1  0.960317  0.750000  0.369638  1
  Er  Er2  1  0.460355  0.750000  0.130525  1
  Er  Er3  1  0.539866  0.250000  0.868303  1
  Er  Er4  1  0.174587  0.062026  0.166405  1
  Er  Er5  1  0.825075  0.937572  0.832688  1
  Er  Er6  1  0.324678  0.936572  0.668118  1
  Er  Er7  1  0.825075  0.562428  0.832688  1
  Er  Er8  1  0.675235  0.062429  0.333183  1
  Er  Er9  1  0.174587  0.437974  0.166405  1
  Er  Er10  1  0.675235  0.437571  0.333183  1
  Er  Er11  1  0.324678  0.563428  0.668118  1
  Os  Os12  1  0.616740  0.750000  0.538869  1
  Os  Os13  1  0.117193  0.750000  0.960822  1
  Os  Os14  1  0.882659  0.250000  0.039070  1
  Ru  Ru15  1  0.382992  0.250000  0.461820  1
