# generated using pymatgen
data_Fe2Co3P4Ru3
_symmetry_space_group_name_H-M   'P 1'
_cell_length_a   3.68736500
_cell_length_b   5.73730524
_cell_length_c   6.63887848
_cell_angle_alpha   90.09811248
_cell_angle_beta   90.00000000
_cell_angle_gamma   90.00000000
_symmetry_Int_Tables_number   1
_chemical_formula_structural   Fe2Co3P4Ru3
_chemical_formula_sum   'Fe2 Co3 P4 Ru3'
_cell_volume   140.44884361
_cell_formula_units_Z   1
loop_
 _symmetry_equiv_pos_site_id
 _symmetry_equiv_pos_as_xyz
  1  'x, y, z'
loop_
 _atom_site_type_symbol
 _atom_site_label
 _atom_site_symmetry_multiplicity
 _atom_site_fract_x
 _atom_site_fract_y
 _atom_site_fract_z
 _atom_site_occupancy
  Fe  Fe0  1  0.250000  0.470093  0.164199  1
  Fe  Fe1  1  0.250000  0.360406  0.563430  1
  Co  Co2  1  0.750000  0.639442  0.428071  1
  Co  Co3  1  0.250000  0.860725  0.935927  1
  Co  Co4  1  0.750000  0.142510  0.068099  1
  P  P5  1  0.250000  0.737316  0.620393  1
  P  P6  1  0.750000  0.262029  0.380686  1
  P  P7  1  0.250000  0.243372  0.882659  1
  P  P8  1  0.750000  0.762257  0.120118  1
  Ru  Ru9  1  0.750000  0.022078  0.667348  1
  Ru  Ru10  1  0.250000  0.971002  0.333836  1
  Ru  Ru11  1  0.750000  0.528767  0.835231  1
