# generated using pymatgen
data_Ac2Tm(CuGe)3
_symmetry_space_group_name_H-M   'P 1'
_cell_length_a   4.46840600
_cell_length_b   4.46840540
_cell_length_c   11.35684200
_cell_angle_alpha   90.00000000
_cell_angle_beta   90.00000000
_cell_angle_gamma   119.99998960
_symmetry_Int_Tables_number   1
_chemical_formula_structural   Ac2Tm(CuGe)3
_chemical_formula_sum   'Ac2 Tm1 Cu3 Ge3'
_cell_volume   196.37828171
_cell_formula_units_Z   1
loop_
 _symmetry_equiv_pos_site_id
 _symmetry_equiv_pos_as_xyz
  1  'x, y, z'
loop_
 _atom_site_type_symbol
 _atom_site_label
 _atom_site_symmetry_multiplicity
 _atom_site_fract_x
 _atom_site_fract_y
 _atom_site_fract_z
 _atom_site_occupancy
  Ac  Ac0  1  0.000000  0.000000  0.840135  1
  Ac  Ac1  1  0.000000  0.000000  0.483551  1
  Tm  Tm2  1  0.000000  0.000000  0.160716  1
  Cu  Cu3  1  0.666667  0.333333  0.048210  1
  Cu  Cu4  1  0.333333  0.666667  0.666720  1
  Cu  Cu5  1  0.333333  0.666667  0.279266  1
  Ge  Ge6  1  0.666667  0.333333  0.660312  1
  Ge  Ge7  1  0.666667  0.333333  0.297227  1
  Ge  Ge8  1  0.333333  0.666667  0.019862  1
