# generated using pymatgen
data_SmYPa2(NiGe)4
_symmetry_space_group_name_H-M   'P 1'
_cell_length_a   4.26737600
_cell_length_b   7.19063896
_cell_length_c   7.14227768
_cell_angle_alpha   90.18970978
_cell_angle_beta   90.00000000
_cell_angle_gamma   90.00000000
_symmetry_Int_Tables_number   1
_chemical_formula_structural   SmYPa2(NiGe)4
_chemical_formula_sum   'Sm1 Y1 Pa2 Ni4 Ge4'
_cell_volume   219.16073299
_cell_formula_units_Z   1
loop_
 _symmetry_equiv_pos_site_id
 _symmetry_equiv_pos_as_xyz
  1  'x, y, z'
loop_
 _atom_site_type_symbol
 _atom_site_label
 _atom_site_symmetry_multiplicity
 _atom_site_fract_x
 _atom_site_fract_y
 _atom_site_fract_z
 _atom_site_occupancy
  Sm  Sm0  1  0.750000  0.002946  0.717615  1
  Y  Y1  1  0.750000  0.502733  0.781920  1
  Pa  Pa2  1  0.250000  0.483941  0.218515  1
  Pa  Pa3  1  0.250000  0.982807  0.279662  1
  Ni  Ni4  1  0.250000  0.243003  0.936978  1
  Ni  Ni5  1  0.250000  0.735897  0.563589  1
  Ni  Ni6  1  0.750000  0.807994  0.090096  1
  Ni  Ni7  1  0.750000  0.312996  0.410714  1
  Ge  Ge8  1  0.250000  0.271586  0.590013  1
  Ge  Ge9  1  0.250000  0.766637  0.909556  1
  Ge  Ge10  1  0.750000  0.693535  0.411665  1
  Ge  Ge11  1  0.750000  0.195925  0.089680  1
