# generated using pymatgen
data_Tb2SmCo9(CuB2)2
_symmetry_space_group_name_H-M   'P 1'
_cell_length_a   5.05981400
_cell_length_b   5.06052029
_cell_length_c   9.82210400
_cell_angle_alpha   90.00000343
_cell_angle_beta   90.00000446
_cell_angle_gamma   119.99538320
_symmetry_Int_Tables_number   1
_chemical_formula_structural   Tb2SmCo9(CuB2)2
_chemical_formula_sum   'Tb2 Sm1 Co9 Cu2 B4'
_cell_volume   217.81364633
_cell_formula_units_Z   1
loop_
 _symmetry_equiv_pos_site_id
 _symmetry_equiv_pos_as_xyz
  1  'x, y, z'
loop_
 _atom_site_type_symbol
 _atom_site_label
 _atom_site_symmetry_multiplicity
 _atom_site_fract_x
 _atom_site_fract_y
 _atom_site_fract_z
 _atom_site_occupancy
  Tb  Tb0  1  0.000002  0.000000  0.343194  1
  Tb  Tb1  1  0.000003  0.000000  0.656905  1
  Sm  Sm2  1  0.999967  0.000000  0.000103  1
  Co  Co3  1  0.500004  0.000000  0.499947  1
  Co  Co4  1  0.500003  0.500001  0.500035  1
  Co  Co5  1  0.000002  0.499999  0.500035  1
  Co  Co6  1  0.499997  0.000000  0.209040  1
  Co  Co7  1  0.499996  0.500001  0.209031  1
  Co  Co8  1  0.999995  0.499999  0.209031  1
  Co  Co9  1  0.499997  0.000000  0.791024  1
  Co  Co10  1  0.499996  0.500002  0.790894  1
  Co  Co11  1  0.999995  0.499998  0.790894  1
  Cu  Cu12  1  0.333088  0.666226  0.999965  1
  Cu  Cu13  1  0.666862  0.333774  0.999965  1
  B  B14  1  0.333375  0.666753  0.350293  1
  B  B15  1  0.666622  0.333247  0.350293  1
  B  B16  1  0.666512  0.333026  0.649676  1
  B  B17  1  0.333485  0.666974  0.649676  1
