# generated using pymatgen
data_Sr3La4As12Pd17
_symmetry_space_group_name_H-M   'P 1'
_cell_length_a   12.90669190
_cell_length_b   12.90669335
_cell_length_c   14.22381664
_cell_angle_alpha   68.42230637
_cell_angle_beta   68.42230320
_cell_angle_gamma   18.76389451
_symmetry_Int_Tables_number   1
_chemical_formula_structural   Sr3La4As12Pd17
_chemical_formula_sum   'Sr3 La4 As12 Pd17'
_cell_volume   707.24800904
_cell_formula_units_Z   1
loop_
 _symmetry_equiv_pos_site_id
 _symmetry_equiv_pos_as_xyz
  1  'x, y, z'
loop_
 _atom_site_type_symbol
 _atom_site_label
 _atom_site_symmetry_multiplicity
 _atom_site_fract_x
 _atom_site_fract_y
 _atom_site_fract_z
 _atom_site_occupancy
  Sr  Sr0  1  0.500000  0.500000  0.500000  1
  Sr  Sr1  1  0.367163  0.367163  0.998453  1
  Sr  Sr2  1  0.632837  0.632837  0.001547  1
  La  La3  1  0.233277  0.233277  0.314269  1
  La  La4  1  0.766723  0.766723  0.685731  1
  La  La5  1  0.419114  0.419114  0.260280  1
  La  La6  1  0.580886  0.580886  0.739720  1
  As  As7  1  0.060829  0.060829  0.926602  1
  As  As8  1  0.939171  0.939171  0.073398  1
  As  As9  1  0.886482  0.886482  0.825537  1
  As  As10  1  0.113518  0.113518  0.174463  1
  As  As11  1  0.189565  0.189565  0.616923  1
  As  As12  1  0.810435  0.810435  0.383077  1
  As  As13  1  0.365606  0.365606  0.580443  1
  As  As14  1  0.634394  0.634394  0.419557  1
  As  As15  1  0.010938  0.010938  0.673646  1
  As  As16  1  0.989062  0.989062  0.326354  1
  As  As17  1  0.234221  0.234221  0.883643  1
  As  As18  1  0.765779  0.765779  0.116357  1
  Pd  Pd19  1  0.837676  0.837676  0.195324  1
  Pd  Pd20  1  0.162324  0.162324  0.804676  1
  Pd  Pd21  1  0.024563  0.024563  0.127805  1
  Pd  Pd22  1  0.975437  0.975437  0.872195  1
  Pd  Pd23  1  0.887403  0.887403  0.459401  1
  Pd  Pd24  1  0.112597  0.112597  0.540599  1
  Pd  Pd25  1  0.500000  0.500000  0.000000  1
  Pd  Pd26  1  0.548639  0.548639  0.256973  1
  Pd  Pd27  1  0.451361  0.451361  0.743027  1
  Pd  Pd28  1  0.296728  0.296728  0.489418  1
  Pd  Pd29  1  0.703272  0.703272  0.510582  1
  Pd  Pd30  1  0.664550  0.664550  0.223957  1
  Pd  Pd31  1  0.335450  0.335450  0.776043  1
  Pd  Pd32  1  0.905083  0.905083  0.641044  1
  Pd  Pd33  1  0.094917  0.094917  0.358956  1
  Pd  Pd34  1  0.220563  0.220563  0.071686  1
  Pd  Pd35  1  0.779437  0.779437  0.928314  1
