# generated using pymatgen
data_Yb9Pr8Ho3Si16
_symmetry_space_group_name_H-M   'P 1'
_cell_length_a   7.49814947
_cell_length_b   7.92111644
_cell_length_c   15.08232929
_cell_angle_alpha   89.96528183
_cell_angle_beta   90.06872182
_cell_angle_gamma   89.98475961
_symmetry_Int_Tables_number   1
_chemical_formula_structural   Yb9Pr8Ho3Si16
_chemical_formula_sum   'Yb9 Pr8 Ho3 Si16'
_cell_volume   895.79472694
_cell_formula_units_Z   1
loop_
 _symmetry_equiv_pos_site_id
 _symmetry_equiv_pos_as_xyz
  1  'x, y, z'
loop_
 _atom_site_type_symbol
 _atom_site_label
 _atom_site_symmetry_multiplicity
 _atom_site_fract_x
 _atom_site_fract_y
 _atom_site_fract_z
 _atom_site_occupancy
  Yb  Yb0  1  0.644024  0.999476  0.249062  1
  Yb  Yb1  1  0.150331  0.499167  0.248460  1
  Yb  Yb2  1  0.851053  0.496890  0.749813  1
  Yb  Yb3  1  0.350876  0.002611  0.750119  1
  Yb  Yb4  1  0.680007  0.818385  0.877616  1
  Yb  Yb5  1  0.180496  0.680572  0.620982  1
  Yb  Yb6  1  0.820289  0.319876  0.121527  1
  Yb  Yb7  1  0.320314  0.181424  0.379269  1
  Yb  Yb8  1  0.318666  0.179946  0.122647  1
  Pr  Pr9  1  0.972766  0.815916  0.099167  1
  Pr  Pr10  1  0.472384  0.685117  0.401870  1
  Pr  Pr11  1  0.526882  0.314603  0.902315  1
  Pr  Pr12  1  0.027235  0.184101  0.598436  1
  Pr  Pr13  1  0.027563  0.185067  0.899230  1
  Pr  Pr14  1  0.527890  0.314469  0.600097  1
  Pr  Pr15  1  0.472659  0.686441  0.100132  1
  Pr  Pr16  1  0.971802  0.814308  0.400573  1
  Ho  Ho17  1  0.821488  0.318515  0.376513  1
  Ho  Ho18  1  0.180435  0.680331  0.875859  1
  Ho  Ho19  1  0.680162  0.819188  0.623580  1
  Si  Si20  1  0.760349  0.621271  0.252474  1
  Si  Si21  1  0.255016  0.876777  0.251251  1
  Si  Si22  1  0.741887  0.119310  0.748152  1
  Si  Si23  1  0.241413  0.380418  0.751342  1
  Si  Si24  1  0.027461  0.098144  0.252321  1
  Si  Si25  1  0.535237  0.403080  0.253725  1
  Si  Si26  1  0.468585  0.601670  0.750896  1
  Si  Si27  1  0.968342  0.898289  0.748538  1
  Si  Si28  1  0.863258  0.530566  0.960247  1
  Si  Si29  1  0.365167  0.970640  0.539335  1
  Si  Si30  1  0.640458  0.028347  0.036787  1
  Si  Si31  1  0.135402  0.469961  0.461170  1
  Si  Si32  1  0.148655  0.474243  0.034288  1
  Si  Si33  1  0.653283  0.033192  0.465415  1
  Si  Si34  1  0.351385  0.964974  0.961762  1
  Si  Si35  1  0.846780  0.532713  0.535030  1
