# generated using pymatgen
data_KRb3HfS4
_symmetry_space_group_name_H-M   'P 1'
_cell_length_a   8.39014700
_cell_length_b   10.01443500
_cell_length_c   14.87627200
_cell_angle_alpha   90.00000000
_cell_angle_beta   90.00000000
_cell_angle_gamma   90.00000000
_symmetry_Int_Tables_number   1
_chemical_formula_structural   KRb3HfS4
_chemical_formula_sum   'K4 Rb12 Hf4 S16'
_cell_volume   1249.94278058
_cell_formula_units_Z   4
loop_
 _symmetry_equiv_pos_site_id
 _symmetry_equiv_pos_as_xyz
  1  'x, y, z'
loop_
 _atom_site_type_symbol
 _atom_site_label
 _atom_site_symmetry_multiplicity
 _atom_site_fract_x
 _atom_site_fract_y
 _atom_site_fract_z
 _atom_site_occupancy
  K  K0  1  0.156813  0.944935  0.724031  1
  K  K1  1  0.656813  0.055065  0.775969  1
  K  K2  1  0.843187  0.444935  0.275969  1
  K  K3  1  0.343187  0.555065  0.224031  1
  Rb  Rb4  1  0.998984  0.996874  0.997217  1
  Rb  Rb5  1  0.498984  0.003126  0.502783  1
  Rb  Rb6  1  0.001016  0.496874  0.002783  1
  Rb  Rb7  1  0.501016  0.503126  0.497217  1
  Rb  Rb8  1  0.989081  0.752242  0.427402  1
  Rb  Rb9  1  0.489081  0.247758  0.072598  1
  Rb  Rb10  1  0.010919  0.252242  0.572598  1
  Rb  Rb11  1  0.510919  0.747758  0.927402  1
  Rb  Rb12  1  0.834098  0.059735  0.279849  1
  Rb  Rb13  1  0.334098  0.940265  0.220151  1
  Rb  Rb14  1  0.165902  0.559735  0.720151  1
  Rb  Rb15  1  0.665902  0.440265  0.779849  1
  Hf  Hf16  1  0.757761  0.754176  0.668750  1
  Hf  Hf17  1  0.242239  0.254176  0.331250  1
  Hf  Hf18  1  0.742239  0.745824  0.168750  1
  Hf  Hf19  1  0.257761  0.245824  0.831250  1
  S  S20  1  0.971408  0.240664  0.822799  1
  S  S21  1  0.528592  0.259336  0.322799  1
  S  S22  1  0.471408  0.759336  0.677201  1
  S  S23  1  0.028592  0.740664  0.177201  1
  S  S24  1  0.651263  0.549314  0.094815  1
  S  S25  1  0.151263  0.450686  0.405185  1
  S  S26  1  0.348737  0.049314  0.905185  1
  S  S27  1  0.848737  0.950686  0.594815  1
  S  S28  1  0.343640  0.442553  0.907227  1
  S  S29  1  0.843640  0.557447  0.592773  1
  S  S30  1  0.656360  0.942553  0.092773  1
  S  S31  1  0.156360  0.057447  0.407227  1
  S  S32  1  0.627386  0.745529  0.317458  1
  S  S33  1  0.127386  0.254471  0.182542  1
  S  S34  1  0.372614  0.245529  0.682542  1
  S  S35  1  0.872614  0.754471  0.817458  1
