# generated using pymatgen
data_Lu2Hf3Sc(SnRh)6
_symmetry_space_group_name_H-M   'P 1'
_cell_length_a   7.46513213
_cell_length_b   7.48269100
_cell_length_c   7.29756400
_cell_angle_alpha   90.00000000
_cell_angle_beta   90.00000000
_cell_angle_gamma   119.90340864
_symmetry_Int_Tables_number   1
_chemical_formula_structural   Lu2Hf3Sc(SnRh)6
_chemical_formula_sum   'Lu2 Hf3 Sc1 Sn6 Rh6'
_cell_volume   353.36679647
_cell_formula_units_Z   1
loop_
 _symmetry_equiv_pos_site_id
 _symmetry_equiv_pos_as_xyz
  1  'x, y, z'
loop_
 _atom_site_type_symbol
 _atom_site_label
 _atom_site_symmetry_multiplicity
 _atom_site_fract_x
 _atom_site_fract_y
 _atom_site_fract_z
 _atom_site_occupancy
  Lu  Lu0  1  0.000689  0.404255  0.250000  1
  Lu  Lu1  1  0.597209  0.595254  0.250000  1
  Hf  Hf2  1  0.998904  0.391762  0.750000  1
  Hf  Hf3  1  0.605671  0.609718  0.750000  1
  Hf  Hf4  1  0.394104  0.998707  0.750000  1
  Sc  Sc5  1  0.400619  0.999551  0.250000  1
  Sn  Sn6  1  0.270147  0.267440  0.504011  1
  Sn  Sn7  1  0.001068  0.731972  0.504291  1
  Sn  Sn8  1  0.001068  0.731972  0.995709  1
  Sn  Sn9  1  0.728558  0.000696  0.498098  1
  Sn  Sn10  1  0.728558  0.000696  0.001902  1
  Sn  Sn11  1  0.270147  0.267440  0.995989  1
  Rh  Rh12  1  0.333649  0.666531  0.528851  1
  Rh  Rh13  1  0.667378  0.333544  0.532566  1
  Rh  Rh14  1  0.333649  0.666531  0.971149  1
  Rh  Rh15  1  0.997371  0.000294  0.750000  1
  Rh  Rh16  1  0.003833  0.000091  0.250000  1
  Rh  Rh17  1  0.667378  0.333544  0.967434  1
