# generated using pymatgen
data_YTm3Al17GaIr6
_symmetry_space_group_name_H-M   'P 1'
_cell_length_a   7.53079126
_cell_length_b   7.53289747
_cell_length_c   9.46760800
_cell_angle_alpha   90.00000000
_cell_angle_beta   90.00000000
_cell_angle_gamma   119.41389146
_symmetry_Int_Tables_number   1
_chemical_formula_structural   YTm3Al17GaIr6
_chemical_formula_sum   'Y1 Tm3 Al17 Ga1 Ir6'
_cell_volume   467.85183553
_cell_formula_units_Z   1
loop_
 _symmetry_equiv_pos_site_id
 _symmetry_equiv_pos_as_xyz
  1  'x, y, z'
loop_
 _atom_site_type_symbol
 _atom_site_label
 _atom_site_symmetry_multiplicity
 _atom_site_fract_x
 _atom_site_fract_y
 _atom_site_fract_z
 _atom_site_occupancy
  Y  Y0  1  0.993763  0.674896  0.250000  1
  Tm  Tm1  1  0.004925  0.327322  0.750000  1
  Tm  Tm2  1  0.675141  0.993897  0.250000  1
  Tm  Tm3  1  0.327359  0.004990  0.750000  1
  Al  Al4  1  0.870030  0.870148  0.750000  1
  Al  Al5  1  0.000943  0.335129  0.073197  1
  Al  Al6  1  0.998949  0.664195  0.924616  1
  Al  Al7  1  0.998949  0.664195  0.575384  1
  Al  Al8  1  0.336469  0.001584  0.426764  1
  Al  Al9  1  0.000943  0.335129  0.426803  1
  Al  Al10  1  0.664189  0.998944  0.574690  1
  Al  Al11  1  0.664189  0.998944  0.925310  1
  Al  Al12  1  0.336469  0.001584  0.073236  1
  Al  Al13  1  0.332873  0.332912  0.555042  1
  Al  Al14  1  0.665370  0.666015  0.448908  1
  Al  Al15  1  0.665370  0.666015  0.051092  1
  Al  Al16  1  0.332873  0.332912  0.944958  1
  Al  Al17  1  0.339496  0.550520  0.250000  1
  Al  Al18  1  0.660600  0.450292  0.750000  1
  Al  Al19  1  0.549625  0.337903  0.250000  1
  Al  Al20  1  0.450387  0.660768  0.750000  1
  Ga  Ga21  1  0.134924  0.135387  0.250000  1
  Ir  Ir22  1  0.671254  0.327101  0.999942  1
  Ir  Ir23  1  0.327355  0.671383  0.999942  1
  Ir  Ir24  1  0.327355  0.671383  0.500058  1
  Ir  Ir25  1  0.671254  0.327101  0.500058  1
  Ir  Ir26  1  0.999473  0.999676  0.997409  1
  Ir  Ir27  1  0.999473  0.999676  0.502591  1
