# generated using pymatgen
data_Nd8ErTm11Si16
_symmetry_space_group_name_H-M   'P 1'
_cell_length_a   7.72143914
_cell_length_b   7.72179825
_cell_length_c   14.17632269
_cell_angle_alpha   90.02888263
_cell_angle_beta   90.02102155
_cell_angle_gamma   89.99472903
_symmetry_Int_Tables_number   1
_chemical_formula_structural   Nd8ErTm11Si16
_chemical_formula_sum   'Nd8 Er1 Tm11 Si16'
_cell_volume   845.24032303
_cell_formula_units_Z   1
loop_
 _symmetry_equiv_pos_site_id
 _symmetry_equiv_pos_as_xyz
  1  'x, y, z'
loop_
 _atom_site_type_symbol
 _atom_site_label
 _atom_site_symmetry_multiplicity
 _atom_site_fract_x
 _atom_site_fract_y
 _atom_site_fract_z
 _atom_site_occupancy
  Nd  Nd0  1  0.642401  0.992969  0.459194  1
  Nd  Nd1  1  0.357553  0.006951  0.959072  1
  Nd  Nd2  1  0.992996  0.642451  0.540870  1
  Nd  Nd3  1  0.492953  0.857635  0.209170  1
  Nd  Nd4  1  0.507027  0.142412  0.709154  1
  Nd  Nd5  1  0.857587  0.492921  0.790848  1
  Nd  Nd6  1  0.142345  0.507080  0.290923  1
  Nd  Nd7  1  0.006886  0.357601  0.040811  1
  Er  Er8  1  0.493382  0.359635  0.123999  1
  Tm  Tm9  1  0.993368  0.140391  0.625829  1
  Tm  Tm10  1  0.859660  0.006606  0.874122  1
  Tm  Tm11  1  0.140295  0.993333  0.374201  1
  Tm  Tm12  1  0.506637  0.640371  0.624168  1
  Tm  Tm13  1  0.359558  0.493402  0.875756  1
  Tm  Tm14  1  0.640393  0.506682  0.375878  1
  Tm  Tm15  1  0.006734  0.859654  0.125850  1
  Tm  Tm16  1  0.318238  0.318230  0.500001  1
  Tm  Tm17  1  0.181764  0.818284  0.750011  1
  Tm  Tm18  1  0.818391  0.181682  0.250073  1
  Tm  Tm19  1  0.681869  0.681976  0.999938  1
  Si  Si20  1  0.289275  0.937609  0.561716  1
  Si  Si21  1  0.710968  0.062032  0.061597  1
  Si  Si22  1  0.937618  0.289272  0.438298  1
  Si  Si23  1  0.437513  0.210483  0.311974  1
  Si  Si24  1  0.562371  0.789309  0.811695  1
  Si  Si25  1  0.210714  0.437600  0.688306  1
  Si  Si26  1  0.789682  0.562711  0.188447  1
  Si  Si27  1  0.062398  0.710783  0.938309  1
  Si  Si28  1  0.795794  0.848959  0.687802  1
  Si  Si29  1  0.203802  0.150669  0.187933  1
  Si  Si30  1  0.848953  0.795712  0.312193  1
  Si  Si31  1  0.348941  0.704220  0.437804  1
  Si  Si32  1  0.651273  0.295675  0.937558  1
  Si  Si33  1  0.704220  0.348962  0.562225  1
  Si  Si34  1  0.295394  0.651517  0.062074  1
  Si  Si35  1  0.151046  0.204221  0.812200  1
