# generated using pymatgen
data_Nd3YAl18(RePd2)2
_symmetry_space_group_name_H-M   'P 1'
_cell_length_a   7.65287904
_cell_length_b   7.66382750
_cell_length_c   9.61717700
_cell_angle_alpha   90.00000000
_cell_angle_beta   90.00000000
_cell_angle_gamma   118.56425697
_symmetry_Int_Tables_number   1
_chemical_formula_structural   Nd3YAl18(RePd2)2
_chemical_formula_sum   'Nd3 Y1 Al18 Re2 Pd4'
_cell_volume   495.39529607
_cell_formula_units_Z   1
loop_
 _symmetry_equiv_pos_site_id
 _symmetry_equiv_pos_as_xyz
  1  'x, y, z'
loop_
 _atom_site_type_symbol
 _atom_site_label
 _atom_site_symmetry_multiplicity
 _atom_site_fract_x
 _atom_site_fract_y
 _atom_site_fract_z
 _atom_site_occupancy
  Nd  Nd0  1  0.995137  0.678666  0.250000  1
  Nd  Nd1  1  0.006244  0.320909  0.750000  1
  Nd  Nd2  1  0.678472  0.994359  0.250000  1
  Y  Y3  1  0.318446  0.006070  0.750000  1
  Al  Al4  1  0.134396  0.133352  0.250000  1
  Al  Al5  1  0.867314  0.866725  0.750000  1
  Al  Al6  1  0.004447  0.334288  0.074918  1
  Al  Al7  1  0.997927  0.667216  0.923342  1
  Al  Al8  1  0.997927  0.667216  0.576658  1
  Al  Al9  1  0.334035  0.003429  0.427460  1
  Al  Al10  1  0.004447  0.334288  0.425082  1
  Al  Al11  1  0.663588  0.996042  0.576794  1
  Al  Al12  1  0.663588  0.996042  0.923206  1
  Al  Al13  1  0.334035  0.003429  0.072540  1
  Al  Al14  1  0.331058  0.329577  0.547209  1
  Al  Al15  1  0.669919  0.669695  0.456148  1
  Al  Al16  1  0.669919  0.669695  0.043852  1
  Al  Al17  1  0.331058  0.329577  0.952791  1
  Al  Al18  1  0.345121  0.550540  0.250000  1
  Al  Al19  1  0.652692  0.446676  0.750000  1
  Al  Al20  1  0.550451  0.344226  0.250000  1
  Al  Al21  1  0.448753  0.657259  0.750000  1
  Re  Re22  1  0.000405  0.000460  0.998789  1
  Re  Re23  1  0.000405  0.000460  0.501211  1
  Pd  Pd24  1  0.671748  0.328498  0.999449  1
  Pd  Pd25  1  0.328359  0.671404  0.999472  1
  Pd  Pd26  1  0.328359  0.671404  0.500528  1
  Pd  Pd27  1  0.671748  0.328498  0.500551  1
