# generated using pymatgen
data_Sr3PrBi3
_symmetry_space_group_name_H-M   'P 1'
_cell_length_a   8.73349336
_cell_length_b   8.82164161
_cell_length_c   8.73349330
_cell_angle_alpha   109.59289151
_cell_angle_beta   109.07544254
_cell_angle_gamma   109.59289162
_symmetry_Int_Tables_number   1
_chemical_formula_structural   Sr3PrBi3
_chemical_formula_sum   'Sr6 Pr2 Bi6'
_cell_volume   518.93026281
_cell_formula_units_Z   2
loop_
 _symmetry_equiv_pos_site_id
 _symmetry_equiv_pos_as_xyz
  1  'x, y, z'
loop_
 _atom_site_type_symbol
 _atom_site_label
 _atom_site_symmetry_multiplicity
 _atom_site_fract_x
 _atom_site_fract_y
 _atom_site_fract_z
 _atom_site_occupancy
  Sr  Sr0  1  0.360428  0.357344  0.359342  1
  Sr  Sr1  1  0.000859  0.140371  0.498653  1
  Sr  Sr2  1  0.859342  0.857344  0.860428  1
  Sr  Sr3  1  0.998653  0.640371  0.500859  1
  Sr  Sr4  1  0.502882  0.002681  0.138920  1
  Sr  Sr5  1  0.638920  0.502681  0.002882  1
  Pr  Pr6  1  0.501377  0.000641  0.637122  1
  Pr  Pr7  1  0.137122  0.500641  0.001377  1
  Bi  Bi8  1  0.875401  0.250755  0.112702  1
  Bi  Bi9  1  0.133825  0.869640  0.254072  1
  Bi  Bi10  1  0.372618  0.628568  0.751799  1
  Bi  Bi11  1  0.251799  0.128568  0.872618  1
  Bi  Bi12  1  0.754072  0.369640  0.633825  1
  Bi  Bi13  1  0.612702  0.750755  0.375401  1
