# generated using pymatgen
data_Sr20(Ag3Hg)3
_symmetry_space_group_name_H-M   'P 1'
_cell_length_a   8.54815000
_cell_length_b   8.54815000
_cell_length_c   16.04936400
_cell_angle_alpha   90.00000000
_cell_angle_beta   90.00000000
_cell_angle_gamma   90.00000000
_symmetry_Int_Tables_number   1
_chemical_formula_structural   Sr20(Ag3Hg)3
_chemical_formula_sum   'Sr20 Ag9 Hg3'
_cell_volume   1172.74096511
_cell_formula_units_Z   1
loop_
 _symmetry_equiv_pos_site_id
 _symmetry_equiv_pos_as_xyz
  1  'x, y, z'
loop_
 _atom_site_type_symbol
 _atom_site_label
 _atom_site_symmetry_multiplicity
 _atom_site_fract_x
 _atom_site_fract_y
 _atom_site_fract_z
 _atom_site_occupancy
  Sr  Sr0  1  0.670280  0.164612  0.105532  1
  Sr  Sr1  1  0.169191  0.666969  0.607731  1
  Sr  Sr2  1  0.329720  0.835388  0.105532  1
  Sr  Sr3  1  0.830809  0.333031  0.607731  1
  Sr  Sr4  1  0.835388  0.670280  0.105532  1
  Sr  Sr5  1  0.333031  0.169191  0.607731  1
  Sr  Sr6  1  0.164612  0.329720  0.105532  1
  Sr  Sr7  1  0.666969  0.830809  0.607731  1
  Sr  Sr8  1  0.835388  0.329720  0.894468  1
  Sr  Sr9  1  0.333031  0.830809  0.392269  1
  Sr  Sr10  1  0.164612  0.670280  0.894468  1
  Sr  Sr11  1  0.666969  0.169191  0.392269  1
  Sr  Sr12  1  0.670280  0.835388  0.894468  1
  Sr  Sr13  1  0.169191  0.333031  0.392269  1
  Sr  Sr14  1  0.329720  0.164612  0.894468  1
  Sr  Sr15  1  0.830809  0.666969  0.392269  1
  Sr  Sr16  1  0.500000  0.500000  0.754484  1
  Sr  Sr17  1  0.000000  0.000000  0.251011  1
  Sr  Sr18  1  0.000000  0.000000  0.748989  1
  Sr  Sr19  1  0.500000  0.500000  0.245516  1
  Ag  Ag20  1  0.623860  0.124063  0.751412  1
  Ag  Ag21  1  0.124063  0.623860  0.248588  1
  Ag  Ag22  1  0.875937  0.376140  0.248588  1
  Ag  Ag23  1  0.376140  0.875937  0.751412  1
  Ag  Ag24  1  0.875937  0.623860  0.751412  1
  Ag  Ag25  1  0.376140  0.124063  0.248588  1
  Ag  Ag26  1  0.124063  0.376140  0.751412  1
  Ag  Ag27  1  0.623860  0.875937  0.248588  1
  Ag  Ag28  1  0.000000  0.000000  0.000000  1
  Hg  Hg29  1  0.500000  0.500000  0.500000  1
  Hg  Hg30  1  0.500000  0.500000  0.000000  1
  Hg  Hg31  1  0.000000  0.000000  0.500000  1
