# generated using pymatgen
data_Yb7Lu3Pt8
_symmetry_space_group_name_H-M   'P 1'
_cell_length_a   7.45741600
_cell_length_b   7.52401578
_cell_length_c   14.45873933
_cell_angle_alpha   90.11512218
_cell_angle_beta   90.00000000
_cell_angle_gamma   90.00000000
_symmetry_Int_Tables_number   1
_chemical_formula_structural   Yb7Lu3Pt8
_chemical_formula_sum   'Yb14 Lu6 Pt16'
_cell_volume   811.27411497
_cell_formula_units_Z   2
loop_
 _symmetry_equiv_pos_site_id
 _symmetry_equiv_pos_as_xyz
  1  'x, y, z'
loop_
 _atom_site_type_symbol
 _atom_site_label
 _atom_site_symmetry_multiplicity
 _atom_site_fract_x
 _atom_site_fract_y
 _atom_site_fract_z
 _atom_site_occupancy
  Yb  Yb0  1  0.644141  0.166639  0.878402  1
  Yb  Yb1  1  0.144141  0.333361  0.621598  1
  Yb  Yb2  1  0.488117  0.676140  0.595000  1
  Yb  Yb3  1  0.988117  0.823860  0.905000  1
  Yb  Yb4  1  0.510414  0.320986  0.093381  1
  Yb  Yb5  1  0.010414  0.179014  0.406619  1
  Yb  Yb6  1  0.510401  0.322321  0.405997  1
  Yb  Yb7  1  0.010401  0.177679  0.094003  1
  Yb  Yb8  1  0.488251  0.679135  0.903976  1
  Yb  Yb9  1  0.988251  0.820865  0.596024  1
  Yb  Yb10  1  0.805052  0.507298  0.749929  1
  Yb  Yb11  1  0.305052  0.992702  0.750071  1
  Yb  Yb12  1  0.196728  0.487968  0.249925  1
  Yb  Yb13  1  0.696728  0.012032  0.250075  1
  Lu  Lu14  1  0.645433  0.163955  0.623426  1
  Lu  Lu15  1  0.145433  0.336045  0.876574  1
  Lu  Lu16  1  0.356159  0.833672  0.123535  1
  Lu  Lu17  1  0.856159  0.666328  0.376465  1
  Lu  Lu18  1  0.355387  0.834027  0.376236  1
  Lu  Lu19  1  0.855387  0.665973  0.123764  1
  Pt  Pt20  1  0.684648  0.958903  0.459004  1
  Pt  Pt21  1  0.184648  0.541097  0.040996  1
  Pt  Pt22  1  0.310175  0.040509  0.961496  1
  Pt  Pt23  1  0.810175  0.459491  0.538504  1
  Pt  Pt24  1  0.322547  0.031125  0.539563  1
  Pt  Pt25  1  0.822547  0.468875  0.960437  1
  Pt  Pt26  1  0.680010  0.955276  0.043894  1
  Pt  Pt27  1  0.180010  0.544724  0.456106  1
  Pt  Pt28  1  0.438505  0.379154  0.747693  1
  Pt  Pt29  1  0.938505  0.120846  0.752307  1
  Pt  Pt30  1  0.561719  0.624449  0.250350  1
  Pt  Pt31  1  0.061719  0.875551  0.249650  1
  Pt  Pt32  1  0.675642  0.865862  0.746213  1
  Pt  Pt33  1  0.175642  0.634138  0.753787  1
  Pt  Pt34  1  0.326671  0.129216  0.249779  1
  Pt  Pt35  1  0.826671  0.370784  0.250221  1
