# generated using pymatgen
data_Tb4Co8P12(Ru3Rh)3
_symmetry_space_group_name_H-M   'P 1'
_cell_length_a   3.80976500
_cell_length_b   10.71145849
_cell_length_c   12.08094241
_cell_angle_alpha   90.11703432
_cell_angle_beta   90.00000000
_cell_angle_gamma   90.00000000
_symmetry_Int_Tables_number   1
_chemical_formula_structural   Tb4Co8P12(Ru3Rh)3
_chemical_formula_sum   'Tb4 Co8 P12 Ru9 Rh3'
_cell_volume   492.99975655
_cell_formula_units_Z   1
loop_
 _symmetry_equiv_pos_site_id
 _symmetry_equiv_pos_as_xyz
  1  'x, y, z'
loop_
 _atom_site_type_symbol
 _atom_site_label
 _atom_site_symmetry_multiplicity
 _atom_site_fract_x
 _atom_site_fract_y
 _atom_site_fract_z
 _atom_site_occupancy
  Tb  Tb0  1  0.250000  0.584132  0.706624  1
  Tb  Tb1  1  0.250000  0.916408  0.206168  1
  Tb  Tb2  1  0.750000  0.415060  0.292982  1
  Tb  Tb3  1  0.750000  0.084560  0.793750  1
  Co  Co4  1  0.250000  0.886796  0.698762  1
  Co  Co5  1  0.250000  0.612167  0.198513  1
  Co  Co6  1  0.750000  0.112889  0.302918  1
  Co  Co7  1  0.750000  0.387243  0.800817  1
  Co  Co8  1  0.250000  0.463235  0.933357  1
  Co  Co9  1  0.250000  0.037095  0.433730  1
  Co  Co10  1  0.750000  0.536938  0.066707  1
  Co  Co11  1  0.750000  0.963320  0.567325  1
  P  P12  1  0.250000  0.426707  0.112245  1
  P  P13  1  0.250000  0.069763  0.612037  1
  P  P14  1  0.750000  0.569631  0.888272  1
  P  P15  1  0.750000  0.930412  0.388472  1
  P  P16  1  0.250000  0.272177  0.874692  1
  P  P17  1  0.250000  0.227420  0.372967  1
  P  P18  1  0.750000  0.727752  0.124450  1
  P  P19  1  0.750000  0.772476  0.624809  1
  P  P20  1  0.250000  0.597690  0.388895  1
  P  P21  1  0.250000  0.901859  0.889508  1
  P  P22  1  0.750000  0.401902  0.610190  1
  P  P23  1  0.750000  0.102329  0.112658  1
  Ru  Ru24  1  0.250000  0.710185  0.989120  1
  Ru  Ru25  1  0.250000  0.789821  0.488467  1
  Ru  Ru26  1  0.750000  0.291773  0.011058  1
  Ru  Ru27  1  0.750000  0.209204  0.512607  1
  Ru  Ru28  1  0.250000  0.404478  0.488121  1
  Ru  Ru29  1  0.250000  0.095391  0.987001  1
  Ru  Ru30  1  0.750000  0.595145  0.511634  1
  Ru  Ru31  1  0.750000  0.906108  0.012695  1
  Ru  Ru32  1  0.250000  0.225633  0.181069  1
  Rh  Rh33  1  0.250000  0.271773  0.682106  1
  Rh  Rh34  1  0.750000  0.771893  0.817954  1
  Rh  Rh35  1  0.750000  0.728634  0.317320  1
