# generated using pymatgen
data_Tb4PaCo4
_symmetry_space_group_name_H-M   'P 1'
_cell_length_a   5.92162014
_cell_length_b   5.92162102
_cell_length_c   9.49641971
_cell_angle_alpha   71.51205755
_cell_angle_beta   71.51204507
_cell_angle_gamma   36.91968777
_symmetry_Int_Tables_number   1
_chemical_formula_structural   Tb4PaCo4
_chemical_formula_sum   'Tb4 Pa1 Co4'
_cell_volume   188.52110924
_cell_formula_units_Z   1
loop_
 _symmetry_equiv_pos_site_id
 _symmetry_equiv_pos_as_xyz
  1  'x, y, z'
loop_
 _atom_site_type_symbol
 _atom_site_label
 _atom_site_symmetry_multiplicity
 _atom_site_fract_x
 _atom_site_fract_y
 _atom_site_fract_z
 _atom_site_occupancy
  Tb  Tb0  1  0.728358  0.728358  0.679849  1
  Tb  Tb1  1  0.271642  0.271642  0.320151  1
  Tb  Tb2  1  0.391588  0.391588  0.897724  1
  Tb  Tb3  1  0.608412  0.608412  0.102276  1
  Pa  Pa4  1  0.500000  0.500000  0.500000  1
  Co  Co5  1  0.028478  0.028478  0.658554  1
  Co  Co6  1  0.971522  0.971522  0.341446  1
  Co  Co7  1  0.088838  0.088838  0.883791  1
  Co  Co8  1  0.911162  0.911162  0.116209  1
