# generated using pymatgen
data_Rb8Hf4Zr2BeI20
_symmetry_space_group_name_H-M   'P 1'
_cell_length_a   12.83674502
_cell_length_b   12.83674495
_cell_length_c   12.84396400
_cell_angle_alpha   59.98139507
_cell_angle_beta   59.98139525
_cell_angle_gamma   60.03721795
_symmetry_Int_Tables_number   1
_chemical_formula_structural   Rb8Hf4Zr2BeI20
_chemical_formula_sum   'Rb8 Hf4 Zr2 Be1 I20'
_cell_volume   1496.55837256
_cell_formula_units_Z   1
loop_
 _symmetry_equiv_pos_site_id
 _symmetry_equiv_pos_as_xyz
  1  'x, y, z'
loop_
 _atom_site_type_symbol
 _atom_site_label
 _atom_site_symmetry_multiplicity
 _atom_site_fract_x
 _atom_site_fract_y
 _atom_site_fract_z
 _atom_site_occupancy
  Rb  Rb0  1  0.361354  0.361354  0.361803  1
  Rb  Rb1  1  0.638646  0.638646  0.638197  1
  Rb  Rb2  1  0.361354  0.361354  0.915488  1
  Rb  Rb3  1  0.361803  0.915488  0.361354  1
  Rb  Rb4  1  0.638646  0.638646  0.084512  1
  Rb  Rb5  1  0.638197  0.084512  0.638646  1
  Rb  Rb6  1  0.915488  0.361803  0.361354  1
  Rb  Rb7  1  0.084512  0.638197  0.638646  1
  Hf  Hf8  1  0.867643  0.132357  0.132357  1
  Hf  Hf9  1  0.132357  0.867643  0.867643  1
  Hf  Hf10  1  0.132357  0.867643  0.132357  1
  Hf  Hf11  1  0.867643  0.132357  0.867643  1
  Zr  Zr12  1  0.133577  0.133577  0.866423  1
  Zr  Zr13  1  0.866423  0.866423  0.133577  1
  Be  Be14  1  0.000000  0.000000  0.000000  1
  I  I15  1  0.318728  0.997879  0.002121  1
  I  I16  1  0.681272  0.002121  0.997879  1
  I  I17  1  0.997879  0.318728  0.681272  1
  I  I18  1  0.002121  0.681272  0.318728  1
  I  I19  1  0.997879  0.318728  0.002121  1
  I  I20  1  0.681272  0.002121  0.318728  1
  I  I21  1  0.002121  0.681272  0.997879  1
  I  I22  1  0.318728  0.997879  0.681272  1
  I  I23  1  0.000000  0.000000  0.317170  1
  I  I24  1  0.000000  0.000000  0.682830  1
  I  I25  1  0.682830  0.317170  0.000000  1
  I  I26  1  0.317170  0.682830  0.000000  1
  I  I27  1  0.690767  0.309233  0.309233  1
  I  I28  1  0.309233  0.690767  0.690767  1
  I  I29  1  0.309233  0.690767  0.309233  1
  I  I30  1  0.690767  0.309233  0.690767  1
  I  I31  1  0.310733  0.310733  0.689267  1
  I  I32  1  0.689267  0.689267  0.310733  1
  I  I33  1  0.250000  0.250000  0.250000  1
  I  I34  1  0.750000  0.750000  0.750000  1
