# generated using pymatgen
data_Ce(GdCo)4
_symmetry_space_group_name_H-M   'P 1'
_cell_length_a   5.85195234
_cell_length_b   5.85195089
_cell_length_c   9.27705170
_cell_angle_alpha   71.77864892
_cell_angle_beta   71.77865123
_cell_angle_gamma   39.45263632
_symmetry_Int_Tables_number   1
_chemical_formula_structural   Ce(GdCo)4
_chemical_formula_sum   'Ce1 Gd4 Co4'
_cell_volume   190.41308107
_cell_formula_units_Z   1
loop_
 _symmetry_equiv_pos_site_id
 _symmetry_equiv_pos_as_xyz
  1  'x, y, z'
loop_
 _atom_site_type_symbol
 _atom_site_label
 _atom_site_symmetry_multiplicity
 _atom_site_fract_x
 _atom_site_fract_y
 _atom_site_fract_z
 _atom_site_occupancy
  Ce  Ce0  1  0.500000  0.500000  0.500000  1
  Gd  Gd1  1  0.729067  0.729067  0.679450  1
  Gd  Gd2  1  0.270933  0.270933  0.320550  1
  Gd  Gd3  1  0.391069  0.391069  0.898963  1
  Gd  Gd4  1  0.608931  0.608931  0.101037  1
  Co  Co5  1  0.029083  0.029083  0.643292  1
  Co  Co6  1  0.970917  0.970917  0.356708  1
  Co  Co7  1  0.089072  0.089072  0.877846  1
  Co  Co8  1  0.910928  0.910928  0.122154  1
