# generated using pymatgen
data_Pa2Al3Zn
_symmetry_space_group_name_H-M   'P 1'
_cell_length_a   5.37253109
_cell_length_b   5.37253184
_cell_length_c   5.37253197
_cell_angle_alpha   62.65693064
_cell_angle_beta   62.65692725
_cell_angle_gamma   62.65692774
_symmetry_Int_Tables_number   1
_chemical_formula_structural   Pa2Al3Zn
_chemical_formula_sum   'Pa2 Al3 Zn1'
_cell_volume   116.13830345
_cell_formula_units_Z   1
loop_
 _symmetry_equiv_pos_site_id
 _symmetry_equiv_pos_as_xyz
  1  'x, y, z'
loop_
 _atom_site_type_symbol
 _atom_site_label
 _atom_site_symmetry_multiplicity
 _atom_site_fract_x
 _atom_site_fract_y
 _atom_site_fract_z
 _atom_site_occupancy
  Pa  Pa0  1  0.609041  0.609041  0.609041  1
  Pa  Pa1  1  0.390959  0.390959  0.390959  1
  Al  Al2  1  0.000000  0.500000  0.000000  1
  Al  Al3  1  0.500000  0.000000  0.000000  1
  Al  Al4  1  0.000000  0.000000  0.500000  1
  Zn  Zn5  1  0.000000  0.000000  0.000000  1
