# generated using pymatgen
data_Y4Fe(NiO4)3
_symmetry_space_group_name_H-M   'P 1'
_cell_length_a   5.25699517
_cell_length_b   5.64988795
_cell_length_c   7.53974848
_cell_angle_alpha   90.44888616
_cell_angle_beta   90.15516488
_cell_angle_gamma   89.92145710
_symmetry_Int_Tables_number   1
_chemical_formula_structural   Y4Fe(NiO4)3
_chemical_formula_sum   'Y4 Fe1 Ni3 O12'
_cell_volume   223.93344182
_cell_formula_units_Z   1
loop_
 _symmetry_equiv_pos_site_id
 _symmetry_equiv_pos_as_xyz
  1  'x, y, z'
loop_
 _atom_site_type_symbol
 _atom_site_label
 _atom_site_symmetry_multiplicity
 _atom_site_fract_x
 _atom_site_fract_y
 _atom_site_fract_z
 _atom_site_occupancy
  Y  Y0  1  0.479630  0.421646  0.744514  1
  Y  Y1  1  0.020031  0.927137  0.744356  1
  Y  Y2  1  0.520370  0.578354  0.255486  1
  Y  Y3  1  0.979969  0.072863  0.255644  1
  Fe  Fe4  1  0.000000  0.500000  0.000000  1
  Ni  Ni5  1  0.500000  0.000000  0.500000  1
  Ni  Ni6  1  0.000000  0.500000  0.500000  1
  Ni  Ni7  1  0.500000  0.000000  0.000000  1
  O  O8  1  0.699201  0.310428  0.446897  1
  O  O9  1  0.807610  0.802411  0.056023  1
  O  O10  1  0.300799  0.689572  0.553103  1
  O  O11  1  0.192390  0.197589  0.943977  1
  O  O12  1  0.196918  0.191555  0.551919  1
  O  O13  1  0.298637  0.686981  0.946412  1
  O  O14  1  0.803082  0.808445  0.448081  1
  O  O15  1  0.701363  0.313019  0.053588  1
  O  O16  1  0.106768  0.466049  0.249237  1
  O  O17  1  0.393727  0.966650  0.251299  1
  O  O18  1  0.893232  0.533951  0.750763  1
  O  O19  1  0.606273  0.033350  0.748701  1
