# generated using pymatgen
data_Ho12Co4SnPt
_symmetry_space_group_name_H-M   'P 1'
_cell_length_a   8.26665680
_cell_length_b   8.26665684
_cell_length_c   8.26665712
_cell_angle_alpha   111.41953572
_cell_angle_beta   110.19792743
_cell_angle_gamma   106.83051173
_symmetry_Int_Tables_number   1
_chemical_formula_structural   Ho12Co4SnPt
_chemical_formula_sum   'Ho12 Co4 Sn1 Pt1'
_cell_volume   434.13774306
_cell_formula_units_Z   1
loop_
 _symmetry_equiv_pos_site_id
 _symmetry_equiv_pos_as_xyz
  1  'x, y, z'
loop_
 _atom_site_type_symbol
 _atom_site_label
 _atom_site_symmetry_multiplicity
 _atom_site_fract_x
 _atom_site_fract_y
 _atom_site_fract_z
 _atom_site_occupancy
  Ho  Ho0  1  0.416471  0.220349  0.196123  1
  Ho  Ho1  1  0.583529  0.779651  0.803877  1
  Ho  Ho2  1  0.024226  0.220349  0.803877  1
  Ho  Ho3  1  0.975774  0.779651  0.196123  1
  Ho  Ho4  1  0.183172  0.287055  0.470226  1
  Ho  Ho5  1  0.816828  0.712945  0.529774  1
  Ho  Ho6  1  0.183172  0.712945  0.896117  1
  Ho  Ho7  1  0.816828  0.287055  0.103883  1
  Ho  Ho8  1  0.321919  0.632968  0.311049  1
  Ho  Ho9  1  0.678081  0.367032  0.688951  1
  Ho  Ho10  1  0.321919  0.010869  0.688951  1
  Ho  Ho11  1  0.678081  0.989131  0.311049  1
  Co  Co12  1  0.357807  0.000000  0.357807  1
  Co  Co13  1  0.642193  0.000000  0.642193  1
  Co  Co14  1  0.112910  0.612910  0.500000  1
  Co  Co15  1  0.887090  0.387090  0.500000  1
  Sn  Sn16  1  0.500000  0.500000  0.000000  1
  Pt  Pt17  1  0.000000  0.000000  0.000000  1
