# generated using pymatgen
data_La19Nd(Sn2Ru)4
_symmetry_space_group_name_H-M   'P 1'
_cell_length_a   8.40149148
_cell_length_b   9.24615100
_cell_length_c   12.75492500
_cell_angle_alpha   90.00000000
_cell_angle_beta   90.40364182
_cell_angle_gamma   90.00000000
_symmetry_Int_Tables_number   1
_chemical_formula_structural   La19Nd(Sn2Ru)4
_chemical_formula_sum   'La19 Nd1 Sn8 Ru4'
_cell_volume   990.79659464
_cell_formula_units_Z   1
loop_
 _symmetry_equiv_pos_site_id
 _symmetry_equiv_pos_as_xyz
  1  'x, y, z'
loop_
 _atom_site_type_symbol
 _atom_site_label
 _atom_site_symmetry_multiplicity
 _atom_site_fract_x
 _atom_site_fract_y
 _atom_site_fract_z
 _atom_site_occupancy
  La  La0  1  0.661341  0.750000  0.707692  1
  La  La1  1  0.337120  0.250000  0.292037  1
  La  La2  1  0.160190  0.250000  0.790042  1
  La  La3  1  0.837285  0.750000  0.209952  1
  La  La4  1  0.129790  0.750000  0.800433  1
  La  La5  1  0.869143  0.250000  0.199704  1
  La  La6  1  0.629112  0.250000  0.697463  1
  La  La7  1  0.370145  0.750000  0.303320  1
  La  La8  1  0.557500  0.750000  0.998355  1
  La  La9  1  0.443663  0.250000  0.000663  1
  La  La10  1  0.053915  0.250000  0.501698  1
  La  La11  1  0.822730  0.466676  0.932328  1
  La  La12  1  0.177586  0.532445  0.068031  1
  La  La13  1  0.322357  0.533129  0.567423  1
  La  La14  1  0.177586  0.967555  0.068031  1
  La  La15  1  0.678908  0.468366  0.431832  1
  La  La16  1  0.822730  0.033324  0.932328  1
  La  La17  1  0.678908  0.031634  0.431832  1
  La  La18  1  0.322357  0.966871  0.567423  1
  Nd  Nd19  1  0.951836  0.750000  0.499240  1
  Sn  Sn20  1  0.931880  0.005647  0.669922  1
  Sn  Sn21  1  0.066519  0.990604  0.329694  1
  Sn  Sn22  1  0.433215  0.992460  0.827468  1
  Sn  Sn23  1  0.066519  0.509396  0.329694  1
  Sn  Sn24  1  0.565386  0.007707  0.172382  1
  Sn  Sn25  1  0.931880  0.494353  0.669922  1
  Sn  Sn26  1  0.565386  0.492293  0.172382  1
  Sn  Sn27  1  0.433215  0.507540  0.827468  1
  Ru  Ru28  1  0.917923  0.750000  0.981896  1
  Ru  Ru29  1  0.082984  0.250000  0.019036  1
  Ru  Ru30  1  0.415946  0.250000  0.518330  1
  Ru  Ru31  1  0.584944  0.750000  0.481979  1
