# generated using pymatgen
data_Zr8In2Cu7Hg2Au
_symmetry_space_group_name_H-M   'P 1'
_cell_length_a   7.31463420
_cell_length_b   7.30862907
_cell_length_c   6.92228114
_cell_angle_alpha   89.99664404
_cell_angle_beta   90.02250550
_cell_angle_gamma   90.18040658
_symmetry_Int_Tables_number   1
_chemical_formula_structural   Zr8In2Cu7Hg2Au
_chemical_formula_sum   'Zr8 In2 Cu7 Hg2 Au1'
_cell_volume   370.06292684
_cell_formula_units_Z   1
loop_
 _symmetry_equiv_pos_site_id
 _symmetry_equiv_pos_as_xyz
  1  'x, y, z'
loop_
 _atom_site_type_symbol
 _atom_site_label
 _atom_site_symmetry_multiplicity
 _atom_site_fract_x
 _atom_site_fract_y
 _atom_site_fract_z
 _atom_site_occupancy
  Zr  Zr0  1  0.147275  0.154675  0.003916  1
  Zr  Zr1  1  0.848148  0.849770  0.004250  1
  Zr  Zr2  1  0.650940  0.351738  0.498686  1
  Zr  Zr3  1  0.353863  0.641924  0.496625  1
  Zr  Zr4  1  0.691552  0.302855  0.000845  1
  Zr  Zr5  1  0.312174  0.694328  0.003975  1
  Zr  Zr6  1  0.795880  0.807339  0.497249  1
  Zr  Zr7  1  0.198225  0.198068  0.496744  1
  In  In8  1  0.999017  0.501802  0.248896  1
  In  In9  1  0.997238  0.493435  0.751761  1
  Cu  Cu10  1  0.378418  0.376772  0.199403  1
  Cu  Cu11  1  0.624119  0.621388  0.799207  1
  Cu  Cu12  1  0.625093  0.620217  0.199999  1
  Cu  Cu13  1  0.872118  0.129894  0.700433  1
  Cu  Cu14  1  0.877740  0.124101  0.299418  1
  Cu  Cu15  1  0.376378  0.377402  0.799078  1
  Cu  Cu16  1  0.121807  0.876066  0.295609  1
  Hg  Hg17  1  0.498187  0.000254  0.249750  1
  Hg  Hg18  1  0.508643  0.003234  0.752144  1
  Au  Au19  1  0.123186  0.874736  0.702010  1
