# generated using pymatgen
data_Sc2Nb3Re17Tc7
_symmetry_space_group_name_H-M   'P 1'
_cell_length_a   8.41734078
_cell_length_b   8.42208498
_cell_length_c   8.42133270
_cell_angle_alpha   109.55084887
_cell_angle_beta   109.47710107
_cell_angle_gamma   109.42678631
_symmetry_Int_Tables_number   1
_chemical_formula_structural   Sc2Nb3Re17Tc7
_chemical_formula_sum   'Sc2 Nb3 Re17 Tc7'
_cell_volume   459.33837856
_cell_formula_units_Z   1
loop_
 _symmetry_equiv_pos_site_id
 _symmetry_equiv_pos_as_xyz
  1  'x, y, z'
loop_
 _atom_site_type_symbol
 _atom_site_label
 _atom_site_symmetry_multiplicity
 _atom_site_fract_x
 _atom_site_fract_y
 _atom_site_fract_z
 _atom_site_occupancy
  Sc  Sc0  1  0.997783  0.997668  0.627191  1
  Sc  Sc1  1  0.000098  0.999961  0.997518  1
  Nb  Nb2  1  0.369620  0.370601  0.369182  1
  Nb  Nb3  1  0.001233  0.630872  0.000185  1
  Nb  Nb4  1  0.631691  0.000724  0.001121  1
  Re  Re5  1  0.805077  0.805103  0.182082  1
  Re  Re6  1  0.375454  0.192715  0.000133  1
  Re  Re7  1  0.192987  0.375391  0.000002  1
  Re  Re8  1  0.622883  0.816374  0.623918  1
  Re  Re9  1  0.377783  0.000807  0.197582  1
  Re  Re10  1  0.000131  0.377357  0.198156  1
  Re  Re11  1  0.816720  0.622750  0.623236  1
  Re  Re12  1  0.183353  0.806130  0.806782  1
  Re  Re13  1  0.805948  0.181836  0.807273  1
  Re  Re14  1  0.194567  0.000135  0.375632  1
  Re  Re15  1  0.999678  0.194634  0.376846  1
  Re  Re16  1  0.624811  0.625312  0.821877  1
  Re  Re17  1  0.397266  0.998896  0.679088  1
  Re  Re18  1  0.601093  0.280882  0.599358  1
  Re  Re19  1  0.681534  0.400375  0.000235  1
  Re  Re20  1  0.398572  0.679924  0.998562  1
  Re  Re21  1  0.324598  0.325953  0.722167  1
  Tc  Tc22  1  0.999119  0.397284  0.680528  1
  Tc  Tc23  1  0.281612  0.600310  0.599045  1
  Tc  Tc24  1  0.718189  0.319383  0.317756  1
  Tc  Tc25  1  0.318804  0.718138  0.318343  1
  Tc  Tc26  1  0.676812  0.001005  0.396970  1
  Tc  Tc27  1  0.000298  0.676947  0.396927  1
  Tc  Tc28  1  0.602286  0.602534  0.282305  1
