# generated using pymatgen
data_Tb3DyGa16Ir3
_symmetry_space_group_name_H-M   'P 1'
_cell_length_a   6.16489800
_cell_length_b   6.16620200
_cell_length_c   11.22134600
_cell_angle_alpha   90.00000000
_cell_angle_beta   90.00000000
_cell_angle_gamma   90.00000000
_symmetry_Int_Tables_number   1
_chemical_formula_structural   Tb3DyGa16Ir3
_chemical_formula_sum   'Tb3 Dy1 Ga16 Ir3'
_cell_volume   426.56831841
_cell_formula_units_Z   1
loop_
 _symmetry_equiv_pos_site_id
 _symmetry_equiv_pos_as_xyz
  1  'x, y, z'
loop_
 _atom_site_type_symbol
 _atom_site_label
 _atom_site_symmetry_multiplicity
 _atom_site_fract_x
 _atom_site_fract_y
 _atom_site_fract_z
 _atom_site_occupancy
  Tb  Tb0  1  0.500000  0.000000  0.805991  1
  Tb  Tb1  1  0.000000  0.500000  0.805992  1
  Tb  Tb2  1  0.500000  0.000000  0.194025  1
  Dy  Dy3  1  0.000000  0.500000  0.194061  1
  Ga  Ga4  1  0.248740  0.248745  0.620554  1
  Ga  Ga5  1  0.751260  0.751255  0.620554  1
  Ga  Ga6  1  0.751260  0.248745  0.620554  1
  Ga  Ga7  1  0.248740  0.751255  0.620554  1
  Ga  Ga8  1  0.751312  0.751209  0.379402  1
  Ga  Ga9  1  0.248688  0.248791  0.379402  1
  Ga  Ga10  1  0.248688  0.751209  0.379402  1
  Ga  Ga11  1  0.751312  0.248791  0.379402  1
  Ga  Ga12  1  0.288227  0.288324  0.000040  1
  Ga  Ga13  1  0.711773  0.711676  0.000040  1
  Ga  Ga14  1  0.711773  0.288324  0.000040  1
  Ga  Ga15  1  0.288227  0.711676  0.000040  1
  Ga  Ga16  1  0.500000  0.500000  0.803550  1
  Ga  Ga17  1  0.500000  0.500000  0.196448  1
  Ga  Ga18  1  0.000000  0.000000  0.775410  1
  Ga  Ga19  1  0.000000  0.000000  0.224579  1
  Ir  Ir20  1  0.500000  0.000000  0.500001  1
  Ir  Ir21  1  0.000000  0.500000  0.499968  1
  Ir  Ir22  1  0.000000  0.000000  0.999992  1
