# generated using pymatgen
data_CsNdSiO4
_symmetry_space_group_name_H-M   'P 1'
_cell_length_a   5.81348381
_cell_length_b   5.82995400
_cell_length_c   8.11242101
_cell_angle_alpha   90.00000000
_cell_angle_beta   107.15151856
_cell_angle_gamma   90.00000000
_symmetry_Int_Tables_number   1
_chemical_formula_structural   CsNdSiO4
_chemical_formula_sum   'Cs2 Nd2 Si2 O8'
_cell_volume   262.72149204
_cell_formula_units_Z   2
loop_
 _symmetry_equiv_pos_site_id
 _symmetry_equiv_pos_as_xyz
  1  'x, y, z'
loop_
 _atom_site_type_symbol
 _atom_site_label
 _atom_site_symmetry_multiplicity
 _atom_site_fract_x
 _atom_site_fract_y
 _atom_site_fract_z
 _atom_site_occupancy
  Cs  Cs0  1  0.301605  0.024110  0.071266  1
  Cs  Cs1  1  0.698396  0.524110  0.928733  1
  Nd  Nd2  1  0.771422  0.491562  0.456787  1
  Nd  Nd3  1  0.228578  0.991562  0.543214  1
  Si  Si4  1  0.229485  0.526340  0.342574  1
  Si  Si5  1  0.770515  0.026340  0.657425  1
  O  O6  1  0.403588  0.516075  0.216553  1
  O  O7  1  0.022452  0.731729  0.307598  1
  O  O8  1  0.070942  0.289493  0.343035  1
  O  O9  1  0.589644  0.087694  0.461688  1
  O  O10  1  0.410357  0.587694  0.538313  1
  O  O11  1  0.929058  0.789493  0.656965  1
  O  O12  1  0.977547  0.231729  0.692401  1
  O  O13  1  0.596412  0.016075  0.783448  1
