# generated using pymatgen
data_DyHo4BeP11Ir19
_symmetry_space_group_name_H-M   'P 1'
_cell_length_a   12.70831077
_cell_length_b   12.66368646
_cell_length_c   3.96665900
_cell_angle_alpha   90.00000000
_cell_angle_beta   90.00000000
_cell_angle_gamma   120.17486965
_symmetry_Int_Tables_number   1
_chemical_formula_structural   DyHo4BeP11Ir19
_chemical_formula_sum   'Dy1 Ho4 Be1 P11 Ir19'
_cell_volume   551.86836978
_cell_formula_units_Z   1
loop_
 _symmetry_equiv_pos_site_id
 _symmetry_equiv_pos_as_xyz
  1  'x, y, z'
loop_
 _atom_site_type_symbol
 _atom_site_label
 _atom_site_symmetry_multiplicity
 _atom_site_fract_x
 _atom_site_fract_y
 _atom_site_fract_z
 _atom_site_occupancy
  Dy  Dy0  1  0.810552  0.994513  0.000000  1
  Ho  Ho1  1  0.344971  0.667298  0.500000  1
  Ho  Ho2  1  0.666861  0.333593  0.500000  1
  Ho  Ho3  1  0.998745  0.816655  0.000000  1
  Ho  Ho4  1  0.182955  0.183863  0.000000  1
  Be  Be5  1  0.520050  0.685006  0.000000  1
  P  P6  1  0.001419  0.643941  0.500000  1
  P  P7  1  0.359878  0.363764  0.500000  1
  P  P8  1  0.638670  0.994644  0.500000  1
  P  P9  1  0.315777  0.828118  0.000000  1
  P  P10  1  0.173996  0.484502  0.000000  1
  P  P11  1  0.482808  0.174738  0.000000  1
  P  P12  1  0.689824  0.517154  0.000000  1
  P  P13  1  0.828009  0.310959  0.000000  1
  P  P14  1  0.996439  0.176198  0.500000  1
  P  P15  1  0.818895  0.818377  0.500000  1
  P  P16  1  0.178432  0.999485  0.500000  1
  Ir  Ir17  1  0.510278  0.869476  0.000000  1
  Ir  Ir18  1  0.133588  0.639294  0.000000  1
  Ir  Ir19  1  0.355702  0.484536  0.000000  1
  Ir  Ir20  1  0.492910  0.364883  0.000000  1
  Ir  Ir21  1  0.869336  0.506872  0.000000  1
  Ir  Ir22  1  0.637559  0.134472  0.000000  1
  Ir  Ir23  1  0.001123  0.462973  0.500000  1
  Ir  Ir24  1  0.535579  0.552758  0.500000  1
  Ir  Ir25  1  0.461290  0.000974  0.500000  1
  Ir  Ir26  1  0.998851  0.284390  0.000000  1
  Ir  Ir27  1  0.713627  0.712064  0.000000  1
  Ir  Ir28  1  0.285754  0.999894  0.000000  1
  Ir  Ir29  1  0.625554  0.804595  0.500000  1
  Ir  Ir30  1  0.196852  0.819163  0.500000  1
  Ir  Ir31  1  0.176611  0.374450  0.500000  1
  Ir  Ir32  1  0.375055  0.182395  0.500000  1
  Ir  Ir33  1  0.805784  0.622081  0.500000  1
  Ir  Ir34  1  0.816280  0.192664  0.500000  1
  Ir  Ir35  1  0.999986  0.999260  0.500000  1
