# generated using pymatgen
data_Nd2Er8Ru10C19
_symmetry_space_group_name_H-M   'P 1'
_cell_length_a   8.18955224
_cell_length_b   8.18955305
_cell_length_c   10.08150199
_cell_angle_alpha   70.99902879
_cell_angle_beta   70.99902874
_cell_angle_gamma   53.07679001
_symmetry_Int_Tables_number   1
_chemical_formula_structural   Nd2Er8Ru10C19
_chemical_formula_sum   'Nd2 Er8 Ru10 C19'
_cell_volume   503.47834180
_cell_formula_units_Z   1
loop_
 _symmetry_equiv_pos_site_id
 _symmetry_equiv_pos_as_xyz
  1  'x, y, z'
loop_
 _atom_site_type_symbol
 _atom_site_label
 _atom_site_symmetry_multiplicity
 _atom_site_fract_x
 _atom_site_fract_y
 _atom_site_fract_z
 _atom_site_occupancy
  Nd  Nd0  1  0.000851  0.000851  0.010576  1
  Nd  Nd1  1  0.477982  0.477982  0.010734  1
  Er  Er2  1  0.322022  0.322022  0.388558  1
  Er  Er3  1  0.510009  0.510009  0.635600  1
  Er  Er4  1  0.015948  0.015948  0.619262  1
  Er  Er5  1  0.821505  0.821505  0.399460  1
  Er  Er6  1  0.626354  0.626354  0.262040  1
  Er  Er7  1  0.751387  0.751387  0.760441  1
  Er  Er8  1  0.143549  0.143549  0.234757  1
  Er  Er9  1  0.255440  0.255440  0.785995  1
  Ru  Ru10  1  0.461916  0.893276  0.010525  1
  Ru  Ru11  1  0.219485  0.725979  0.418374  1
  Ru  Ru12  1  0.725979  0.219485  0.418374  1
  Ru  Ru13  1  0.419709  0.935500  0.601806  1
  Ru  Ru14  1  0.022188  0.594969  0.157905  1
  Ru  Ru15  1  0.594969  0.022188  0.157905  1
  Ru  Ru16  1  0.668845  0.095575  0.863319  1
  Ru  Ru17  1  0.095575  0.668845  0.863319  1
  Ru  Ru18  1  0.935500  0.419709  0.601806  1
  Ru  Ru19  1  0.893276  0.461916  0.010525  1
  C  C20  1  0.788448  0.788448  0.009699  1
  C  C21  1  0.391135  0.186415  0.010239  1
  C  C22  1  0.186415  0.391135  0.010239  1
  C  C23  1  0.354763  0.860644  0.444660  1
  C  C24  1  0.860644  0.354763  0.444660  1
  C  C25  1  0.084859  0.564613  0.576995  1
  C  C26  1  0.564613  0.084859  0.576995  1
  C  C27  1  0.459196  0.953941  0.368436  1
  C  C28  1  0.953941  0.459196  0.368436  1
  C  C29  1  0.636445  0.134398  0.652776  1
  C  C30  1  0.181832  0.686066  0.224003  1
  C  C31  1  0.289233  0.792491  0.797190  1
  C  C32  1  0.792491  0.289233  0.797190  1
  C  C33  1  0.286177  0.783825  0.181210  1
  C  C34  1  0.686066  0.181832  0.224003  1
  C  C35  1  0.783825  0.286177  0.181210  1
  C  C36  1  0.371495  0.868983  0.840182  1
  C  C37  1  0.868983  0.371495  0.840182  1
  C  C38  1  0.134398  0.636445  0.652776  1
