# generated using pymatgen
data_Ce2Co2Si
_symmetry_space_group_name_H-M   'P 1'
_cell_length_a   5.15193585
_cell_length_b   5.15193448
_cell_length_c   5.15193478
_cell_angle_alpha   131.38026979
_cell_angle_beta   117.11186090
_cell_angle_gamma   83.29353885
_symmetry_Int_Tables_number   1
_chemical_formula_structural   Ce2Co2Si
_chemical_formula_sum   'Ce2 Co2 Si1'
_cell_volume   87.77757260
_cell_formula_units_Z   1
loop_
 _symmetry_equiv_pos_site_id
 _symmetry_equiv_pos_as_xyz
  1  'x, y, z'
loop_
 _atom_site_type_symbol
 _atom_site_label
 _atom_site_symmetry_multiplicity
 _atom_site_fract_x
 _atom_site_fract_y
 _atom_site_fract_z
 _atom_site_occupancy
  Ce  Ce0  1  0.703434  0.203434  0.500000  1
  Ce  Ce1  1  0.296566  0.796566  0.500000  1
  Co  Co2  1  0.752651  0.500000  0.252651  1
  Co  Co3  1  0.247349  0.500000  0.747349  1
  Si  Si4  1  0.000000  0.000000  0.000000  1
