# generated using pymatgen
data_DyErGa4CoNi
_symmetry_space_group_name_H-M   'P 1'
_cell_length_a   5.41681365
_cell_length_b   5.41681432
_cell_length_c   6.75673200
_cell_angle_alpha   90.00000000
_cell_angle_beta   90.00000000
_cell_angle_gamma   135.81663918
_symmetry_Int_Tables_number   1
_chemical_formula_structural   DyErGa4CoNi
_chemical_formula_sum   'Dy1 Er1 Ga4 Co1 Ni1'
_cell_volume   138.17530908
_cell_formula_units_Z   1
loop_
 _symmetry_equiv_pos_site_id
 _symmetry_equiv_pos_as_xyz
  1  'x, y, z'
loop_
 _atom_site_type_symbol
 _atom_site_label
 _atom_site_symmetry_multiplicity
 _atom_site_fract_x
 _atom_site_fract_y
 _atom_site_fract_z
 _atom_site_occupancy
  Dy  Dy0  1  0.431211  0.568789  0.750000  1
  Er  Er1  1  0.567110  0.432890  0.250000  1
  Ga  Ga2  1  0.851953  0.148047  0.054416  1
  Ga  Ga3  1  0.148100  0.851900  0.947099  1
  Ga  Ga4  1  0.148100  0.851900  0.552901  1
  Ga  Ga5  1  0.851953  0.148047  0.445584  1
  Co  Co6  1  0.290097  0.709903  0.250000  1
  Ni  Ni7  1  0.711476  0.288524  0.750000  1
