# generated using pymatgen
data_LiTb8Dy8Cd3Co4
_symmetry_space_group_name_H-M   'P 1'
_cell_length_a   9.52012589
_cell_length_b   9.52647205
_cell_length_c   9.54300303
_cell_angle_alpha   60.00373250
_cell_angle_beta   60.00931483
_cell_angle_gamma   59.89117200
_symmetry_Int_Tables_number   1
_chemical_formula_structural   LiTb8Dy8Cd3Co4
_chemical_formula_sum   'Li1 Tb8 Dy8 Cd3 Co4'
_cell_volume   611.54600108
_cell_formula_units_Z   1
loop_
 _symmetry_equiv_pos_site_id
 _symmetry_equiv_pos_as_xyz
  1  'x, y, z'
loop_
 _atom_site_type_symbol
 _atom_site_label
 _atom_site_symmetry_multiplicity
 _atom_site_fract_x
 _atom_site_fract_y
 _atom_site_fract_z
 _atom_site_occupancy
  Li  Li0  1  0.570770  0.571111  0.286518  1
  Tb  Tb1  1  0.937932  0.937538  0.562642  1
  Tb  Tb2  1  0.813826  0.185928  0.184922  1
  Tb  Tb3  1  0.936999  0.563429  0.563070  1
  Tb  Tb4  1  0.939761  0.560520  0.939639  1
  Tb  Tb5  1  0.814476  0.813746  0.183574  1
  Tb  Tb6  1  0.343451  0.344102  0.346308  1
  Tb  Tb7  1  0.559963  0.939614  0.939965  1
  Tb  Tb8  1  0.562951  0.937091  0.563317  1
  Dy  Dy9  1  0.188922  0.812322  0.809890  1
  Dy  Dy10  1  0.188903  0.188157  0.809444  1
  Dy  Dy11  1  0.347993  0.347723  0.957119  1
  Dy  Dy12  1  0.344087  0.965644  0.347730  1
  Dy  Dy13  1  0.812211  0.188769  0.809406  1
  Dy  Dy14  1  0.560410  0.561249  0.938996  1
  Dy  Dy15  1  0.186217  0.813337  0.185060  1
  Dy  Dy16  1  0.965868  0.343896  0.348020  1
  Cd  Cd17  1  0.258645  0.581750  0.577323  1
  Cd  Cd18  1  0.581302  0.581390  0.577080  1
  Cd  Cd19  1  0.581596  0.258576  0.577759  1
  Co  Co20  1  0.577256  0.142888  0.138134  1
  Co  Co21  1  0.142585  0.142487  0.138172  1
  Co  Co22  1  0.142809  0.577597  0.138073  1
  Co  Co23  1  0.141068  0.141137  0.577846  1
