# generated using pymatgen
data_Ho4Ga6TcRu
_symmetry_space_group_name_H-M   'P 1'
_cell_length_a   5.45829400
_cell_length_b   5.45829377
_cell_length_c   8.77133600
_cell_angle_alpha   90.00000000
_cell_angle_beta   90.00000000
_cell_angle_gamma   120.00000139
_symmetry_Int_Tables_number   1
_chemical_formula_structural   Ho4Ga6TcRu
_chemical_formula_sum   'Ho4 Ga6 Tc1 Ru1'
_cell_volume   226.31336584
_cell_formula_units_Z   1
loop_
 _symmetry_equiv_pos_site_id
 _symmetry_equiv_pos_as_xyz
  1  'x, y, z'
loop_
 _atom_site_type_symbol
 _atom_site_label
 _atom_site_symmetry_multiplicity
 _atom_site_fract_x
 _atom_site_fract_y
 _atom_site_fract_z
 _atom_site_occupancy
  Ho  Ho0  1  0.666666  0.333333  0.051373  1
  Ho  Ho1  1  0.666666  0.333333  0.448251  1
  Ho  Ho2  1  0.333333  0.666666  0.551748  1
  Ho  Ho3  1  0.333333  0.666666  0.948627  1
  Ga  Ga4  1  0.164820  0.329640  0.250787  1
  Ga  Ga5  1  0.164821  0.835179  0.250787  1
  Ga  Ga6  1  0.670359  0.835179  0.250787  1
  Ga  Ga7  1  0.329641  0.164820  0.749213  1
  Ga  Ga8  1  0.835179  0.164820  0.749213  1
  Ga  Ga9  1  0.835179  0.670359  0.749213  1
  Tc  Tc10  1  0.000000  0.000000  0.000000  1
  Ru  Ru11  1  0.000000  0.000000  0.499999  1
