# generated using pymatgen
data_Y4Ho2Co17TcP12
_symmetry_space_group_name_H-M   'P 1'
_cell_length_a   3.69757600
_cell_length_b   10.51641300
_cell_length_c   12.20818700
_cell_angle_alpha   90.00000000
_cell_angle_beta   90.00000000
_cell_angle_gamma   90.00000000
_symmetry_Int_Tables_number   1
_chemical_formula_structural   Y4Ho2Co17TcP12
_chemical_formula_sum   'Y4 Ho2 Co17 Tc1 P12'
_cell_volume   474.71823647
_cell_formula_units_Z   1
loop_
 _symmetry_equiv_pos_site_id
 _symmetry_equiv_pos_as_xyz
  1  'x, y, z'
loop_
 _atom_site_type_symbol
 _atom_site_label
 _atom_site_symmetry_multiplicity
 _atom_site_fract_x
 _atom_site_fract_y
 _atom_site_fract_z
 _atom_site_occupancy
  Y  Y0  1  0.000000  0.500000  0.523522  1
  Y  Y1  1  0.500000  0.000000  0.477896  1
  Y  Y2  1  0.000000  0.683166  0.795180  1
  Y  Y3  1  0.000000  0.316834  0.795180  1
  Ho  Ho4  1  0.500000  0.817630  0.206679  1
  Ho  Ho5  1  0.500000  0.182370  0.206679  1
  Co  Co6  1  0.000000  0.000000  0.840235  1
  Co  Co7  1  0.500000  0.500000  0.703446  1
  Co  Co8  1  0.000000  0.000000  0.295753  1
  Co  Co9  1  0.000000  0.500000  0.988053  1
  Co  Co10  1  0.500000  0.000000  0.015290  1
  Co  Co11  1  0.500000  0.331782  0.991616  1
  Co  Co12  1  0.500000  0.668218  0.991616  1
  Co  Co13  1  0.000000  0.166219  0.006194  1
  Co  Co14  1  0.000000  0.833781  0.006194  1
  Co  Co15  1  0.500000  0.296494  0.430178  1
  Co  Co16  1  0.500000  0.703506  0.430178  1
  Co  Co17  1  0.000000  0.203209  0.568636  1
  Co  Co18  1  0.000000  0.796791  0.568636  1
  Co  Co19  1  0.500000  0.879390  0.709064  1
  Co  Co20  1  0.500000  0.120610  0.709064  1
  Co  Co21  1  0.000000  0.620920  0.291334  1
  Co  Co22  1  0.000000  0.379080  0.291334  1
  Tc  Tc23  1  0.500000  0.500000  0.156648  1
  P  P24  1  0.500000  0.500000  0.882052  1
  P  P25  1  0.000000  0.000000  0.117761  1
  P  P26  1  0.500000  0.500000  0.348476  1
  P  P27  1  0.000000  0.000000  0.656175  1
  P  P28  1  0.500000  0.310740  0.616220  1
  P  P29  1  0.500000  0.689260  0.616220  1
  P  P30  1  0.000000  0.188536  0.383513  1
  P  P31  1  0.000000  0.811464  0.383513  1
  P  P32  1  0.500000  0.850051  0.892354  1
  P  P33  1  0.500000  0.149949  0.892354  1
  P  P34  1  0.000000  0.656030  0.106377  1
  P  P35  1  0.000000  0.343970  0.106377  1
