# generated using pymatgen
data_PrNd7CoHg3
_symmetry_space_group_name_H-M   'P 1'
_cell_length_a   10.58472930
_cell_length_b   10.58473021
_cell_length_c   7.28964049
_cell_angle_alpha   89.93650085
_cell_angle_beta   90.06349676
_cell_angle_gamma   120.04093578
_symmetry_Int_Tables_number   1
_chemical_formula_structural   PrNd7CoHg3
_chemical_formula_sum   'Pr2 Nd14 Co2 Hg6'
_cell_volume   706.99548909
_cell_formula_units_Z   2
loop_
 _symmetry_equiv_pos_site_id
 _symmetry_equiv_pos_as_xyz
  1  'x, y, z'
loop_
 _atom_site_type_symbol
 _atom_site_label
 _atom_site_symmetry_multiplicity
 _atom_site_fract_x
 _atom_site_fract_y
 _atom_site_fract_z
 _atom_site_occupancy
  Pr  Pr0  1  0.828779  0.657541  0.481247  1
  Pr  Pr1  1  0.342459  0.171221  0.481247  1
  Nd  Nd2  1  0.828805  0.171195  0.481234  1
  Nd  Nd3  1  0.171069  0.342444  0.981275  1
  Nd  Nd4  1  0.657556  0.828931  0.981275  1
  Nd  Nd5  1  0.171180  0.828820  0.981304  1
  Nd  Nd6  1  0.666900  0.333100  0.187953  1
  Nd  Nd7  1  0.333402  0.666598  0.688400  1
  Nd  Nd8  1  0.540963  0.081459  0.789996  1
  Nd  Nd9  1  0.918541  0.459037  0.789996  1
  Nd  Nd10  1  0.540624  0.459376  0.790501  1
  Nd  Nd11  1  0.459394  0.918331  0.289330  1
  Nd  Nd12  1  0.081669  0.540606  0.289330  1
  Nd  Nd13  1  0.459053  0.540947  0.289189  1
  Nd  Nd14  1  0.999873  0.000127  0.788094  1
  Nd  Nd15  1  0.999991  0.000009  0.287329  1
  Co  Co16  1  0.667025  0.332975  0.551778  1
  Co  Co17  1  0.333270  0.666730  0.051560  1
  Hg  Hg18  1  0.832462  0.664841  0.039857  1
  Hg  Hg19  1  0.335159  0.167538  0.039857  1
  Hg  Hg20  1  0.832385  0.167615  0.041099  1
  Hg  Hg21  1  0.167073  0.335783  0.541373  1
  Hg  Hg22  1  0.664217  0.832927  0.541373  1
  Hg  Hg23  1  0.168152  0.831848  0.541649  1
