# generated using pymatgen
data_TbY2Hf(Al8Pt3)3
_symmetry_space_group_name_H-M   'P 1'
_cell_length_a   7.51508571
_cell_length_b   7.52723986
_cell_length_c   13.11384420
_cell_angle_alpha   84.53735713
_cell_angle_beta   79.05107926
_cell_angle_gamma   59.89786585
_symmetry_Int_Tables_number   1
_chemical_formula_structural   TbY2Hf(Al8Pt3)3
_chemical_formula_sum   'Tb1 Y2 Hf1 Al24 Pt9'
_cell_volume   630.09221837
_cell_formula_units_Z   1
loop_
 _symmetry_equiv_pos_site_id
 _symmetry_equiv_pos_as_xyz
  1  'x, y, z'
loop_
 _atom_site_type_symbol
 _atom_site_label
 _atom_site_symmetry_multiplicity
 _atom_site_fract_x
 _atom_site_fract_y
 _atom_site_fract_z
 _atom_site_occupancy
  Tb  Tb0  1  0.266895  0.501130  0.191580  1
  Y  Y1  1  0.606505  0.832127  0.191423  1
  Y  Y2  1  0.733755  0.498635  0.807944  1
  Hf  Hf3  1  0.393846  0.168240  0.807179  1
  Al  Al4  1  0.681375  0.837075  0.941369  1
  Al  Al5  1  0.316388  0.166372  0.053113  1
  Al  Al6  1  0.146390  0.832868  0.562570  1
  Al  Al7  1  0.853144  0.167121  0.438441  1
  Al  Al8  1  0.480161  0.166831  0.560473  1
  Al  Al9  1  0.519185  0.833807  0.441497  1
  Al  Al10  1  0.216899  0.165408  0.330670  1
  Al  Al11  1  0.779839  0.836710  0.673038  1
  Al  Al12  1  0.436087  0.504702  0.673347  1
  Al  Al13  1  0.562304  0.493585  0.330042  1
  Al  Al14  1  0.111011  0.159727  0.672264  1
  Al  Al15  1  0.890003  0.839736  0.331292  1
  Al  Al16  1  0.354054  0.495776  0.941334  1
  Al  Al17  1  0.648187  0.499757  0.055141  1
  Al  Al18  1  0.019421  0.168024  0.949860  1
  Al  Al19  1  0.984888  0.832994  0.045888  1
  Al  Al20  1  0.186701  0.499217  0.441485  1
  Al  Al21  1  0.813763  0.500340  0.559110  1
  Al  Al22  1  0.734292  0.163903  0.183783  1
  Al  Al23  1  0.265180  0.842382  0.816384  1
  Al  Al24  1  0.066853  0.626049  0.815036  1
  Al  Al25  1  0.939354  0.368204  0.184592  1
  Al  Al26  1  0.849987  0.041105  0.815638  1
  Al  Al27  1  0.144587  0.958806  0.183903  1
  Pt  Pt28  1  0.120723  0.490202  0.639782  1
  Pt  Pt29  1  0.878986  0.508120  0.361958  1
  Pt  Pt30  1  0.657762  0.171700  0.998641  1
  Pt  Pt31  1  0.343564  0.827686  0.998985  1
  Pt  Pt32  1  0.537628  0.166669  0.362118  1
  Pt  Pt33  1  0.462866  0.833634  0.639686  1
  Pt  Pt34  1  0.777535  0.176009  0.638295  1
  Pt  Pt35  1  0.220306  0.824988  0.363505  1
  Pt  Pt36  1  0.999572  0.500364  0.998637  1
