# generated using pymatgen
data_Zr17Sc(Re4Ni)2
_symmetry_space_group_name_H-M   'P 1'
_cell_length_a   8.67137820
_cell_length_b   8.67137748
_cell_length_c   8.57052400
_cell_angle_alpha   90.00000000
_cell_angle_beta   90.00000000
_cell_angle_gamma   119.80003499
_symmetry_Int_Tables_number   1
_chemical_formula_structural   Zr17Sc(Re4Ni)2
_chemical_formula_sum   'Zr17 Sc1 Re8 Ni2'
_cell_volume   559.22399843
_cell_formula_units_Z   1
loop_
 _symmetry_equiv_pos_site_id
 _symmetry_equiv_pos_as_xyz
  1  'x, y, z'
loop_
 _atom_site_type_symbol
 _atom_site_label
 _atom_site_symmetry_multiplicity
 _atom_site_fract_x
 _atom_site_fract_y
 _atom_site_fract_z
 _atom_site_occupancy
  Zr  Zr0  1  0.197689  0.802311  0.443436  1
  Zr  Zr1  1  0.198546  0.395200  0.442495  1
  Zr  Zr2  1  0.604800  0.801454  0.442495  1
  Zr  Zr3  1  0.802399  0.197601  0.557055  1
  Zr  Zr4  1  0.802347  0.605158  0.556750  1
  Zr  Zr5  1  0.394842  0.197653  0.556750  1
  Zr  Zr6  1  0.802399  0.197601  0.942945  1
  Zr  Zr7  1  0.802347  0.605158  0.943250  1
  Zr  Zr8  1  0.394842  0.197653  0.943250  1
  Zr  Zr9  1  0.197689  0.802311  0.056564  1
  Zr  Zr10  1  0.198546  0.395200  0.057505  1
  Zr  Zr11  1  0.604800  0.801454  0.057505  1
  Zr  Zr12  1  0.542244  0.084823  0.250000  1
  Zr  Zr13  1  0.915177  0.457756  0.250000  1
  Zr  Zr14  1  0.457017  0.542983  0.750000  1
  Zr  Zr15  1  0.458311  0.915622  0.750000  1
  Zr  Zr16  1  0.084378  0.541689  0.750000  1
  Sc  Sc17  1  0.542106  0.457894  0.250000  1
  Re  Re18  1  0.891596  0.108404  0.250000  1
  Re  Re19  1  0.891658  0.783465  0.250000  1
  Re  Re20  1  0.216535  0.108342  0.250000  1
  Re  Re21  1  0.107964  0.892036  0.750000  1
  Re  Re22  1  0.107790  0.215918  0.750000  1
  Re  Re23  1  0.784082  0.892210  0.750000  1
  Re  Re24  1  0.000204  0.999796  0.499198  1
  Re  Re25  1  0.000204  0.999796  0.000802  1
  Ni  Ni26  1  0.332890  0.667110  0.250000  1
  Ni  Ni27  1  0.666599  0.333401  0.750000  1
