# generated using pymatgen
data_Sm8Ho12Si15Pb
_symmetry_space_group_name_H-M   'P 1'
_cell_length_a   7.46387595
_cell_length_b   7.76967257
_cell_length_c   14.75643200
_cell_angle_alpha   90.09585837
_cell_angle_beta   89.17541752
_cell_angle_gamma   90.06437152
_symmetry_Int_Tables_number   1
_chemical_formula_structural   Sm8Ho12Si15Pb
_chemical_formula_sum   'Sm8 Ho12 Si15 Pb1'
_cell_volume   855.66278372
_cell_formula_units_Z   1
loop_
 _symmetry_equiv_pos_site_id
 _symmetry_equiv_pos_as_xyz
  1  'x, y, z'
loop_
 _atom_site_type_symbol
 _atom_site_label
 _atom_site_symmetry_multiplicity
 _atom_site_fract_x
 _atom_site_fract_y
 _atom_site_fract_z
 _atom_site_occupancy
  Sm  Sm0  1  0.020504  0.181056  0.097793  1
  Sm  Sm1  1  0.978770  0.819721  0.902831  1
  Sm  Sm2  1  0.479144  0.681253  0.902507  1
  Sm  Sm3  1  0.980667  0.826030  0.599597  1
  Sm  Sm4  1  0.520449  0.319031  0.098321  1
  Sm  Sm5  1  0.012847  0.172597  0.398384  1
  Sm  Sm6  1  0.520151  0.317428  0.399335  1
  Sm  Sm7  1  0.494590  0.688782  0.601503  1
  Ho  Ho8  1  0.158142  0.510116  0.754382  1
  Ho  Ho9  1  0.840630  0.488499  0.250000  1
  Ho  Ho10  1  0.341905  0.012200  0.249395  1
  Ho  Ho11  1  0.660431  0.988368  0.751912  1
  Ho  Ho12  1  0.337594  0.163526  0.629522  1
  Ho  Ho13  1  0.669153  0.822931  0.374948  1
  Ho  Ho14  1  0.166831  0.687650  0.370586  1
  Ho  Ho15  1  0.675116  0.820417  0.121879  1
  Ho  Ho16  1  0.819555  0.322017  0.624346  1
  Ho  Ho17  1  0.322803  0.178011  0.878034  1
  Ho  Ho18  1  0.823154  0.321124  0.877794  1
  Ho  Ho19  1  0.176533  0.678580  0.122564  1
  Si  Si20  1  0.031096  0.111656  0.751613  1
  Si  Si21  1  0.966409  0.893086  0.246268  1
  Si  Si22  1  0.467889  0.609025  0.248239  1
  Si  Si23  1  0.529876  0.391517  0.752713  1
  Si  Si24  1  0.275822  0.872234  0.752566  1
  Si  Si25  1  0.723309  0.123910  0.247789  1
  Si  Si26  1  0.223363  0.376222  0.249012  1
  Si  Si27  1  0.778387  0.625014  0.751450  1
  Si  Si28  1  0.831987  0.535242  0.458148  1
  Si  Si29  1  0.343360  0.968247  0.460556  1
  Si  Si30  1  0.851818  0.530278  0.039652  1
  Si  Si31  1  0.657770  0.033319  0.538009  1
  Si  Si32  1  0.147158  0.469188  0.961081  1
  Si  Si33  1  0.647659  0.031251  0.960853  1
  Si  Si34  1  0.351201  0.969631  0.040019  1
  Pb  Pb35  1  0.173927  0.460843  0.536398  1
