# generated using pymatgen
data_NdY5Cd23Sb
_symmetry_space_group_name_H-M   'P 1'
_cell_length_a   10.07289888
_cell_length_b   10.00949460
_cell_length_c   10.00949410
_cell_angle_alpha   60.41952783
_cell_angle_beta   59.79022865
_cell_angle_gamma   59.79023383
_symmetry_Int_Tables_number   1
_chemical_formula_structural   NdY5Cd23Sb
_chemical_formula_sum   'Nd1 Y5 Cd23 Sb1'
_cell_volume   713.55695851
_cell_formula_units_Z   1
loop_
 _symmetry_equiv_pos_site_id
 _symmetry_equiv_pos_as_xyz
  1  'x, y, z'
loop_
 _atom_site_type_symbol
 _atom_site_label
 _atom_site_symmetry_multiplicity
 _atom_site_fract_x
 _atom_site_fract_y
 _atom_site_fract_z
 _atom_site_occupancy
  Nd  Nd0  1  0.218092  0.781908  0.781908  1
  Y  Y1  1  0.786290  0.785149  0.213710  1
  Y  Y2  1  0.214851  0.785149  0.213710  1
  Y  Y3  1  0.780814  0.219186  0.219186  1
  Y  Y4  1  0.214851  0.213710  0.785149  1
  Y  Y5  1  0.786290  0.213710  0.785149  1
  Cd  Cd6  1  0.838837  0.841396  0.480930  1
  Cd  Cd7  1  0.838837  0.480930  0.841396  1
  Cd  Cd8  1  0.486435  0.837854  0.837854  1
  Cd  Cd9  1  0.837858  0.837854  0.837854  1
  Cd  Cd10  1  0.162146  0.162142  0.513565  1
  Cd  Cd11  1  0.162146  0.513565  0.162142  1
  Cd  Cd12  1  0.519070  0.161163  0.161163  1
  Cd  Cd13  1  0.158604  0.161163  0.161163  1
  Cd  Cd14  1  0.622207  0.623302  0.132286  1
  Cd  Cd15  1  0.622207  0.132286  0.623302  1
  Cd  Cd16  1  0.128983  0.621601  0.621601  1
  Cd  Cd17  1  0.627816  0.621601  0.621601  1
  Cd  Cd18  1  0.378399  0.372184  0.871017  1
  Cd  Cd19  1  0.378399  0.871017  0.372184  1
  Cd  Cd20  1  0.867714  0.377793  0.377793  1
  Cd  Cd21  1  0.376698  0.377793  0.377793  1
  Cd  Cd22  1  0.999600  0.000400  0.500141  1
  Cd  Cd23  1  0.499859  0.000400  0.500141  1
  Cd  Cd24  1  0.999596  0.500404  0.500404  1
  Cd  Cd25  1  0.499859  0.500141  0.000400  1
  Cd  Cd26  1  0.999600  0.500141  0.000400  1
  Cd  Cd27  1  0.499596  0.000404  0.000404  1
  Cd  Cd28  1  0.497805  0.502195  0.502195  1
  Sb  Sb29  1  0.996543  0.003457  0.003457  1
