# generated using pymatgen
data_Ba4RhO6
_symmetry_space_group_name_H-M   'P 1'
_cell_length_a   7.34363458
_cell_length_b   7.34363398
_cell_length_c   7.34363471
_cell_angle_alpha   89.72519548
_cell_angle_beta   89.72519593
_cell_angle_gamma   89.72520047
_symmetry_Int_Tables_number   1
_chemical_formula_structural   Ba4RhO6
_chemical_formula_sum   'Ba8 Rh2 O12'
_cell_volume   396.02099327
_cell_formula_units_Z   2
loop_
 _symmetry_equiv_pos_site_id
 _symmetry_equiv_pos_as_xyz
  1  'x, y, z'
loop_
 _atom_site_type_symbol
 _atom_site_label
 _atom_site_symmetry_multiplicity
 _atom_site_fract_x
 _atom_site_fract_y
 _atom_site_fract_z
 _atom_site_occupancy
  Ba  Ba0  1  0.750000  0.117810  0.382190  1
  Ba  Ba1  1  0.617810  0.250000  0.882190  1
  Ba  Ba2  1  0.882190  0.617810  0.250000  1
  Ba  Ba3  1  0.250000  0.250000  0.250000  1
  Ba  Ba4  1  0.750000  0.750000  0.750000  1
  Ba  Ba5  1  0.117810  0.382190  0.750000  1
  Ba  Ba6  1  0.382190  0.750000  0.117810  1
  Ba  Ba7  1  0.250000  0.882190  0.617810  1
  Rh  Rh8  1  0.500000  0.500000  0.500000  1
  Rh  Rh9  1  0.000000  0.000000  0.000000  1
  O  O10  1  0.927417  0.060536  0.728976  1
  O  O11  1  0.939464  0.271024  0.072583  1
  O  O12  1  0.771024  0.439464  0.572583  1
  O  O13  1  0.271024  0.072583  0.939464  1
  O  O14  1  0.427417  0.228976  0.560536  1
  O  O15  1  0.560536  0.427417  0.228976  1
  O  O16  1  0.439464  0.572583  0.771024  1
  O  O17  1  0.572583  0.771024  0.439464  1
  O  O18  1  0.728976  0.927417  0.060536  1
  O  O19  1  0.228976  0.560536  0.427417  1
  O  O20  1  0.060536  0.728976  0.927417  1
  O  O21  1  0.072583  0.939464  0.271024  1
