# generated using pymatgen
data_ErTh3ScRu3
_symmetry_space_group_name_H-M   'P 1'
_cell_length_a   6.31368500
_cell_length_b   8.23605897
_cell_length_c   8.23605900
_cell_angle_alpha   120.00000413
_cell_angle_beta   90.00000000
_cell_angle_gamma   90.00000000
_symmetry_Int_Tables_number   1
_chemical_formula_structural   ErTh3ScRu3
_chemical_formula_sum   'Er2 Th6 Sc2 Ru6'
_cell_volume   370.89623154
_cell_formula_units_Z   2
loop_
 _symmetry_equiv_pos_site_id
 _symmetry_equiv_pos_as_xyz
  1  'x, y, z'
loop_
 _atom_site_type_symbol
 _atom_site_label
 _atom_site_symmetry_multiplicity
 _atom_site_fract_x
 _atom_site_fract_y
 _atom_site_fract_z
 _atom_site_occupancy
  Er  Er0  1  0.000000  0.666667  0.333333  1
  Er  Er1  1  0.000000  0.333333  0.666667  1
  Th  Th2  1  0.747266  0.743520  0.743520  1
  Th  Th3  1  0.252734  0.256480  0.256480  1
  Th  Th4  1  0.747266  0.000000  0.256480  1
  Th  Th5  1  0.252734  0.000000  0.743520  1
  Th  Th6  1  0.747266  0.256480  0.000000  1
  Th  Th7  1  0.252734  0.743520  0.000000  1
  Sc  Sc8  1  0.500000  0.333333  0.666667  1
  Sc  Sc9  1  0.500000  0.666667  0.333333  1
  Ru  Ru10  1  0.737009  0.380845  0.380845  1
  Ru  Ru11  1  0.262991  0.619155  0.619155  1
  Ru  Ru12  1  0.737009  0.000000  0.619155  1
  Ru  Ru13  1  0.262991  0.000000  0.380845  1
  Ru  Ru14  1  0.737009  0.619155  0.000000  1
  Ru  Ru15  1  0.262991  0.380845  0.000000  1
