# generated using pymatgen
data_Hf3ZrNb4Si3P
_symmetry_space_group_name_H-M   'P 1'
_cell_length_a   3.61244300
_cell_length_b   6.98687909
_cell_length_c   8.42977394
_cell_angle_alpha   89.60880935
_cell_angle_beta   90.00000000
_cell_angle_gamma   90.00000000
_symmetry_Int_Tables_number   1
_chemical_formula_structural   Hf3ZrNb4Si3P
_chemical_formula_sum   'Hf3 Zr1 Nb4 Si3 P1'
_cell_volume   212.76002708
_cell_formula_units_Z   1
loop_
 _symmetry_equiv_pos_site_id
 _symmetry_equiv_pos_as_xyz
  1  'x, y, z'
loop_
 _atom_site_type_symbol
 _atom_site_label
 _atom_site_symmetry_multiplicity
 _atom_site_fract_x
 _atom_site_fract_y
 _atom_site_fract_z
 _atom_site_occupancy
  Hf  Hf0  1  0.250000  0.538698  0.835202  1
  Hf  Hf1  1  0.750000  0.459816  0.166786  1
  Hf  Hf2  1  0.750000  0.956870  0.333647  1
  Zr  Zr3  1  0.250000  0.042769  0.668396  1
  Nb  Nb4  1  0.750000  0.867029  0.940121  1
  Nb  Nb5  1  0.250000  0.631446  0.440163  1
  Nb  Nb6  1  0.750000  0.365459  0.560819  1
  Nb  Nb7  1  0.250000  0.137950  0.056384  1
  Si  Si8  1  0.250000  0.253960  0.357673  1
  Si  Si9  1  0.250000  0.758313  0.141199  1
  Si  Si10  1  0.750000  0.742945  0.641267  1
  P  P11  1  0.750000  0.244746  0.858343  1
