# generated using pymatgen
data_Tm4Co3NiB16
_symmetry_space_group_name_H-M   'P 1'
_cell_length_a   3.35861400
_cell_length_b   5.86920894
_cell_length_c   11.36990877
_cell_angle_alpha   90.09324753
_cell_angle_beta   90.00000000
_cell_angle_gamma   90.00000000
_symmetry_Int_Tables_number   1
_chemical_formula_structural   Tm4Co3NiB16
_chemical_formula_sum   'Tm4 Co3 Ni1 B16'
_cell_volume   224.12797600
_cell_formula_units_Z   1
loop_
 _symmetry_equiv_pos_site_id
 _symmetry_equiv_pos_as_xyz
  1  'x, y, z'
loop_
 _atom_site_type_symbol
 _atom_site_label
 _atom_site_symmetry_multiplicity
 _atom_site_fract_x
 _atom_site_fract_y
 _atom_site_fract_z
 _atom_site_occupancy
  Tm  Tm0  1  0.000000  0.627706  0.349565  1
  Tm  Tm1  1  0.000000  0.371618  0.650472  1
  Tm  Tm2  1  0.000000  0.128838  0.149969  1
  Tm  Tm3  1  0.000000  0.871586  0.850513  1
  Co  Co4  1  0.000000  0.636049  0.089515  1
  Co  Co5  1  0.000000  0.364608  0.911907  1
  Co  Co6  1  0.000000  0.132838  0.411159  1
  Ni  Ni7  1  0.000000  0.863264  0.590396  1
  B  B8  1  0.500000  0.784292  0.184614  1
  B  B9  1  0.500000  0.216608  0.815228  1
  B  B10  1  0.500000  0.285314  0.315084  1
  B  B11  1  0.500000  0.714581  0.685381  1
  B  B12  1  0.500000  0.862403  0.032324  1
  B  B13  1  0.500000  0.137705  0.967355  1
  B  B14  1  0.500000  0.362633  0.466439  1
  B  B15  1  0.500000  0.636942  0.532628  1
  B  B16  1  0.500000  0.889032  0.452260  1
  B  B17  1  0.500000  0.114024  0.545826  1
  B  B18  1  0.500000  0.388472  0.046345  1
  B  B19  1  0.500000  0.611375  0.953534  1
  B  B20  1  0.500000  0.978427  0.308249  1
  B  B21  1  0.500000  0.022689  0.691571  1
  B  B22  1  0.500000  0.477496  0.191063  1
  B  B23  1  0.500000  0.521500  0.808603  1
