# generated using pymatgen
data_PrSmEr4(RuO7)2
_symmetry_space_group_name_H-M   'P 1'
_cell_length_a   6.40985524
_cell_length_b   6.40985387
_cell_length_c   7.47275355
_cell_angle_alpha   90.02519738
_cell_angle_beta   90.02519269
_cell_angle_gamma   109.99640579
_symmetry_Int_Tables_number   1
_chemical_formula_structural   PrSmEr4(RuO7)2
_chemical_formula_sum   'Pr1 Sm1 Er4 Ru2 O14'
_cell_volume   288.51780148
_cell_formula_units_Z   1
loop_
 _symmetry_equiv_pos_site_id
 _symmetry_equiv_pos_as_xyz
  1  'x, y, z'
loop_
 _atom_site_type_symbol
 _atom_site_label
 _atom_site_symmetry_multiplicity
 _atom_site_fract_x
 _atom_site_fract_y
 _atom_site_fract_z
 _atom_site_occupancy
  Pr  Pr0  1  0.000000  0.000000  0.500000  1
  Sm  Sm1  1  0.000000  0.000000  0.000000  1
  Er  Er2  1  0.482337  0.931566  0.751652  1
  Er  Er3  1  0.517663  0.068434  0.248348  1
  Er  Er4  1  0.931566  0.482337  0.751652  1
  Er  Er5  1  0.068434  0.517663  0.248348  1
  Ru  Ru6  1  0.500000  0.500000  0.500000  1
  Ru  Ru7  1  0.500000  0.500000  0.000000  1
  O  O8  1  0.591245  0.591245  0.749743  1
  O  O9  1  0.408755  0.408755  0.250257  1
  O  O10  1  0.836763  0.117879  0.754657  1
  O  O11  1  0.163237  0.882121  0.245343  1
  O  O12  1  0.117879  0.836763  0.754657  1
  O  O13  1  0.882121  0.163237  0.245343  1
  O  O14  1  0.438736  0.179880  0.962824  1
  O  O15  1  0.558894  0.820104  0.462784  1
  O  O16  1  0.179880  0.438736  0.962824  1
  O  O17  1  0.820104  0.558894  0.462784  1
  O  O18  1  0.441106  0.179896  0.537216  1
  O  O19  1  0.561264  0.820120  0.037176  1
  O  O20  1  0.820120  0.561264  0.037176  1
  O  O21  1  0.179896  0.441106  0.537216  1
