# generated using pymatgen
data_La4YTl3
_symmetry_space_group_name_H-M   'P 1'
_cell_length_a   9.49714427
_cell_length_b   9.49715722
_cell_length_c   9.49714536
_cell_angle_alpha   96.83365799
_cell_angle_beta   96.83241030
_cell_angle_gamma   139.64488389
_symmetry_Int_Tables_number   1
_chemical_formula_structural   La4YTl3
_chemical_formula_sum   'La8 Y2 Tl6'
_cell_volume   520.62972341
_cell_formula_units_Z   2
loop_
 _symmetry_equiv_pos_site_id
 _symmetry_equiv_pos_as_xyz
  1  'x, y, z'
loop_
 _atom_site_type_symbol
 _atom_site_label
 _atom_site_symmetry_multiplicity
 _atom_site_fract_x
 _atom_site_fract_y
 _atom_site_fract_z
 _atom_site_occupancy
  La  La0  1  0.911483  0.220725  0.132223  1
  La  La1  1  0.220725  0.088477  0.309207  1
  La  La2  1  0.779275  0.911523  0.690793  1
  La  La3  1  0.088517  0.779275  0.867777  1
  La  La4  1  0.720731  0.411523  0.132249  1
  La  La5  1  0.279269  0.588477  0.867751  1
  La  La6  1  0.588502  0.720725  0.309241  1
  La  La7  1  0.411498  0.279275  0.690759  1
  Y  Y8  1  0.749996  0.250000  0.499996  1
  Y  Y9  1  0.250004  0.750000  0.500004  1
  Tl  Tl10  1  0.750009  0.750000  0.000009  1
  Tl  Tl11  1  0.249991  0.250000  0.999991  1
  Tl  Tl12  1  0.845142  0.654936  0.500073  1
  Tl  Tl13  1  0.654863  0.154936  0.809795  1
  Tl  Tl14  1  0.345137  0.845064  0.190205  1
  Tl  Tl15  1  0.154858  0.345064  0.499927  1
