# generated using pymatgen
data_Pr4Zr3PtF28
_symmetry_space_group_name_H-M   'P 1'
_cell_length_a   5.83089835
_cell_length_b   9.35535827
_cell_length_c   12.58199105
_cell_angle_alpha   62.11770323
_cell_angle_beta   89.97373230
_cell_angle_gamma   89.92216455
_symmetry_Int_Tables_number   1
_chemical_formula_structural   Pr4Zr3PtF28
_chemical_formula_sum   'Pr4 Zr3 Pt1 F28'
_cell_volume   606.67065318
_cell_formula_units_Z   1
loop_
 _symmetry_equiv_pos_site_id
 _symmetry_equiv_pos_as_xyz
  1  'x, y, z'
loop_
 _atom_site_type_symbol
 _atom_site_label
 _atom_site_symmetry_multiplicity
 _atom_site_fract_x
 _atom_site_fract_y
 _atom_site_fract_z
 _atom_site_occupancy
  Pr  Pr0  1  0.757619  0.814719  0.763974  1
  Pr  Pr1  1  0.257113  0.187445  0.731900  1
  Pr  Pr2  1  0.240890  0.186966  0.239325  1
  Pr  Pr3  1  0.742956  0.809719  0.266567  1
  Zr  Zr4  1  0.754398  0.273359  0.957752  1
  Zr  Zr5  1  0.254635  0.725586  0.542960  1
  Zr  Zr6  1  0.245338  0.725782  0.042796  1
  Pt  Pt7  1  0.741958  0.273324  0.456985  1
  F  F8  1  0.452771  0.710681  0.918298  1
  F  F9  1  0.933036  0.291871  0.579391  1
  F  F10  1  0.544964  0.287580  0.082301  1
  F  F11  1  0.049523  0.711800  0.417640  1
  F  F12  1  0.458947  0.281757  0.540378  1
  F  F13  1  0.953000  0.720770  0.953670  1
  F  F14  1  0.547642  0.718191  0.455572  1
  F  F15  1  0.044600  0.278138  0.048628  1
  F  F16  1  0.772644  0.519063  0.861646  1
  F  F17  1  0.267992  0.479729  0.637497  1
  F  F18  1  0.225596  0.480358  0.139847  1
  F  F19  1  0.733304  0.511208  0.362160  1
  F  F20  1  0.760400  0.027893  0.057021  1
  F  F21  1  0.262129  0.970869  0.445456  1
  F  F22  1  0.238312  0.970964  0.941647  1
  F  F23  1  0.742341  0.035167  0.548614  1
  F  F24  1  0.975008  0.732266  0.637948  1
  F  F25  1  0.478736  0.268129  0.859501  1
  F  F26  1  0.019855  0.271092  0.368559  1
  F  F27  1  0.523564  0.730802  0.139135  1
  F  F28  1  0.049480  0.746752  0.169869  1
  F  F29  1  0.554830  0.259208  0.331456  1
  F  F30  1  0.955843  0.254219  0.830841  1
  F  F31  1  0.453335  0.745088  0.669935  1
  F  F32  1  0.415364  0.968717  0.234060  1
  F  F33  1  0.915390  0.030499  0.268853  1
  F  F34  1  0.586904  0.033600  0.767895  1
  F  F35  1  0.089581  0.966689  0.729924  1
