# generated using pymatgen
data_LaTb4(PrSe4)3
_symmetry_space_group_name_H-M   'P 1'
_cell_length_a   11.29282036
_cell_length_b   4.11883400
_cell_length_c   11.05117900
_cell_angle_alpha   90.00000000
_cell_angle_beta   90.15692809
_cell_angle_gamma   90.00000000
_symmetry_Int_Tables_number   1
_chemical_formula_structural   LaTb4(PrSe4)3
_chemical_formula_sum   'La1 Tb4 Pr3 Se12'
_cell_volume   514.02435061
_cell_formula_units_Z   1
loop_
 _symmetry_equiv_pos_site_id
 _symmetry_equiv_pos_as_xyz
  1  'x, y, z'
loop_
 _atom_site_type_symbol
 _atom_site_label
 _atom_site_symmetry_multiplicity
 _atom_site_fract_x
 _atom_site_fract_y
 _atom_site_fract_z
 _atom_site_occupancy
  La  La0  1  0.695331  0.750000  0.497811  1
  Tb  Tb1  1  0.487004  0.250000  0.187083  1
  Tb  Tb2  1  0.988514  0.250000  0.312271  1
  Tb  Tb3  1  0.512502  0.750000  0.813474  1
  Tb  Tb4  1  0.012795  0.750000  0.687933  1
  Pr  Pr5  1  0.196182  0.750000  0.999982  1
  Pr  Pr6  1  0.303973  0.250000  0.501213  1
  Pr  Pr7  1  0.803718  0.250000  0.000629  1
  Se  Se8  1  0.543255  0.250000  0.631583  1
  Se  Se9  1  0.042952  0.250000  0.869835  1
  Se  Se10  1  0.454583  0.750000  0.368362  1
  Se  Se11  1  0.957546  0.750000  0.130570  1
  Se  Se12  1  0.613626  0.750000  0.055722  1
  Se  Se13  1  0.114686  0.750000  0.444916  1
  Se  Se14  1  0.385696  0.250000  0.944425  1
  Se  Se15  1  0.886561  0.250000  0.555710  1
  Se  Se16  1  0.730198  0.250000  0.293840  1
  Se  Se17  1  0.229165  0.250000  0.202360  1
  Se  Se18  1  0.270737  0.750000  0.703916  1
  Se  Se19  1  0.770977  0.750000  0.798366  1
