# generated using pymatgen
data_TbTm2Co7(P3Rh)2
_symmetry_space_group_name_H-M   'P 1'
_cell_length_a   3.72027500
_cell_length_b   10.64244800
_cell_length_c   12.35511000
_cell_angle_alpha   90.00000000
_cell_angle_beta   90.00000000
_cell_angle_gamma   90.00000000
_symmetry_Int_Tables_number   1
_chemical_formula_structural   TbTm2Co7(P3Rh)2
_chemical_formula_sum   'Tb2 Tm4 Co14 P12 Rh4'
_cell_volume   489.17380981
_cell_formula_units_Z   2
loop_
 _symmetry_equiv_pos_site_id
 _symmetry_equiv_pos_as_xyz
  1  'x, y, z'
loop_
 _atom_site_type_symbol
 _atom_site_label
 _atom_site_symmetry_multiplicity
 _atom_site_fract_x
 _atom_site_fract_y
 _atom_site_fract_z
 _atom_site_occupancy
  Tb  Tb0  1  0.000000  0.500000  0.521096  1
  Tb  Tb1  1  0.500000  0.000000  0.478904  1
  Tm  Tm2  1  0.500000  0.814420  0.205602  1
  Tm  Tm3  1  0.500000  0.185580  0.205602  1
  Tm  Tm4  1  0.000000  0.685580  0.794398  1
  Tm  Tm5  1  0.000000  0.314420  0.794398  1
  Co  Co6  1  0.000000  0.500000  0.988764  1
  Co  Co7  1  0.500000  0.000000  0.011236  1
  Co  Co8  1  0.500000  0.331864  0.993904  1
  Co  Co9  1  0.500000  0.668136  0.993904  1
  Co  Co10  1  0.000000  0.168136  0.006096  1
  Co  Co11  1  0.000000  0.831864  0.006096  1
  Co  Co12  1  0.500000  0.299961  0.429174  1
  Co  Co13  1  0.500000  0.700039  0.429174  1
  Co  Co14  1  0.000000  0.200039  0.570826  1
  Co  Co15  1  0.000000  0.799961  0.570826  1
  Co  Co16  1  0.500000  0.879547  0.710610  1
  Co  Co17  1  0.500000  0.120453  0.710610  1
  Co  Co18  1  0.000000  0.620453  0.289390  1
  Co  Co19  1  0.000000  0.379547  0.289390  1
  P  P20  1  0.500000  0.500000  0.890368  1
  P  P21  1  0.000000  0.000000  0.109632  1
  P  P22  1  0.500000  0.500000  0.349560  1
  P  P23  1  0.000000  0.000000  0.650440  1
  P  P24  1  0.500000  0.302486  0.614219  1
  P  P25  1  0.500000  0.697514  0.614219  1
  P  P26  1  0.000000  0.197514  0.385781  1
  P  P27  1  0.000000  0.802486  0.385781  1
  P  P28  1  0.500000  0.843683  0.893846  1
  P  P29  1  0.500000  0.156317  0.893846  1
  P  P30  1  0.000000  0.656317  0.106154  1
  P  P31  1  0.000000  0.343683  0.106154  1
  Rh  Rh32  1  0.500000  0.500000  0.159924  1
  Rh  Rh33  1  0.000000  0.000000  0.840076  1
  Rh  Rh34  1  0.500000  0.500000  0.705442  1
  Rh  Rh35  1  0.000000  0.000000  0.294558  1
