# generated using pymatgen
data_DyHoCSe
_symmetry_space_group_name_H-M   'P 1'
_cell_length_a   6.86660597
_cell_length_b   6.86660582
_cell_length_c   6.86660600
_cell_angle_alpha   31.54412706
_cell_angle_beta   31.54412900
_cell_angle_gamma   31.54413434
_symmetry_Int_Tables_number   1
_chemical_formula_structural   DyHoCSe
_chemical_formula_sum   'Dy1 Ho1 C1 Se1'
_cell_volume   78.67416806
_cell_formula_units_Z   1
loop_
 _symmetry_equiv_pos_site_id
 _symmetry_equiv_pos_as_xyz
  1  'x, y, z'
loop_
 _atom_site_type_symbol
 _atom_site_label
 _atom_site_symmetry_multiplicity
 _atom_site_fract_x
 _atom_site_fract_y
 _atom_site_fract_z
 _atom_site_occupancy
  Dy  Dy0  1  0.515842  0.515842  0.515842  1
  Ho  Ho1  1  0.984287  0.984287  0.984287  1
  C  C2  1  0.250266  0.250266  0.250266  1
  Se  Se3  1  0.749606  0.749606  0.749606  1
