# generated using pymatgen
data_DyEr15(LuPb4)4
_symmetry_space_group_name_H-M   'P 1'
_cell_length_a   8.13336433
_cell_length_b   8.21234905
_cell_length_c   15.50348055
_cell_angle_alpha   90.00231700
_cell_angle_beta   89.96954193
_cell_angle_gamma   89.98812459
_symmetry_Int_Tables_number   1
_chemical_formula_structural   DyEr15(LuPb4)4
_chemical_formula_sum   'Dy1 Er15 Lu4 Pb16'
_cell_volume   1035.53972603
_cell_formula_units_Z   1
loop_
 _symmetry_equiv_pos_site_id
 _symmetry_equiv_pos_as_xyz
  1  'x, y, z'
loop_
 _atom_site_type_symbol
 _atom_site_label
 _atom_site_symmetry_multiplicity
 _atom_site_fract_x
 _atom_site_fract_y
 _atom_site_fract_z
 _atom_site_occupancy
  Dy  Dy0  1  0.036296  0.176451  0.900338  1
  Er  Er1  1  0.376720  0.841554  0.879044  1
  Er  Er2  1  0.876642  0.658289  0.620947  1
  Er  Er3  1  0.623332  0.158311  0.379035  1
  Er  Er4  1  0.123429  0.341790  0.121073  1
  Er  Er5  1  0.623419  0.158238  0.120992  1
  Er  Er6  1  0.123308  0.341707  0.379018  1
  Er  Er7  1  0.376674  0.841645  0.620954  1
  Er  Er8  1  0.876599  0.658349  0.879042  1
  Er  Er9  1  0.536402  0.323694  0.900264  1
  Er  Er10  1  0.036468  0.176398  0.599781  1
  Er  Er11  1  0.463535  0.676308  0.400249  1
  Er  Er12  1  0.963576  0.823618  0.099784  1
  Er  Er13  1  0.463601  0.676373  0.099744  1
  Er  Er14  1  0.963547  0.823628  0.400250  1
  Er  Er15  1  0.536466  0.323719  0.599719  1
  Lu  Lu16  1  0.208476  0.504548  0.749943  1
  Lu  Lu17  1  0.708315  0.995440  0.749932  1
  Lu  Lu18  1  0.791563  0.495536  0.250027  1
  Lu  Lu19  1  0.291577  0.004461  0.249997  1
  Pb  Pb20  1  0.281251  0.032621  0.043546  1
  Pb  Pb21  1  0.781133  0.467270  0.456546  1
  Pb  Pb22  1  0.718893  0.967269  0.543444  1
  Pb  Pb23  1  0.218984  0.532871  0.956602  1
  Pb  Pb24  1  0.718637  0.967070  0.956609  1
  Pb  Pb25  1  0.218870  0.532746  0.543416  1
  Pb  Pb26  1  0.281114  0.032725  0.456532  1
  Pb  Pb27  1  0.781155  0.467232  0.043435  1
  Pb  Pb28  1  0.570923  0.626298  0.750008  1
  Pb  Pb29  1  0.070958  0.873647  0.750003  1
  Pb  Pb30  1  0.429071  0.373680  0.249971  1
  Pb  Pb31  1  0.929115  0.126298  0.250000  1
  Pb  Pb32  1  0.348196  0.155168  0.749942  1
  Pb  Pb33  1  0.847892  0.345079  0.749814  1
  Pb  Pb34  1  0.651954  0.844820  0.249995  1
  Pb  Pb35  1  0.151911  0.655149  0.250005  1
