# generated using pymatgen
data_CaAc3(InPd)4
_symmetry_space_group_name_H-M   'P 1'
_cell_length_a   4.69280800
_cell_length_b   7.50974221
_cell_length_c   8.67879872
_cell_angle_alpha   88.84603254
_cell_angle_beta   90.00000000
_cell_angle_gamma   90.00000000
_symmetry_Int_Tables_number   1
_chemical_formula_structural   CaAc3(InPd)4
_chemical_formula_sum   'Ca1 Ac3 In4 Pd4'
_cell_volume   305.79426855
_cell_formula_units_Z   1
loop_
 _symmetry_equiv_pos_site_id
 _symmetry_equiv_pos_as_xyz
  1  'x, y, z'
loop_
 _atom_site_type_symbol
 _atom_site_label
 _atom_site_symmetry_multiplicity
 _atom_site_fract_x
 _atom_site_fract_y
 _atom_site_fract_z
 _atom_site_occupancy
  Ca  Ca0  1  0.250000  0.963294  0.683888  1
  Ac  Ac1  1  0.750000  0.035941  0.326519  1
  Ac  Ac2  1  0.250000  0.460214  0.818330  1
  Ac  Ac3  1  0.750000  0.537845  0.180668  1
  In  In4  1  0.250000  0.861589  0.053416  1
  In  In5  1  0.250000  0.353542  0.443050  1
  In  In6  1  0.750000  0.651726  0.563531  1
  In  In7  1  0.750000  0.135484  0.934071  1
  Pd  Pd8  1  0.250000  0.734081  0.372754  1
  Pd  Pd9  1  0.750000  0.266626  0.623004  1
  Pd  Pd10  1  0.750000  0.765341  0.872364  1
  Pd  Pd11  1  0.250000  0.234317  0.128403  1
