# generated using pymatgen
data_Sr5As12Rh19
_symmetry_space_group_name_H-M   'P 1'
_cell_length_a   13.33230900
_cell_length_b   13.33230937
_cell_length_c   4.07653100
_cell_angle_alpha   90.00000000
_cell_angle_beta   90.00000000
_cell_angle_gamma   119.99999660
_symmetry_Int_Tables_number   1
_chemical_formula_structural   Sr5As12Rh19
_chemical_formula_sum   'Sr5 As12 Rh19'
_cell_volume   627.52661367
_cell_formula_units_Z   1
loop_
 _symmetry_equiv_pos_site_id
 _symmetry_equiv_pos_as_xyz
  1  'x, y, z'
loop_
 _atom_site_type_symbol
 _atom_site_label
 _atom_site_symmetry_multiplicity
 _atom_site_fract_x
 _atom_site_fract_y
 _atom_site_fract_z
 _atom_site_occupancy
  Sr  Sr0  1  0.000000  0.184053  0.500000  1
  Sr  Sr1  1  0.815947  0.815947  0.500000  1
  Sr  Sr2  1  0.184053  0.000000  0.500000  1
  Sr  Sr3  1  0.666667  0.333333  0.000000  1
  Sr  Sr4  1  0.333333  0.666667  0.000000  1
  As  As5  1  0.481605  0.316158  0.500000  1
  As  As6  1  0.816728  0.000000  0.000000  1
  As  As7  1  0.183272  0.183272  0.000000  1
  As  As8  1  0.000000  0.816728  0.000000  1
  As  As9  1  0.369968  0.000000  0.000000  1
  As  As10  1  0.683842  0.165447  0.500000  1
  As  As11  1  0.834553  0.518395  0.500000  1
  As  As12  1  0.518395  0.834553  0.500000  1
  As  As13  1  0.165447  0.683842  0.500000  1
  As  As14  1  0.316158  0.481605  0.500000  1
  As  As15  1  0.000000  0.369968  0.000000  1
  As  As16  1  0.630032  0.630032  0.000000  1
  Rh  Rh17  1  0.803000  0.181145  0.000000  1
  Rh  Rh18  1  0.378145  0.197000  0.000000  1
  Rh  Rh19  1  0.642692  0.515894  0.500000  1
  Rh  Rh20  1  0.873202  0.357308  0.500000  1
  Rh  Rh21  1  0.357308  0.873202  0.500000  1
  Rh  Rh22  1  0.515894  0.642692  0.500000  1
  Rh  Rh23  1  0.126798  0.484106  0.500000  1
  Rh  Rh24  1  0.818855  0.621855  0.000000  1
  Rh  Rh25  1  0.621855  0.818855  0.000000  1
  Rh  Rh26  1  0.181145  0.803000  0.000000  1
  Rh  Rh27  1  0.197000  0.378145  0.000000  1
  Rh  Rh28  1  0.000000  0.712566  0.500000  1
  Rh  Rh29  1  0.287434  0.287434  0.500000  1
  Rh  Rh30  1  0.712566  0.000000  0.500000  1
  Rh  Rh31  1  0.000000  0.552205  0.000000  1
  Rh  Rh32  1  0.447795  0.447795  0.000000  1
  Rh  Rh33  1  0.552205  0.000000  0.000000  1
  Rh  Rh34  1  0.000000  0.000000  0.000000  1
  Rh  Rh35  1  0.484106  0.126798  0.500000  1
