# generated using pymatgen
data_Eu2Ga5Cu2Si
_symmetry_space_group_name_H-M   'P 1'
_cell_length_a   6.10691091
_cell_length_b   6.10691068
_cell_length_c   5.95503500
_cell_angle_alpha   90.00000000
_cell_angle_beta   90.00000000
_cell_angle_gamma   120.87388700
_symmetry_Int_Tables_number   1
_chemical_formula_structural   Eu2Ga5Cu2Si
_chemical_formula_sum   'Eu2 Ga5 Cu2 Si1'
_cell_volume   190.61892231
_cell_formula_units_Z   1
loop_
 _symmetry_equiv_pos_site_id
 _symmetry_equiv_pos_as_xyz
  1  'x, y, z'
loop_
 _atom_site_type_symbol
 _atom_site_label
 _atom_site_symmetry_multiplicity
 _atom_site_fract_x
 _atom_site_fract_y
 _atom_site_fract_z
 _atom_site_occupancy
  Eu  Eu0  1  0.249499  0.750501  0.750000  1
  Eu  Eu1  1  0.746914  0.253086  0.250000  1
  Ga  Ga2  1  0.353314  0.646686  0.250000  1
  Ga  Ga3  1  0.753595  0.750312  0.994961  1
  Ga  Ga4  1  0.753595  0.750312  0.505039  1
  Ga  Ga5  1  0.249688  0.246405  0.994961  1
  Ga  Ga6  1  0.249688  0.246405  0.505039  1
  Cu  Cu7  1  0.869294  0.130706  0.750000  1
  Cu  Cu8  1  0.125351  0.874649  0.250000  1
  Si  Si9  1  0.649061  0.350939  0.750000  1
