# generated using pymatgen
data_Sr4CrIrO8
_symmetry_space_group_name_H-M   'P 1'
_cell_length_a   6.95805119
_cell_length_b   6.95805070
_cell_length_c   5.55325100
_cell_angle_alpha   90.00000000
_cell_angle_beta   90.00000000
_cell_angle_gamma   132.94416558
_symmetry_Int_Tables_number   1
_chemical_formula_structural   Sr4CrIrO8
_chemical_formula_sum   'Sr4 Cr1 Ir1 O8'
_cell_volume   196.80867942
_cell_formula_units_Z   1
loop_
 _symmetry_equiv_pos_site_id
 _symmetry_equiv_pos_as_xyz
  1  'x, y, z'
loop_
 _atom_site_type_symbol
 _atom_site_label
 _atom_site_symmetry_multiplicity
 _atom_site_fract_x
 _atom_site_fract_y
 _atom_site_fract_z
 _atom_site_occupancy
  Sr  Sr0  1  0.645007  0.354993  0.000000  1
  Sr  Sr1  1  0.147505  0.852495  0.500000  1
  Sr  Sr2  1  0.852495  0.147505  0.500000  1
  Sr  Sr3  1  0.354993  0.645007  0.000000  1
  Cr  Cr4  1  0.500000  0.500000  0.500000  1
  Ir  Ir5  1  0.000000  0.000000  0.000000  1
  O  O6  1  0.750176  0.750176  0.751379  1
  O  O7  1  0.249824  0.249824  0.248621  1
  O  O8  1  0.249824  0.249824  0.751379  1
  O  O9  1  0.750176  0.750176  0.248621  1
  O  O10  1  0.839120  0.160880  0.000000  1
  O  O11  1  0.339093  0.660907  0.500000  1
  O  O12  1  0.660907  0.339093  0.500000  1
  O  O13  1  0.160880  0.839120  0.000000  1
