# generated using pymatgen
data_Gd12Cd2Tc3
_symmetry_space_group_name_H-M   'P 1'
_cell_length_a   8.54126996
_cell_length_b   8.54126866
_cell_length_c   8.54126873
_cell_angle_alpha   109.32214175
_cell_angle_beta   109.32213965
_cell_angle_gamma   109.76978338
_symmetry_Int_Tables_number   1
_chemical_formula_structural   Gd12Cd2Tc3
_chemical_formula_sum   'Gd12 Cd2 Tc3'
_cell_volume   479.66334506
_cell_formula_units_Z   1
loop_
 _symmetry_equiv_pos_site_id
 _symmetry_equiv_pos_as_xyz
  1  'x, y, z'
loop_
 _atom_site_type_symbol
 _atom_site_label
 _atom_site_symmetry_multiplicity
 _atom_site_fract_x
 _atom_site_fract_y
 _atom_site_fract_z
 _atom_site_occupancy
  Gd  Gd0  1  0.185859  0.428757  0.242899  1
  Gd  Gd1  1  0.814141  0.571243  0.757101  1
  Gd  Gd2  1  0.185859  0.942961  0.757101  1
  Gd  Gd3  1  0.942961  0.185859  0.757101  1
  Gd  Gd4  1  0.814141  0.057039  0.242899  1
  Gd  Gd5  1  0.057039  0.814141  0.242899  1
  Gd  Gd6  1  0.428757  0.185859  0.242899  1
  Gd  Gd7  1  0.571243  0.814141  0.757101  1
  Gd  Gd8  1  0.320432  0.320432  0.640865  1
  Gd  Gd9  1  0.679568  0.679568  0.359135  1
  Gd  Gd10  1  0.679568  0.320432  0.000000  1
  Gd  Gd11  1  0.320432  0.679568  0.000000  1
  Cd  Cd12  1  0.000000  0.500000  0.500000  1
  Cd  Cd13  1  0.500000  0.000000  0.500000  1
  Tc  Tc14  1  0.339932  0.339932  0.000000  1
  Tc  Tc15  1  0.660068  0.660068  0.000000  1
  Tc  Tc16  1  0.000000  0.000000  0.000000  1
