# generated using pymatgen
data_Dy3Y7Al3Ru
_symmetry_space_group_name_H-M   'P 1'
_cell_length_a   9.58239900
_cell_length_b   9.58239928
_cell_length_c   9.62394000
_cell_angle_alpha   90.00000000
_cell_angle_beta   90.00000000
_cell_angle_gamma   120.00000248
_symmetry_Int_Tables_number   1
_chemical_formula_structural   Dy3Y7Al3Ru
_chemical_formula_sum   'Dy6 Y14 Al6 Ru2'
_cell_volume   765.30057778
_cell_formula_units_Z   2
loop_
 _symmetry_equiv_pos_site_id
 _symmetry_equiv_pos_as_xyz
  1  'x, y, z'
loop_
 _atom_site_type_symbol
 _atom_site_label
 _atom_site_symmetry_multiplicity
 _atom_site_fract_x
 _atom_site_fract_y
 _atom_site_fract_z
 _atom_site_occupancy
  Dy  Dy0  1  0.206885  0.793115  0.439793  1
  Dy  Dy1  1  0.206885  0.413772  0.439793  1
  Dy  Dy2  1  0.586228  0.793115  0.439793  1
  Dy  Dy3  1  0.793115  0.206885  0.560207  1
  Dy  Dy4  1  0.793115  0.586228  0.560207  1
  Dy  Dy5  1  0.413772  0.206885  0.560207  1
  Y  Y6  1  0.000000  0.000000  0.500000  1
  Y  Y7  1  0.000000  0.000000  0.000000  1
  Y  Y8  1  0.793160  0.206840  0.940133  1
  Y  Y9  1  0.793160  0.586320  0.940133  1
  Y  Y10  1  0.413680  0.206840  0.940133  1
  Y  Y11  1  0.206840  0.793160  0.059867  1
  Y  Y12  1  0.206840  0.413680  0.059867  1
  Y  Y13  1  0.586320  0.793160  0.059867  1
  Y  Y14  1  0.539855  0.460145  0.251560  1
  Y  Y15  1  0.539855  0.079710  0.251560  1
  Y  Y16  1  0.920290  0.460145  0.251560  1
  Y  Y17  1  0.460145  0.539855  0.748440  1
  Y  Y18  1  0.460145  0.920290  0.748440  1
  Y  Y19  1  0.079710  0.539855  0.748440  1
  Al  Al20  1  0.888297  0.111703  0.249062  1
  Al  Al21  1  0.888297  0.776594  0.249062  1
  Al  Al22  1  0.223406  0.111703  0.249062  1
  Al  Al23  1  0.111703  0.888297  0.750938  1
  Al  Al24  1  0.111703  0.223406  0.750938  1
  Al  Al25  1  0.776594  0.888297  0.750938  1
  Ru  Ru26  1  0.333333  0.666667  0.251876  1
  Ru  Ru27  1  0.666667  0.333333  0.748124  1
