# generated using pymatgen
data_Tm6InNiRu
_symmetry_space_group_name_H-M   'P 1'
_cell_length_a   8.36468491
_cell_length_b   8.36468554
_cell_length_c   8.36468500
_cell_angle_alpha   113.22839505
_cell_angle_beta   110.18679270
_cell_angle_gamma   105.10096336
_symmetry_Int_Tables_number   1
_chemical_formula_structural   Tm6InNiRu
_chemical_formula_sum   'Tm12 In2 Ni2 Ru2'
_cell_volume   448.24368294
_cell_formula_units_Z   2
loop_
 _symmetry_equiv_pos_site_id
 _symmetry_equiv_pos_as_xyz
  1  'x, y, z'
loop_
 _atom_site_type_symbol
 _atom_site_label
 _atom_site_symmetry_multiplicity
 _atom_site_fract_x
 _atom_site_fract_y
 _atom_site_fract_z
 _atom_site_occupancy
  Tm  Tm0  1  0.440606  0.240245  0.200362  1
  Tm  Tm1  1  0.559394  0.759755  0.799638  1
  Tm  Tm2  1  0.039883  0.240245  0.799638  1
  Tm  Tm3  1  0.960117  0.759755  0.200362  1
  Tm  Tm4  1  0.184082  0.283491  0.467573  1
  Tm  Tm5  1  0.815918  0.716509  0.532427  1
  Tm  Tm6  1  0.184082  0.716509  0.900591  1
  Tm  Tm7  1  0.815918  0.283491  0.099409  1
  Tm  Tm8  1  0.327467  0.640153  0.312687  1
  Tm  Tm9  1  0.672533  0.359847  0.687313  1
  Tm  Tm10  1  0.327467  0.014779  0.687313  1
  Tm  Tm11  1  0.672533  0.985221  0.312687  1
  In  In12  1  0.500000  0.500000  0.000000  1
  In  In13  1  0.000000  0.000000  0.000000  1
  Ni  Ni14  1  0.117564  0.617564  0.500000  1
  Ni  Ni15  1  0.882436  0.382436  0.500000  1
  Ru  Ru16  1  0.331983  0.000000  0.331983  1
  Ru  Ru17  1  0.668017  0.000000  0.668017  1
