# generated using pymatgen
data_Nb2(NiIr)3
_symmetry_space_group_name_H-M   'P 1'
_cell_length_a   5.49718800
_cell_length_b   5.49718760
_cell_length_c   4.28875500
_cell_angle_alpha   90.00000000
_cell_angle_beta   90.00000000
_cell_angle_gamma   120.00000238
_symmetry_Int_Tables_number   1
_chemical_formula_structural   Nb2(NiIr)3
_chemical_formula_sum   'Nb2 Ni3 Ir3'
_cell_volume   112.23879797
_cell_formula_units_Z   1
loop_
 _symmetry_equiv_pos_site_id
 _symmetry_equiv_pos_as_xyz
  1  'x, y, z'
loop_
 _atom_site_type_symbol
 _atom_site_label
 _atom_site_symmetry_multiplicity
 _atom_site_fract_x
 _atom_site_fract_y
 _atom_site_fract_z
 _atom_site_occupancy
  Nb  Nb0  1  0.333333  0.666667  0.750000  1
  Nb  Nb1  1  0.666667  0.333333  0.250000  1
  Ni  Ni2  1  0.163170  0.326338  0.250000  1
  Ni  Ni3  1  0.673662  0.836830  0.250000  1
  Ni  Ni4  1  0.163170  0.836830  0.250000  1
  Ir  Ir5  1  0.839017  0.678035  0.750000  1
  Ir  Ir6  1  0.321965  0.160983  0.750000  1
  Ir  Ir7  1  0.839017  0.160983  0.750000  1
