# generated using pymatgen
data_Er16MgCd2AgIr4
_symmetry_space_group_name_H-M   'P 1'
_cell_length_a   9.57948872
_cell_length_b   9.57948829
_cell_length_c   9.60126285
_cell_angle_alpha   59.68451694
_cell_angle_beta   59.68451264
_cell_angle_gamma   59.54100133
_symmetry_Int_Tables_number   1
_chemical_formula_structural   Er16MgCd2AgIr4
_chemical_formula_sum   'Er16 Mg1 Cd2 Ag1 Ir4'
_cell_volume   617.86803136
_cell_formula_units_Z   1
loop_
 _symmetry_equiv_pos_site_id
 _symmetry_equiv_pos_as_xyz
  1  'x, y, z'
loop_
 _atom_site_type_symbol
 _atom_site_label
 _atom_site_symmetry_multiplicity
 _atom_site_fract_x
 _atom_site_fract_y
 _atom_site_fract_z
 _atom_site_occupancy
  Er  Er0  1  0.598687  0.598687  0.599388  1
  Er  Er1  1  0.600711  0.600711  0.200722  1
  Er  Er2  1  0.598459  0.207420  0.599277  1
  Er  Er3  1  0.207420  0.598459  0.599277  1
  Er  Er4  1  0.061040  0.438373  0.438409  1
  Er  Er5  1  0.437568  0.059072  0.058199  1
  Er  Er6  1  0.438373  0.061040  0.438409  1
  Er  Er7  1  0.059072  0.437568  0.058199  1
  Er  Er8  1  0.439760  0.439760  0.059433  1
  Er  Er9  1  0.061292  0.061292  0.434744  1
  Er  Er10  1  0.186440  0.811221  0.811469  1
  Er  Er11  1  0.810959  0.187164  0.185142  1
  Er  Er12  1  0.811221  0.186440  0.811469  1
  Er  Er13  1  0.187164  0.810959  0.185142  1
  Er  Er14  1  0.810882  0.810882  0.186150  1
  Er  Er15  1  0.185371  0.185371  0.812149  1
  Mg  Mg16  1  0.826350  0.826350  0.525441  1
  Cd  Cd17  1  0.832136  0.505579  0.832250  1
  Cd  Cd18  1  0.505579  0.832136  0.832250  1
  Ag  Ag19  1  0.833895  0.833895  0.832854  1
  Ir  Ir20  1  0.392923  0.392923  0.390134  1
  Ir  Ir21  1  0.393624  0.393624  0.826490  1
  Ir  Ir22  1  0.395008  0.826065  0.391499  1
  Ir  Ir23  1  0.826065  0.395008  0.391499  1
