# generated using pymatgen
data_Ho3Lu3Al24NiOs7
_symmetry_space_group_name_H-M   'P 1'
_cell_length_a   8.75538272
_cell_length_b   8.76133288
_cell_length_c   9.54153813
_cell_angle_alpha   89.98067504
_cell_angle_beta   90.01031332
_cell_angle_gamma   119.93241640
_symmetry_Int_Tables_number   1
_chemical_formula_structural   Ho3Lu3Al24NiOs7
_chemical_formula_sum   'Ho3 Lu3 Al24 Ni1 Os7'
_cell_volume   634.29264123
_cell_formula_units_Z   1
loop_
 _symmetry_equiv_pos_site_id
 _symmetry_equiv_pos_as_xyz
  1  'x, y, z'
loop_
 _atom_site_type_symbol
 _atom_site_label
 _atom_site_symmetry_multiplicity
 _atom_site_fract_x
 _atom_site_fract_y
 _atom_site_fract_z
 _atom_site_occupancy
  Ho  Ho0  1  0.387893  0.193860  0.749425  1
  Ho  Ho1  1  0.194003  0.806180  0.250702  1
  Ho  Ho2  1  0.806180  0.193826  0.749383  1
  Lu  Lu3  1  0.195555  0.391137  0.250705  1
  Lu  Lu4  1  0.804577  0.608966  0.749366  1
  Lu  Lu5  1  0.609095  0.804654  0.250738  1
  Al  Al6  1  0.333559  0.666692  0.018603  1
  Al  Al7  1  0.666881  0.333553  0.982113  1
  Al  Al8  1  0.666915  0.333504  0.518326  1
  Al  Al9  1  0.333567  0.666745  0.480993  1
  Al  Al10  1  0.162631  0.325218  0.575997  1
  Al  Al11  1  0.837329  0.675459  0.423373  1
  Al  Al12  1  0.675384  0.837273  0.576240  1
  Al  Al13  1  0.838156  0.677123  0.077316  1
  Al  Al14  1  0.324950  0.162905  0.422787  1
  Al  Al15  1  0.161867  0.323588  0.923289  1
  Al  Al16  1  0.162116  0.837097  0.576830  1
  Al  Al17  1  0.323258  0.162120  0.077949  1
  Al  Al18  1  0.837851  0.162229  0.422566  1
  Al  Al19  1  0.677113  0.838093  0.923043  1
  Al  Al20  1  0.838797  0.161361  0.078156  1
  Al  Al21  1  0.161216  0.837965  0.922402  1
  Al  Al22  1  0.562196  0.123180  0.250256  1
  Al  Al23  1  0.438280  0.876223  0.749703  1
  Al  Al24  1  0.876933  0.438018  0.250269  1
  Al  Al25  1  0.122975  0.561911  0.749687  1
  Al  Al26  1  0.561302  0.439024  0.250279  1
  Al  Al27  1  0.439172  0.562036  0.749690  1
  Al  Al28  1  0.998963  0.001335  0.243213  1
  Al  Al29  1  0.998928  0.997552  0.756687  1
  Ni  Ni30  1  0.000061  0.999973  0.000007  1
  Os  Os31  1  0.500364  0.999719  0.000426  1
  Os  Os32  1  0.000258  0.500139  0.000140  1
  Os  Os33  1  0.500336  0.999722  0.499534  1
  Os  Os34  1  0.500368  0.500663  0.000435  1
  Os  Os35  1  0.000278  0.500152  0.499809  1
  Os  Os36  1  0.500338  0.500616  0.499533  1
  Os  Os37  1  0.000355  0.000188  0.500029  1
