# generated using pymatgen
data_Cs6Tl2Sb3
_symmetry_space_group_name_H-M   'P 1'
_cell_length_a   10.56118292
_cell_length_b   10.56118386
_cell_length_c   21.05524600
_cell_angle_alpha   96.99841740
_cell_angle_beta   96.99841802
_cell_angle_gamma   119.50182571
_symmetry_Int_Tables_number   1
_chemical_formula_structural   Cs6Tl2Sb3
_chemical_formula_sum   'Cs24 Tl8 Sb12'
_cell_volume   1983.28399875
_cell_formula_units_Z   4
loop_
 _symmetry_equiv_pos_site_id
 _symmetry_equiv_pos_as_xyz
  1  'x, y, z'
loop_
 _atom_site_type_symbol
 _atom_site_label
 _atom_site_symmetry_multiplicity
 _atom_site_fract_x
 _atom_site_fract_y
 _atom_site_fract_z
 _atom_site_occupancy
  Cs  Cs0  1  0.669895  0.519622  0.948937  1
  Cs  Cs1  1  0.480378  0.330105  0.551063  1
  Cs  Cs2  1  0.330105  0.480378  0.051063  1
  Cs  Cs3  1  0.519622  0.669895  0.448937  1
  Cs  Cs4  1  0.328365  0.781020  0.945459  1
  Cs  Cs5  1  0.218980  0.671635  0.554541  1
  Cs  Cs6  1  0.671635  0.218980  0.054541  1
  Cs  Cs7  1  0.781020  0.328365  0.445459  1
  Cs  Cs8  1  0.923203  0.412127  0.822252  1
  Cs  Cs9  1  0.587873  0.076797  0.677748  1
  Cs  Cs10  1  0.076797  0.587873  0.177748  1
  Cs  Cs11  1  0.412127  0.923203  0.322252  1
  Cs  Cs12  1  0.586939  0.754740  0.822596  1
  Cs  Cs13  1  0.245260  0.413061  0.677404  1
  Cs  Cs14  1  0.413061  0.245260  0.177404  1
  Cs  Cs15  1  0.754740  0.586939  0.322596  1
  Cs  Cs16  1  0.062043  0.871048  0.054817  1
  Cs  Cs17  1  0.128952  0.937957  0.445183  1
  Cs  Cs18  1  0.937957  0.128952  0.945183  1
  Cs  Cs19  1  0.871048  0.062043  0.554817  1
  Cs  Cs20  1  0.971304  0.028696  0.750000  1
  Cs  Cs21  1  0.028696  0.971304  0.250000  1
  Cs  Cs22  1  0.205502  0.794498  0.750000  1
  Cs  Cs23  1  0.794498  0.205502  0.250000  1
  Tl  Tl24  1  0.291046  0.120851  0.922670  1
  Tl  Tl25  1  0.879149  0.708954  0.577330  1
  Tl  Tl26  1  0.708954  0.879149  0.077330  1
  Tl  Tl27  1  0.120851  0.291046  0.422670  1
  Tl  Tl28  1  0.435405  0.264680  0.774637  1
  Tl  Tl29  1  0.735320  0.564595  0.725363  1
  Tl  Tl30  1  0.564595  0.735320  0.225363  1
  Tl  Tl31  1  0.264680  0.435405  0.274637  1
  Sb  Sb32  1  0.278694  0.382893  0.860915  1
  Sb  Sb33  1  0.617107  0.721306  0.639085  1
  Sb  Sb34  1  0.721306  0.617107  0.139085  1
  Sb  Sb35  1  0.382893  0.278694  0.360915  1
  Sb  Sb36  1  0.204643  0.027710  0.632351  1
  Sb  Sb37  1  0.972290  0.795357  0.867649  1
  Sb  Sb38  1  0.795357  0.972290  0.367649  1
  Sb  Sb39  1  0.027710  0.204643  0.132351  1
  Sb  Sb40  1  0.558385  0.118351  0.864359  1
  Sb  Sb41  1  0.881649  0.441615  0.635641  1
  Sb  Sb42  1  0.441615  0.881649  0.135641  1
  Sb  Sb43  1  0.118351  0.558385  0.364359  1
