# generated using pymatgen
data_HoEr23(Co6Pt)2
_symmetry_space_group_name_H-M   'P 1'
_cell_length_a   11.14793478
_cell_length_b   8.28123932
_cell_length_c   11.00068300
_cell_angle_alpha   54.52069243
_cell_angle_beta   90.11061426
_cell_angle_gamma   90.00877550
_symmetry_Int_Tables_number   1
_chemical_formula_structural   HoEr23(Co6Pt)2
_chemical_formula_sum   'Ho1 Er23 Co12 Pt2'
_cell_volume   827.00123208
_cell_formula_units_Z   1
loop_
 _symmetry_equiv_pos_site_id
 _symmetry_equiv_pos_as_xyz
  1  'x, y, z'
loop_
 _atom_site_type_symbol
 _atom_site_label
 _atom_site_symmetry_multiplicity
 _atom_site_fract_x
 _atom_site_fract_y
 _atom_site_fract_z
 _atom_site_occupancy
  Ho  Ho0  1  0.569526  0.258136  0.814151  1
  Er  Er1  1  0.707849  0.234505  0.537839  1
  Er  Er2  1  0.207805  0.765515  0.962029  1
  Er  Er3  1  0.842336  0.501980  0.656648  1
  Er  Er4  1  0.341642  0.497768  0.843609  1
  Er  Er5  1  0.157935  0.498220  0.343199  1
  Er  Er6  1  0.658009  0.502491  0.156359  1
  Er  Er7  1  0.003316  0.841854  0.353955  1
  Er  Er8  1  0.503270  0.158038  0.146448  1
  Er  Er9  1  0.996461  0.158346  0.645768  1
  Er  Er10  1  0.496629  0.841517  0.854002  1
  Er  Er11  1  0.792477  0.234389  0.038334  1
  Er  Er12  1  0.292081  0.765407  0.461791  1
  Er  Er13  1  0.926988  0.771104  0.087629  1
  Er  Er14  1  0.426684  0.229113  0.412569  1
  Er  Er15  1  0.073012  0.228323  0.912625  1
  Er  Er16  1  0.573085  0.771815  0.587153  1
  Er  Er17  1  0.297955  0.242555  0.680382  1
  Er  Er18  1  0.798751  0.757597  0.819674  1
  Er  Er19  1  0.701512  0.757138  0.319660  1
  Er  Er20  1  0.201456  0.242599  0.180305  1
  Er  Er21  1  0.930619  0.258765  0.313771  1
  Er  Er22  1  0.430360  0.741584  0.185890  1
  Er  Er23  1  0.069605  0.741274  0.686192  1
  Co  Co24  1  0.679083  0.909120  0.028356  1
  Co  Co25  1  0.177935  0.090841  0.471899  1
  Co  Co26  1  0.321197  0.090332  0.972347  1
  Co  Co27  1  0.822436  0.909241  0.527888  1
  Co  Co28  1  0.400844  0.492984  0.101168  1
  Co  Co29  1  0.900564  0.506838  0.398957  1
  Co  Co30  1  0.599295  0.507449  0.899049  1
  Co  Co31  1  0.099109  0.493138  0.600966  1
  Co  Co32  1  0.814771  0.100369  0.841017  1
  Co  Co33  1  0.313793  0.899293  0.658897  1
  Co  Co34  1  0.185907  0.898914  0.159479  1
  Co  Co35  1  0.686351  0.100783  0.340715  1
  Pt  Pt36  1  0.499427  0.500743  0.499118  1
  Pt  Pt37  1  0.999925  0.499925  0.000161  1
