# generated using pymatgen
data_Dy8Ho5Er7(CoBi2)4
_symmetry_space_group_name_H-M   'P 1'
_cell_length_a   7.95634224
_cell_length_b   8.87777920
_cell_length_c   12.36285600
_cell_angle_alpha   89.99154422
_cell_angle_beta   90.01421688
_cell_angle_gamma   90.00955111
_symmetry_Int_Tables_number   1
_chemical_formula_structural   Dy8Ho5Er7(CoBi2)4
_chemical_formula_sum   'Dy8 Ho5 Er7 Co4 Bi8'
_cell_volume   873.24595422
_cell_formula_units_Z   1
loop_
 _symmetry_equiv_pos_site_id
 _symmetry_equiv_pos_as_xyz
  1  'x, y, z'
loop_
 _atom_site_type_symbol
 _atom_site_label
 _atom_site_symmetry_multiplicity
 _atom_site_fract_x
 _atom_site_fract_y
 _atom_site_fract_z
 _atom_site_occupancy
  Dy  Dy0  1  0.347362  0.749997  0.699534  1
  Dy  Dy1  1  0.652647  0.249985  0.300354  1
  Dy  Dy2  1  0.847190  0.250098  0.800347  1
  Dy  Dy3  1  0.152655  0.749937  0.199684  1
  Dy  Dy4  1  0.884157  0.749856  0.811034  1
  Dy  Dy5  1  0.115393  0.250227  0.188975  1
  Dy  Dy6  1  0.384393  0.249939  0.688765  1
  Dy  Dy7  1  0.615633  0.750022  0.311203  1
  Ho  Ho8  1  0.175775  0.037863  0.937151  1
  Ho  Ho9  1  0.052712  0.749985  0.497736  1
  Ho  Ho10  1  0.947277  0.250015  0.502223  1
  Ho  Ho11  1  0.552975  0.250145  0.002206  1
  Ho  Ho12  1  0.447790  0.749798  0.997811  1
  Er  Er13  1  0.674966  0.537844  0.562944  1
  Er  Er14  1  0.325044  0.461764  0.436975  1
  Er  Er15  1  0.174795  0.462066  0.937057  1
  Er  Er16  1  0.325026  0.038216  0.436989  1
  Er  Er17  1  0.825152  0.538110  0.063080  1
  Er  Er18  1  0.674979  0.962125  0.562952  1
  Er  Er19  1  0.825038  0.962084  0.063064  1
  Co  Co20  1  0.065017  0.749773  0.992030  1
  Co  Co21  1  0.934097  0.250303  0.008157  1
  Co  Co22  1  0.565339  0.249989  0.507945  1
  Co  Co23  1  0.434676  0.749994  0.491992  1
  Bi  Bi24  1  0.571331  0.509260  0.827173  1
  Bi  Bi25  1  0.428540  0.490714  0.172788  1
  Bi  Bi26  1  0.071387  0.490723  0.672798  1
  Bi  Bi27  1  0.428454  0.009268  0.172747  1
  Bi  Bi28  1  0.928519  0.509306  0.327267  1
  Bi  Bi29  1  0.571807  0.990632  0.827109  1
  Bi  Bi30  1  0.928567  0.990707  0.327203  1
  Bi  Bi31  1  0.071306  0.009250  0.672701  1
