# generated using pymatgen
data_Sc12In2Fe2Pt
_symmetry_space_group_name_H-M   'P 1'
_cell_length_a   7.81416279
_cell_length_b   7.81416299
_cell_length_c   7.81416257
_cell_angle_alpha   108.64120591
_cell_angle_beta   108.64120084
_cell_angle_gamma   111.14431480
_symmetry_Int_Tables_number   1
_chemical_formula_structural   Sc12In2Fe2Pt
_chemical_formula_sum   'Sc12 In2 Fe2 Pt1'
_cell_volume   367.06820113
_cell_formula_units_Z   1
loop_
 _symmetry_equiv_pos_site_id
 _symmetry_equiv_pos_as_xyz
  1  'x, y, z'
loop_
 _atom_site_type_symbol
 _atom_site_label
 _atom_site_symmetry_multiplicity
 _atom_site_fract_x
 _atom_site_fract_y
 _atom_site_fract_z
 _atom_site_occupancy
  Sc  Sc0  1  0.303181  0.303181  0.606363  1
  Sc  Sc1  1  0.696819  0.696819  0.393637  1
  Sc  Sc2  1  0.696819  0.303181  0.000000  1
  Sc  Sc3  1  0.303181  0.696819  0.000000  1
  Sc  Sc4  1  0.202479  0.442907  0.240428  1
  Sc  Sc5  1  0.797521  0.557093  0.759572  1
  Sc  Sc6  1  0.202479  0.962050  0.759572  1
  Sc  Sc7  1  0.962050  0.202479  0.759572  1
  Sc  Sc8  1  0.797521  0.037950  0.240428  1
  Sc  Sc9  1  0.037950  0.797521  0.240428  1
  Sc  Sc10  1  0.442907  0.202479  0.240428  1
  Sc  Sc11  1  0.557093  0.797521  0.759572  1
  In  In12  1  0.000000  0.500000  0.500000  1
  In  In13  1  0.500000  0.000000  0.500000  1
  Fe  Fe14  1  0.381021  0.381021  0.000000  1
  Fe  Fe15  1  0.618979  0.618979  0.000000  1
  Pt  Pt16  1  0.000000  0.000000  0.000000  1
