# generated using pymatgen
data_Ho8Ta3Ti8Si16W
_symmetry_space_group_name_H-M   'P 1'
_cell_length_a   7.00715556
_cell_length_b   7.00715423
_cell_length_c   12.89226382
_cell_angle_alpha   90.04110639
_cell_angle_beta   89.95888985
_cell_angle_gamma   89.99172513
_symmetry_Int_Tables_number   1
_chemical_formula_structural   Ho8Ta3Ti8Si16W
_chemical_formula_sum   'Ho8 Ta3 Ti8 Si16 W1'
_cell_volume   633.01265396
_cell_formula_units_Z   1
loop_
 _symmetry_equiv_pos_site_id
 _symmetry_equiv_pos_as_xyz
  1  'x, y, z'
loop_
 _atom_site_type_symbol
 _atom_site_label
 _atom_site_symmetry_multiplicity
 _atom_site_fract_x
 _atom_site_fract_y
 _atom_site_fract_z
 _atom_site_occupancy
  Ho  Ho0  1  0.340804  0.002567  0.467143  1
  Ho  Ho1  1  0.497772  0.840639  0.717770  1
  Ho  Ho2  1  0.501284  0.159881  0.216134  1
  Ho  Ho3  1  0.840639  0.497772  0.282230  1
  Ho  Ho4  1  0.159881  0.501284  0.783866  1
  Ho  Ho5  1  0.658736  0.998780  0.967430  1
  Ho  Ho6  1  0.002567  0.340804  0.532857  1
  Ho  Ho7  1  0.998780  0.658736  0.032570  1
  Ta  Ta8  1  0.173460  0.826851  0.249283  1
  Ta  Ta9  1  0.826851  0.173460  0.750717  1
  Ta  Ta10  1  0.673244  0.673244  0.500000  1
  Ti  Ti11  1  0.153208  0.009005  0.875837  1
  Ti  Ti12  1  0.490486  0.652751  0.124780  1
  Ti  Ti13  1  0.508719  0.347747  0.626029  1
  Ti  Ti14  1  0.652751  0.490486  0.875220  1
  Ti  Ti15  1  0.347747  0.508719  0.373971  1
  Ti  Ti16  1  0.847532  0.991347  0.374895  1
  Ti  Ti17  1  0.009005  0.153208  0.124163  1
  Ti  Ti18  1  0.991347  0.847532  0.625105  1
  Si  Si19  1  0.202786  0.130688  0.684370  1
  Si  Si20  1  0.369946  0.700534  0.934463  1
  Si  Si21  1  0.630690  0.297316  0.434116  1
  Si  Si22  1  0.700534  0.369946  0.065537  1
  Si  Si23  1  0.297316  0.630690  0.565884  1
  Si  Si24  1  0.797567  0.869543  0.183785  1
  Si  Si25  1  0.130688  0.202786  0.315630  1
  Si  Si26  1  0.869543  0.797567  0.816215  1
  Si  Si27  1  0.291898  0.954900  0.063563  1
  Si  Si28  1  0.546274  0.792733  0.313827  1
  Si  Si29  1  0.452260  0.208091  0.815881  1
  Si  Si30  1  0.792733  0.546274  0.686173  1
  Si  Si31  1  0.208091  0.452260  0.184119  1
  Si  Si32  1  0.707432  0.046460  0.564367  1
  Si  Si33  1  0.954900  0.291898  0.936437  1
  Si  Si34  1  0.046460  0.707432  0.435633  1
  W  W35  1  0.326069  0.326069  0.000000  1
