# generated using pymatgen
data_TmLu3Pu4(B6Os)4
_symmetry_space_group_name_H-M   'P 1'
_cell_length_a   3.62216600
_cell_length_b   9.12478304
_cell_length_c   11.52546906
_cell_angle_alpha   89.98875143
_cell_angle_beta   90.00000000
_cell_angle_gamma   90.00000000
_symmetry_Int_Tables_number   1
_chemical_formula_structural   TmLu3Pu4(B6Os)4
_chemical_formula_sum   'Tm1 Lu3 Pu4 B24 Os4'
_cell_volume   380.93378995
_cell_formula_units_Z   1
loop_
 _symmetry_equiv_pos_site_id
 _symmetry_equiv_pos_as_xyz
  1  'x, y, z'
loop_
 _atom_site_type_symbol
 _atom_site_label
 _atom_site_symmetry_multiplicity
 _atom_site_fract_x
 _atom_site_fract_y
 _atom_site_fract_z
 _atom_site_occupancy
  Tm  Tm0  1  0.000000  0.555402  0.874133  1
  Lu  Lu1  1  0.000000  0.944570  0.374072  1
  Lu  Lu2  1  0.000000  0.055365  0.625856  1
  Lu  Lu3  1  0.000000  0.444453  0.126174  1
  Pu  Pu4  1  0.000000  0.323370  0.413505  1
  Pu  Pu5  1  0.000000  0.676618  0.586368  1
  Pu  Pu6  1  0.000000  0.823540  0.086605  1
  Pu  Pu7  1  0.000000  0.176436  0.913562  1
  B  B8  1  0.500000  0.553849  0.432506  1
  B  B9  1  0.500000  0.446059  0.567281  1
  B  B10  1  0.500000  0.053890  0.067542  1
  B  B11  1  0.500000  0.946379  0.932577  1
  B  B12  1  0.500000  0.749602  0.420152  1
  B  B13  1  0.500000  0.250299  0.579734  1
  B  B14  1  0.500000  0.249450  0.079975  1
  B  B15  1  0.500000  0.751028  0.920193  1
  B  B16  1  0.500000  0.793314  0.266387  1
  B  B17  1  0.500000  0.206491  0.733544  1
  B  B18  1  0.500000  0.293230  0.233740  1
  B  B19  1  0.500000  0.707225  0.766146  1
  B  B20  1  0.500000  0.632317  0.184204  1
  B  B21  1  0.500000  0.367272  0.815682  1
  B  B22  1  0.500000  0.132209  0.315982  1
  B  B23  1  0.500000  0.867953  0.683940  1
  B  B24  1  0.500000  0.982682  0.214123  1
  B  B25  1  0.500000  0.017431  0.785820  1
  B  B26  1  0.500000  0.482729  0.285981  1
  B  B27  1  0.500000  0.517029  0.713671  1
  B  B28  1  0.500000  0.606616  0.029656  1
  B  B29  1  0.500000  0.393028  0.971213  1
  B  B30  1  0.500000  0.105982  0.470911  1
  B  B31  1  0.500000  0.894018  0.528980  1
  Os  Os32  1  0.000000  0.639445  0.319679  1
  Os  Os33  1  0.000000  0.360192  0.680049  1
  Os  Os34  1  0.000000  0.139337  0.180448  1
  Os  Os35  1  0.000000  0.861189  0.819611  1
