# generated using pymatgen
data_Dy2Lu6ZnIn3
_symmetry_space_group_name_H-M   'P 1'
_cell_length_a   10.48248700
_cell_length_b   10.48248685
_cell_length_c   6.68084000
_cell_angle_alpha   90.00000000
_cell_angle_beta   90.00000000
_cell_angle_gamma   120.00000993
_symmetry_Int_Tables_number   1
_chemical_formula_structural   Dy2Lu6ZnIn3
_chemical_formula_sum   'Dy4 Lu12 Zn2 In6'
_cell_volume   635.75578103
_cell_formula_units_Z   2
loop_
 _symmetry_equiv_pos_site_id
 _symmetry_equiv_pos_as_xyz
  1  'x, y, z'
loop_
 _atom_site_type_symbol
 _atom_site_label
 _atom_site_symmetry_multiplicity
 _atom_site_fract_x
 _atom_site_fract_y
 _atom_site_fract_z
 _atom_site_occupancy
  Dy  Dy0  1  0.666667  0.333333  0.866702  1
  Dy  Dy1  1  0.333333  0.666667  0.366702  1
  Dy  Dy2  1  0.000000  0.000000  0.498687  1
  Dy  Dy3  1  0.000000  0.000000  0.998687  1
  Lu  Lu4  1  0.520458  0.040916  0.516631  1
  Lu  Lu5  1  0.959084  0.479542  0.516631  1
  Lu  Lu6  1  0.520458  0.479542  0.516631  1
  Lu  Lu7  1  0.479542  0.959084  0.016631  1
  Lu  Lu8  1  0.040916  0.520458  0.016631  1
  Lu  Lu9  1  0.479542  0.520458  0.016631  1
  Lu  Lu10  1  0.173623  0.347246  0.734929  1
  Lu  Lu11  1  0.652754  0.826377  0.734929  1
  Lu  Lu12  1  0.173623  0.826377  0.734929  1
  Lu  Lu13  1  0.826377  0.652754  0.234929  1
  Lu  Lu14  1  0.347246  0.173623  0.234929  1
  Lu  Lu15  1  0.826377  0.173623  0.234929  1
  Zn  Zn16  1  0.666667  0.333333  0.304364  1
  Zn  Zn17  1  0.333333  0.666667  0.804364  1
  In  In18  1  0.835547  0.671094  0.749223  1
  In  In19  1  0.328906  0.164453  0.749223  1
  In  In20  1  0.835547  0.164453  0.749223  1
  In  In21  1  0.164453  0.328906  0.249223  1
  In  In22  1  0.671094  0.835547  0.249223  1
  In  In23  1  0.164453  0.835547  0.249223  1
