# generated using pymatgen
data_Sc12Si12Tc3Ir
_symmetry_space_group_name_H-M   'P 1'
_cell_length_a   3.97166600
_cell_length_b   10.40826407
_cell_length_c   11.76740574
_cell_angle_alpha   90.11311401
_cell_angle_beta   90.00000000
_cell_angle_gamma   90.00000000
_symmetry_Int_Tables_number   1
_chemical_formula_structural   Sc12Si12Tc3Ir
_chemical_formula_sum   'Sc12 Si12 Tc3 Ir1'
_cell_volume   486.44181803
_cell_formula_units_Z   1
loop_
 _symmetry_equiv_pos_site_id
 _symmetry_equiv_pos_as_xyz
  1  'x, y, z'
loop_
 _atom_site_type_symbol
 _atom_site_label
 _atom_site_symmetry_multiplicity
 _atom_site_fract_x
 _atom_site_fract_y
 _atom_site_fract_z
 _atom_site_occupancy
  Sc  Sc0  1  0.250000  0.876331  0.019558  1
  Sc  Sc1  1  0.250000  0.625227  0.518499  1
  Sc  Sc2  1  0.750000  0.124084  0.983232  1
  Sc  Sc3  1  0.750000  0.376820  0.482934  1
  Sc  Sc4  1  0.250000  0.923136  0.605157  1
  Sc  Sc5  1  0.250000  0.577484  0.105289  1
  Sc  Sc6  1  0.750000  0.077435  0.393876  1
  Sc  Sc7  1  0.750000  0.422184  0.892575  1
  Sc  Sc8  1  0.250000  0.661925  0.797447  1
  Sc  Sc9  1  0.250000  0.837169  0.297855  1
  Sc  Sc10  1  0.750000  0.338416  0.201927  1
  Sc  Sc11  1  0.750000  0.156545  0.701593  1
  Si  Si12  1  0.250000  0.015858  0.824207  1
  Si  Si13  1  0.250000  0.482464  0.322738  1
  Si  Si14  1  0.750000  0.982134  0.177527  1
  Si  Si15  1  0.750000  0.519461  0.677954  1
  Si  Si16  1  0.250000  0.249811  0.843318  1
  Si  Si17  1  0.250000  0.247322  0.344918  1
  Si  Si18  1  0.750000  0.747772  0.154369  1
  Si  Si19  1  0.750000  0.753606  0.656862  1
  Si  Si20  1  0.250000  0.192586  0.544472  1
  Si  Si21  1  0.250000  0.307760  0.043192  1
  Si  Si22  1  0.750000  0.809369  0.456492  1
  Si  Si23  1  0.750000  0.693950  0.954205  1
  Tc  Tc24  1  0.250000  0.390372  0.677618  1
  Tc  Tc25  1  0.250000  0.110438  0.175901  1
  Tc  Tc26  1  0.750000  0.611986  0.322822  1
  Ir  Ir27  1  0.750000  0.888355  0.823463  1
