# generated using pymatgen
data_Tb16In4CuRu3
_symmetry_space_group_name_H-M   'P 1'
_cell_length_a   9.72167031
_cell_length_b   9.70370769
_cell_length_c   9.70374814
_cell_angle_alpha   59.83808661
_cell_angle_beta   59.84818821
_cell_angle_gamma   59.84866014
_symmetry_Int_Tables_number   1
_chemical_formula_structural   Tb16In4CuRu3
_chemical_formula_sum   'Tb16 In4 Cu1 Ru3'
_cell_volume   645.01898761
_cell_formula_units_Z   1
loop_
 _symmetry_equiv_pos_site_id
 _symmetry_equiv_pos_as_xyz
  1  'x, y, z'
loop_
 _atom_site_type_symbol
 _atom_site_label
 _atom_site_symmetry_multiplicity
 _atom_site_fract_x
 _atom_site_fract_y
 _atom_site_fract_z
 _atom_site_occupancy
  Tb  Tb0  1  0.810445  0.809639  0.190912  1
  Tb  Tb1  1  0.810442  0.190916  0.809642  1
  Tb  Tb2  1  0.183466  0.196874  0.811872  1
  Tb  Tb3  1  0.654536  0.046186  0.649205  1
  Tb  Tb4  1  0.059704  0.057836  0.440505  1
  Tb  Tb5  1  0.443176  0.432747  0.061597  1
  Tb  Tb6  1  0.655919  0.649127  0.649134  1
  Tb  Tb7  1  0.811072  0.191247  0.191241  1
  Tb  Tb8  1  0.183806  0.810414  0.810414  1
  Tb  Tb9  1  0.044347  0.650637  0.650654  1
  Tb  Tb10  1  0.441926  0.061948  0.061963  1
  Tb  Tb11  1  0.443184  0.061580  0.432755  1
  Tb  Tb12  1  0.059715  0.440491  0.057855  1
  Tb  Tb13  1  0.654554  0.649203  0.046163  1
  Tb  Tb14  1  0.183468  0.811871  0.196867  1
  Tb  Tb15  1  0.062524  0.438294  0.438296  1
  In  In16  1  0.417098  0.418506  0.418466  1
  In  In17  1  0.418896  0.419043  0.745229  1
  In  In18  1  0.418897  0.745211  0.419052  1
  In  In19  1  0.749111  0.417266  0.417268  1
  Cu  Cu20  1  0.422299  0.858636  0.858600  1
  Ru  Ru21  1  0.857001  0.423301  0.858171  1
  Ru  Ru22  1  0.857422  0.860851  0.860828  1
  Ru  Ru23  1  0.856991  0.858180  0.423312  1
