# generated using pymatgen
data_LiCe4Sm2Co17P12
_symmetry_space_group_name_H-M   'P 1'
_cell_length_a   3.75544300
_cell_length_b   10.59444600
_cell_length_c   12.31833700
_cell_angle_alpha   90.00000000
_cell_angle_beta   90.00000000
_cell_angle_gamma   90.00000000
_symmetry_Int_Tables_number   1
_chemical_formula_structural   LiCe4Sm2Co17P12
_chemical_formula_sum   'Li1 Ce4 Sm2 Co17 P12'
_cell_volume   490.10767951
_cell_formula_units_Z   1
loop_
 _symmetry_equiv_pos_site_id
 _symmetry_equiv_pos_as_xyz
  1  'x, y, z'
loop_
 _atom_site_type_symbol
 _atom_site_label
 _atom_site_symmetry_multiplicity
 _atom_site_fract_x
 _atom_site_fract_y
 _atom_site_fract_z
 _atom_site_occupancy
  Li  Li0  1  0.500000  0.500000  0.150862  1
  Ce  Ce1  1  0.000000  0.500000  0.525805  1
  Ce  Ce2  1  0.500000  0.000000  0.476387  1
  Ce  Ce3  1  0.500000  0.817640  0.207560  1
  Ce  Ce4  1  0.500000  0.182360  0.207560  1
  Sm  Sm5  1  0.000000  0.684976  0.795090  1
  Sm  Sm6  1  0.000000  0.315024  0.795090  1
  Co  Co7  1  0.000000  0.000000  0.841125  1
  Co  Co8  1  0.500000  0.500000  0.699142  1
  Co  Co9  1  0.000000  0.000000  0.296712  1
  Co  Co10  1  0.000000  0.500000  0.984688  1
  Co  Co11  1  0.500000  0.000000  0.014542  1
  Co  Co12  1  0.500000  0.331342  0.995620  1
  Co  Co13  1  0.500000  0.668658  0.995620  1
  Co  Co14  1  0.000000  0.164321  0.003445  1
  Co  Co15  1  0.000000  0.835679  0.003445  1
  Co  Co16  1  0.500000  0.297482  0.432288  1
  Co  Co17  1  0.500000  0.702518  0.432288  1
  Co  Co18  1  0.000000  0.199083  0.570348  1
  Co  Co19  1  0.000000  0.800917  0.570348  1
  Co  Co20  1  0.500000  0.881797  0.710526  1
  Co  Co21  1  0.500000  0.118203  0.710526  1
  Co  Co22  1  0.000000  0.623033  0.291448  1
  Co  Co23  1  0.000000  0.376967  0.291448  1
  P  P24  1  0.500000  0.500000  0.883160  1
  P  P25  1  0.000000  0.000000  0.114240  1
  P  P26  1  0.500000  0.500000  0.344072  1
  P  P27  1  0.000000  0.000000  0.659014  1
  P  P28  1  0.500000  0.305851  0.615490  1
  P  P29  1  0.500000  0.694149  0.615490  1
  P  P30  1  0.000000  0.193472  0.387727  1
  P  P31  1  0.000000  0.806528  0.387727  1
  P  P32  1  0.500000  0.849484  0.894038  1
  P  P33  1  0.500000  0.150516  0.894038  1
  P  P34  1  0.000000  0.655917  0.101545  1
  P  P35  1  0.000000  0.344083  0.101545  1
