# generated using pymatgen
data_Y4Tm4B24Rh3W
_symmetry_space_group_name_H-M   'P 1'
_cell_length_a   3.64749400
_cell_length_b   9.15251864
_cell_length_c   11.54001304
_cell_angle_alpha   90.24004226
_cell_angle_beta   90.00000000
_cell_angle_gamma   90.00000000
_symmetry_Int_Tables_number   1
_chemical_formula_structural   Y4Tm4B24Rh3W
_chemical_formula_sum   'Y4 Tm4 B24 Rh3 W1'
_cell_volume   385.24560831
_cell_formula_units_Z   1
loop_
 _symmetry_equiv_pos_site_id
 _symmetry_equiv_pos_as_xyz
  1  'x, y, z'
loop_
 _atom_site_type_symbol
 _atom_site_label
 _atom_site_symmetry_multiplicity
 _atom_site_fract_x
 _atom_site_fract_y
 _atom_site_fract_z
 _atom_site_occupancy
  Y  Y0  1  0.500000  0.318971  0.411197  1
  Y  Y1  1  0.500000  0.677055  0.584876  1
  Y  Y2  1  0.500000  0.179198  0.916438  1
  Y  Y3  1  0.500000  0.823048  0.086655  1
  Tm  Tm4  1  0.500000  0.445571  0.125637  1
  Tm  Tm5  1  0.500000  0.557493  0.871435  1
  Tm  Tm6  1  0.500000  0.055904  0.629207  1
  Tm  Tm7  1  0.500000  0.944397  0.374439  1
  B  B8  1  0.000000  0.104274  0.473608  1
  B  B9  1  0.000000  0.894121  0.530063  1
  B  B10  1  0.000000  0.397940  0.969723  1
  B  B11  1  0.000000  0.606406  0.027543  1
  B  B12  1  0.000000  0.131232  0.317580  1
  B  B13  1  0.000000  0.867461  0.683630  1
  B  B14  1  0.000000  0.369333  0.816257  1
  B  B15  1  0.000000  0.632347  0.183506  1
  B  B16  1  0.000000  0.051918  0.064982  1
  B  B17  1  0.000000  0.946142  0.932682  1
  B  B18  1  0.000000  0.444384  0.565903  1
  B  B19  1  0.000000  0.553109  0.433406  1
  B  B20  1  0.000000  0.483536  0.286691  1
  B  B21  1  0.000000  0.517013  0.712350  1
  B  B22  1  0.000000  0.017149  0.787083  1
  B  B23  1  0.000000  0.979683  0.214809  1
  B  B24  1  0.000000  0.252486  0.079028  1
  B  B25  1  0.000000  0.750619  0.918763  1
  B  B26  1  0.000000  0.249089  0.580193  1
  B  B27  1  0.000000  0.749219  0.420525  1
  B  B28  1  0.000000  0.295837  0.235701  1
  B  B29  1  0.000000  0.706357  0.763751  1
  B  B30  1  0.000000  0.207926  0.735775  1
  B  B31  1  0.000000  0.791858  0.266444  1
  Rh  Rh32  1  0.500000  0.860610  0.819736  1
  Rh  Rh33  1  0.500000  0.360543  0.680092  1
  Rh  Rh34  1  0.500000  0.639113  0.320616  1
  W  W35  1  0.500000  0.138661  0.179675  1
