# generated using pymatgen
data_Ca2NdEr(NiB4)4
_symmetry_space_group_name_H-M   'P 1'
_cell_length_a   6.86768344
_cell_length_b   6.86768401
_cell_length_c   6.86768331
_cell_angle_alpha   112.86998866
_cell_angle_beta   112.86999498
_cell_angle_gamma   102.86866861
_symmetry_Int_Tables_number   1
_chemical_formula_structural   Ca2NdEr(NiB4)4
_chemical_formula_sum   'Ca2 Nd1 Er1 Ni4 B16'
_cell_volume   246.90586409
_cell_formula_units_Z   1
loop_
 _symmetry_equiv_pos_site_id
 _symmetry_equiv_pos_as_xyz
  1  'x, y, z'
loop_
 _atom_site_type_symbol
 _atom_site_label
 _atom_site_symmetry_multiplicity
 _atom_site_fract_x
 _atom_site_fract_y
 _atom_site_fract_z
 _atom_site_occupancy
  Ca  Ca0  1  0.796599  0.796599  0.000000  1
  Ca  Ca1  1  0.203401  0.203401  0.000000  1
  Nd  Nd2  1  0.250000  0.750000  0.500000  1
  Er  Er3  1  0.750000  0.250000  0.500000  1
  Ni  Ni4  1  0.270415  0.497880  0.772535  1
  Ni  Ni5  1  0.725346  0.497880  0.227465  1
  Ni  Ni6  1  0.502120  0.729585  0.227465  1
  Ni  Ni7  1  0.502120  0.274654  0.772535  1
  B  B8  1  0.276039  0.111981  0.388609  1
  B  B9  1  0.723372  0.887430  0.611391  1
  B  B10  1  0.276039  0.887430  0.164059  1
  B  B11  1  0.723372  0.111981  0.835941  1
  B  B12  1  0.112570  0.723961  0.835941  1
  B  B13  1  0.888019  0.276628  0.164059  1
  B  B14  1  0.112570  0.276628  0.388609  1
  B  B15  1  0.888019  0.723961  0.611391  1
  B  B16  1  0.111192  0.114440  0.529092  1
  B  B17  1  0.585348  0.582100  0.470908  1
  B  B18  1  0.111192  0.582100  0.996752  1
  B  B19  1  0.585348  0.114440  0.003248  1
  B  B20  1  0.885560  0.888808  0.470908  1
  B  B21  1  0.417900  0.414652  0.529092  1
  B  B22  1  0.885561  0.414652  0.996752  1
  B  B23  1  0.417900  0.888809  0.003248  1
