# generated using pymatgen
data_Zr6Ti7AlGa8Ir7
_symmetry_space_group_name_H-M   'P 1'
_cell_length_a   8.86592224
_cell_length_b   8.81581768
_cell_length_c   8.81581800
_cell_angle_alpha   60.00001383
_cell_angle_beta   60.18678393
_cell_angle_gamma   60.18679150
_symmetry_Int_Tables_number   1
_chemical_formula_structural   Zr6Ti7AlGa8Ir7
_chemical_formula_sum   'Zr6 Ti7 Al1 Ga8 Ir7'
_cell_volume   488.60124698
_cell_formula_units_Z   1
loop_
 _symmetry_equiv_pos_site_id
 _symmetry_equiv_pos_as_xyz
  1  'x, y, z'
loop_
 _atom_site_type_symbol
 _atom_site_label
 _atom_site_symmetry_multiplicity
 _atom_site_fract_x
 _atom_site_fract_y
 _atom_site_fract_z
 _atom_site_occupancy
  Zr  Zr0  1  0.693348  0.307715  0.307715  1
  Zr  Zr1  1  0.309650  0.693527  0.693527  1
  Zr  Zr2  1  0.309650  0.693527  0.303296  1
  Zr  Zr3  1  0.693348  0.307715  0.691224  1
  Zr  Zr4  1  0.309650  0.303296  0.693527  1
  Zr  Zr5  1  0.693348  0.691224  0.307715  1
  Ti  Ti6  1  0.124711  0.120545  0.120545  1
  Ti  Ti7  1  0.877019  0.875804  0.875804  1
  Ti  Ti8  1  0.124711  0.120545  0.634199  1
  Ti  Ti9  1  0.124711  0.634199  0.120545  1
  Ti  Ti10  1  0.877019  0.875804  0.371373  1
  Ti  Ti11  1  0.877019  0.371373  0.875804  1
  Ti  Ti12  1  0.626540  0.124487  0.124487  1
  Al  Al13  1  0.355852  0.881383  0.881383  1
  Ga  Ga14  1  0.340222  0.342859  0.342859  1
  Ga  Ga15  1  0.658817  0.659541  0.659541  1
  Ga  Ga16  1  0.340222  0.342859  0.974060  1
  Ga  Ga17  1  0.340222  0.974060  0.342859  1
  Ga  Ga18  1  0.658817  0.659541  0.022102  1
  Ga  Ga19  1  0.658817  0.022102  0.659541  1
  Ga  Ga20  1  0.977070  0.340976  0.340976  1
  Ga  Ga21  1  0.034965  0.655011  0.655011  1
  Ir  Ir22  1  0.502575  0.000337  0.000337  1
  Ir  Ir23  1  0.999987  0.499906  0.499906  1
  Ir  Ir24  1  0.999987  0.499906  0.000200  1
  Ir  Ir25  1  0.502575  0.000337  0.496752  1
  Ir  Ir26  1  0.999987  0.000200  0.499906  1
  Ir  Ir27  1  0.502575  0.496752  0.000337  1
  Ir  Ir28  1  0.986588  0.004471  0.004471  1
