# generated using pymatgen
data_Hf4Rh2N
_symmetry_space_group_name_H-M   'P 1'
_cell_length_a   8.70724580
_cell_length_b   8.70724540
_cell_length_c   8.70724700
_cell_angle_alpha   59.99999772
_cell_angle_beta   59.99999923
_cell_angle_gamma   60.00000017
_symmetry_Int_Tables_number   1
_chemical_formula_structural   Hf4Rh2N
_chemical_formula_sum   'Hf16 Rh8 N4'
_cell_volume   466.79634415
_cell_formula_units_Z   4
loop_
 _symmetry_equiv_pos_site_id
 _symmetry_equiv_pos_as_xyz
  1  'x, y, z'
loop_
 _atom_site_type_symbol
 _atom_site_label
 _atom_site_symmetry_multiplicity
 _atom_site_fract_x
 _atom_site_fract_y
 _atom_site_fract_z
 _atom_site_occupancy
  Hf  Hf0  1  0.125000  0.625000  0.625000  1
  Hf  Hf1  1  0.625000  0.125000  0.625000  1
  Hf  Hf2  1  0.625000  0.625000  0.125000  1
  Hf  Hf3  1  0.625000  0.625000  0.625000  1
  Hf  Hf4  1  0.817219  0.817219  0.182781  1
  Hf  Hf5  1  0.182781  0.182781  0.817219  1
  Hf  Hf6  1  0.817219  0.182781  0.817219  1
  Hf  Hf7  1  0.182781  0.817219  0.182781  1
  Hf  Hf8  1  0.182781  0.817219  0.817219  1
  Hf  Hf9  1  0.817219  0.182781  0.182781  1
  Hf  Hf10  1  0.432781  0.432781  0.067219  1
  Hf  Hf11  1  0.067219  0.067219  0.432781  1
  Hf  Hf12  1  0.432781  0.067219  0.432781  1
  Hf  Hf13  1  0.067219  0.432781  0.067219  1
  Hf  Hf14  1  0.067219  0.432781  0.432781  1
  Hf  Hf15  1  0.432781  0.067219  0.067219  1
  Rh  Rh16  1  0.772967  0.409011  0.409011  1
  Rh  Rh17  1  0.409011  0.772967  0.409011  1
  Rh  Rh18  1  0.409011  0.409011  0.772967  1
  Rh  Rh19  1  0.409011  0.409011  0.409011  1
  Rh  Rh20  1  0.477033  0.840989  0.840989  1
  Rh  Rh21  1  0.840989  0.477033  0.840989  1
  Rh  Rh22  1  0.840989  0.840989  0.477033  1
  Rh  Rh23  1  0.840989  0.840989  0.840989  1
  N  N24  1  0.625000  0.125000  0.125000  1
  N  N25  1  0.125000  0.625000  0.125000  1
  N  N26  1  0.125000  0.125000  0.625000  1
  N  N27  1  0.125000  0.125000  0.125000  1
