# generated using pymatgen
data_Ba2Be4Si3GeO14
_symmetry_space_group_name_H-M   'P 1'
_cell_length_a   11.88136395
_cell_length_b   5.00451429
_cell_length_c   4.74470545
_cell_angle_alpha   90.02070766
_cell_angle_beta   90.08733612
_cell_angle_gamma   90.03296585
_symmetry_Int_Tables_number   1
_chemical_formula_structural   Ba2Be4Si3GeO14
_chemical_formula_sum   'Ba2 Be4 Si3 Ge1 O14'
_cell_volume   282.12195524
_cell_formula_units_Z   1
loop_
 _symmetry_equiv_pos_site_id
 _symmetry_equiv_pos_as_xyz
  1  'x, y, z'
loop_
 _atom_site_type_symbol
 _atom_site_label
 _atom_site_symmetry_multiplicity
 _atom_site_fract_x
 _atom_site_fract_y
 _atom_site_fract_z
 _atom_site_occupancy
  Ba  Ba0  1  0.500470  0.198743  0.486662  1
  Ba  Ba1  1  0.994319  0.804387  0.987983  1
  Be  Be2  1  0.254913  0.833145  0.483507  1
  Be  Be3  1  0.747608  0.829808  0.483729  1
  Be  Be4  1  0.253773  0.166056  0.983374  1
  Be  Be5  1  0.748607  0.169206  0.984037  1
  Si  Si6  1  0.868297  0.322904  0.469510  1
  Si  Si7  1  0.372989  0.672379  0.971668  1
  Si  Si8  1  0.628180  0.674784  0.968427  1
  Ge  Ge9  1  0.131006  0.329768  0.466562  1
  O  O10  1  0.361512  0.357028  0.049121  1
  O  O11  1  0.639215  0.357134  0.037510  1
  O  O12  1  0.500728  0.773795  0.078177  1
  O  O13  1  0.133711  0.263921  0.103440  1
  O  O14  1  0.863334  0.266373  0.131612  1
  O  O15  1  0.282256  0.868747  0.135797  1
  O  O16  1  0.720309  0.868067  0.133736  1
  O  O17  1  0.136695  0.673638  0.532968  1
  O  O18  1  0.857504  0.641464  0.535542  1
  O  O19  1  0.994160  0.216956  0.583783  1
  O  O20  1  0.366375  0.718882  0.632740  1
  O  O21  1  0.633241  0.730602  0.630846  1
  O  O22  1  0.235459  0.130957  0.634609  1
  O  O23  1  0.775336  0.131257  0.633851  1
