# generated using pymatgen
data_TbFeCo3ReP3
_symmetry_space_group_name_H-M   'P 1'
_cell_length_a   3.72604700
_cell_length_b   10.35113200
_cell_length_c   11.82511900
_cell_angle_alpha   90.00000000
_cell_angle_beta   90.00000000
_cell_angle_gamma   90.00000000
_symmetry_Int_Tables_number   1
_chemical_formula_structural   TbFeCo3ReP3
_chemical_formula_sum   'Tb4 Fe4 Co12 Re4 P12'
_cell_volume   456.08070095
_cell_formula_units_Z   4
loop_
 _symmetry_equiv_pos_site_id
 _symmetry_equiv_pos_as_xyz
  1  'x, y, z'
loop_
 _atom_site_type_symbol
 _atom_site_label
 _atom_site_symmetry_multiplicity
 _atom_site_fract_x
 _atom_site_fract_y
 _atom_site_fract_z
 _atom_site_occupancy
  Tb  Tb0  1  0.250000  0.582755  0.705110  1
  Tb  Tb1  1  0.250000  0.917245  0.205110  1
  Tb  Tb2  1  0.750000  0.417245  0.294890  1
  Tb  Tb3  1  0.750000  0.082755  0.794890  1
  Fe  Fe4  1  0.250000  0.463723  0.933892  1
  Fe  Fe5  1  0.250000  0.036277  0.433892  1
  Fe  Fe6  1  0.750000  0.536277  0.066108  1
  Fe  Fe7  1  0.750000  0.963723  0.566108  1
  Co  Co8  1  0.250000  0.405326  0.488800  1
  Co  Co9  1  0.250000  0.094674  0.988800  1
  Co  Co10  1  0.750000  0.594674  0.511200  1
  Co  Co11  1  0.750000  0.905326  0.011200  1
  Co  Co12  1  0.250000  0.223295  0.175735  1
  Co  Co13  1  0.250000  0.276705  0.675735  1
  Co  Co14  1  0.750000  0.776705  0.824265  1
  Co  Co15  1  0.750000  0.723295  0.324265  1
  Co  Co16  1  0.250000  0.885322  0.702080  1
  Co  Co17  1  0.250000  0.614678  0.202080  1
  Co  Co18  1  0.750000  0.114678  0.297920  1
  Co  Co19  1  0.750000  0.385322  0.797920  1
  Re  Re20  1  0.250000  0.708160  0.989737  1
  Re  Re21  1  0.250000  0.791840  0.489737  1
  Re  Re22  1  0.750000  0.291840  0.010263  1
  Re  Re23  1  0.750000  0.208160  0.510263  1
  P  P24  1  0.250000  0.422018  0.113334  1
  P  P25  1  0.250000  0.077982  0.613334  1
  P  P26  1  0.750000  0.577982  0.886666  1
  P  P27  1  0.750000  0.922018  0.386666  1
  P  P28  1  0.250000  0.270055  0.864932  1
  P  P29  1  0.250000  0.229945  0.364932  1
  P  P30  1  0.750000  0.729945  0.135068  1
  P  P31  1  0.750000  0.770055  0.635068  1
  P  P32  1  0.250000  0.597297  0.391712  1
  P  P33  1  0.250000  0.902703  0.891712  1
  P  P34  1  0.750000  0.402703  0.608288  1
  P  P35  1  0.750000  0.097297  0.108288  1
