# generated using pymatgen
data_PrNd3(Zn5Si)2
_symmetry_space_group_name_H-M   'P 1'
_cell_length_a   8.34909606
_cell_length_b   8.34909610
_cell_length_c   8.82756138
_cell_angle_alpha   89.90363413
_cell_angle_beta   90.09636626
_cell_angle_gamma   149.13605341
_symmetry_Int_Tables_number   1
_chemical_formula_structural   PrNd3(Zn5Si)2
_chemical_formula_sum   'Pr1 Nd3 Zn10 Si2'
_cell_volume   315.67296844
_cell_formula_units_Z   1
loop_
 _symmetry_equiv_pos_site_id
 _symmetry_equiv_pos_as_xyz
  1  'x, y, z'
loop_
 _atom_site_type_symbol
 _atom_site_label
 _atom_site_symmetry_multiplicity
 _atom_site_fract_x
 _atom_site_fract_y
 _atom_site_fract_z
 _atom_site_occupancy
  Pr  Pr0  1  0.000000  0.000000  0.500000  1
  Nd  Nd1  1  0.203809  0.796191  0.249617  1
  Nd  Nd2  1  0.796191  0.203809  0.750383  1
  Nd  Nd3  1  0.000000  0.000000  0.000000  1
  Zn  Zn4  1  0.813730  0.186270  0.393543  1
  Zn  Zn5  1  0.186270  0.813730  0.606457  1
  Zn  Zn6  1  0.814403  0.185597  0.107083  1
  Zn  Zn7  1  0.185597  0.814403  0.892917  1
  Zn  Zn8  1  0.649206  0.350794  0.476018  1
  Zn  Zn9  1  0.350794  0.649206  0.523982  1
  Zn  Zn10  1  0.649112  0.350888  0.023411  1
  Zn  Zn11  1  0.350888  0.649112  0.976589  1
  Zn  Zn12  1  0.405460  0.594540  0.249965  1
  Zn  Zn13  1  0.594540  0.405460  0.750035  1
  Si  Si14  1  0.557621  0.442379  0.249065  1
  Si  Si15  1  0.442379  0.557621  0.750935  1
