# generated using pymatgen
data_PrCoP3Rh3W
_symmetry_space_group_name_H-M   'P 1'
_cell_length_a   3.91622600
_cell_length_b   10.85577500
_cell_length_c   12.52904600
_cell_angle_alpha   90.00000000
_cell_angle_beta   90.00000000
_cell_angle_gamma   90.00000000
_symmetry_Int_Tables_number   1
_chemical_formula_structural   PrCoP3Rh3W
_chemical_formula_sum   'Pr4 Co4 P12 Rh12 W4'
_cell_volume   532.65570582
_cell_formula_units_Z   4
loop_
 _symmetry_equiv_pos_site_id
 _symmetry_equiv_pos_as_xyz
  1  'x, y, z'
loop_
 _atom_site_type_symbol
 _atom_site_label
 _atom_site_symmetry_multiplicity
 _atom_site_fract_x
 _atom_site_fract_y
 _atom_site_fract_z
 _atom_site_occupancy
  Pr  Pr0  1  0.250000  0.582319  0.706887  1
  Pr  Pr1  1  0.250000  0.917681  0.206887  1
  Pr  Pr2  1  0.750000  0.417681  0.293113  1
  Pr  Pr3  1  0.750000  0.082319  0.793113  1
  Co  Co4  1  0.250000  0.464722  0.936863  1
  Co  Co5  1  0.250000  0.035278  0.436863  1
  Co  Co6  1  0.750000  0.535278  0.063137  1
  Co  Co7  1  0.750000  0.964722  0.563137  1
  P  P8  1  0.250000  0.422859  0.106758  1
  P  P9  1  0.250000  0.077141  0.606758  1
  P  P10  1  0.750000  0.577141  0.893242  1
  P  P11  1  0.750000  0.922859  0.393242  1
  P  P12  1  0.250000  0.273394  0.873130  1
  P  P13  1  0.250000  0.226606  0.373130  1
  P  P14  1  0.750000  0.726606  0.126870  1
  P  P15  1  0.750000  0.773394  0.626870  1
  P  P16  1  0.250000  0.602294  0.392833  1
  P  P17  1  0.250000  0.897706  0.892833  1
  P  P18  1  0.750000  0.397706  0.607167  1
  P  P19  1  0.750000  0.102294  0.107167  1
  Rh  Rh20  1  0.250000  0.402859  0.488287  1
  Rh  Rh21  1  0.250000  0.097141  0.988287  1
  Rh  Rh22  1  0.750000  0.597141  0.511713  1
  Rh  Rh23  1  0.750000  0.902859  0.011713  1
  Rh  Rh24  1  0.250000  0.228409  0.179530  1
  Rh  Rh25  1  0.250000  0.271591  0.679530  1
  Rh  Rh26  1  0.750000  0.771591  0.820470  1
  Rh  Rh27  1  0.750000  0.728409  0.320470  1
  Rh  Rh28  1  0.250000  0.887203  0.696994  1
  Rh  Rh29  1  0.250000  0.612797  0.196994  1
  Rh  Rh30  1  0.750000  0.112797  0.303006  1
  Rh  Rh31  1  0.750000  0.387203  0.803006  1
  W  W32  1  0.250000  0.704849  0.984815  1
  W  W33  1  0.250000  0.795151  0.484815  1
  W  W34  1  0.750000  0.295151  0.015185  1
  W  W35  1  0.750000  0.204849  0.515185  1
