# generated using pymatgen
data_SrLi2ThSi3
_symmetry_space_group_name_H-M   'P 1'
_cell_length_a   9.72630810
_cell_length_b   9.72630759
_cell_length_c   6.85194900
_cell_angle_alpha   90.00000000
_cell_angle_beta   90.00000000
_cell_angle_gamma   153.39418824
_symmetry_Int_Tables_number   1
_chemical_formula_structural   SrLi2ThSi3
_chemical_formula_sum   'Sr2 Li4 Th2 Si6'
_cell_volume   290.29697687
_cell_formula_units_Z   2
loop_
 _symmetry_equiv_pos_site_id
 _symmetry_equiv_pos_as_xyz
  1  'x, y, z'
loop_
 _atom_site_type_symbol
 _atom_site_label
 _atom_site_symmetry_multiplicity
 _atom_site_fract_x
 _atom_site_fract_y
 _atom_site_fract_z
 _atom_site_occupancy
  Sr  Sr0  1  0.339781  0.660219  0.250000  1
  Sr  Sr1  1  0.660219  0.339781  0.750000  1
  Li  Li2  1  0.810825  0.189175  0.557555  1
  Li  Li3  1  0.189175  0.810825  0.442445  1
  Li  Li4  1  0.189175  0.810825  0.057555  1
  Li  Li5  1  0.810825  0.189175  0.942445  1
  Th  Th6  1  0.552916  0.447084  0.250000  1
  Th  Th7  1  0.447084  0.552916  0.750000  1
  Si  Si8  1  0.943160  0.056840  0.073799  1
  Si  Si9  1  0.056840  0.943160  0.926201  1
  Si  Si10  1  0.056840  0.943160  0.573799  1
  Si  Si11  1  0.943160  0.056840  0.426201  1
  Si  Si12  1  0.711796  0.288204  0.250000  1
  Si  Si13  1  0.288204  0.711796  0.750000  1
