# generated using pymatgen
data_Lu12Fe3PbAu
_symmetry_space_group_name_H-M   'P 1'
_cell_length_a   8.12323475
_cell_length_b   8.12421644
_cell_length_c   8.12323448
_cell_angle_alpha   110.24152795
_cell_angle_beta   107.41325616
_cell_angle_gamma   110.77354968
_symmetry_Int_Tables_number   1
_chemical_formula_structural   Lu12Fe3PbAu
_chemical_formula_sum   'Lu12 Fe3 Pb1 Au1'
_cell_volume   412.30408368
_cell_formula_units_Z   1
loop_
 _symmetry_equiv_pos_site_id
 _symmetry_equiv_pos_as_xyz
  1  'x, y, z'
loop_
 _atom_site_type_symbol
 _atom_site_label
 _atom_site_symmetry_multiplicity
 _atom_site_fract_x
 _atom_site_fract_y
 _atom_site_fract_z
 _atom_site_occupancy
  Lu  Lu0  1  0.305196  0.312230  0.617369  1
  Lu  Lu1  1  0.694804  0.687770  0.382631  1
  Lu  Lu2  1  0.694861  0.312230  0.007034  1
  Lu  Lu3  1  0.305139  0.687770  0.992966  1
  Lu  Lu4  1  0.191866  0.447389  0.255523  1
  Lu  Lu5  1  0.808134  0.552611  0.744477  1
  Lu  Lu6  1  0.191792  0.936205  0.744413  1
  Lu  Lu7  1  0.965982  0.189403  0.776578  1
  Lu  Lu8  1  0.808208  0.063795  0.255587  1
  Lu  Lu9  1  0.034018  0.810597  0.223422  1
  Lu  Lu10  1  0.412824  0.189403  0.223418  1
  Lu  Lu11  1  0.587176  0.810597  0.776582  1
  Fe  Fe12  1  0.383103  0.382566  0.999463  1
  Fe  Fe13  1  0.616897  0.617434  0.000537  1
  Fe  Fe14  1  0.000000  0.000000  0.000000  1
  Pb  Pb15  1  0.500000  0.000000  0.500000  1
  Au  Au16  1  0.000000  0.500000  0.500000  1
