# generated using pymatgen
data_Tm6Al2Zn2Pt13
_symmetry_space_group_name_H-M   'P 1'
_cell_length_a   8.22253025
_cell_length_b   8.29808030
_cell_length_c   8.29808000
_cell_angle_alpha   109.84172908
_cell_angle_beta   109.47061151
_cell_angle_gamma   109.47060576
_symmetry_Int_Tables_number   1
_chemical_formula_structural   Tm6Al2Zn2Pt13
_chemical_formula_sum   'Tm6 Al2 Zn2 Pt13'
_cell_volume   433.84950111
_cell_formula_units_Z   1
loop_
 _symmetry_equiv_pos_site_id
 _symmetry_equiv_pos_as_xyz
  1  'x, y, z'
loop_
 _atom_site_type_symbol
 _atom_site_label
 _atom_site_symmetry_multiplicity
 _atom_site_fract_x
 _atom_site_fract_y
 _atom_site_fract_z
 _atom_site_occupancy
  Tm  Tm0  1  0.694994  0.697158  0.997836  1
  Tm  Tm1  1  0.305006  0.002164  0.302842  1
  Tm  Tm2  1  0.000000  0.302831  0.302831  1
  Tm  Tm3  1  0.305006  0.302842  0.002164  1
  Tm  Tm4  1  0.694994  0.997836  0.697158  1
  Tm  Tm5  1  0.000000  0.697169  0.697169  1
  Al  Al6  1  0.000000  0.000000  0.500000  1
  Al  Al7  1  0.000000  0.500000  0.000000  1
  Zn  Zn8  1  0.500000  0.000000  0.000000  1
  Zn  Zn9  1  0.500000  0.500000  0.500000  1
  Pt  Pt10  1  0.322097  0.322174  0.647601  1
  Pt  Pt11  1  0.677903  0.000077  0.325503  1
  Pt  Pt12  1  0.000000  0.681533  0.318467  1
  Pt  Pt13  1  0.677903  0.325503  0.000077  1
  Pt  Pt14  1  0.322097  0.647601  0.322174  1
  Pt  Pt15  1  0.000000  0.318467  0.681533  1
  Pt  Pt16  1  0.322097  0.674497  0.999923  1
  Pt  Pt17  1  0.322097  0.999923  0.674497  1
  Pt  Pt18  1  0.658090  0.329045  0.329045  1
  Pt  Pt19  1  0.677903  0.677826  0.352399  1
  Pt  Pt20  1  0.677903  0.352399  0.677826  1
  Pt  Pt21  1  0.341910  0.670955  0.670955  1
  Pt  Pt22  1  0.000000  0.000000  0.000000  1
