# generated using pymatgen
data_Tb16Ag3Ir4Pb
_symmetry_space_group_name_H-M   'P 1'
_cell_length_a   9.66294202
_cell_length_b   9.66294178
_cell_length_c   9.61353863
_cell_angle_alpha   59.82985381
_cell_angle_beta   59.82985510
_cell_angle_gamma   59.99999688
_symmetry_Int_Tables_number   1
_chemical_formula_structural   Tb16Ag3Ir4Pb
_chemical_formula_sum   'Tb16 Ag3 Ir4 Pb1'
_cell_volume   633.08978704
_cell_formula_units_Z   1
loop_
 _symmetry_equiv_pos_site_id
 _symmetry_equiv_pos_as_xyz
  1  'x, y, z'
loop_
 _atom_site_type_symbol
 _atom_site_label
 _atom_site_symmetry_multiplicity
 _atom_site_fract_x
 _atom_site_fract_y
 _atom_site_fract_z
 _atom_site_occupancy
  Tb  Tb0  1  0.100143  0.698840  0.100873  1
  Tb  Tb1  1  0.937674  0.937674  0.562389  1
  Tb  Tb2  1  0.940058  0.560119  0.939703  1
  Tb  Tb3  1  0.313044  0.687903  0.311150  1
  Tb  Tb4  1  0.937674  0.562263  0.562389  1
  Tb  Tb5  1  0.313036  0.313036  0.679959  1
  Tb  Tb6  1  0.100143  0.100143  0.100873  1
  Tb  Tb7  1  0.560119  0.560119  0.939703  1
  Tb  Tb8  1  0.101188  0.101188  0.696435  1
  Tb  Tb9  1  0.693969  0.313036  0.679959  1
  Tb  Tb10  1  0.687903  0.687903  0.311150  1
  Tb  Tb11  1  0.687903  0.313044  0.311150  1
  Tb  Tb12  1  0.313036  0.693969  0.679959  1
  Tb  Tb13  1  0.562263  0.937674  0.562389  1
  Tb  Tb14  1  0.698840  0.100143  0.100873  1
  Tb  Tb15  1  0.560119  0.940058  0.939703  1
  Ag  Ag16  1  0.332105  0.332105  0.337110  1
  Ag  Ag17  1  0.998679  0.332105  0.337110  1
  Ag  Ag18  1  0.332105  0.998679  0.337110  1
  Ir  Ir19  1  0.892239  0.892239  0.892110  1
  Ir  Ir20  1  0.892375  0.892375  0.322873  1
  Ir  Ir21  1  0.323410  0.892239  0.892110  1
  Ir  Ir22  1  0.892239  0.323410  0.892110  1
  Pb  Pb23  1  0.329731  0.329731  0.010807  1
