# generated using pymatgen
data_CsNb(AgSe2)2
_symmetry_space_group_name_H-M   'P 1'
_cell_length_a   10.58028917
_cell_length_b   10.58028830
_cell_length_c   8.50143900
_cell_angle_alpha   90.00000000
_cell_angle_beta   90.00000000
_cell_angle_gamma   145.90385415
_symmetry_Int_Tables_number   1
_chemical_formula_structural   CsNb(AgSe2)2
_chemical_formula_sum   'Cs2 Nb2 Ag4 Se8'
_cell_volume   533.49165665
_cell_formula_units_Z   2
loop_
 _symmetry_equiv_pos_site_id
 _symmetry_equiv_pos_as_xyz
  1  'x, y, z'
loop_
 _atom_site_type_symbol
 _atom_site_label
 _atom_site_symmetry_multiplicity
 _atom_site_fract_x
 _atom_site_fract_y
 _atom_site_fract_z
 _atom_site_occupancy
  Cs  Cs0  1  0.456027  0.822321  0.750000  1
  Cs  Cs1  1  0.822321  0.456027  0.250000  1
  Nb  Nb2  1  0.521021  0.297475  0.750000  1
  Nb  Nb3  1  0.297475  0.521021  0.250000  1
  Ag  Ag4  1  0.375855  0.375855  0.000000  1
  Ag  Ag5  1  0.375855  0.375855  0.500000  1
  Ag  Ag6  1  0.024244  0.795684  0.750000  1
  Ag  Ag7  1  0.795684  0.024244  0.250000  1
  Se  Se8  1  0.649017  0.627867  0.750000  1
  Se  Se9  1  0.627867  0.649017  0.250000  1
  Se  Se10  1  0.303748  0.068494  0.989955  1
  Se  Se11  1  0.068494  0.303748  0.489955  1
  Se  Se12  1  0.415152  0.838416  0.250000  1
  Se  Se13  1  0.068494  0.303748  0.010045  1
  Se  Se14  1  0.303748  0.068494  0.510045  1
  Se  Se15  1  0.838416  0.415152  0.750000  1
