# generated using pymatgen
data_Nd4Al18Pd2PtRh3
_symmetry_space_group_name_H-M   'P 1'
_cell_length_a   7.65351606
_cell_length_b   7.65352239
_cell_length_c   9.58370104
_cell_angle_alpha   89.99758423
_cell_angle_beta   89.99806616
_cell_angle_gamma   119.48984183
_symmetry_Int_Tables_number   1
_chemical_formula_structural   Nd4Al18Pd2PtRh3
_chemical_formula_sum   'Nd4 Al18 Pd2 Pt1 Rh3'
_cell_volume   488.64779264
_cell_formula_units_Z   1
loop_
 _symmetry_equiv_pos_site_id
 _symmetry_equiv_pos_as_xyz
  1  'x, y, z'
loop_
 _atom_site_type_symbol
 _atom_site_label
 _atom_site_symmetry_multiplicity
 _atom_site_fract_x
 _atom_site_fract_y
 _atom_site_fract_z
 _atom_site_occupancy
  Nd  Nd0  1  0.994256  0.670367  0.749963  1
  Nd  Nd1  1  0.003774  0.328250  0.250194  1
  Nd  Nd2  1  0.671748  0.996225  0.749806  1
  Nd  Nd3  1  0.329631  0.005740  0.250039  1
  Al  Al4  1  0.133867  0.132830  0.750670  1
  Al  Al5  1  0.867170  0.866134  0.249331  1
  Al  Al6  1  0.006786  0.339015  0.575152  1
  Al  Al7  1  0.001356  0.665227  0.425135  1
  Al  Al8  1  0.998630  0.661131  0.072905  1
  Al  Al9  1  0.338870  0.001371  0.927096  1
  Al  Al10  1  0.002150  0.338914  0.926667  1
  Al  Al11  1  0.661086  0.997851  0.073333  1
  Al  Al12  1  0.660985  0.993214  0.424848  1
  Al  Al13  1  0.334773  0.998644  0.574865  1
  Al  Al14  1  0.337376  0.337632  0.049857  1
  Al  Al15  1  0.662368  0.662623  0.950144  1
  Al  Al16  1  0.661274  0.664668  0.552962  1
  Al  Al17  1  0.335332  0.338725  0.447038  1
  Al  Al18  1  0.339486  0.548429  0.750625  1
  Al  Al19  1  0.661398  0.454713  0.246220  1
  Al  Al20  1  0.545287  0.338602  0.753781  1
  Al  Al21  1  0.451570  0.660513  0.249376  1
  Pd  Pd22  1  0.999889  0.000111  0.500000  1
  Pd  Pd23  1  0.000083  0.999918  0.000000  1
  Pt  Pt24  1  0.671422  0.328576  0.500000  1
  Rh  Rh25  1  0.329062  0.670945  0.499995  1
  Rh  Rh26  1  0.329091  0.670912  0.999997  1
  Rh  Rh27  1  0.671280  0.328720  0.000001  1
