# generated using pymatgen
data_Sm11YSc8(GaO4)12
_symmetry_space_group_name_H-M   'P 1'
_cell_length_a   11.02122962
_cell_length_b   11.02123086
_cell_length_c   11.01893522
_cell_angle_alpha   109.45560868
_cell_angle_beta   109.45560948
_cell_angle_gamma   109.51087663
_symmetry_Int_Tables_number   1
_chemical_formula_structural   Sm11YSc8(GaO4)12
_chemical_formula_sum   'Sm11 Y1 Sc8 Ga12 O48'
_cell_volume   1030.22617960
_cell_formula_units_Z   1
loop_
 _symmetry_equiv_pos_site_id
 _symmetry_equiv_pos_as_xyz
  1  'x, y, z'
loop_
 _atom_site_type_symbol
 _atom_site_label
 _atom_site_symmetry_multiplicity
 _atom_site_fract_x
 _atom_site_fract_y
 _atom_site_fract_z
 _atom_site_occupancy
  Sm  Sm0  1  0.250035  0.375090  0.125042  1
  Sm  Sm1  1  0.750100  0.624939  0.875475  1
  Sm  Sm2  1  0.750048  0.124993  0.374958  1
  Sm  Sm3  1  0.124910  0.249965  0.374958  1
  Sm  Sm4  1  0.375007  0.749952  0.125042  1
  Sm  Sm5  1  0.249464  0.874625  0.624525  1
  Sm  Sm6  1  0.875061  0.749900  0.624525  1
  Sm  Sm7  1  0.625375  0.250536  0.875475  1
  Sm  Sm8  1  0.375000  0.125000  0.250000  1
  Sm  Sm9  1  0.625000  0.875000  0.750000  1
  Sm  Sm10  1  0.125000  0.375000  0.750000  1
  Y  Y11  1  0.875000  0.625000  0.250000  1
  Sc  Sc12  1  0.999903  0.999974  0.000002  1
  Sc  Sc13  1  0.499972  0.999900  0.499998  1
  Sc  Sc14  1  0.999790  0.500091  0.499285  1
  Sc  Sc15  1  0.500100  0.000028  0.000002  1
  Sc  Sc16  1  0.500806  0.500506  0.000715  1
  Sc  Sc17  1  0.500026  0.500097  0.499998  1
  Sc  Sc18  1  0.999494  0.999194  0.499285  1
  Sc  Sc19  1  0.999909  0.500210  0.000715  1
  Ga  Ga20  1  0.249317  0.624870  0.374708  1
  Ga  Ga21  1  0.750036  0.375007  0.625053  1
  Ga  Ga22  1  0.750162  0.874609  0.125292  1
  Ga  Ga23  1  0.375016  0.250046  0.625053  1
  Ga  Ga24  1  0.625391  0.749838  0.374708  1
  Ga  Ga25  1  0.249954  0.124984  0.874947  1
  Ga  Ga26  1  0.124993  0.749964  0.874947  1
  Ga  Ga27  1  0.875130  0.250683  0.125292  1
  Ga  Ga28  1  0.625646  0.375646  0.250000  1
  Ga  Ga29  1  0.374969  0.624969  0.750000  1
  Ga  Ga30  1  0.875031  0.125031  0.750000  1
  Ga  Ga31  1  0.124354  0.874354  0.250000  1
  O  O32  1  0.472608  0.375755  0.289464  1
  O  O33  1  0.527791  0.624314  0.710503  1
  O  O34  1  0.586290  0.183144  0.210536  1
  O  O35  1  0.913842  0.124138  0.596516  1
  O  O36  1  0.289436  0.472428  0.375674  1
  O  O37  1  0.316856  0.913710  0.289464  1
  O  O38  1  0.413811  0.817288  0.789497  1
  O  O39  1  0.083083  0.872202  0.401540  1
  O  O40  1  0.710614  0.527727  0.624169  1
  O  O41  1  0.682712  0.086189  0.710503  1
  O  O42  1  0.027622  0.317326  0.903484  1
  O  O43  1  0.210534  0.586094  0.182636  1
  O  O44  1  0.124245  0.027392  0.210536  1
  O  O45  1  0.970662  0.681543  0.098460  1
  O  O46  1  0.789613  0.413925  0.817348  1
  O  O47  1  0.875686  0.972209  0.789497  1
  O  O48  1  0.596754  0.913762  0.124326  1
  O  O49  1  0.182674  0.472378  0.596516  1
  O  O50  1  0.403558  0.086446  0.875831  1
  O  O51  1  0.818457  0.529338  0.401540  1
  O  O52  1  0.903457  0.027898  0.317364  1
  O  O53  1  0.375862  0.586158  0.903484  1
  O  O54  1  0.096577  0.972265  0.682652  1
  O  O55  1  0.627798  0.416917  0.098460  1
  O  O56  1  0.375659  0.289547  0.472212  1
  O  O57  1  0.586238  0.903246  0.375674  1
  O  O58  1  0.624563  0.710606  0.527644  1
  O  O59  1  0.413554  0.096442  0.624169  1
  O  O60  1  0.124215  0.596712  0.914089  1
  O  O61  1  0.027572  0.210564  0.124326  1
  O  O62  1  0.875698  0.404798  0.087684  1
  O  O63  1  0.972273  0.789386  0.875831  1
  O  O64  1  0.317334  0.903447  0.027788  1
  O  O65  1  0.913906  0.289466  0.317364  1
  O  O66  1  0.682962  0.096920  0.972356  1
  O  O67  1  0.086075  0.710387  0.682652  1
  O  O68  1  0.182623  0.210126  0.585911  1
  O  O69  1  0.472102  0.596543  0.182636  1
  O  O70  1  0.817114  0.788013  0.412316  1
  O  O71  1  0.527735  0.403423  0.817348  1
  O  O72  1  0.289874  0.317377  0.914089  1
  O  O73  1  0.711987  0.682886  0.087684  1
  O  O74  1  0.210453  0.124341  0.027788  1
  O  O75  1  0.789394  0.875437  0.972356  1
  O  O76  1  0.903288  0.375785  0.585911  1
  O  O77  1  0.095202  0.624302  0.412316  1
  O  O78  1  0.596553  0.182666  0.472212  1
  O  O79  1  0.403080  0.817038  0.527644  1
