# generated using pymatgen
data_Dy16TlIn3(RuRh)2
_symmetry_space_group_name_H-M   'P 1'
_cell_length_a   9.68733430
_cell_length_b   9.65175154
_cell_length_c   9.65886810
_cell_angle_alpha   59.82420731
_cell_angle_beta   59.90245360
_cell_angle_gamma   59.87796923
_symmetry_Int_Tables_number   1
_chemical_formula_structural   Dy16TlIn3(RuRh)2
_chemical_formula_sum   'Dy16 Tl1 In3 Ru2 Rh2'
_cell_volume   636.67902149
_cell_formula_units_Z   1
loop_
 _symmetry_equiv_pos_site_id
 _symmetry_equiv_pos_as_xyz
  1  'x, y, z'
loop_
 _atom_site_type_symbol
 _atom_site_label
 _atom_site_symmetry_multiplicity
 _atom_site_fract_x
 _atom_site_fract_y
 _atom_site_fract_z
 _atom_site_occupancy
  Dy  Dy0  1  0.690079  0.310685  0.309158  1
  Dy  Dy1  1  0.691561  0.689364  0.310318  1
  Dy  Dy2  1  0.308758  0.689364  0.310318  1
  Dy  Dy3  1  0.938097  0.942598  0.561415  1
  Dy  Dy4  1  0.151855  0.151799  0.544488  1
  Dy  Dy5  1  0.557890  0.942598  0.561415  1
  Dy  Dy6  1  0.151813  0.151433  0.150633  1
  Dy  Dy7  1  0.307641  0.310933  0.689499  1
  Dy  Dy8  1  0.941958  0.557189  0.558895  1
  Dy  Dy9  1  0.559345  0.561272  0.941908  1
  Dy  Dy10  1  0.562616  0.937387  0.937380  1
  Dy  Dy11  1  0.937475  0.561272  0.941908  1
  Dy  Dy12  1  0.152062  0.544492  0.151382  1
  Dy  Dy13  1  0.308020  0.692175  0.691785  1
  Dy  Dy14  1  0.691927  0.310933  0.689499  1
  Dy  Dy15  1  0.546120  0.151433  0.150633  1
  Tl  Tl16  1  0.915148  0.915320  0.254383  1
  In  In17  1  0.246123  0.918713  0.917214  1
  In  In18  1  0.917409  0.248131  0.917051  1
  In  In19  1  0.917950  0.918713  0.917214  1
  Ru  Ru20  1  0.362957  0.357383  0.357327  1
  Ru  Ru21  1  0.922333  0.357383  0.357327  1
  Rh  Rh22  1  0.360502  0.357396  0.921601  1
  Rh  Rh23  1  0.360359  0.922034  0.357250  1
