# generated using pymatgen
data_InIrI6
_symmetry_space_group_name_H-M   'P 1'
_cell_length_a   7.24274493
_cell_length_b   7.24274518
_cell_length_c   7.75907517
_cell_angle_alpha   81.13414696
_cell_angle_beta   81.13414332
_cell_angle_gamma   119.79619129
_symmetry_Int_Tables_number   1
_chemical_formula_structural   InIrI6
_chemical_formula_sum   'In1 Ir1 I6'
_cell_volume   336.12120266
_cell_formula_units_Z   1
loop_
 _symmetry_equiv_pos_site_id
 _symmetry_equiv_pos_as_xyz
  1  'x, y, z'
loop_
 _atom_site_type_symbol
 _atom_site_label
 _atom_site_symmetry_multiplicity
 _atom_site_fract_x
 _atom_site_fract_y
 _atom_site_fract_z
 _atom_site_occupancy
  In  In0  1  0.167568  0.832432  0.000000  1
  Ir  Ir1  1  0.833133  0.166867  0.000000  1
  I  I2  1  0.909770  0.541855  0.786403  1
  I  I3  1  0.458145  0.090230  0.213597  1
  I  I4  1  0.770235  0.798774  0.214022  1
  I  I5  1  0.201226  0.229765  0.785978  1
  I  I6  1  0.600365  0.940442  0.785612  1
  I  I7  1  0.059558  0.399635  0.214388  1
