# generated using pymatgen
data_Er2CdSi(PPd4)5
_symmetry_space_group_name_H-M   'P 1'
_cell_length_a   8.65422105
_cell_length_b   8.65366077
_cell_length_c   8.65366097
_cell_angle_alpha   60.10199096
_cell_angle_beta   59.99785307
_cell_angle_gamma   59.99785350
_symmetry_Int_Tables_number   1
_chemical_formula_structural   Er2CdSi(PPd4)5
_chemical_formula_sum   'Er2 Cd1 Si1 P5 Pd20'
_cell_volume   458.59809838
_cell_formula_units_Z   1
loop_
 _symmetry_equiv_pos_site_id
 _symmetry_equiv_pos_as_xyz
  1  'x, y, z'
loop_
 _atom_site_type_symbol
 _atom_site_label
 _atom_site_symmetry_multiplicity
 _atom_site_fract_x
 _atom_site_fract_y
 _atom_site_fract_z
 _atom_site_occupancy
  Er  Er0  1  0.999659  0.000341  0.000341  1
  Er  Er1  1  0.250195  0.249805  0.249805  1
  Cd  Cd2  1  0.750223  0.749777  0.749777  1
  Si  Si3  1  0.732742  0.267258  0.267258  1
  P  P4  1  0.734918  0.733322  0.265062  1
  P  P5  1  0.734918  0.265062  0.733322  1
  P  P6  1  0.266698  0.733322  0.265062  1
  P  P7  1  0.265501  0.734499  0.734499  1
  P  P8  1  0.266698  0.265062  0.733322  1
  Pd  Pd9  1  0.341405  0.002265  0.002265  1
  Pd  Pd10  1  0.001258  0.655029  0.342456  1
  Pd  Pd11  1  0.342656  0.001615  0.653725  1
  Pd  Pd12  1  0.002004  0.653725  0.001615  1
  Pd  Pd13  1  0.653716  0.342808  0.001021  1
  Pd  Pd14  1  0.617425  0.618447  0.146703  1
  Pd  Pd15  1  0.384807  0.845554  0.384833  1
  Pd  Pd16  1  0.147675  0.617502  0.617502  1
  Pd  Pd17  1  0.653716  0.001021  0.342808  1
  Pd  Pd18  1  0.001258  0.342456  0.655029  1
  Pd  Pd19  1  0.654066  0.002265  0.002265  1
  Pd  Pd20  1  0.002455  0.001021  0.342808  1
  Pd  Pd21  1  0.617425  0.146703  0.618447  1
  Pd  Pd22  1  0.342656  0.653725  0.001615  1
  Pd  Pd23  1  0.383003  0.385329  0.385329  1
  Pd  Pd24  1  0.617321  0.617502  0.617502  1
  Pd  Pd25  1  0.384807  0.384833  0.845554  1
  Pd  Pd26  1  0.002004  0.001615  0.653725  1
  Pd  Pd27  1  0.846340  0.385329  0.385329  1
  Pd  Pd28  1  0.002455  0.342808  0.001021  1
