# generated using pymatgen
data_YHoHf3Si4
_symmetry_space_group_name_H-M   'P 1'
_cell_length_a   7.28151800
_cell_length_b   7.28151800
_cell_length_c   13.37707400
_cell_angle_alpha   90.00000000
_cell_angle_beta   90.00000000
_cell_angle_gamma   90.00000000
_symmetry_Int_Tables_number   1
_chemical_formula_structural   YHoHf3Si4
_chemical_formula_sum   'Y4 Ho4 Hf12 Si16'
_cell_volume   709.25921067
_cell_formula_units_Z   4
loop_
 _symmetry_equiv_pos_site_id
 _symmetry_equiv_pos_as_xyz
  1  'x, y, z'
loop_
 _atom_site_type_symbol
 _atom_site_label
 _atom_site_symmetry_multiplicity
 _atom_site_fract_x
 _atom_site_fract_y
 _atom_site_fract_z
 _atom_site_occupancy
  Y  Y0  1  0.845784  0.504708  0.965081  1
  Y  Y1  1  0.154216  0.495292  0.465081  1
  Y  Y2  1  0.004708  0.654216  0.715081  1
  Y  Y3  1  0.995292  0.345784  0.215081  1
  Ho  Ho4  1  0.495716  0.153753  0.535046  1
  Ho  Ho5  1  0.504284  0.846247  0.035046  1
  Ho  Ho6  1  0.653753  0.004284  0.285046  1
  Ho  Ho7  1  0.346247  0.995716  0.785046  1
  Hf  Hf8  1  0.675534  0.323797  0.749894  1
  Hf  Hf9  1  0.324466  0.676203  0.249894  1
  Hf  Hf10  1  0.823797  0.824466  0.499894  1
  Hf  Hf11  1  0.176203  0.175534  0.999894  1
  Hf  Hf12  1  0.496163  0.352522  0.124887  1
  Hf  Hf13  1  0.503837  0.647478  0.624887  1
  Hf  Hf14  1  0.852522  0.003837  0.874887  1
  Hf  Hf15  1  0.147478  0.996163  0.374887  1
  Hf  Hf16  1  0.647256  0.503867  0.375272  1
  Hf  Hf17  1  0.352744  0.496133  0.875272  1
  Hf  Hf18  1  0.003867  0.852744  0.125272  1
  Hf  Hf19  1  0.996133  0.147256  0.625272  1
  Si  Si20  1  0.795229  0.139172  0.067397  1
  Si  Si21  1  0.204771  0.860828  0.567397  1
  Si  Si22  1  0.639172  0.704771  0.817397  1
  Si  Si23  1  0.360828  0.295229  0.317397  1
  Si  Si24  1  0.859498  0.203875  0.432552  1
  Si  Si25  1  0.140502  0.796125  0.932552  1
  Si  Si26  1  0.703875  0.640502  0.182552  1
  Si  Si27  1  0.296125  0.359498  0.682552  1
  Si  Si28  1  0.550377  0.205145  0.935881  1
  Si  Si29  1  0.449623  0.794855  0.435881  1
  Si  Si30  1  0.705145  0.949623  0.685881  1
  Si  Si31  1  0.294855  0.050377  0.185881  1
  Si  Si32  1  0.793696  0.448866  0.563990  1
  Si  Si33  1  0.206304  0.551134  0.063990  1
  Si  Si34  1  0.948866  0.706304  0.313990  1
  Si  Si35  1  0.051134  0.293696  0.813990  1
