# generated using pymatgen
data_CsRb3(SnSb)12
_symmetry_space_group_name_H-M   'P 1'
_cell_length_a   4.48669100
_cell_length_b   11.08672067
_cell_length_c   21.30850325
_cell_angle_alpha   89.43017743
_cell_angle_beta   90.00000000
_cell_angle_gamma   90.00000000
_symmetry_Int_Tables_number   1
_chemical_formula_structural   CsRb3(SnSb)12
_chemical_formula_sum   'Cs1 Rb3 Sn12 Sb12'
_cell_volume   1059.88985051
_cell_formula_units_Z   1
loop_
 _symmetry_equiv_pos_site_id
 _symmetry_equiv_pos_as_xyz
  1  'x, y, z'
loop_
 _atom_site_type_symbol
 _atom_site_label
 _atom_site_symmetry_multiplicity
 _atom_site_fract_x
 _atom_site_fract_y
 _atom_site_fract_z
 _atom_site_occupancy
  Cs  Cs0  1  0.250000  0.226042  0.462602  1
  Rb  Rb1  1  0.750000  0.269003  0.960355  1
  Rb  Rb2  1  0.750000  0.768804  0.539476  1
  Rb  Rb3  1  0.250000  0.730862  0.038828  1
  Sn  Sn4  1  0.750000  0.174903  0.652382  1
  Sn  Sn5  1  0.750000  0.670976  0.848519  1
  Sn  Sn6  1  0.250000  0.824126  0.345980  1
  Sn  Sn7  1  0.250000  0.328582  0.149794  1
  Sn  Sn8  1  0.750000  0.108701  0.255315  1
  Sn  Sn9  1  0.750000  0.607701  0.242680  1
  Sn  Sn10  1  0.250000  0.891628  0.744859  1
  Sn  Sn11  1  0.250000  0.391471  0.757811  1
  Sn  Sn12  1  0.750000  0.978387  0.133184  1
  Sn  Sn13  1  0.750000  0.478118  0.366156  1
  Sn  Sn14  1  0.250000  0.021535  0.866737  1
  Sn  Sn15  1  0.250000  0.527399  0.636949  1
  Sb  Sb16  1  0.750000  0.485555  0.123009  1
  Sb  Sb17  1  0.750000  0.978381  0.374030  1
  Sb  Sb18  1  0.250000  0.514897  0.876993  1
  Sb  Sb19  1  0.250000  0.018065  0.625069  1
  Sb  Sb20  1  0.750000  0.393108  0.579627  1
  Sb  Sb21  1  0.750000  0.883142  0.923371  1
  Sb  Sb22  1  0.250000  0.613337  0.423524  1
  Sb  Sb23  1  0.250000  0.115427  0.075632  1
  Sb  Sb24  1  0.750000  0.229023  0.782914  1
  Sb  Sb25  1  0.750000  0.731217  0.718091  1
  Sb  Sb26  1  0.250000  0.769333  0.215859  1
  Sb  Sb27  1  0.250000  0.270277  0.280260  1
