# generated using pymatgen
data_MgSc4Pt11
_symmetry_space_group_name_H-M   'P 1'
_cell_length_a   4.07418000
_cell_length_b   5.66350846
_cell_length_c   11.34769136
_cell_angle_alpha   88.00469905
_cell_angle_beta   90.00000000
_cell_angle_gamma   90.00000000
_symmetry_Int_Tables_number   1
_chemical_formula_structural   MgSc4Pt11
_chemical_formula_sum   'Mg1 Sc4 Pt11'
_cell_volume   261.67960917
_cell_formula_units_Z   1
loop_
 _symmetry_equiv_pos_site_id
 _symmetry_equiv_pos_as_xyz
  1  'x, y, z'
loop_
 _atom_site_type_symbol
 _atom_site_label
 _atom_site_symmetry_multiplicity
 _atom_site_fract_x
 _atom_site_fract_y
 _atom_site_fract_z
 _atom_site_occupancy
  Mg  Mg0  1  0.000000  0.000000  0.000000  1
  Sc  Sc1  1  0.500000  0.753310  0.374352  1
  Sc  Sc2  1  0.500000  0.723406  0.864422  1
  Sc  Sc3  1  0.500000  0.276594  0.135578  1
  Sc  Sc4  1  0.500000  0.246690  0.625648  1
  Pt  Pt5  1  0.000000  0.010929  0.246665  1
  Pt  Pt6  1  0.000000  0.989071  0.753335  1
  Pt  Pt7  1  0.000000  0.500000  0.000000  1
  Pt  Pt8  1  0.000000  0.500000  0.500000  1
  Pt  Pt9  1  0.000000  0.511609  0.249507  1
  Pt  Pt10  1  0.000000  0.488391  0.750493  1
  Pt  Pt11  1  0.500000  0.249566  0.377197  1
  Pt  Pt12  1  0.500000  0.231870  0.881428  1
  Pt  Pt13  1  0.500000  0.768130  0.118572  1
  Pt  Pt14  1  0.500000  0.750434  0.622803  1
  Pt  Pt15  1  0.000000  0.000000  0.500000  1
