# generated using pymatgen
data_NdSmAg2(Ru2O7)2
_symmetry_space_group_name_H-M   'P 1'
_cell_length_a   7.19048344
_cell_length_b   7.27193653
_cell_length_c   7.27123408
_cell_angle_alpha   61.54379622
_cell_angle_beta   60.36668675
_cell_angle_gamma   60.36983968
_symmetry_Int_Tables_number   1
_chemical_formula_structural   NdSmAg2(Ru2O7)2
_chemical_formula_sum   'Nd1 Sm1 Ag2 Ru4 O14'
_cell_volume   273.37938033
_cell_formula_units_Z   1
loop_
 _symmetry_equiv_pos_site_id
 _symmetry_equiv_pos_as_xyz
  1  'x, y, z'
loop_
 _atom_site_type_symbol
 _atom_site_label
 _atom_site_symmetry_multiplicity
 _atom_site_fract_x
 _atom_site_fract_y
 _atom_site_fract_z
 _atom_site_occupancy
  Nd  Nd0  1  0.625000  0.625000  0.125000  1
  Sm  Sm1  1  0.625000  0.125000  0.625000  1
  Ag  Ag2  1  0.625000  0.625000  0.625000  1
  Ag  Ag3  1  0.125000  0.625000  0.625000  1
  Ru  Ru4  1  0.125000  0.125000  0.125000  1
  Ru  Ru5  1  0.625000  0.125000  0.125000  1
  Ru  Ru6  1  0.125000  0.125000  0.625000  1
  Ru  Ru7  1  0.125000  0.625000  0.125000  1
  O  O8  1  0.488888  0.508021  0.514203  1
  O  O9  1  0.761112  0.741979  0.735797  1
  O  O10  1  0.049003  0.059135  0.443759  1
  O  O11  1  0.802442  0.807180  0.191237  1
  O  O12  1  0.448103  0.059135  0.443759  1
  O  O13  1  0.458485  0.042841  0.040190  1
  O  O14  1  0.063111  0.436872  0.436906  1
  O  O15  1  0.050860  0.442820  0.058763  1
  O  O16  1  0.447558  0.442820  0.058763  1
  O  O17  1  0.186889  0.813128  0.813094  1
  O  O18  1  0.791515  0.207159  0.209810  1
  O  O19  1  0.200997  0.190865  0.806241  1
  O  O20  1  0.199140  0.807180  0.191237  1
  O  O21  1  0.801897  0.190865  0.806241  1
