# generated using pymatgen
data_LaTb7(CdNi)2
_symmetry_space_group_name_H-M   'P 1'
_cell_length_a   9.64879309
_cell_length_b   9.64879323
_cell_length_c   9.65180200
_cell_angle_alpha   59.98967741
_cell_angle_beta   59.98967690
_cell_angle_gamma   60.02769287
_symmetry_Int_Tables_number   1
_chemical_formula_structural   LaTb7(CdNi)2
_chemical_formula_sum   'La2 Tb14 Cd4 Ni4'
_cell_volume   635.42222514
_cell_formula_units_Z   2
loop_
 _symmetry_equiv_pos_site_id
 _symmetry_equiv_pos_as_xyz
  1  'x, y, z'
loop_
 _atom_site_type_symbol
 _atom_site_label
 _atom_site_symmetry_multiplicity
 _atom_site_fract_x
 _atom_site_fract_y
 _atom_site_fract_z
 _atom_site_occupancy
  La  La0  1  0.346234  0.346234  0.350351  1
  La  La1  1  0.346234  0.346234  0.957181  1
  Tb  Tb2  1  0.348759  0.949673  0.350784  1
  Tb  Tb3  1  0.949673  0.348759  0.350784  1
  Tb  Tb4  1  0.814513  0.188155  0.187036  1
  Tb  Tb5  1  0.188155  0.814513  0.810295  1
  Tb  Tb6  1  0.188155  0.814513  0.187036  1
  Tb  Tb7  1  0.814513  0.188155  0.810295  1
  Tb  Tb8  1  0.187837  0.187837  0.812163  1
  Tb  Tb9  1  0.811513  0.811513  0.188487  1
  Tb  Tb10  1  0.936114  0.564505  0.565414  1
  Tb  Tb11  1  0.564505  0.936114  0.933968  1
  Tb  Tb12  1  0.564505  0.936114  0.565414  1
  Tb  Tb13  1  0.936114  0.564505  0.933968  1
  Tb  Tb14  1  0.565362  0.565362  0.934638  1
  Tb  Tb15  1  0.936234  0.936234  0.563766  1
  Cd  Cd16  1  0.582752  0.582752  0.577926  1
  Cd  Cd17  1  0.582752  0.582752  0.256569  1
  Cd  Cd18  1  0.584420  0.254610  0.580484  1
  Cd  Cd19  1  0.254610  0.584420  0.580484  1
  Ni  Ni20  1  0.140647  0.140647  0.144747  1
  Ni  Ni21  1  0.140647  0.140647  0.573958  1
  Ni  Ni22  1  0.139626  0.576125  0.142125  1
  Ni  Ni23  1  0.576125  0.139626  0.142125  1
