# generated using pymatgen
data_Sn8OsRuAu2
_symmetry_space_group_name_H-M   'P 1'
_cell_length_a   6.77531100
_cell_length_b   6.77531100
_cell_length_c   6.03812600
_cell_angle_alpha   90.00000000
_cell_angle_beta   90.00000000
_cell_angle_gamma   90.00000000
_symmetry_Int_Tables_number   1
_chemical_formula_structural   Sn8OsRuAu2
_chemical_formula_sum   'Sn8 Os1 Ru1 Au2'
_cell_volume   277.17920278
_cell_formula_units_Z   1
loop_
 _symmetry_equiv_pos_site_id
 _symmetry_equiv_pos_as_xyz
  1  'x, y, z'
loop_
 _atom_site_type_symbol
 _atom_site_label
 _atom_site_symmetry_multiplicity
 _atom_site_fract_x
 _atom_site_fract_y
 _atom_site_fract_z
 _atom_site_occupancy
  Sn  Sn0  1  0.367891  0.180726  0.999041  1
  Sn  Sn1  1  0.632109  0.819274  0.999041  1
  Sn  Sn2  1  0.180726  0.632109  0.999041  1
  Sn  Sn3  1  0.367891  0.819274  0.500959  1
  Sn  Sn4  1  0.819274  0.367891  0.999041  1
  Sn  Sn5  1  0.632109  0.180726  0.500959  1
  Sn  Sn6  1  0.180726  0.367891  0.500959  1
  Sn  Sn7  1  0.819274  0.632109  0.500959  1
  Os  Os8  1  0.500000  0.500000  0.250000  1
  Ru  Ru9  1  0.500000  0.500000  0.750000  1
  Au  Au10  1  0.000000  0.000000  0.999144  1
  Au  Au11  1  0.000000  0.000000  0.500856  1
