# generated using pymatgen
data_Cu4Mo12PtRh3N4
_symmetry_space_group_name_H-M   'P 1'
_cell_length_a   6.77787953
_cell_length_b   6.77787953
_cell_length_c   6.77787953
_cell_angle_alpha   89.96802498
_cell_angle_beta   89.96802498
_cell_angle_gamma   89.96802498
_symmetry_Int_Tables_number   1
_chemical_formula_structural   Cu4Mo12PtRh3N4
_chemical_formula_sum   'Cu4 Mo12 Pt1 Rh3 N4'
_cell_volume   311.37327387
_cell_formula_units_Z   1
loop_
 _symmetry_equiv_pos_site_id
 _symmetry_equiv_pos_as_xyz
  1  'x, y, z'
loop_
 _atom_site_type_symbol
 _atom_site_label
 _atom_site_symmetry_multiplicity
 _atom_site_fract_x
 _atom_site_fract_y
 _atom_site_fract_z
 _atom_site_occupancy
  Cu  Cu0  1  0.185649  0.814050  0.315949  1
  Cu  Cu1  1  0.315949  0.185649  0.814050  1
  Cu  Cu2  1  0.814050  0.315949  0.185649  1
  Cu  Cu3  1  0.684660  0.684660  0.684660  1
  Mo  Mo4  1  0.802170  0.956183  0.376368  1
  Mo  Mo5  1  0.694206  0.042013  0.873471  1
  Mo  Mo6  1  0.196469  0.459644  0.126327  1
  Mo  Mo7  1  0.304010  0.543054  0.625236  1
  Mo  Mo8  1  0.956183  0.376368  0.802170  1
  Mo  Mo9  1  0.042013  0.873471  0.694206  1
  Mo  Mo10  1  0.459644  0.126327  0.196469  1
  Mo  Mo11  1  0.543054  0.625236  0.304010  1
  Mo  Mo12  1  0.376368  0.802170  0.956183  1
  Mo  Mo13  1  0.873471  0.694206  0.042013  1
  Mo  Mo14  1  0.126327  0.196469  0.459644  1
  Mo  Mo15  1  0.625236  0.304010  0.543054  1
  Pt  Pt16  1  0.065664  0.065664  0.065664  1
  Rh  Rh17  1  0.565824  0.434551  0.934617  1
  Rh  Rh18  1  0.434551  0.934617  0.565824  1
  Rh  Rh19  1  0.934617  0.565824  0.434551  1
  N  N20  1  0.873967  0.125903  0.625647  1
  N  N21  1  0.625647  0.873967  0.125903  1
  N  N22  1  0.125903  0.625647  0.873967  1
  N  N23  1  0.374367  0.374367  0.374367  1
