# generated using pymatgen
data_ReSn(P2O7)2
_symmetry_space_group_name_H-M   'P 1'
_cell_length_a   5.19682931
_cell_length_b   6.83284802
_cell_length_c   8.46223947
_cell_angle_alpha   69.35491176
_cell_angle_beta   88.72767267
_cell_angle_gamma   88.71472298
_symmetry_Int_Tables_number   1
_chemical_formula_structural   ReSn(P2O7)2
_chemical_formula_sum   'Re1 Sn1 P4 O14'
_cell_volume   281.08676185
_cell_formula_units_Z   1
loop_
 _symmetry_equiv_pos_site_id
 _symmetry_equiv_pos_as_xyz
  1  'x, y, z'
loop_
 _atom_site_type_symbol
 _atom_site_label
 _atom_site_symmetry_multiplicity
 _atom_site_fract_x
 _atom_site_fract_y
 _atom_site_fract_z
 _atom_site_occupancy
  Re  Re0  1  0.241877  0.212411  0.732914  1
  Sn  Sn1  1  0.757191  0.786745  0.267901  1
  P  P2  1  0.242635  0.109365  0.165696  1
  P  P3  1  0.276698  0.448211  0.313340  1
  P  P4  1  0.727322  0.549237  0.688342  1
  P  P5  1  0.753189  0.892474  0.832149  1
  O  O6  1  0.186940  0.287639  0.481717  1
  O  O7  1  0.030636  0.953119  0.772681  1
  O  O8  1  0.092559  0.634012  0.240790  1
  O  O9  1  0.281729  0.336749  0.175141  1
  O  O10  1  0.294529  0.138542  0.981776  1
  O  O11  1  0.435745  0.959229  0.284719  1
  O  O12  1  0.453300  0.473788  0.684770  1
  O  O13  1  0.554699  0.515799  0.318237  1
  O  O14  1  0.556882  0.042180  0.714784  1
  O  O15  1  0.699965  0.861752  0.015910  1
  O  O16  1  0.716547  0.663906  0.824229  1
  O  O17  1  0.918647  0.368322  0.759609  1
  O  O18  1  0.963735  0.053449  0.224068  1
  O  O19  1  0.815176  0.713073  0.521226  1
