# generated using pymatgen
data_NaTbErGa8Ag3
_symmetry_space_group_name_H-M   'P 1'
_cell_length_a   4.33769370
_cell_length_b   8.37813290
_cell_length_c   8.37813317
_cell_angle_alpha   70.91735375
_cell_angle_beta   74.99696896
_cell_angle_gamma   74.99697042
_symmetry_Int_Tables_number   1
_chemical_formula_structural   NaTbErGa8Ag3
_chemical_formula_sum   'Na1 Tb1 Er1 Ga8 Ag3'
_cell_volume   272.82599209
_cell_formula_units_Z   1
loop_
 _symmetry_equiv_pos_site_id
 _symmetry_equiv_pos_as_xyz
  1  'x, y, z'
loop_
 _atom_site_type_symbol
 _atom_site_label
 _atom_site_symmetry_multiplicity
 _atom_site_fract_x
 _atom_site_fract_y
 _atom_site_fract_z
 _atom_site_occupancy
  Na  Na0  1  0.500200  0.499800  0.499800  1
  Tb  Tb1  1  0.202872  0.797128  0.797128  1
  Er  Er2  1  0.797498  0.202502  0.202502  1
  Ga  Ga3  1  0.357758  0.360793  0.923691  1
  Ga  Ga4  1  0.642030  0.638380  0.077562  1
  Ga  Ga5  1  0.357758  0.923691  0.360793  1
  Ga  Ga6  1  0.642030  0.077562  0.638380  1
  Ga  Ga7  1  0.162179  0.470946  0.204698  1
  Ga  Ga8  1  0.838420  0.527976  0.795183  1
  Ga  Ga9  1  0.162179  0.204698  0.470946  1
  Ga  Ga10  1  0.838420  0.795183  0.527976  1
  Ag  Ag11  1  0.499415  0.000585  0.000585  1
  Ag  Ag12  1  0.999621  0.807867  0.192890  1
  Ag  Ag13  1  0.999621  0.192890  0.807867  1
