# generated using pymatgen
data_Tb7Er13(Bi2Ir)4
_symmetry_space_group_name_H-M   'P 1'
_cell_length_a   7.96106700
_cell_length_b   8.99909900
_cell_length_c   12.48364101
_cell_angle_alpha   90.00056470
_cell_angle_beta   90.00392259
_cell_angle_gamma   89.99983805
_symmetry_Int_Tables_number   1
_chemical_formula_structural   Tb7Er13(Bi2Ir)4
_chemical_formula_sum   'Tb7 Er13 Bi8 Ir4'
_cell_volume   894.35837640
_cell_formula_units_Z   1
loop_
 _symmetry_equiv_pos_site_id
 _symmetry_equiv_pos_as_xyz
  1  'x, y, z'
loop_
 _atom_site_type_symbol
 _atom_site_label
 _atom_site_symmetry_multiplicity
 _atom_site_fract_x
 _atom_site_fract_y
 _atom_site_fract_z
 _atom_site_occupancy
  Tb  Tb0  1  0.661595  0.750000  0.707257  1
  Tb  Tb1  1  0.338193  0.250015  0.292783  1
  Tb  Tb2  1  0.161585  0.249993  0.792808  1
  Tb  Tb3  1  0.838057  0.749996  0.207332  1
  Tb  Tb4  1  0.127656  0.750009  0.808478  1
  Tb  Tb5  1  0.872277  0.250003  0.191664  1
  Tb  Tb6  1  0.627707  0.250013  0.691399  1
  Er  Er7  1  0.373865  0.749971  0.309957  1
  Er  Er8  1  0.555363  0.749944  0.997791  1
  Er  Er9  1  0.444582  0.249957  0.002145  1
  Er  Er10  1  0.055464  0.250018  0.501830  1
  Er  Er11  1  0.944737  0.749970  0.497926  1
  Er  Er12  1  0.825895  0.457895  0.933116  1
  Er  Er13  1  0.174289  0.542219  0.066938  1
  Er  Er14  1  0.325620  0.542224  0.566350  1
  Er  Er15  1  0.174264  0.957826  0.066955  1
  Er  Er16  1  0.673620  0.458882  0.432810  1
  Er  Er17  1  0.825865  0.042024  0.933124  1
  Er  Er18  1  0.673632  0.041100  0.432794  1
  Er  Er19  1  0.325624  0.957800  0.566340  1
  Bi  Bi20  1  0.936133  0.007944  0.671507  1
  Bi  Bi21  1  0.065153  0.991327  0.328458  1
  Bi  Bi22  1  0.436129  0.992209  0.828376  1
  Bi  Bi23  1  0.065149  0.508695  0.328454  1
  Bi  Bi24  1  0.562889  0.007106  0.171954  1
  Bi  Bi25  1  0.936139  0.492077  0.671512  1
  Bi  Bi26  1  0.562904  0.492906  0.171957  1
  Bi  Bi27  1  0.436129  0.507812  0.828378  1
  Ir  Ir28  1  0.929086  0.750045  0.991602  1
  Ir  Ir29  1  0.070776  0.250035  0.008640  1
  Ir  Ir30  1  0.429399  0.249994  0.508278  1
  Ir  Ir31  1  0.570227  0.749994  0.491089  1
