# generated using pymatgen
data_Dy10Y10Co3Bi8Ru
_symmetry_space_group_name_H-M   'P 1'
_cell_length_a   8.02685830
_cell_length_b   8.90482300
_cell_length_c   12.48743416
_cell_angle_alpha   90.00000000
_cell_angle_beta   90.20585557
_cell_angle_gamma   90.00000000
_symmetry_Int_Tables_number   1
_chemical_formula_structural   Dy10Y10Co3Bi8Ru
_chemical_formula_sum   'Dy10 Y10 Co3 Bi8 Ru1'
_cell_volume   892.56796572
_cell_formula_units_Z   1
loop_
 _symmetry_equiv_pos_site_id
 _symmetry_equiv_pos_as_xyz
  1  'x, y, z'
loop_
 _atom_site_type_symbol
 _atom_site_label
 _atom_site_symmetry_multiplicity
 _atom_site_fract_x
 _atom_site_fract_y
 _atom_site_fract_z
 _atom_site_occupancy
  Dy  Dy0  1  0.949512  0.750000  0.503602  1
  Dy  Dy1  1  0.549182  0.750000  0.002418  1
  Dy  Dy2  1  0.676863  0.041885  0.564509  1
  Dy  Dy3  1  0.324124  0.965672  0.436411  1
  Dy  Dy4  1  0.175186  0.965342  0.937013  1
  Dy  Dy5  1  0.324124  0.534328  0.436411  1
  Dy  Dy6  1  0.823933  0.036245  0.063069  1
  Dy  Dy7  1  0.676863  0.458115  0.564509  1
  Dy  Dy8  1  0.823933  0.463755  0.063069  1
  Dy  Dy9  1  0.175186  0.534658  0.937013  1
  Y  Y10  1  0.846622  0.750000  0.799870  1
  Y  Y11  1  0.152505  0.250000  0.198931  1
  Y  Y12  1  0.347375  0.250000  0.699819  1
  Y  Y13  1  0.654096  0.750000  0.295655  1
  Y  Y14  1  0.377898  0.750000  0.693556  1
  Y  Y15  1  0.619058  0.250000  0.309792  1
  Y  Y16  1  0.880559  0.250000  0.810645  1
  Y  Y17  1  0.118876  0.750000  0.187909  1
  Y  Y18  1  0.049785  0.250000  0.496856  1
  Y  Y19  1  0.451854  0.250000  0.997314  1
  Co  Co20  1  0.434169  0.250000  0.490796  1
  Co  Co21  1  0.060985  0.250000  0.992012  1
  Co  Co22  1  0.936705  0.750000  0.007486  1
  Bi  Bi23  1  0.570695  0.491731  0.826880  1
  Bi  Bi24  1  0.428693  0.507946  0.173291  1
  Bi  Bi25  1  0.070840  0.507680  0.674293  1
  Bi  Bi26  1  0.428693  0.992054  0.173291  1
  Bi  Bi27  1  0.930409  0.492169  0.326045  1
  Bi  Bi28  1  0.570695  0.008269  0.826880  1
  Bi  Bi29  1  0.930409  0.007831  0.326045  1
  Bi  Bi30  1  0.070840  0.992320  0.674293  1
  Ru  Ru31  1  0.569332  0.750000  0.510316  1
