# generated using pymatgen
data_Dy6InCoTc
_symmetry_space_group_name_H-M   'P 1'
_cell_length_a   8.46552488
_cell_length_b   8.46552476
_cell_length_c   8.46552421
_cell_angle_alpha   112.84985255
_cell_angle_beta   110.99426100
_cell_angle_gamma   104.67927470
_symmetry_Int_Tables_number   1
_chemical_formula_structural   Dy6InCoTc
_chemical_formula_sum   'Dy12 In2 Co2 Tc2'
_cell_volume   464.46817753
_cell_formula_units_Z   2
loop_
 _symmetry_equiv_pos_site_id
 _symmetry_equiv_pos_as_xyz
  1  'x, y, z'
loop_
 _atom_site_type_symbol
 _atom_site_label
 _atom_site_symmetry_multiplicity
 _atom_site_fract_x
 _atom_site_fract_y
 _atom_site_fract_z
 _atom_site_occupancy
  Dy  Dy0  1  0.443945  0.243568  0.200379  1
  Dy  Dy1  1  0.556055  0.756432  0.799621  1
  Dy  Dy2  1  0.043189  0.243568  0.799621  1
  Dy  Dy3  1  0.956811  0.756432  0.200379  1
  Dy  Dy4  1  0.185511  0.287599  0.473110  1
  Dy  Dy5  1  0.814489  0.712401  0.526890  1
  Dy  Dy6  1  0.185511  0.712401  0.897912  1
  Dy  Dy7  1  0.814489  0.287599  0.102088  1
  Dy  Dy8  1  0.326573  0.646616  0.320043  1
  Dy  Dy9  1  0.673427  0.353384  0.679957  1
  Dy  Dy10  1  0.326573  0.006529  0.679957  1
  Dy  Dy11  1  0.673427  0.993471  0.320043  1
  In  In12  1  0.500000  0.500000  0.000000  1
  In  In13  1  0.000000  0.000000  0.000000  1
  Co  Co14  1  0.109631  0.609631  0.500000  1
  Co  Co15  1  0.890369  0.390369  0.500000  1
  Tc  Tc16  1  0.322066  0.000000  0.322066  1
  Tc  Tc17  1  0.677934  0.000000  0.677934  1
