# generated using pymatgen
data_Hf6Sc3TaRe3As
_symmetry_space_group_name_H-M   'P 1'
_cell_length_a   8.75687121
_cell_length_b   8.75687099
_cell_length_c   8.57974500
_cell_angle_alpha   90.00000000
_cell_angle_beta   90.00000000
_cell_angle_gamma   119.98202850
_symmetry_Int_Tables_number   1
_chemical_formula_structural   Hf6Sc3TaRe3As
_chemical_formula_sum   'Hf12 Sc6 Ta2 Re6 As2'
_cell_volume   569.87754565
_cell_formula_units_Z   2
loop_
 _symmetry_equiv_pos_site_id
 _symmetry_equiv_pos_as_xyz
  1  'x, y, z'
loop_
 _atom_site_type_symbol
 _atom_site_label
 _atom_site_symmetry_multiplicity
 _atom_site_fract_x
 _atom_site_fract_y
 _atom_site_fract_z
 _atom_site_occupancy
  Hf  Hf0  1  0.805009  0.609899  0.544738  1
  Hf  Hf1  1  0.804754  0.195246  0.544477  1
  Hf  Hf2  1  0.390101  0.194991  0.544738  1
  Hf  Hf3  1  0.194991  0.390101  0.455262  1
  Hf  Hf4  1  0.195246  0.804754  0.455523  1
  Hf  Hf5  1  0.609899  0.805009  0.455262  1
  Hf  Hf6  1  0.194991  0.390101  0.044738  1
  Hf  Hf7  1  0.195246  0.804754  0.044477  1
  Hf  Hf8  1  0.609899  0.805009  0.044738  1
  Hf  Hf9  1  0.805009  0.609899  0.955262  1
  Hf  Hf10  1  0.804754  0.195246  0.955523  1
  Hf  Hf11  1  0.390101  0.194991  0.955262  1
  Sc  Sc12  1  0.459347  0.918427  0.750000  1
  Sc  Sc13  1  0.459137  0.540863  0.750000  1
  Sc  Sc14  1  0.081573  0.540653  0.750000  1
  Sc  Sc15  1  0.540653  0.081573  0.250000  1
  Sc  Sc16  1  0.540863  0.459137  0.250000  1
  Sc  Sc17  1  0.918427  0.459347  0.250000  1
  Ta  Ta18  1  0.000000  0.000000  0.500000  1
  Ta  Ta19  1  0.000000  0.000000  0.000000  1
  Re  Re20  1  0.111864  0.223876  0.750000  1
  Re  Re21  1  0.111988  0.888012  0.750000  1
  Re  Re22  1  0.776124  0.888136  0.750000  1
  Re  Re23  1  0.888136  0.776124  0.250000  1
  Re  Re24  1  0.888012  0.111988  0.250000  1
  Re  Re25  1  0.223876  0.111864  0.250000  1
  As  As26  1  0.666529  0.333471  0.750000  1
  As  As27  1  0.333471  0.666529  0.250000  1
