# generated using pymatgen
data_Yb19MgRu4
_symmetry_space_group_name_H-M   'P 1'
_cell_length_a   6.63296544
_cell_length_b   7.45573649
_cell_length_c   15.60639300
_cell_angle_alpha   90.01324858
_cell_angle_beta   90.19758678
_cell_angle_gamma   89.96618754
_symmetry_Int_Tables_number   1
_chemical_formula_structural   Yb19MgRu4
_chemical_formula_sum   'Yb19 Mg1 Ru4'
_cell_volume   771.78823627
_cell_formula_units_Z   1
loop_
 _symmetry_equiv_pos_site_id
 _symmetry_equiv_pos_as_xyz
  1  'x, y, z'
loop_
 _atom_site_type_symbol
 _atom_site_label
 _atom_site_symmetry_multiplicity
 _atom_site_fract_x
 _atom_site_fract_y
 _atom_site_fract_z
 _atom_site_occupancy
  Yb  Yb0  1  0.147019  0.097616  0.250265  1
  Yb  Yb1  1  0.859238  0.192917  0.567849  1
  Yb  Yb2  1  0.852318  0.907105  0.753666  1
  Yb  Yb3  1  0.823842  0.463067  0.144068  1
  Yb  Yb4  1  0.178290  0.535609  0.647076  1
  Yb  Yb5  1  0.360848  0.304866  0.066781  1
  Yb  Yb6  1  0.353440  0.598056  0.249172  1
  Yb  Yb7  1  0.824281  0.465245  0.352587  1
  Yb  Yb8  1  0.319970  0.037525  0.855874  1
  Yb  Yb9  1  0.138607  0.809719  0.067838  1
  Yb  Yb10  1  0.640575  0.693012  0.569015  1
  Yb  Yb11  1  0.676329  0.965595  0.352893  1
  Yb  Yb12  1  0.640541  0.694284  0.931030  1
  Yb  Yb13  1  0.324670  0.033819  0.647187  1
  Yb  Yb14  1  0.140523  0.806041  0.431701  1
  Yb  Yb15  1  0.650683  0.398736  0.753395  1
  Yb  Yb16  1  0.170992  0.527337  0.854742  1
  Yb  Yb17  1  0.360126  0.305860  0.432239  1
  Yb  Yb18  1  0.678519  0.969026  0.144198  1
  Mg  Mg19  1  0.860248  0.193185  0.930175  1
  Ru  Ru20  1  0.035347  0.243585  0.748868  1
  Ru  Ru21  1  0.465233  0.741821  0.751220  1
  Ru  Ru22  1  0.533888  0.257503  0.249198  1
  Ru  Ru23  1  0.964474  0.758472  0.248965  1
