# generated using pymatgen
data_Mn2Nb12Al9FeC4
_symmetry_space_group_name_H-M   'P 1'
_cell_length_a   8.31098978
_cell_length_b   8.29819943
_cell_length_c   8.32710100
_cell_angle_alpha   59.88472447
_cell_angle_beta   59.93585672
_cell_angle_gamma   59.83889436
_symmetry_Int_Tables_number   1
_chemical_formula_structural   Mn2Nb12Al9FeC4
_chemical_formula_sum   'Mn2 Nb12 Al9 Fe1 C4'
_cell_volume   405.03721229
_cell_formula_units_Z   1
loop_
 _symmetry_equiv_pos_site_id
 _symmetry_equiv_pos_as_xyz
  1  'x, y, z'
loop_
 _atom_site_type_symbol
 _atom_site_label
 _atom_site_symmetry_multiplicity
 _atom_site_fract_x
 _atom_site_fract_y
 _atom_site_fract_z
 _atom_site_occupancy
  Mn  Mn0  1  0.625000  0.625000  0.125000  1
  Mn  Mn1  1  0.625000  0.625000  0.625000  1
  Nb  Nb2  1  0.807231  0.808661  0.192053  1
  Nb  Nb3  1  0.191837  0.191275  0.808444  1
  Nb  Nb4  1  0.807063  0.194156  0.807068  1
  Nb  Nb5  1  0.192876  0.809561  0.188888  1
  Nb  Nb6  1  0.192876  0.809561  0.808674  1
  Nb  Nb7  1  0.807063  0.194156  0.191713  1
  Nb  Nb8  1  0.442769  0.441339  0.057947  1
  Nb  Nb9  1  0.058163  0.058725  0.441556  1
  Nb  Nb10  1  0.442937  0.055844  0.442932  1
  Nb  Nb11  1  0.057124  0.440439  0.061112  1
  Nb  Nb12  1  0.057124  0.440439  0.441326  1
  Nb  Nb13  1  0.442937  0.055844  0.058287  1
  Al  Al14  1  0.625000  0.125000  0.625000  1
  Al  Al15  1  0.749926  0.427144  0.411465  1
  Al  Al16  1  0.413612  0.750783  0.417804  1
  Al  Al17  1  0.407371  0.428795  0.751804  1
  Al  Al18  1  0.407371  0.428795  0.412031  1
  Al  Al19  1  0.500074  0.822856  0.838535  1
  Al  Al20  1  0.836388  0.499217  0.832196  1
  Al  Al21  1  0.842629  0.821205  0.498196  1
  Al  Al22  1  0.842629  0.821205  0.837969  1
  Fe  Fe23  1  0.125000  0.625000  0.625000  1
  C  C24  1  0.625000  0.125000  0.125000  1
  C  C25  1  0.125000  0.625000  0.125000  1
  C  C26  1  0.125000  0.125000  0.625000  1
  C  C27  1  0.125000  0.125000  0.125000  1
