# generated using pymatgen
data_Cs3Li3(TaSe4)2
_symmetry_space_group_name_H-M   'P 1'
_cell_length_a   13.69214681
_cell_length_b   13.69214700
_cell_length_c   15.81390313
_cell_angle_alpha   62.47033460
_cell_angle_beta   62.47033427
_cell_angle_gamma   26.64957975
_symmetry_Int_Tables_number   1
_chemical_formula_structural   Cs3Li3(TaSe4)2
_chemical_formula_sum   'Cs6 Li6 Ta4 Se16'
_cell_volume   1170.18150349
_cell_formula_units_Z   2
loop_
 _symmetry_equiv_pos_site_id
 _symmetry_equiv_pos_as_xyz
  1  'x, y, z'
loop_
 _atom_site_type_symbol
 _atom_site_label
 _atom_site_symmetry_multiplicity
 _atom_site_fract_x
 _atom_site_fract_y
 _atom_site_fract_z
 _atom_site_occupancy
  Cs  Cs0  1  0.233854  0.378888  0.600604  1
  Cs  Cs1  1  0.766146  0.621112  0.399396  1
  Cs  Cs2  1  0.378888  0.233854  0.100604  1
  Cs  Cs3  1  0.000000  0.000000  0.500000  1
  Cs  Cs4  1  0.621112  0.766146  0.899396  1
  Cs  Cs5  1  0.000000  0.000000  0.000000  1
  Li  Li6  1  0.316375  0.683625  0.250000  1
  Li  Li7  1  0.072283  0.680420  0.788820  1
  Li  Li8  1  0.683625  0.316375  0.750000  1
  Li  Li9  1  0.680420  0.072283  0.288820  1
  Li  Li10  1  0.319580  0.927717  0.711180  1
  Li  Li11  1  0.927717  0.319580  0.211180  1
  Ta  Ta12  1  0.178586  0.568996  0.279261  1
  Ta  Ta13  1  0.568996  0.178586  0.779261  1
  Ta  Ta14  1  0.431004  0.821414  0.220739  1
  Ta  Ta15  1  0.821414  0.431004  0.720739  1
  Se  Se16  1  0.734747  0.675162  0.120462  1
  Se  Se17  1  0.576791  0.521377  0.332021  1
  Se  Se18  1  0.193364  0.990068  0.128743  1
  Se  Se19  1  0.423209  0.478623  0.667979  1
  Se  Se20  1  0.990068  0.193364  0.628743  1
  Se  Se21  1  0.094388  0.215570  0.807167  1
  Se  Se22  1  0.675162  0.734747  0.620462  1
  Se  Se23  1  0.478623  0.423209  0.167979  1
  Se  Se24  1  0.521377  0.576791  0.832021  1
  Se  Se25  1  0.324838  0.265253  0.379538  1
  Se  Se26  1  0.784430  0.905612  0.692833  1
  Se  Se27  1  0.806636  0.009932  0.871257  1
  Se  Se28  1  0.265253  0.324838  0.879538  1
  Se  Se29  1  0.009932  0.806636  0.371257  1
  Se  Se30  1  0.905612  0.784430  0.192833  1
  Se  Se31  1  0.215570  0.094388  0.307167  1
