# generated using pymatgen
data_CaYb(Si7Ir3)2
_symmetry_space_group_name_H-M   'P 1'
_cell_length_a   8.01507374
_cell_length_b   8.01507435
_cell_length_c   8.01507418
_cell_angle_alpha   56.89552594
_cell_angle_beta   56.89552034
_cell_angle_gamma   56.89552688
_symmetry_Int_Tables_number   1
_chemical_formula_structural   CaYb(Si7Ir3)2
_chemical_formula_sum   'Ca1 Yb1 Si14 Ir6'
_cell_volume   338.01338932
_cell_formula_units_Z   1
loop_
 _symmetry_equiv_pos_site_id
 _symmetry_equiv_pos_as_xyz
  1  'x, y, z'
loop_
 _atom_site_type_symbol
 _atom_site_label
 _atom_site_symmetry_multiplicity
 _atom_site_fract_x
 _atom_site_fract_y
 _atom_site_fract_z
 _atom_site_occupancy
  Ca  Ca0  1  0.500000  0.500000  0.500000  1
  Yb  Yb1  1  0.000000  0.000000  0.000000  1
  Si  Si2  1  0.065701  0.850172  0.673383  1
  Si  Si3  1  0.673383  0.065701  0.850172  1
  Si  Si4  1  0.850172  0.673383  0.065701  1
  Si  Si5  1  0.173117  0.349765  0.566168  1
  Si  Si6  1  0.566168  0.173117  0.349765  1
  Si  Si7  1  0.349765  0.566168  0.173117  1
  Si  Si8  1  0.934299  0.149828  0.326617  1
  Si  Si9  1  0.326617  0.934299  0.149828  1
  Si  Si10  1  0.149828  0.326617  0.934299  1
  Si  Si11  1  0.826883  0.650235  0.433832  1
  Si  Si12  1  0.433832  0.826883  0.650235  1
  Si  Si13  1  0.650235  0.433832  0.826883  1
  Si  Si14  1  0.749982  0.749982  0.749982  1
  Si  Si15  1  0.250018  0.250018  0.250018  1
  Ir  Ir16  1  0.070358  0.750385  0.428829  1
  Ir  Ir17  1  0.428829  0.070358  0.750385  1
  Ir  Ir18  1  0.750385  0.428829  0.070358  1
  Ir  Ir19  1  0.929642  0.249615  0.571171  1
  Ir  Ir20  1  0.571171  0.929642  0.249615  1
  Ir  Ir21  1  0.249615  0.571171  0.929642  1
