# generated using pymatgen
data_Nb2Ga3Cu
_symmetry_space_group_name_H-M   'P 1'
_cell_length_a   4.95087106
_cell_length_b   4.95087181
_cell_length_c   4.95087217
_cell_angle_alpha   62.36185344
_cell_angle_beta   62.36185334
_cell_angle_gamma   62.36186078
_symmetry_Int_Tables_number   1
_chemical_formula_structural   Nb2Ga3Cu
_chemical_formula_sum   'Nb2 Ga3 Cu1'
_cell_volume   90.32959093
_cell_formula_units_Z   1
loop_
 _symmetry_equiv_pos_site_id
 _symmetry_equiv_pos_as_xyz
  1  'x, y, z'
loop_
 _atom_site_type_symbol
 _atom_site_label
 _atom_site_symmetry_multiplicity
 _atom_site_fract_x
 _atom_site_fract_y
 _atom_site_fract_z
 _atom_site_occupancy
  Nb  Nb0  1  0.121061  0.121061  0.121061  1
  Nb  Nb1  1  0.878939  0.878939  0.878939  1
  Ga  Ga2  1  0.000000  0.500000  0.500000  1
  Ga  Ga3  1  0.500000  0.500000  0.000000  1
  Ga  Ga4  1  0.500000  0.000000  0.500000  1
  Cu  Cu5  1  0.500000  0.500000  0.500000  1
