# generated using pymatgen
data_TbYbPrGa9Pd2
_symmetry_space_group_name_H-M   'P 1'
_cell_length_a   8.21631587
_cell_length_b   8.21631480
_cell_length_c   8.21631507
_cell_angle_alpha   149.26767423
_cell_angle_beta   109.82588450
_cell_angle_gamma   78.53746901
_symmetry_Int_Tables_number   1
_chemical_formula_structural   TbYbPrGa9Pd2
_chemical_formula_sum   'Tb1 Yb1 Pr1 Ga9 Pd2'
_cell_volume   261.63311549
_cell_formula_units_Z   1
loop_
 _symmetry_equiv_pos_site_id
 _symmetry_equiv_pos_as_xyz
  1  'x, y, z'
loop_
 _atom_site_type_symbol
 _atom_site_label
 _atom_site_symmetry_multiplicity
 _atom_site_fract_x
 _atom_site_fract_y
 _atom_site_fract_z
 _atom_site_occupancy
  Tb  Tb0  1  0.199743  0.199743  0.000000  1
  Yb  Yb1  1  0.801161  0.801161  0.000000  1
  Pr  Pr2  1  0.500251  0.500251  0.000000  1
  Ga  Ga3  1  0.075589  0.359434  0.716154  1
  Ga  Ga4  1  0.921430  0.638765  0.282666  1
  Ga  Ga5  1  0.643281  0.359434  0.283846  1
  Ga  Ga6  1  0.356098  0.638765  0.717334  1
  Ga  Ga7  1  0.796954  0.160222  0.636732  1
  Ga  Ga8  1  0.206755  0.841986  0.364770  1
  Ga  Ga9  1  0.523488  0.160222  0.363268  1
  Ga  Ga10  1  0.477217  0.841986  0.635230  1
  Ga  Ga11  1  0.999891  0.499891  0.500000  1
  Pd  Pd12  1  0.817168  0.999071  0.818097  1
  Pd  Pd13  1  0.180974  0.999071  0.181903  1
