# generated using pymatgen
data_Ce3Th2Ni19
_symmetry_space_group_name_H-M   'P 1'
_cell_length_a   4.93286988
_cell_length_b   4.93286938
_cell_length_c   16.43287700
_cell_angle_alpha   81.36777983
_cell_angle_beta   81.36778071
_cell_angle_gamma   59.99999003
_symmetry_Int_Tables_number   1
_chemical_formula_structural   Ce3Th2Ni19
_chemical_formula_sum   'Ce3 Th2 Ni19'
_cell_volume   341.05243471
_cell_formula_units_Z   1
loop_
 _symmetry_equiv_pos_site_id
 _symmetry_equiv_pos_as_xyz
  1  'x, y, z'
loop_
 _atom_site_type_symbol
 _atom_site_label
 _atom_site_symmetry_multiplicity
 _atom_site_fract_x
 _atom_site_fract_y
 _atom_site_fract_z
 _atom_site_occupancy
  Ce  Ce0  1  0.000000  0.000000  0.000000  1
  Ce  Ce1  1  0.848433  0.848433  0.454701  1
  Ce  Ce2  1  0.151567  0.151567  0.545299  1
  Th  Th3  1  0.921944  0.921944  0.234169  1
  Th  Th4  1  0.078056  0.078056  0.765831  1
  Ni  Ni5  1  0.500000  0.500000  0.500000  1
  Ni  Ni6  1  0.749250  0.749251  0.752249  1
  Ni  Ni7  1  0.250749  0.250749  0.247752  1
  Ni  Ni8  1  0.666726  0.666726  0.999825  1
  Ni  Ni9  1  0.333274  0.333274  0.000175  1
  Ni  Ni10  1  0.584175  0.584175  0.247478  1
  Ni  Ni11  1  0.415825  0.415825  0.752522  1
  Ni  Ni12  1  0.375743  0.375743  0.372077  1
  Ni  Ni13  1  0.876436  0.375743  0.372077  1
  Ni  Ni14  1  0.375743  0.876436  0.372077  1
  Ni  Ni15  1  0.624257  0.624257  0.627923  1
  Ni  Ni16  1  0.123564  0.624257  0.627923  1
  Ni  Ni17  1  0.624257  0.123564  0.627923  1
  Ni  Ni18  1  0.459216  0.459216  0.122472  1
  Ni  Ni19  1  0.959096  0.459216  0.122472  1
  Ni  Ni20  1  0.459216  0.959096  0.122472  1
  Ni  Ni21  1  0.540784  0.540784  0.877528  1
  Ni  Ni22  1  0.040904  0.540784  0.877528  1
  Ni  Ni23  1  0.540784  0.040904  0.877528  1
