# generated using pymatgen
data_YEr(FeOs)2
_symmetry_space_group_name_H-M   'P 1'
_cell_length_a   5.22839945
_cell_length_b   5.27757961
_cell_length_c   5.27758007
_cell_angle_alpha   59.61241572
_cell_angle_beta   60.30779585
_cell_angle_gamma   60.30778090
_symmetry_Int_Tables_number   1
_chemical_formula_structural   YEr(FeOs)2
_chemical_formula_sum   'Y1 Er1 Fe2 Os2'
_cell_volume   103.14028870
_cell_formula_units_Z   1
loop_
 _symmetry_equiv_pos_site_id
 _symmetry_equiv_pos_as_xyz
  1  'x, y, z'
loop_
 _atom_site_type_symbol
 _atom_site_label
 _atom_site_symmetry_multiplicity
 _atom_site_fract_x
 _atom_site_fract_y
 _atom_site_fract_z
 _atom_site_occupancy
  Y  Y0  1  0.997910  0.002090  0.002090  1
  Er  Er1  1  0.252385  0.247615  0.247615  1
  Fe  Fe2  1  0.125142  0.625031  0.625031  1
  Fe  Fe3  1  0.624796  0.625031  0.625031  1
  Os  Os4  1  0.624883  0.624970  0.125263  1
  Os  Os5  1  0.624883  0.125263  0.624970  1
