# generated using pymatgen
data_NaGa2HI8
_symmetry_space_group_name_H-M   'P 1'
_cell_length_a   7.98279588
_cell_length_b   8.73314240
_cell_length_c   16.18255700
_cell_angle_alpha   88.02073308
_cell_angle_beta   84.58347911
_cell_angle_gamma   86.88778552
_symmetry_Int_Tables_number   1
_chemical_formula_structural   NaGa2HI8
_chemical_formula_sum   'Na2 Ga4 H2 I16'
_cell_volume   1120.98023350
_cell_formula_units_Z   2
loop_
 _symmetry_equiv_pos_site_id
 _symmetry_equiv_pos_as_xyz
  1  'x, y, z'
loop_
 _atom_site_type_symbol
 _atom_site_label
 _atom_site_symmetry_multiplicity
 _atom_site_fract_x
 _atom_site_fract_y
 _atom_site_fract_z
 _atom_site_occupancy
  Na  Na0  1  0.011887  0.164906  0.616548  1
  Na  Na1  1  0.988113  0.835094  0.383452  1
  Ga  Ga2  1  0.162967  0.714342  0.596231  1
  Ga  Ga3  1  0.837033  0.285658  0.403769  1
  Ga  Ga4  1  0.641926  0.280024  0.900001  1
  Ga  Ga5  1  0.358074  0.719976  0.099999  1
  H  H6  1  0.446850  0.632549  0.892790  1
  H  H7  1  0.553150  0.367451  0.107210  1
  I  I8  1  0.170622  0.465332  0.687640  1
  I  I9  1  0.829378  0.534668  0.312360  1
  I  I10  1  0.653784  0.563855  0.832135  1
  I  I11  1  0.346216  0.436145  0.167865  1
  I  I12  1  0.299310  0.922434  0.675468  1
  I  I13  1  0.700690  0.077566  0.324532  1
  I  I14  1  0.854305  0.102522  0.816722  1
  I  I15  1  0.145695  0.897478  0.183278  1
  I  I16  1  0.235474  0.702288  0.952597  1
  I  I17  1  0.764526  0.297712  0.047403  1
  I  I18  1  0.681448  0.320971  0.549711  1
  I  I19  1  0.318552  0.679029  0.450289  1
  I  I20  1  0.853517  0.816273  0.579426  1
  I  I21  1  0.146483  0.183727  0.420574  1
  I  I22  1  0.340280  0.203777  0.918161  1
  I  I23  1  0.659720  0.796223  0.081839  1
