# generated using pymatgen
data_Hf18CoCuW8
_symmetry_space_group_name_H-M   'P 1'
_cell_length_a   8.70827400
_cell_length_b   8.70827356
_cell_length_c   8.52390300
_cell_angle_alpha   90.00000000
_cell_angle_beta   90.00000000
_cell_angle_gamma   120.00000167
_symmetry_Int_Tables_number   1
_chemical_formula_structural   Hf18CoCuW8
_chemical_formula_sum   'Hf18 Co1 Cu1 W8'
_cell_volume   559.80048724
_cell_formula_units_Z   1
loop_
 _symmetry_equiv_pos_site_id
 _symmetry_equiv_pos_as_xyz
  1  'x, y, z'
loop_
 _atom_site_type_symbol
 _atom_site_label
 _atom_site_symmetry_multiplicity
 _atom_site_fract_x
 _atom_site_fract_y
 _atom_site_fract_z
 _atom_site_occupancy
  Hf  Hf0  1  0.197118  0.802882  0.444475  1
  Hf  Hf1  1  0.197118  0.394235  0.444475  1
  Hf  Hf2  1  0.605765  0.802882  0.444475  1
  Hf  Hf3  1  0.798643  0.201357  0.559918  1
  Hf  Hf4  1  0.798643  0.597287  0.559918  1
  Hf  Hf5  1  0.402713  0.201357  0.559918  1
  Hf  Hf6  1  0.798643  0.201357  0.940082  1
  Hf  Hf7  1  0.798643  0.597287  0.940082  1
  Hf  Hf8  1  0.402713  0.201357  0.940082  1
  Hf  Hf9  1  0.197118  0.802882  0.055525  1
  Hf  Hf10  1  0.197118  0.394235  0.055525  1
  Hf  Hf11  1  0.605765  0.802882  0.055525  1
  Hf  Hf12  1  0.542399  0.457601  0.250000  1
  Hf  Hf13  1  0.542399  0.084797  0.250000  1
  Hf  Hf14  1  0.915203  0.457601  0.250000  1
  Hf  Hf15  1  0.458055  0.541945  0.750000  1
  Hf  Hf16  1  0.458055  0.916111  0.750000  1
  Hf  Hf17  1  0.083889  0.541945  0.750000  1
  Co  Co18  1  0.666667  0.333333  0.750000  1
  Cu  Cu19  1  0.333333  0.666667  0.250000  1
  W  W20  1  0.888053  0.111947  0.250000  1
  W  W21  1  0.888053  0.776107  0.250000  1
  W  W22  1  0.223893  0.111947  0.250000  1
  W  W23  1  0.111993  0.888007  0.750000  1
  W  W24  1  0.111993  0.223985  0.750000  1
  W  W25  1  0.776015  0.888007  0.750000  1
  W  W26  1  0.000000  0.000000  0.501133  1
  W  W27  1  0.000000  0.000000  0.998867  1
