# generated using pymatgen
data_Er3Tm3Co17TcP12
_symmetry_space_group_name_H-M   'P 1'
_cell_length_a   3.67759400
_cell_length_b   10.48398500
_cell_length_c   12.15823701
_cell_angle_alpha   90.00349331
_cell_angle_beta   90.00000000
_cell_angle_gamma   90.00000000
_symmetry_Int_Tables_number   1
_chemical_formula_structural   Er3Tm3Co17TcP12
_chemical_formula_sum   'Er3 Tm3 Co17 Tc1 P12'
_cell_volume   468.77104408
_cell_formula_units_Z   1
loop_
 _symmetry_equiv_pos_site_id
 _symmetry_equiv_pos_as_xyz
  1  'x, y, z'
loop_
 _atom_site_type_symbol
 _atom_site_label
 _atom_site_symmetry_multiplicity
 _atom_site_fract_x
 _atom_site_fract_y
 _atom_site_fract_z
 _atom_site_occupancy
  Er  Er0  1  0.000000  0.499948  0.524334  1
  Er  Er1  1  0.500000  0.000068  0.477378  1
  Er  Er2  1  0.000000  0.682427  0.794927  1
  Tm  Tm3  1  0.500000  0.817935  0.206792  1
  Tm  Tm4  1  0.500000  0.182112  0.206936  1
  Tm  Tm5  1  0.000000  0.317476  0.795062  1
  Co  Co6  1  0.000000  0.000017  0.839412  1
  Co  Co7  1  0.500000  0.499685  0.703164  1
  Co  Co8  1  0.000000  0.000055  0.296261  1
  Co  Co9  1  0.000000  0.499841  0.987602  1
  Co  Co10  1  0.500000  0.000152  0.014977  1
  Co  Co11  1  0.500000  0.331670  0.990867  1
  Co  Co12  1  0.500000  0.668192  0.991009  1
  Co  Co13  1  0.000000  0.166451  0.005889  1
  Co  Co14  1  0.000000  0.833771  0.005995  1
  Co  Co15  1  0.500000  0.296628  0.430982  1
  Co  Co16  1  0.500000  0.703312  0.430739  1
  Co  Co17  1  0.000000  0.202999  0.569018  1
  Co  Co18  1  0.000000  0.796950  0.568626  1
  Co  Co19  1  0.500000  0.878657  0.708497  1
  Co  Co20  1  0.500000  0.121641  0.708832  1
  Co  Co21  1  0.000000  0.621547  0.292004  1
  Co  Co22  1  0.000000  0.378477  0.292160  1
  Tc  Tc23  1  0.500000  0.499954  0.157081  1
  P  P24  1  0.500000  0.499688  0.881003  1
  P  P25  1  0.000000  0.000118  0.118136  1
  P  P26  1  0.500000  0.500014  0.350040  1
  P  P27  1  0.000000  0.999962  0.654615  1
  P  P28  1  0.500000  0.311861  0.617218  1
  P  P29  1  0.500000  0.688012  0.616718  1
  P  P30  1  0.000000  0.187630  0.383701  1
  P  P31  1  0.000000  0.812417  0.383482  1
  P  P32  1  0.500000  0.849502  0.891356  1
  P  P33  1  0.500000  0.150845  0.891212  1
  P  P34  1  0.000000  0.656497  0.106903  1
  P  P35  1  0.000000  0.343490  0.107068  1
