# generated using pymatgen
data_Hf3Zr3CoCl15
_symmetry_space_group_name_H-M   'P 1'
_cell_length_a   8.96109566
_cell_length_b   8.96110068
_cell_length_c   8.96109518
_cell_angle_alpha   109.32069321
_cell_angle_beta   109.45959767
_cell_angle_gamma   109.63350750
_symmetry_Int_Tables_number   1
_chemical_formula_structural   Hf3Zr3CoCl15
_chemical_formula_sum   'Hf3 Zr3 Co1 Cl15'
_cell_volume   553.93460942
_cell_formula_units_Z   1
loop_
 _symmetry_equiv_pos_site_id
 _symmetry_equiv_pos_as_xyz
  1  'x, y, z'
loop_
 _atom_site_type_symbol
 _atom_site_label
 _atom_site_symmetry_multiplicity
 _atom_site_fract_x
 _atom_site_fract_y
 _atom_site_fract_z
 _atom_site_occupancy
  Hf  Hf0  1  0.237789  0.237899  0.999889  1
  Hf  Hf1  1  0.761991  0.762101  0.999890  1
  Hf  Hf2  1  0.763559  0.000000  0.763559  1
  Zr  Zr3  1  0.999863  0.763613  0.763476  1
  Zr  Zr4  1  0.999863  0.236387  0.236250  1
  Zr  Zr5  1  0.237664  0.000000  0.237664  1
  Co  Co6  1  0.002349  0.000000  0.002349  1
  Cl  Cl7  1  0.750433  0.508887  0.757218  1
  Cl  Cl8  1  0.499233  0.500000  0.999233  1
  Cl  Cl9  1  0.999304  0.500000  0.499304  1
  Cl  Cl10  1  0.508842  0.000000  0.508842  1
  Cl  Cl11  1  0.248331  0.006785  0.757219  1
  Cl  Cl12  1  0.000322  0.244782  0.755539  1
  Cl  Cl13  1  0.750433  0.993215  0.241546  1
  Cl  Cl14  1  0.510757  0.755218  0.755539  1
  Cl  Cl15  1  0.993227  0.750719  0.242508  1
  Cl  Cl16  1  0.246393  0.246431  0.492825  1
  Cl  Cl17  1  0.751568  0.241968  0.993535  1
  Cl  Cl18  1  0.491789  0.249281  0.242508  1
  Cl  Cl19  1  0.248331  0.491113  0.241546  1
  Cl  Cl20  1  0.751567  0.758032  0.509600  1
  Cl  Cl21  1  0.246393  0.753569  0.999962  1
