# generated using pymatgen
data_TbCe4Pr15Rh16
_symmetry_space_group_name_H-M   'P 1'
_cell_length_a   7.62353437
_cell_length_b   7.67851958
_cell_length_c   14.96899500
_cell_angle_alpha   90.31956929
_cell_angle_beta   90.23176058
_cell_angle_gamma   89.59022445
_symmetry_Int_Tables_number   1
_chemical_formula_structural   TbCe4Pr15Rh16
_chemical_formula_sum   'Tb1 Ce4 Pr15 Rh16'
_cell_volume   876.20384774
_cell_formula_units_Z   1
loop_
 _symmetry_equiv_pos_site_id
 _symmetry_equiv_pos_as_xyz
  1  'x, y, z'
loop_
 _atom_site_type_symbol
 _atom_site_label
 _atom_site_symmetry_multiplicity
 _atom_site_fract_x
 _atom_site_fract_y
 _atom_site_fract_z
 _atom_site_occupancy
  Tb  Tb0  1  0.837487  0.834776  0.879954  1
  Ce  Ce1  1  0.663253  0.338994  0.120938  1
  Ce  Ce2  1  0.164123  0.162310  0.120041  1
  Ce  Ce3  1  0.663526  0.339107  0.377441  1
  Ce  Ce4  1  0.315422  0.514399  0.248575  1
  Pr  Pr5  1  0.011470  0.680787  0.091837  1
  Pr  Pr6  1  0.836531  0.832736  0.621877  1
  Pr  Pr7  1  0.985020  0.316031  0.593522  1
  Pr  Pr8  1  0.173857  0.010325  0.751446  1
  Pr  Pr9  1  0.512138  0.816749  0.406574  1
  Pr  Pr10  1  0.484593  0.179229  0.593382  1
  Pr  Pr11  1  0.164647  0.164688  0.376181  1
  Pr  Pr12  1  0.336285  0.665140  0.880934  1
  Pr  Pr13  1  0.675459  0.489667  0.751367  1
  Pr  Pr14  1  0.335294  0.664229  0.621515  1
  Pr  Pr15  1  0.014269  0.682270  0.407399  1
  Pr  Pr16  1  0.491614  0.177336  0.905923  1
  Pr  Pr17  1  0.823076  0.984665  0.249936  1
  Pr  Pr18  1  0.511240  0.818194  0.092414  1
  Pr  Pr19  1  0.986081  0.319187  0.906949  1
  Rh  Rh20  1  0.038581  0.607583  0.753537  1
  Rh  Rh21  1  0.808361  0.052953  0.455016  1
  Rh  Rh22  1  0.461665  0.133061  0.242991  1
  Rh  Rh23  1  0.174330  0.976947  0.968969  1
  Rh  Rh24  1  0.679864  0.620477  0.249492  1
  Rh  Rh25  1  0.302390  0.358556  0.750703  1
  Rh  Rh26  1  0.966338  0.386148  0.242496  1
  Rh  Rh27  1  0.683892  0.525226  0.530029  1
  Rh  Rh28  1  0.325680  0.452649  0.048885  1
  Rh  Rh29  1  0.333403  0.468837  0.449840  1
  Rh  Rh30  1  0.544048  0.891022  0.753957  1
  Rh  Rh31  1  0.682260  0.530420  0.968370  1
  Rh  Rh32  1  0.823514  0.047698  0.046625  1
  Rh  Rh33  1  0.800820  0.138884  0.753303  1
  Rh  Rh34  1  0.169294  0.967940  0.541022  1
  Rh  Rh35  1  0.220174  0.850775  0.246559  1
