# generated using pymatgen
data_Na7Mg2Mn4Fe6(PO4)12
_symmetry_space_group_name_H-M   'P 1'
_cell_length_a   9.34189566
_cell_length_b   9.34189500
_cell_length_c   12.08585000
_cell_angle_alpha   68.98807419
_cell_angle_beta   68.98807573
_cell_angle_gamma   85.62735985
_symmetry_Int_Tables_number   1
_chemical_formula_structural   Na7Mg2Mn4Fe6(PO4)12
_chemical_formula_sum   'Na7 Mg2 Mn4 Fe6 P12 O48'
_cell_volume   917.48077215
_cell_formula_units_Z   1
loop_
 _symmetry_equiv_pos_site_id
 _symmetry_equiv_pos_as_xyz
  1  'x, y, z'
loop_
 _atom_site_type_symbol
 _atom_site_label
 _atom_site_symmetry_multiplicity
 _atom_site_fract_x
 _atom_site_fract_y
 _atom_site_fract_z
 _atom_site_occupancy
  Na  Na0  1  0.246661  0.004358  0.867562  1
  Na  Na1  1  0.746651  0.498044  0.372634  1
  Na  Na2  1  0.000519  0.750605  0.120612  1
  Na  Na3  1  0.502376  0.248943  0.615419  1
  Na  Na4  1  0.108472  0.897749  0.505902  1
  Na  Na5  1  0.878942  0.594132  0.771618  1
  Na  Na6  1  0.404989  0.133733  0.232848  1
  Mg  Mg7  1  0.222789  0.664247  0.778516  1
  Mg  Mg8  1  0.724661  0.164748  0.276516  1
  Mn  Mn9  1  0.887897  0.113004  0.002204  1
  Mn  Mn10  1  0.388190  0.604893  0.504714  1
  Mn  Mn11  1  0.600473  0.890250  0.750648  1
  Mn  Mn12  1  0.105636  0.393100  0.253025  1
  Fe  Fe13  1  0.341794  0.776263  0.220530  1
  Fe  Fe14  1  0.842854  0.272850  0.720780  1
  Fe  Fe15  1  0.281584  0.344723  0.969492  1
  Fe  Fe16  1  0.774663  0.844179  0.468302  1
  Fe  Fe17  1  0.164599  0.223862  0.527801  1
  Fe  Fe18  1  0.661777  0.713264  0.030196  1
  P  P19  1  0.081540  0.042430  0.199516  1
  P  P20  1  0.581660  0.539453  0.698991  1
  P  P21  1  0.950279  0.920440  0.803342  1
  P  P22  1  0.455003  0.423652  0.297786  1
  P  P23  1  0.425565  0.951244  0.544966  1
  P  P24  1  0.926825  0.453425  0.052006  1
  P  P25  1  0.540503  0.077059  0.948280  1
  P  P26  1  0.039838  0.582661  0.450931  1
  P  P27  1  0.339857  0.660769  0.000660  1
  P  P28  1  0.839089  0.159938  0.500184  1
  P  P29  1  0.159764  0.340076  0.752521  1
  P  P30  1  0.660046  0.840722  0.247933  1
  O  O31  1  0.985318  0.934664  0.914171  1
  O  O32  1  0.482123  0.441455  0.410998  1
  O  O33  1  0.063049  0.006340  0.091142  1
  O  O34  1  0.562838  0.506155  0.589236  1
  O  O35  1  0.504095  0.059230  0.839523  1
  O  O36  1  0.002790  0.564852  0.342796  1
  O  O37  1  0.436728  0.988512  0.656202  1
  O  O38  1  0.938399  0.488491  0.163925  1
  O  O39  1  0.052114  0.809431  0.743504  1
  O  O40  1  0.561262  0.311660  0.246099  1
  O  O41  1  0.202834  0.942776  0.251244  1
  O  O42  1  0.704227  0.440467  0.746053  1
  O  O43  1  0.435114  0.189966  0.004057  1
  O  O44  1  0.942202  0.705247  0.501472  1
  O  O45  1  0.317797  0.056356  0.482803  1
  O  O46  1  0.814499  0.563001  0.995696  1
  O  O47  1  0.868167  0.284847  0.093380  1
  O  O48  1  0.362761  0.781750  0.590944  1
  O  O49  1  0.712027  0.136246  0.902398  1
  O  O50  1  0.212816  0.642273  0.403986  1
  O  O51  1  0.640667  0.712533  0.654174  1
  O  O52  1  0.142316  0.214039  0.155176  1
  O  O53  1  0.777948  0.856937  0.849864  1
  O  O54  1  0.285413  0.368897  0.333666  1
  O  O55  1  0.922742  0.013734  0.310358  1
  O  O56  1  0.423066  0.512239  0.809442  1
  O  O57  1  0.970952  0.084172  0.699427  1
  O  O58  1  0.484275  0.590824  0.191090  1
  O  O59  1  0.591956  0.974722  0.442183  1
  O  O60  1  0.088851  0.483957  0.944710  1
  O  O61  1  0.515985  0.915379  0.058233  1
  O  O62  1  0.012601  0.424722  0.561856  1
  O  O63  1  0.273018  0.742260  0.897228  1
  O  O64  1  0.765009  0.236785  0.401139  1
  O  O65  1  0.260914  0.726562  0.108785  1
  O  O66  1  0.761925  0.228245  0.606542  1
  O  O67  1  0.224591  0.263191  0.861183  1
  O  O68  1  0.732543  0.761657  0.351030  1
  O  O69  1  0.239519  0.262650  0.655510  1
  O  O70  1  0.736417  0.766050  0.146221  1
  O  O71  1  0.192580  0.516934  0.690777  1
  O  O72  1  0.694408  0.017039  0.186707  1
  O  O73  1  0.979799  0.304330  0.813063  1
  O  O74  1  0.481625  0.803568  0.310701  1
  O  O75  1  0.301799  0.483065  0.061579  1
  O  O76  1  0.803919  0.979869  0.563149  1
  O  O77  1  0.518140  0.697103  0.941265  1
  O  O78  1  0.016663  0.193702  0.438880  1
