# generated using pymatgen
data_ScPa3(FeSi)4
_symmetry_space_group_name_H-M   'P 1'
_cell_length_a   4.13837500
_cell_length_b   6.96163380
_cell_length_c   6.64979687
_cell_angle_alpha   89.59096927
_cell_angle_beta   90.00000000
_cell_angle_gamma   90.00000000
_symmetry_Int_Tables_number   1
_chemical_formula_structural   ScPa3(FeSi)4
_chemical_formula_sum   'Sc1 Pa3 Fe4 Si4'
_cell_volume   191.57477700
_cell_formula_units_Z   1
loop_
 _symmetry_equiv_pos_site_id
 _symmetry_equiv_pos_as_xyz
  1  'x, y, z'
loop_
 _atom_site_type_symbol
 _atom_site_label
 _atom_site_symmetry_multiplicity
 _atom_site_fract_x
 _atom_site_fract_y
 _atom_site_fract_z
 _atom_site_occupancy
  Sc  Sc0  1  0.250000  0.482158  0.191431  1
  Pa  Pa1  1  0.750000  0.517554  0.815682  1
  Pa  Pa2  1  0.250000  0.982883  0.321013  1
  Pa  Pa3  1  0.750000  0.014720  0.675179  1
  Fe  Fe4  1  0.250000  0.644693  0.563640  1
  Fe  Fe5  1  0.250000  0.136841  0.943196  1
  Fe  Fe6  1  0.750000  0.869206  0.059706  1
  Fe  Fe7  1  0.750000  0.358586  0.441091  1
  Si  Si8  1  0.250000  0.796271  0.898840  1
  Si  Si9  1  0.250000  0.301823  0.603356  1
  Si  Si10  1  0.750000  0.208112  0.112423  1
  Si  Si11  1  0.750000  0.687152  0.374442  1
