# generated using pymatgen
data_Tb2Rh6C
_symmetry_space_group_name_H-M   'P 1'
_cell_length_a   5.81672318
_cell_length_b   5.81672235
_cell_length_c   5.81670700
_cell_angle_alpha   60.00009296
_cell_angle_beta   60.00009770
_cell_angle_gamma   59.99982146
_symmetry_Int_Tables_number   1
_chemical_formula_structural   Tb2Rh6C
_chemical_formula_sum   'Tb2 Rh6 C1'
_cell_volume   139.16145465
_cell_formula_units_Z   1
loop_
 _symmetry_equiv_pos_site_id
 _symmetry_equiv_pos_as_xyz
  1  'x, y, z'
loop_
 _atom_site_type_symbol
 _atom_site_label
 _atom_site_symmetry_multiplicity
 _atom_site_fract_x
 _atom_site_fract_y
 _atom_site_fract_z
 _atom_site_occupancy
  Tb  Tb0  1  0.250000  0.250000  0.250000  1
  Tb  Tb1  1  0.750000  0.750000  0.750000  1
  Rh  Rh2  1  0.746597  0.253404  0.253404  1
  Rh  Rh3  1  0.253404  0.746597  0.253404  1
  Rh  Rh4  1  0.746591  0.746591  0.253410  1
  Rh  Rh5  1  0.253409  0.253409  0.746592  1
  Rh  Rh6  1  0.746596  0.253405  0.746596  1
  Rh  Rh7  1  0.253405  0.746596  0.746596  1
  C  C8  1  0.000000  0.000000  0.000000  1
