# generated using pymatgen
data_Ac8DyHo11Sn16
_symmetry_space_group_name_H-M   'P 1'
_cell_length_a   8.32580205
_cell_length_b   8.42385019
_cell_length_c   15.91354500
_cell_angle_alpha   89.99669442
_cell_angle_beta   89.99373764
_cell_angle_gamma   89.98822604
_symmetry_Int_Tables_number   1
_chemical_formula_structural   Ac8DyHo11Sn16
_chemical_formula_sum   'Ac8 Dy1 Ho11 Sn16'
_cell_volume   1116.10136686
_cell_formula_units_Z   1
loop_
 _symmetry_equiv_pos_site_id
 _symmetry_equiv_pos_as_xyz
  1  'x, y, z'
loop_
 _atom_site_type_symbol
 _atom_site_label
 _atom_site_symmetry_multiplicity
 _atom_site_fract_x
 _atom_site_fract_y
 _atom_site_fract_z
 _atom_site_occupancy
  Ac  Ac0  1  0.513568  0.323383  0.904599  1
  Ac  Ac1  1  0.013585  0.176616  0.595386  1
  Ac  Ac2  1  0.486309  0.676557  0.404552  1
  Ac  Ac3  1  0.986395  0.823496  0.095528  1
  Ac  Ac4  1  0.486366  0.676589  0.095569  1
  Ac  Ac5  1  0.986294  0.823409  0.404563  1
  Ac  Ac6  1  0.513650  0.323432  0.595240  1
  Ac  Ac7  1  0.013704  0.176604  0.904506  1
  Dy  Dy8  1  0.357327  0.838146  0.876045  1
  Ho  Ho9  1  0.857369  0.661616  0.624056  1
  Ho  Ho10  1  0.642785  0.161679  0.375784  1
  Ho  Ho11  1  0.142662  0.338296  0.124413  1
  Ho  Ho12  1  0.642884  0.161690  0.124220  1
  Ho  Ho13  1  0.142774  0.338359  0.375799  1
  Ho  Ho14  1  0.357247  0.838372  0.624109  1
  Ho  Ho15  1  0.857164  0.661782  0.875710  1
  Ho  Ho16  1  0.192404  0.504659  0.749864  1
  Ho  Ho17  1  0.692645  0.995140  0.749908  1
  Ho  Ho18  1  0.807442  0.495177  0.250051  1
  Ho  Ho19  1  0.307515  0.004857  0.250056  1
  Sn  Sn20  1  0.311337  0.045685  0.044703  1
  Sn  Sn21  1  0.811432  0.454750  0.455571  1
  Sn  Sn22  1  0.688579  0.954783  0.544343  1
  Sn  Sn23  1  0.188054  0.544761  0.955784  1
  Sn  Sn24  1  0.689273  0.954861  0.955763  1
  Sn  Sn25  1  0.188553  0.545217  0.544351  1
  Sn  Sn26  1  0.311356  0.045170  0.455591  1
  Sn  Sn27  1  0.811537  0.454835  0.044333  1
  Sn  Sn28  1  0.555381  0.632510  0.749809  1
  Sn  Sn29  1  0.055161  0.867300  0.749852  1
  Sn  Sn30  1  0.444807  0.367289  0.250034  1
  Sn  Sn31  1  0.944747  0.132541  0.250083  1
  Sn  Sn32  1  0.321483  0.135962  0.749800  1
  Sn  Sn33  1  0.821062  0.364438  0.749924  1
  Sn  Sn34  1  0.678562  0.864521  0.250044  1
  Sn  Sn35  1  0.178591  0.635519  0.250054  1
