# generated using pymatgen
data_TbCe5Sm2(AlRu)8
_symmetry_space_group_name_H-M   'P 1'
_cell_length_a   4.02251300
_cell_length_b   7.26810567
_cell_length_c   16.10045324
_cell_angle_alpha   90.37375800
_cell_angle_beta   90.00089005
_cell_angle_gamma   89.99994447
_symmetry_Int_Tables_number   1
_chemical_formula_structural   TbCe5Sm2(AlRu)8
_chemical_formula_sum   'Tb1 Ce5 Sm2 Al8 Ru8'
_cell_volume   470.70363397
_cell_formula_units_Z   1
loop_
 _symmetry_equiv_pos_site_id
 _symmetry_equiv_pos_as_xyz
  1  'x, y, z'
loop_
 _atom_site_type_symbol
 _atom_site_label
 _atom_site_symmetry_multiplicity
 _atom_site_fract_x
 _atom_site_fract_y
 _atom_site_fract_z
 _atom_site_occupancy
  Tb  Tb0  1  0.249997  0.666862  0.938699  1
  Ce  Ce1  1  0.750015  0.821393  0.438005  1
  Ce  Ce2  1  0.750009  0.455909  0.281973  1
  Ce  Ce3  1  0.749992  0.330077  0.061379  1
  Ce  Ce4  1  0.249992  0.043382  0.781030  1
  Ce  Ce5  1  0.249992  0.540909  0.720528  1
  Sm  Sm6  1  0.750009  0.960877  0.218034  1
  Sm  Sm7  1  0.249983  0.161490  0.560812  1
  Al  Al8  1  0.749990  0.491711  0.563797  1
  Al  Al9  1  0.750002  0.371201  0.853157  1
  Al  Al10  1  0.750001  0.996969  0.936932  1
  Al  Al11  1  0.749989  0.865955  0.649123  1
  Al  Al12  1  0.250016  0.488881  0.437618  1
  Al  Al13  1  0.249999  0.994497  0.063380  1
  Al  Al14  1  0.250000  0.636455  0.151302  1
  Al  Al15  1  0.250006  0.125964  0.345873  1
  Ru  Ru16  1  0.749993  0.758447  0.808433  1
  Ru  Ru17  1  0.250011  0.237147  0.937878  1
  Ru  Ru18  1  0.750009  0.268219  0.424817  1
  Ru  Ru19  1  0.250042  0.754395  0.326224  1
  Ru  Ru20  1  0.749993  0.765048  0.065471  1
  Ru  Ru21  1  0.749980  0.258471  0.694165  1
  Ru  Ru22  1  0.249998  0.275651  0.177515  1
  Ru  Ru23  1  0.249979  0.730094  0.563856  1
