# generated using pymatgen
data_Nd5SnGe2O
_symmetry_space_group_name_H-M   'P 1'
_cell_length_a   9.16877231
_cell_length_b   9.16877223
_cell_length_c   9.16877291
_cell_angle_alpha   126.70551406
_cell_angle_beta   126.70550938
_cell_angle_gamma   78.73164833
_symmetry_Int_Tables_number   1
_chemical_formula_structural   Nd5SnGe2O
_chemical_formula_sum   'Nd10 Sn2 Ge4 O2'
_cell_volume   479.46134547
_cell_formula_units_Z   2
loop_
 _symmetry_equiv_pos_site_id
 _symmetry_equiv_pos_as_xyz
  1  'x, y, z'
loop_
 _atom_site_type_symbol
 _atom_site_label
 _atom_site_symmetry_multiplicity
 _atom_site_fract_x
 _atom_site_fract_y
 _atom_site_fract_z
 _atom_site_occupancy
  Nd  Nd0  1  0.491948  0.298082  0.500000  1
  Nd  Nd1  1  0.798082  0.991948  0.500000  1
  Nd  Nd2  1  0.991948  0.491948  0.193865  1
  Nd  Nd3  1  0.298082  0.798082  0.806135  1
  Nd  Nd4  1  0.510282  0.704142  0.500000  1
  Nd  Nd5  1  0.204142  0.010282  0.500000  1
  Nd  Nd6  1  0.010282  0.510282  0.806140  1
  Nd  Nd7  1  0.704142  0.204142  0.193860  1
  Nd  Nd8  1  0.502556  0.502556  0.000000  1
  Nd  Nd9  1  0.002556  0.002556  0.000000  1
  Sn  Sn10  1  0.751705  0.751705  0.000000  1
  Sn  Sn11  1  0.251705  0.251705  0.000000  1
  Ge  Ge12  1  0.141752  0.360014  0.500000  1
  Ge  Ge13  1  0.860014  0.641752  0.500000  1
  Ge  Ge14  1  0.641752  0.141752  0.781737  1
  Ge  Ge15  1  0.360014  0.860014  0.218263  1
  O  O16  1  0.750938  0.250938  0.500000  1
  O  O17  1  0.250938  0.750938  0.500000  1
