# generated using pymatgen
data_Nd2Sm2Y2FeBr10
_symmetry_space_group_name_H-M   'P 1'
_cell_length_a   7.48563053
_cell_length_b   9.24315594
_cell_length_c   9.50622200
_cell_angle_alpha   108.47144163
_cell_angle_beta   96.24869717
_cell_angle_gamma   104.33440461
_symmetry_Int_Tables_number   1
_chemical_formula_structural   Nd2Sm2Y2FeBr10
_chemical_formula_sum   'Nd2 Sm2 Y2 Fe1 Br10'
_cell_volume   591.74933654
_cell_formula_units_Z   1
loop_
 _symmetry_equiv_pos_site_id
 _symmetry_equiv_pos_as_xyz
  1  'x, y, z'
loop_
 _atom_site_type_symbol
 _atom_site_label
 _atom_site_symmetry_multiplicity
 _atom_site_fract_x
 _atom_site_fract_y
 _atom_site_fract_z
 _atom_site_occupancy
  Nd  Nd0  1  0.466317  0.772613  0.583497  1
  Nd  Nd1  1  0.533683  0.227387  0.416503  1
  Sm  Sm2  1  0.370489  0.450495  0.748768  1
  Sm  Sm3  1  0.629511  0.549505  0.251232  1
  Y  Y4  1  0.858145  0.630648  0.676115  1
  Y  Y5  1  0.141855  0.369352  0.323885  1
  Fe  Fe6  1  0.500000  0.500000  0.500000  1
  Br  Br7  1  0.411138  0.133314  0.673347  1
  Br  Br8  1  0.588862  0.866686  0.326653  1
  Br  Br9  1  0.047209  0.676844  0.418419  1
  Br  Br10  1  0.952791  0.323156  0.581581  1
  Br  Br11  1  0.268553  0.747899  0.842227  1
  Br  Br12  1  0.731447  0.252101  0.157773  1
  Br  Br13  1  0.252184  0.417691  0.052867  1
  Br  Br14  1  0.747816  0.582309  0.947133  1
  Br  Br15  1  0.849258  0.942508  0.769465  1
  Br  Br16  1  0.150742  0.057492  0.230535  1
