# generated using pymatgen
data_LaCe3(InRh2)2
_symmetry_space_group_name_H-M   'P 1'
_cell_length_a   7.69370813
_cell_length_b   7.69370813
_cell_length_c   3.77226500
_cell_angle_alpha   90.00000000
_cell_angle_beta   90.00000000
_cell_angle_gamma   89.25378086
_symmetry_Int_Tables_number   1
_chemical_formula_structural   LaCe3(InRh2)2
_chemical_formula_sum   'La1 Ce3 In2 Rh4'
_cell_volume   223.27329068
_cell_formula_units_Z   1
loop_
 _symmetry_equiv_pos_site_id
 _symmetry_equiv_pos_as_xyz
  1  'x, y, z'
loop_
 _atom_site_type_symbol
 _atom_site_label
 _atom_site_symmetry_multiplicity
 _atom_site_fract_x
 _atom_site_fract_y
 _atom_site_fract_z
 _atom_site_occupancy
  La  La0  1  0.329323  0.829323  0.500000  1
  Ce  Ce1  1  0.171175  0.331205  0.500000  1
  Ce  Ce2  1  0.670395  0.170395  0.500000  1
  Ce  Ce3  1  0.831205  0.671175  0.500000  1
  In  In4  1  0.998701  0.003134  0.000000  1
  In  In5  1  0.503134  0.498701  0.000000  1
  Rh  Rh6  1  0.123303  0.623303  0.000000  1
  Rh  Rh7  1  0.647627  0.866967  0.000000  1
  Rh  Rh8  1  0.366967  0.147627  0.000000  1
  Rh  Rh9  1  0.858170  0.358170  0.000000  1
