# generated using pymatgen
data_EuHo(Cu2P)4
_symmetry_space_group_name_H-M   'P 1'
_cell_length_a   7.30823503
_cell_length_b   7.30823469
_cell_length_c   3.82591800
_cell_angle_alpha   90.00000000
_cell_angle_beta   90.00000000
_cell_angle_gamma   89.58667737
_symmetry_Int_Tables_number   1
_chemical_formula_structural   EuHo(Cu2P)4
_chemical_formula_sum   'Eu1 Ho1 Cu8 P4'
_cell_volume   204.33809876
_cell_formula_units_Z   1
loop_
 _symmetry_equiv_pos_site_id
 _symmetry_equiv_pos_as_xyz
  1  'x, y, z'
loop_
 _atom_site_type_symbol
 _atom_site_label
 _atom_site_symmetry_multiplicity
 _atom_site_fract_x
 _atom_site_fract_y
 _atom_site_fract_z
 _atom_site_occupancy
  Eu  Eu0  1  0.500000  0.500000  0.500000  1
  Ho  Ho1  1  0.000000  0.000000  0.000000  1
  Cu  Cu2  1  0.665549  0.917359  0.500000  1
  Cu  Cu3  1  0.160649  0.585666  0.000000  1
  Cu  Cu4  1  0.414334  0.839351  0.000000  1
  Cu  Cu5  1  0.917359  0.665549  0.500000  1
  Cu  Cu6  1  0.839351  0.414334  0.000000  1
  Cu  Cu7  1  0.585666  0.160649  0.000000  1
  Cu  Cu8  1  0.082641  0.334451  0.500000  1
  Cu  Cu9  1  0.334451  0.082641  0.500000  1
  P  P10  1  0.279895  0.279895  0.000000  1
  P  P11  1  0.720105  0.720105  0.000000  1
  P  P12  1  0.788345  0.211655  0.500000  1
  P  P13  1  0.211655  0.788345  0.500000  1
