# generated using pymatgen
data_KFe(Sb4Ir)3
_symmetry_space_group_name_H-M   'P 1'
_cell_length_a   8.11658933
_cell_length_b   8.11658948
_cell_length_c   8.11658839
_cell_angle_alpha   109.39380313
_cell_angle_beta   109.39380974
_cell_angle_gamma   109.39380613
_symmetry_Int_Tables_number   1
_chemical_formula_structural   KFe(Sb4Ir)3
_chemical_formula_sum   'K1 Fe1 Sb12 Ir3'
_cell_volume   412.79776836
_cell_formula_units_Z   1
loop_
 _symmetry_equiv_pos_site_id
 _symmetry_equiv_pos_as_xyz
  1  'x, y, z'
loop_
 _atom_site_type_symbol
 _atom_site_label
 _atom_site_symmetry_multiplicity
 _atom_site_fract_x
 _atom_site_fract_y
 _atom_site_fract_z
 _atom_site_occupancy
  K  K0  1  0.000000  0.000000  0.000000  1
  Fe  Fe1  1  0.500000  0.500000  0.500000  1
  Sb  Sb2  1  0.833674  0.655598  0.503285  1
  Sb  Sb3  1  0.166326  0.344402  0.496715  1
  Sb  Sb4  1  0.155087  0.656436  0.810933  1
  Sb  Sb5  1  0.844913  0.343564  0.189067  1
  Sb  Sb6  1  0.655598  0.503285  0.833674  1
  Sb  Sb7  1  0.344402  0.496715  0.166326  1
  Sb  Sb8  1  0.656436  0.810933  0.155087  1
  Sb  Sb9  1  0.343564  0.189067  0.844913  1
  Sb  Sb10  1  0.503285  0.833674  0.655598  1
  Sb  Sb11  1  0.496715  0.166326  0.344402  1
  Sb  Sb12  1  0.189067  0.844913  0.343564  1
  Sb  Sb13  1  0.810933  0.155087  0.656436  1
  Ir  Ir14  1  0.500000  0.000000  0.000000  1
  Ir  Ir15  1  0.000000  0.500000  0.000000  1
  Ir  Ir16  1  0.000000  0.000000  0.500000  1
