# generated using pymatgen
data_Ho4Er16ZnBi11
_symmetry_space_group_name_H-M   'P 1'
_cell_length_a   8.17054013
_cell_length_b   9.42548700
_cell_length_c   11.95379918
_cell_angle_alpha   90.00000000
_cell_angle_beta   90.32584222
_cell_angle_gamma   90.00000000
_symmetry_Int_Tables_number   1
_chemical_formula_structural   Ho4Er16ZnBi11
_chemical_formula_sum   'Ho4 Er16 Zn1 Bi11'
_cell_volume   920.56296472
_cell_formula_units_Z   1
loop_
 _symmetry_equiv_pos_site_id
 _symmetry_equiv_pos_as_xyz
  1  'x, y, z'
loop_
 _atom_site_type_symbol
 _atom_site_label
 _atom_site_symmetry_multiplicity
 _atom_site_fract_x
 _atom_site_fract_y
 _atom_site_fract_z
 _atom_site_occupancy
  Ho  Ho0  1  0.314497  0.250000  0.218887  1
  Ho  Ho1  1  0.811847  0.250000  0.282150  1
  Ho  Ho2  1  0.674240  0.750000  0.788764  1
  Ho  Ho3  1  0.189045  0.750000  0.720698  1
  Er  Er4  1  0.356103  0.750000  0.205609  1
  Er  Er5  1  0.852733  0.750000  0.284251  1
  Er  Er6  1  0.648404  0.250000  0.784039  1
  Er  Er7  1  0.149997  0.250000  0.716688  1
  Er  Er8  1  0.682898  0.571561  0.054943  1
  Er  Er9  1  0.192517  0.934659  0.439278  1
  Er  Er10  1  0.309640  0.047466  0.940722  1
  Er  Er11  1  0.807298  0.434935  0.559593  1
  Er  Er12  1  0.309640  0.452534  0.940722  1
  Er  Er13  1  0.807298  0.065065  0.559593  1
  Er  Er14  1  0.682898  0.928439  0.054943  1
  Er  Er15  1  0.192517  0.565341  0.439278  1
  Er  Er16  1  0.476248  0.250000  0.489687  1
  Er  Er17  1  0.980372  0.250000  0.010375  1
  Er  Er18  1  0.524287  0.750000  0.510995  1
  Er  Er19  1  0.035446  0.750000  0.990620  1
  Zn  Zn20  1  0.407363  0.750000  0.960965  1
  Bi  Bi21  1  0.905961  0.750000  0.544177  1
  Bi  Bi22  1  0.594751  0.250000  0.042239  1
  Bi  Bi23  1  0.094948  0.250000  0.457751  1
  Bi  Bi24  1  0.564704  0.995745  0.326274  1
  Bi  Bi25  1  0.063714  0.503610  0.175379  1
  Bi  Bi26  1  0.435630  0.496861  0.675160  1
  Bi  Bi27  1  0.935478  0.003306  0.824703  1
  Bi  Bi28  1  0.435630  0.003139  0.675160  1
  Bi  Bi29  1  0.935478  0.496694  0.824703  1
  Bi  Bi30  1  0.564704  0.504255  0.326274  1
  Bi  Bi31  1  0.063714  0.996390  0.175379  1
