# generated using pymatgen
data_Pr5Np2O12
_symmetry_space_group_name_H-M   'P 1'
_cell_length_a   6.78108653
_cell_length_b   6.89819651
_cell_length_c   6.79464976
_cell_angle_alpha   99.86364583
_cell_angle_beta   98.50069604
_cell_angle_gamma   98.65714387
_symmetry_Int_Tables_number   1
_chemical_formula_structural   Pr5Np2O12
_chemical_formula_sum   'Pr5 Np2 O12'
_cell_volume   304.61210904
_cell_formula_units_Z   1
loop_
 _symmetry_equiv_pos_site_id
 _symmetry_equiv_pos_as_xyz
  1  'x, y, z'
loop_
 _atom_site_type_symbol
 _atom_site_label
 _atom_site_symmetry_multiplicity
 _atom_site_fract_x
 _atom_site_fract_y
 _atom_site_fract_z
 _atom_site_occupancy
  Pr  Pr0  1  0.859162  0.696029  0.391916  1
  Pr  Pr1  1  0.393406  0.857319  0.692844  1
  Pr  Pr2  1  0.300178  0.609087  0.137960  1
  Pr  Pr3  1  0.144807  0.306548  0.609138  1
  Pr  Pr4  1  0.606334  0.137495  0.308689  1
  Np  Np5  1  0.697329  0.399529  0.862488  1
  Np  Np6  1  0.996147  0.001868  0.997469  1
  O  O7  1  0.447874  0.181614  0.607372  1
  O  O8  1  0.595051  0.423910  0.154874  1
  O  O9  1  0.175716  0.580758  0.438041  1
  O  O10  1  0.558354  0.819034  0.403361  1
  O  O11  1  0.437294  0.565123  0.822899  1
  O  O12  1  0.808518  0.419575  0.582471  1
  O  O13  1  0.061048  0.311945  0.943192  1
  O  O14  1  0.698556  0.055461  0.932015  1
  O  O15  1  0.051092  0.930292  0.692036  1
  O  O16  1  0.922757  0.684661  0.045050  1
  O  O17  1  0.299316  0.949596  0.068834  1
  O  O18  1  0.947058  0.070157  0.309351  1
