# generated using pymatgen
data_KFeSb12IrRh2
_symmetry_space_group_name_H-M   'P 1'
_cell_length_a   8.10532706
_cell_length_b   8.14324963
_cell_length_c   8.10390166
_cell_angle_alpha   109.54066835
_cell_angle_beta   109.41235875
_cell_angle_gamma   109.53038510
_symmetry_Int_Tables_number   1
_chemical_formula_structural   KFeSb12IrRh2
_chemical_formula_sum   'K1 Fe1 Sb12 Ir1 Rh2'
_cell_volume   411.40129074
_cell_formula_units_Z   1
loop_
 _symmetry_equiv_pos_site_id
 _symmetry_equiv_pos_as_xyz
  1  'x, y, z'
loop_
 _atom_site_type_symbol
 _atom_site_label
 _atom_site_symmetry_multiplicity
 _atom_site_fract_x
 _atom_site_fract_y
 _atom_site_fract_z
 _atom_site_occupancy
  K  K0  1  0.000000  0.000000  0.000000  1
  Fe  Fe1  1  0.000000  0.500000  0.000000  1
  Sb  Sb2  1  0.845481  0.656778  0.500247  1
  Sb  Sb3  1  0.154519  0.343222  0.499753  1
  Sb  Sb4  1  0.152830  0.655382  0.821798  1
  Sb  Sb5  1  0.847170  0.344618  0.178202  1
  Sb  Sb6  1  0.669520  0.502901  0.847984  1
  Sb  Sb7  1  0.330480  0.497099  0.152016  1
  Sb  Sb8  1  0.655758  0.811760  0.155688  1
  Sb  Sb9  1  0.344242  0.188240  0.844312  1
  Sb  Sb10  1  0.500487  0.845293  0.656561  1
  Sb  Sb11  1  0.499513  0.154707  0.343439  1
  Sb  Sb12  1  0.178122  0.833467  0.330891  1
  Sb  Sb13  1  0.821878  0.166533  0.669109  1
  Ir  Ir14  1  0.500000  0.500000  0.500000  1
  Rh  Rh15  1  0.500000  0.000000  0.000000  1
  Rh  Rh16  1  0.000000  0.000000  0.500000  1
