# generated using pymatgen
data_Li(TaPt4)3
_symmetry_space_group_name_H-M   'P 1'
_cell_length_a   5.63800700
_cell_length_b   5.63800700
_cell_length_c   9.12752400
_cell_angle_alpha   90.00000000
_cell_angle_beta   90.00000000
_cell_angle_gamma   120.00000587
_symmetry_Int_Tables_number   1
_chemical_formula_structural   Li(TaPt4)3
_chemical_formula_sum   'Li1 Ta3 Pt12'
_cell_volume   251.26662771
_cell_formula_units_Z   1
loop_
 _symmetry_equiv_pos_site_id
 _symmetry_equiv_pos_as_xyz
  1  'x, y, z'
loop_
 _atom_site_type_symbol
 _atom_site_label
 _atom_site_symmetry_multiplicity
 _atom_site_fract_x
 _atom_site_fract_y
 _atom_site_fract_z
 _atom_site_occupancy
  Li  Li0  1  0.333333  0.666667  0.250000  1
  Ta  Ta1  1  0.000000  0.000000  0.490550  1
  Ta  Ta2  1  0.000000  0.000000  0.009450  1
  Ta  Ta3  1  0.666667  0.333333  0.750000  1
  Pt  Pt4  1  0.501238  0.498762  0.502159  1
  Pt  Pt5  1  0.501238  0.002476  0.502159  1
  Pt  Pt6  1  0.997524  0.498762  0.502159  1
  Pt  Pt7  1  0.501238  0.498762  0.997841  1
  Pt  Pt8  1  0.501238  0.002476  0.997841  1
  Pt  Pt9  1  0.997524  0.498762  0.997841  1
  Pt  Pt10  1  0.832003  0.664007  0.250000  1
  Pt  Pt11  1  0.335993  0.167997  0.250000  1
  Pt  Pt12  1  0.832003  0.167997  0.250000  1
  Pt  Pt13  1  0.166552  0.333103  0.750000  1
  Pt  Pt14  1  0.666897  0.833448  0.750000  1
  Pt  Pt15  1  0.166552  0.833448  0.750000  1
