# generated using pymatgen
data_Dy8Ta9Ti2Si16Os
_symmetry_space_group_name_H-M   'P 1'
_cell_length_a   7.00733189
_cell_length_b   7.01541713
_cell_length_c   12.97895002
_cell_angle_alpha   90.21967683
_cell_angle_beta   90.06873121
_cell_angle_gamma   90.06653104
_symmetry_Int_Tables_number   1
_chemical_formula_structural   Dy8Ta9Ti2Si16Os
_chemical_formula_sum   'Dy8 Ta9 Ti2 Si16 Os1'
_cell_volume   638.03124439
_cell_formula_units_Z   1
loop_
 _symmetry_equiv_pos_site_id
 _symmetry_equiv_pos_as_xyz
  1  'x, y, z'
loop_
 _atom_site_type_symbol
 _atom_site_label
 _atom_site_symmetry_multiplicity
 _atom_site_fract_x
 _atom_site_fract_y
 _atom_site_fract_z
 _atom_site_occupancy
  Dy  Dy0  1  0.000334  0.658393  0.034231  1
  Dy  Dy1  1  0.001778  0.341738  0.530511  1
  Dy  Dy2  1  0.659945  0.998101  0.967374  1
  Dy  Dy3  1  0.159877  0.501823  0.781289  1
  Dy  Dy4  1  0.840218  0.498535  0.282280  1
  Dy  Dy5  1  0.502334  0.158872  0.219677  1
  Dy  Dy6  1  0.497278  0.840155  0.716534  1
  Dy  Dy7  1  0.340760  0.999123  0.467309  1
  Ta  Ta8  1  0.845199  0.993551  0.374309  1
  Ta  Ta9  1  0.011995  0.158470  0.128166  1
  Ta  Ta10  1  0.995768  0.844297  0.624400  1
  Ta  Ta11  1  0.506469  0.345348  0.624012  1
  Ta  Ta12  1  0.154789  0.007370  0.873162  1
  Ta  Ta13  1  0.672396  0.670714  0.500065  1
  Ta  Ta14  1  0.829811  0.170109  0.750313  1
  Ta  Ta15  1  0.170629  0.832679  0.249274  1
  Ta  Ta16  1  0.327926  0.327442  0.001710  1
  Ti  Ti17  1  0.495424  0.654599  0.122568  1
  Ti  Ti18  1  0.656001  0.492175  0.875238  1
  Si  Si19  1  0.047163  0.706714  0.434731  1
  Si  Si20  1  0.955270  0.295272  0.936282  1
  Si  Si21  1  0.707269  0.045300  0.563584  1
  Si  Si22  1  0.210613  0.461546  0.188931  1
  Si  Si23  1  0.793067  0.543782  0.687277  1
  Si  Si24  1  0.456220  0.207473  0.814789  1
  Si  Si25  1  0.539229  0.784354  0.312091  1
  Si  Si26  1  0.294948  0.953704  0.063476  1
  Si  Si27  1  0.793789  0.868256  0.183087  1
  Si  Si28  1  0.298425  0.631108  0.565404  1
  Si  Si29  1  0.701474  0.368686  0.067020  1
  Si  Si30  1  0.625436  0.301801  0.432371  1
  Si  Si31  1  0.368993  0.699866  0.934323  1
  Si  Si32  1  0.132956  0.208343  0.319030  1
  Si  Si33  1  0.202390  0.134226  0.681820  1
  Si  Si34  1  0.866435  0.793795  0.817009  1
  Os  Os35  1  0.337389  0.502283  0.376355  1
