# generated using pymatgen
data_Er8Ti11Si16Mo
_symmetry_space_group_name_H-M   'P 1'
_cell_length_a   7.01560534
_cell_length_b   7.01560534
_cell_length_c   12.88920923
_cell_angle_alpha   89.96453782
_cell_angle_beta   90.03546218
_cell_angle_gamma   89.99822510
_symmetry_Int_Tables_number   1
_chemical_formula_structural   Er8Ti11Si16Mo
_chemical_formula_sum   'Er8 Ti11 Si16 Mo1'
_cell_volume   634.39011433
_cell_formula_units_Z   1
loop_
 _symmetry_equiv_pos_site_id
 _symmetry_equiv_pos_as_xyz
  1  'x, y, z'
loop_
 _atom_site_type_symbol
 _atom_site_label
 _atom_site_symmetry_multiplicity
 _atom_site_fract_x
 _atom_site_fract_y
 _atom_site_fract_z
 _atom_site_occupancy
  Er  Er0  1  0.341131  0.002631  0.466925  1
  Er  Er1  1  0.497542  0.840772  0.717288  1
  Er  Er2  1  0.500986  0.159150  0.215629  1
  Er  Er3  1  0.840772  0.497542  0.282712  1
  Er  Er4  1  0.159150  0.500986  0.784371  1
  Er  Er5  1  0.657413  0.998944  0.967019  1
  Er  Er6  1  0.002631  0.341131  0.533075  1
  Er  Er7  1  0.998944  0.657413  0.032981  1
  Ti  Ti8  1  0.173788  0.827529  0.249591  1
  Ti  Ti9  1  0.827529  0.173788  0.750409  1
  Ti  Ti10  1  0.672933  0.672933  0.500000  1
  Ti  Ti11  1  0.152888  0.008453  0.876016  1
  Ti  Ti12  1  0.492320  0.650855  0.124162  1
  Ti  Ti13  1  0.506813  0.349138  0.625940  1
  Ti  Ti14  1  0.650855  0.492320  0.875838  1
  Ti  Ti15  1  0.349138  0.506813  0.374060  1
  Ti  Ti16  1  0.848690  0.992873  0.375390  1
  Ti  Ti17  1  0.008453  0.152888  0.123984  1
  Ti  Ti18  1  0.992873  0.848690  0.624610  1
  Si  Si19  1  0.202856  0.131356  0.683690  1
  Si  Si20  1  0.369127  0.702064  0.933663  1
  Si  Si21  1  0.631360  0.296834  0.433568  1
  Si  Si22  1  0.702064  0.369127  0.066337  1
  Si  Si23  1  0.296834  0.631360  0.566432  1
  Si  Si24  1  0.796929  0.868624  0.183728  1
  Si  Si25  1  0.131356  0.202856  0.316310  1
  Si  Si26  1  0.868624  0.796929  0.816272  1
  Si  Si27  1  0.291058  0.953471  0.064647  1
  Si  Si28  1  0.546500  0.791749  0.314781  1
  Si  Si29  1  0.452588  0.208297  0.815177  1
  Si  Si30  1  0.791749  0.546500  0.685219  1
  Si  Si31  1  0.208297  0.452588  0.184823  1
  Si  Si32  1  0.708528  0.047134  0.564691  1
  Si  Si33  1  0.953471  0.291058  0.935353  1
  Si  Si34  1  0.047134  0.708528  0.435309  1
  Mo  Mo35  1  0.326678  0.326678  0.000000  1
