# generated using pymatgen
data_Tb2Ho3Bi2Rh
_symmetry_space_group_name_H-M   'P 1'
_cell_length_a   8.02535100
_cell_length_b   9.00293700
_cell_length_c   12.45383800
_cell_angle_alpha   90.00000000
_cell_angle_beta   90.00000000
_cell_angle_gamma   90.00000000
_symmetry_Int_Tables_number   1
_chemical_formula_structural   Tb2Ho3Bi2Rh
_chemical_formula_sum   'Tb8 Ho12 Bi8 Rh4'
_cell_volume   899.81133386
_cell_formula_units_Z   4
loop_
 _symmetry_equiv_pos_site_id
 _symmetry_equiv_pos_as_xyz
  1  'x, y, z'
loop_
 _atom_site_type_symbol
 _atom_site_label
 _atom_site_symmetry_multiplicity
 _atom_site_fract_x
 _atom_site_fract_y
 _atom_site_fract_z
 _atom_site_occupancy
  Tb  Tb0  1  0.343484  0.750000  0.705804  1
  Tb  Tb1  1  0.656516  0.250000  0.294196  1
  Tb  Tb2  1  0.843484  0.250000  0.794196  1
  Tb  Tb3  1  0.156516  0.750000  0.205804  1
  Tb  Tb4  1  0.878174  0.750000  0.806118  1
  Tb  Tb5  1  0.121826  0.250000  0.193882  1
  Tb  Tb6  1  0.378174  0.250000  0.693882  1
  Tb  Tb7  1  0.621826  0.750000  0.306118  1
  Ho  Ho8  1  0.678330  0.541597  0.565166  1
  Ho  Ho9  1  0.321670  0.458403  0.434834  1
  Ho  Ho10  1  0.178330  0.458403  0.934834  1
  Ho  Ho11  1  0.321670  0.041597  0.434834  1
  Ho  Ho12  1  0.821670  0.541597  0.065166  1
  Ho  Ho13  1  0.678330  0.958403  0.565166  1
  Ho  Ho14  1  0.821670  0.958403  0.065166  1
  Ho  Ho15  1  0.178330  0.041597  0.934834  1
  Ho  Ho16  1  0.048262  0.750000  0.498608  1
  Ho  Ho17  1  0.951738  0.250000  0.501392  1
  Ho  Ho18  1  0.548262  0.250000  0.001392  1
  Ho  Ho19  1  0.451738  0.750000  0.998608  1
  Bi  Bi20  1  0.570902  0.509008  0.827682  1
  Bi  Bi21  1  0.429098  0.490992  0.172318  1
  Bi  Bi22  1  0.070902  0.490992  0.672318  1
  Bi  Bi23  1  0.429098  0.009008  0.172318  1
  Bi  Bi24  1  0.929098  0.509008  0.327682  1
  Bi  Bi25  1  0.570902  0.990992  0.827682  1
  Bi  Bi26  1  0.929098  0.990992  0.327682  1
  Bi  Bi27  1  0.070902  0.009008  0.672318  1
  Rh  Rh28  1  0.069805  0.750000  0.990475  1
  Rh  Rh29  1  0.930195  0.250000  0.009525  1
  Rh  Rh30  1  0.569805  0.250000  0.509525  1
  Rh  Rh31  1  0.430195  0.750000  0.490475  1
