# generated using pymatgen
data_LuU(TiPt6)2
_symmetry_space_group_name_H-M   'P 1'
_cell_length_a   5.70346600
_cell_length_b   5.70346561
_cell_length_c   9.35796000
_cell_angle_alpha   90.00000000
_cell_angle_beta   90.00000000
_cell_angle_gamma   120.00000224
_symmetry_Int_Tables_number   1
_chemical_formula_structural   LuU(TiPt6)2
_chemical_formula_sum   'Lu1 U1 Ti2 Pt12'
_cell_volume   263.62675923
_cell_formula_units_Z   1
loop_
 _symmetry_equiv_pos_site_id
 _symmetry_equiv_pos_as_xyz
  1  'x, y, z'
loop_
 _atom_site_type_symbol
 _atom_site_label
 _atom_site_symmetry_multiplicity
 _atom_site_fract_x
 _atom_site_fract_y
 _atom_site_fract_z
 _atom_site_occupancy
  Lu  Lu0  1  0.333333  0.666667  0.246763  1
  U  U1  1  0.000000  0.000000  0.497754  1
  Ti  Ti2  1  0.000000  0.000000  0.002785  1
  Ti  Ti3  1  0.666667  0.333333  0.756616  1
  Pt  Pt4  1  0.502125  0.497875  0.508012  1
  Pt  Pt5  1  0.502125  0.004248  0.508012  1
  Pt  Pt6  1  0.995752  0.497875  0.508012  1
  Pt  Pt7  1  0.503168  0.496832  0.992118  1
  Pt  Pt8  1  0.503168  0.006336  0.992118  1
  Pt  Pt9  1  0.993664  0.496832  0.992118  1
  Pt  Pt10  1  0.832403  0.664808  0.244459  1
  Pt  Pt11  1  0.335192  0.167597  0.244459  1
  Pt  Pt12  1  0.832403  0.167597  0.244459  1
  Pt  Pt13  1  0.166330  0.332659  0.754104  1
  Pt  Pt14  1  0.667341  0.833670  0.754104  1
  Pt  Pt15  1  0.166330  0.833670  0.754104  1
