# generated using pymatgen
data_Y16MgCd3Ni3Os
_symmetry_space_group_name_H-M   'P 1'
_cell_length_a   9.64462832
_cell_length_b   9.64462884
_cell_length_c   9.64462867
_cell_angle_alpha   59.43107656
_cell_angle_beta   59.43106933
_cell_angle_gamma   59.43107824
_symmetry_Int_Tables_number   1
_chemical_formula_structural   Y16MgCd3Ni3Os
_chemical_formula_sum   'Y16 Mg1 Cd3 Ni3 Os1'
_cell_volume   626.15693673
_cell_formula_units_Z   1
loop_
 _symmetry_equiv_pos_site_id
 _symmetry_equiv_pos_as_xyz
  1  'x, y, z'
loop_
 _atom_site_type_symbol
 _atom_site_label
 _atom_site_symmetry_multiplicity
 _atom_site_fract_x
 _atom_site_fract_y
 _atom_site_fract_z
 _atom_site_occupancy
  Y  Y0  1  0.598580  0.598580  0.598580  1
  Y  Y1  1  0.600306  0.600306  0.205046  1
  Y  Y2  1  0.600306  0.205046  0.600306  1
  Y  Y3  1  0.205046  0.600306  0.600306  1
  Y  Y4  1  0.059985  0.438980  0.438980  1
  Y  Y5  1  0.436263  0.061820  0.061820  1
  Y  Y6  1  0.438980  0.059985  0.438980  1
  Y  Y7  1  0.061820  0.436263  0.061820  1
  Y  Y8  1  0.438980  0.438980  0.059985  1
  Y  Y9  1  0.061820  0.061820  0.436263  1
  Y  Y10  1  0.186476  0.816102  0.816102  1
  Y  Y11  1  0.807686  0.189113  0.189113  1
  Y  Y12  1  0.816102  0.186476  0.816102  1
  Y  Y13  1  0.189113  0.807686  0.189113  1
  Y  Y14  1  0.816102  0.816102  0.186476  1
  Y  Y15  1  0.189113  0.189113  0.807686  1
  Mg  Mg16  1  0.825226  0.825226  0.825226  1
  Cd  Cd17  1  0.830066  0.830066  0.505392  1
  Cd  Cd18  1  0.830066  0.505392  0.830066  1
  Cd  Cd19  1  0.505392  0.830066  0.830066  1
  Ni  Ni20  1  0.392204  0.392204  0.825058  1
  Ni  Ni21  1  0.392204  0.825058  0.392204  1
  Ni  Ni22  1  0.825058  0.392204  0.392204  1
  Os  Os23  1  0.393105  0.393105  0.393105  1
