# generated using pymatgen
data_AcTbYb2Cu2Sn5
_symmetry_space_group_name_H-M   'P 1'
_cell_length_a   4.52933700
_cell_length_b   8.97776300
_cell_length_c   14.25474900
_cell_angle_alpha   90.00000000
_cell_angle_beta   90.00000000
_cell_angle_gamma   90.00000000
_symmetry_Int_Tables_number   1
_chemical_formula_structural   AcTbYb2Cu2Sn5
_chemical_formula_sum   'Ac2 Tb2 Yb4 Cu4 Sn10'
_cell_volume   579.64533648
_cell_formula_units_Z   2
loop_
 _symmetry_equiv_pos_site_id
 _symmetry_equiv_pos_as_xyz
  1  'x, y, z'
loop_
 _atom_site_type_symbol
 _atom_site_label
 _atom_site_symmetry_multiplicity
 _atom_site_fract_x
 _atom_site_fract_y
 _atom_site_fract_z
 _atom_site_occupancy
  Ac  Ac0  1  0.500000  0.141756  0.000000  1
  Ac  Ac1  1  0.000000  0.858244  0.500000  1
  Tb  Tb2  1  0.500000  0.693179  0.000000  1
  Tb  Tb3  1  0.000000  0.306821  0.500000  1
  Yb  Yb4  1  0.500000  0.789571  0.743976  1
  Yb  Yb5  1  0.000000  0.210429  0.756024  1
  Yb  Yb6  1  0.000000  0.210429  0.243976  1
  Yb  Yb7  1  0.500000  0.789571  0.256024  1
  Cu  Cu8  1  0.500000  0.377768  0.647226  1
  Cu  Cu9  1  0.000000  0.622232  0.852774  1
  Cu  Cu10  1  0.000000  0.622232  0.147226  1
  Cu  Cu11  1  0.500000  0.377768  0.352774  1
  Sn  Sn12  1  0.500000  0.091746  0.394991  1
  Sn  Sn13  1  0.000000  0.551112  0.665359  1
  Sn  Sn14  1  0.000000  0.423489  0.000000  1
  Sn  Sn15  1  0.500000  0.448888  0.165359  1
  Sn  Sn16  1  0.500000  0.576511  0.500000  1
  Sn  Sn17  1  0.500000  0.448888  0.834641  1
  Sn  Sn18  1  0.000000  0.908254  0.894991  1
  Sn  Sn19  1  0.000000  0.551112  0.334641  1
  Sn  Sn20  1  0.500000  0.091746  0.605009  1
  Sn  Sn21  1  0.000000  0.908254  0.105009  1
