# generated using pymatgen
data_Nd2DyLu5(Si3Rh)4
_symmetry_space_group_name_H-M   'P 1'
_cell_length_a   8.17002074
_cell_length_b   8.16401701
_cell_length_c   7.88667200
_cell_angle_alpha   90.00000000
_cell_angle_beta   90.00000000
_cell_angle_gamma   119.97568098
_symmetry_Int_Tables_number   1
_chemical_formula_structural   Nd2DyLu5(Si3Rh)4
_chemical_formula_sum   'Nd2 Dy1 Lu5 Si12 Rh4'
_cell_volume   455.67777234
_cell_formula_units_Z   1
loop_
 _symmetry_equiv_pos_site_id
 _symmetry_equiv_pos_as_xyz
  1  'x, y, z'
loop_
 _atom_site_type_symbol
 _atom_site_label
 _atom_site_symmetry_multiplicity
 _atom_site_fract_x
 _atom_site_fract_y
 _atom_site_fract_z
 _atom_site_occupancy
  Nd  Nd0  1  0.000205  0.000102  0.250000  1
  Nd  Nd1  1  0.999718  0.999859  0.750000  1
  Dy  Dy2  1  0.018344  0.509171  0.750000  1
  Lu  Lu3  1  0.508675  0.491146  0.250000  1
  Lu  Lu4  1  0.508675  0.017530  0.250000  1
  Lu  Lu5  1  0.982323  0.491162  0.250000  1
  Lu  Lu6  1  0.491695  0.508791  0.750000  1
  Lu  Lu7  1  0.491695  0.982903  0.750000  1
  Si  Si8  1  0.169104  0.831861  0.500339  1
  Si  Si9  1  0.169104  0.337244  0.500339  1
  Si  Si10  1  0.662467  0.831234  0.501365  1
  Si  Si11  1  0.831035  0.168359  0.498113  1
  Si  Si12  1  0.831035  0.662676  0.498113  1
  Si  Si13  1  0.337132  0.168565  0.498354  1
  Si  Si14  1  0.831035  0.168359  0.001887  1
  Si  Si15  1  0.831035  0.662676  0.001887  1
  Si  Si16  1  0.337132  0.168565  0.001646  1
  Si  Si17  1  0.169104  0.831861  0.999661  1
  Si  Si18  1  0.169104  0.337244  0.999661  1
  Si  Si19  1  0.662467  0.831234  0.998635  1
  Rh  Rh20  1  0.333936  0.666969  0.463890  1
  Rh  Rh21  1  0.665521  0.332760  0.533409  1
  Rh  Rh22  1  0.665521  0.332760  0.966591  1
  Rh  Rh23  1  0.333936  0.666969  0.036110  1
