# generated using pymatgen
data_Sr5HgRh2
_symmetry_space_group_name_H-M   'P 1'
_cell_length_a   9.65203104
_cell_length_b   9.65203094
_cell_length_c   9.65203074
_cell_angle_alpha   129.20292639
_cell_angle_beta   129.20292492
_cell_angle_gamma   74.68427866
_symmetry_Int_Tables_number   1
_chemical_formula_structural   Sr5HgRh2
_chemical_formula_sum   'Sr10 Hg2 Rh4'
_cell_volume   526.05945849
_cell_formula_units_Z   2
loop_
 _symmetry_equiv_pos_site_id
 _symmetry_equiv_pos_as_xyz
  1  'x, y, z'
loop_
 _atom_site_type_symbol
 _atom_site_label
 _atom_site_symmetry_multiplicity
 _atom_site_fract_x
 _atom_site_fract_y
 _atom_site_fract_z
 _atom_site_occupancy
  Sr  Sr0  1  0.464203  0.964203  0.167719  1
  Sr  Sr1  1  0.203517  0.703517  0.167719  1
  Sr  Sr2  1  0.535797  0.035797  0.832281  1
  Sr  Sr3  1  0.035797  0.203517  0.500000  1
  Sr  Sr4  1  0.703517  0.535797  0.500000  1
  Sr  Sr5  1  0.964203  0.796483  0.500000  1
  Sr  Sr6  1  0.000000  0.000000  0.000000  1
  Sr  Sr7  1  0.500000  0.500000  0.000000  1
  Sr  Sr8  1  0.796483  0.296483  0.832281  1
  Sr  Sr9  1  0.296483  0.464203  0.500000  1
  Hg  Hg10  1  0.750000  0.750000  0.000000  1
  Hg  Hg11  1  0.250000  0.250000  0.000000  1
  Rh  Rh12  1  0.122138  0.622138  0.744277  1
  Rh  Rh13  1  0.622138  0.877862  0.500000  1
  Rh  Rh14  1  0.377862  0.122138  0.500000  1
  Rh  Rh15  1  0.877862  0.377862  0.255723  1
