# generated using pymatgen
data_Pr2Ho8In8Pd3Ru
_symmetry_space_group_name_H-M   'P 1'
_cell_length_a   3.61738100
_cell_length_b   8.19619381
_cell_length_c   18.43610056
_cell_angle_alpha   90.13314221
_cell_angle_beta   90.00000000
_cell_angle_gamma   90.00000000
_symmetry_Int_Tables_number   1
_chemical_formula_structural   Pr2Ho8In8Pd3Ru
_chemical_formula_sum   'Pr2 Ho8 In8 Pd3 Ru1'
_cell_volume   546.60596689
_cell_formula_units_Z   1
loop_
 _symmetry_equiv_pos_site_id
 _symmetry_equiv_pos_as_xyz
  1  'x, y, z'
loop_
 _atom_site_type_symbol
 _atom_site_label
 _atom_site_symmetry_multiplicity
 _atom_site_fract_x
 _atom_site_fract_y
 _atom_site_fract_z
 _atom_site_occupancy
  Pr  Pr0  1  0.000000  0.498563  0.500052  1
  Pr  Pr1  1  0.000000  0.999945  0.000756  1
  Ho  Ho2  1  0.000000  0.728729  0.278608  1
  Ho  Ho3  1  0.000000  0.260053  0.718001  1
  Ho  Ho4  1  0.000000  0.760420  0.781161  1
  Ho  Ho5  1  0.000000  0.252382  0.219654  1
  Ho  Ho6  1  0.000000  0.620678  0.088192  1
  Ho  Ho7  1  0.000000  0.378824  0.915107  1
  Ho  Ho8  1  0.000000  0.878349  0.584222  1
  Ho  Ho9  1  0.000000  0.123338  0.413876  1
  In  In10  1  0.500000  0.699951  0.930816  1
  In  In11  1  0.500000  0.302263  0.070241  1
  In  In12  1  0.500000  0.801371  0.431476  1
  In  In13  1  0.500000  0.197389  0.567949  1
  In  In14  1  0.500000  0.580742  0.653819  1
  In  In15  1  0.500000  0.425805  0.346721  1
  In  In16  1  0.500000  0.921425  0.154148  1
  In  In17  1  0.500000  0.081031  0.846325  1
  Pd  Pd18  1  0.500000  0.474869  0.804079  1
  Pd  Pd19  1  0.500000  0.974838  0.695365  1
  Pd  Pd20  1  0.500000  0.019939  0.304045  1
  Ru  Ru21  1  0.500000  0.519098  0.195389  1
