# generated using pymatgen
data_Li3BiPtO6
_symmetry_space_group_name_H-M   'P 1'
_cell_length_a   5.57298036
_cell_length_b   5.57277743
_cell_length_c   5.18362477
_cell_angle_alpha   96.02390113
_cell_angle_beta   96.02648179
_cell_angle_gamma   123.14101671
_symmetry_Int_Tables_number   1
_chemical_formula_structural   Li3BiPtO6
_chemical_formula_sum   'Li3 Bi1 Pt1 O6'
_cell_volume   131.48222932
_cell_formula_units_Z   1
loop_
 _symmetry_equiv_pos_site_id
 _symmetry_equiv_pos_as_xyz
  1  'x, y, z'
loop_
 _atom_site_type_symbol
 _atom_site_label
 _atom_site_symmetry_multiplicity
 _atom_site_fract_x
 _atom_site_fract_y
 _atom_site_fract_z
 _atom_site_occupancy
  Li  Li0  1  0.487192  0.512825  0.999996  1
  Li  Li1  1  0.724269  0.275739  0.499991  1
  Li  Li2  1  0.384445  0.615579  0.499995  1
  Bi  Bi3  1  0.149213  0.850781  0.999991  1
  Pt  Pt4  1  0.826037  0.173981  0.000001  1
  O  O5  1  0.195347  0.242114  0.206019  1
  O  O6  1  0.546193  0.916001  0.226755  1
  O  O7  1  0.876199  0.524263  0.221512  1
  O  O8  1  0.475748  0.123801  0.778458  1
  O  O9  1  0.083994  0.453798  0.773248  1
  O  O10  1  0.757852  0.804640  0.793962  1
