# generated using pymatgen
data_Al11Cr2PdRh
_symmetry_space_group_name_H-M   'P 1'
_cell_length_a   5.13809288
_cell_length_b   5.14858378
_cell_length_c   8.95885555
_cell_angle_alpha   74.61200268
_cell_angle_beta   88.33525768
_cell_angle_gamma   79.76268030
_symmetry_Int_Tables_number   1
_chemical_formula_structural   Al11Cr2PdRh
_chemical_formula_sum   'Al11 Cr2 Pd1 Rh1'
_cell_volume   224.82191463
_cell_formula_units_Z   1
loop_
 _symmetry_equiv_pos_site_id
 _symmetry_equiv_pos_as_xyz
  1  'x, y, z'
loop_
 _atom_site_type_symbol
 _atom_site_label
 _atom_site_symmetry_multiplicity
 _atom_site_fract_x
 _atom_site_fract_y
 _atom_site_fract_z
 _atom_site_occupancy
  Al  Al0  1  0.169678  0.285171  0.374508  1
  Al  Al1  1  0.831176  0.707382  0.624263  1
  Al  Al2  1  0.842927  0.472497  0.119818  1
  Al  Al3  1  0.157487  0.535626  0.875574  1
  Al  Al4  1  0.998166  0.999088  0.004366  1
  Al  Al5  1  0.469732  0.111317  0.116565  1
  Al  Al6  1  0.525202  0.890573  0.876778  1
  Al  Al7  1  0.426973  0.334185  0.633906  1
  Al  Al8  1  0.572230  0.673350  0.366563  1
  Al  Al9  1  0.059155  0.819705  0.324213  1
  Al  Al10  1  0.947806  0.164497  0.686859  1
  Cr  Cr11  1  0.331656  0.611982  0.134023  1
  Cr  Cr12  1  0.669904  0.386972  0.866145  1
  Pd  Pd13  1  0.683458  0.153880  0.394028  1
  Rh  Rh14  1  0.314449  0.853776  0.602392  1
