# generated using pymatgen
data_Tb20Fe3NiSb8
_symmetry_space_group_name_H-M   'P 1'
_cell_length_a   7.94702516
_cell_length_b   8.83432000
_cell_length_c   12.27868036
_cell_angle_alpha   90.00000000
_cell_angle_beta   89.91542407
_cell_angle_gamma   90.00000000
_symmetry_Int_Tables_number   1
_chemical_formula_structural   Tb20Fe3NiSb8
_chemical_formula_sum   'Tb20 Fe3 Ni1 Sb8'
_cell_volume   862.04301029
_cell_formula_units_Z   1
loop_
 _symmetry_equiv_pos_site_id
 _symmetry_equiv_pos_as_xyz
  1  'x, y, z'
loop_
 _atom_site_type_symbol
 _atom_site_label
 _atom_site_symmetry_multiplicity
 _atom_site_fract_x
 _atom_site_fract_y
 _atom_site_fract_z
 _atom_site_occupancy
  Tb  Tb0  1  0.153335  0.750000  0.202879  1
  Tb  Tb1  1  0.655247  0.250000  0.296171  1
  Tb  Tb2  1  0.845995  0.250000  0.796092  1
  Tb  Tb3  1  0.342443  0.750000  0.707290  1
  Tb  Tb4  1  0.451645  0.750000  0.997340  1
  Tb  Tb5  1  0.953491  0.250000  0.503049  1
  Tb  Tb6  1  0.549742  0.250000  0.003696  1
  Tb  Tb7  1  0.043325  0.750000  0.496592  1
  Tb  Tb8  1  0.626024  0.750000  0.303703  1
  Tb  Tb9  1  0.121464  0.250000  0.194344  1
  Tb  Tb10  1  0.377766  0.250000  0.693785  1
  Tb  Tb11  1  0.876748  0.750000  0.805065  1
  Tb  Tb12  1  0.823078  0.964761  0.063265  1
  Tb  Tb13  1  0.319984  0.041899  0.435006  1
  Tb  Tb14  1  0.176977  0.466139  0.936623  1
  Tb  Tb15  1  0.678944  0.531190  0.565173  1
  Tb  Tb16  1  0.176977  0.033861  0.936623  1
  Tb  Tb17  1  0.678944  0.968810  0.565173  1
  Tb  Tb18  1  0.823078  0.535239  0.063265  1
  Tb  Tb19  1  0.319984  0.458101  0.435006  1
  Fe  Fe20  1  0.926656  0.250000  0.011798  1
  Fe  Fe21  1  0.571295  0.250000  0.511296  1
  Fe  Fe22  1  0.074381  0.750000  0.986692  1
  Ni  Ni23  1  0.431228  0.750000  0.489004  1
  Sb  Sb24  1  0.928050  0.992446  0.327416  1
  Sb  Sb25  1  0.428221  0.007284  0.173317  1
  Sb  Sb26  1  0.072900  0.492806  0.672373  1
  Sb  Sb27  1  0.571453  0.507361  0.827429  1
  Sb  Sb28  1  0.072900  0.007194  0.672373  1
  Sb  Sb29  1  0.571453  0.992639  0.827429  1
  Sb  Sb30  1  0.928050  0.507554  0.327416  1
  Sb  Sb31  1  0.428221  0.492716  0.173317  1
