# generated using pymatgen
data_Hf6TiNb3(GaSn3)2
_symmetry_space_group_name_H-M   'P 1'
_cell_length_a   8.54083000
_cell_length_b   8.54082935
_cell_length_c   5.72166700
_cell_angle_alpha   90.00000000
_cell_angle_beta   90.00000000
_cell_angle_gamma   120.00000251
_symmetry_Int_Tables_number   1
_chemical_formula_structural   Hf6TiNb3(GaSn3)2
_chemical_formula_sum   'Hf6 Ti1 Nb3 Ga2 Sn6'
_cell_volume   361.45423805
_cell_formula_units_Z   1
loop_
 _symmetry_equiv_pos_site_id
 _symmetry_equiv_pos_as_xyz
  1  'x, y, z'
loop_
 _atom_site_type_symbol
 _atom_site_label
 _atom_site_symmetry_multiplicity
 _atom_site_fract_x
 _atom_site_fract_y
 _atom_site_fract_z
 _atom_site_occupancy
  Hf  Hf0  1  0.730760  0.731265  0.749754  1
  Hf  Hf1  1  0.268735  0.999495  0.749754  1
  Hf  Hf2  1  0.000505  0.269240  0.749754  1
  Hf  Hf3  1  0.268735  0.269240  0.250246  1
  Hf  Hf4  1  0.730760  0.999495  0.250246  1
  Hf  Hf5  1  0.000505  0.731265  0.250246  1
  Ti  Ti6  1  0.666667  0.333333  0.000000  1
  Nb  Nb7  1  0.333333  0.666667  0.000000  1
  Nb  Nb8  1  0.333333  0.666667  0.500000  1
  Nb  Nb9  1  0.666667  0.333333  0.500000  1
  Ga  Ga10  1  0.000000  0.000000  0.000000  1
  Ga  Ga11  1  0.000000  0.000000  0.500000  1
  Sn  Sn12  1  0.391250  0.390297  0.750803  1
  Sn  Sn13  1  0.609703  0.000953  0.750803  1
  Sn  Sn14  1  0.999047  0.608750  0.750803  1
  Sn  Sn15  1  0.609703  0.608750  0.249197  1
  Sn  Sn16  1  0.391250  0.000953  0.249197  1
  Sn  Sn17  1  0.999047  0.390297  0.249197  1
