# generated using pymatgen
data_CeHo5Er2(Si3Rh)4
_symmetry_space_group_name_H-M   'P 1'
_cell_length_a   8.15420801
_cell_length_b   8.15420860
_cell_length_c   7.90133800
_cell_angle_alpha   90.00000000
_cell_angle_beta   90.00000000
_cell_angle_gamma   120.00691105
_symmetry_Int_Tables_number   1
_chemical_formula_structural   CeHo5Er2(Si3Rh)4
_chemical_formula_sum   'Ce1 Ho5 Er2 Si12 Rh4'
_cell_volume   454.95100300
_cell_formula_units_Z   1
loop_
 _symmetry_equiv_pos_site_id
 _symmetry_equiv_pos_as_xyz
  1  'x, y, z'
loop_
 _atom_site_type_symbol
 _atom_site_label
 _atom_site_symmetry_multiplicity
 _atom_site_fract_x
 _atom_site_fract_y
 _atom_site_fract_z
 _atom_site_occupancy
  Ce  Ce0  1  0.999992  0.000008  0.250000  1
  Ho  Ho1  1  0.000012  0.999988  0.750000  1
  Ho  Ho2  1  0.492022  0.507978  0.250000  1
  Ho  Ho3  1  0.492007  0.984017  0.250000  1
  Ho  Ho4  1  0.015983  0.507993  0.250000  1
  Ho  Ho5  1  0.508974  0.491026  0.750000  1
  Er  Er6  1  0.981911  0.490892  0.750000  1
  Er  Er7  1  0.509108  0.018089  0.750000  1
  Si  Si8  1  0.833120  0.166880  0.502104  1
  Si  Si9  1  0.833304  0.666318  0.501910  1
  Si  Si10  1  0.333682  0.166696  0.501910  1
  Si  Si11  1  0.833120  0.166880  0.997896  1
  Si  Si12  1  0.833304  0.666318  0.998090  1
  Si  Si13  1  0.333682  0.166696  0.998090  1
  Si  Si14  1  0.167576  0.832424  0.999969  1
  Si  Si15  1  0.664933  0.832516  0.000033  1
  Si  Si16  1  0.167484  0.335067  0.000033  1
  Si  Si17  1  0.167576  0.832424  0.500031  1
  Si  Si18  1  0.664933  0.832516  0.499967  1
  Si  Si19  1  0.167484  0.335067  0.499967  1
  Rh  Rh20  1  0.666821  0.333179  0.470177  1
  Rh  Rh21  1  0.666821  0.333179  0.029823  1
  Rh  Rh22  1  0.333075  0.666925  0.962611  1
  Rh  Rh23  1  0.333075  0.666925  0.537389  1
