# generated using pymatgen
data_Sc6Al24Ru5Pt3
_symmetry_space_group_name_H-M   'P 1'
_cell_length_a   8.72771202
_cell_length_b   8.69879145
_cell_length_c   9.41992721
_cell_angle_alpha   89.82083687
_cell_angle_beta   90.00709819
_cell_angle_gamma   119.91070224
_symmetry_Int_Tables_number   1
_chemical_formula_structural   Sc6Al24Ru5Pt3
_chemical_formula_sum   'Sc6 Al24 Ru5 Pt3'
_cell_volume   619.90461937
_cell_formula_units_Z   1
loop_
 _symmetry_equiv_pos_site_id
 _symmetry_equiv_pos_as_xyz
  1  'x, y, z'
loop_
 _atom_site_type_symbol
 _atom_site_label
 _atom_site_symmetry_multiplicity
 _atom_site_fract_x
 _atom_site_fract_y
 _atom_site_fract_z
 _atom_site_occupancy
  Sc  Sc0  1  0.190849  0.804670  0.249977  1
  Sc  Sc1  1  0.188208  0.384901  0.248435  1
  Sc  Sc2  1  0.617093  0.810606  0.249928  1
  Sc  Sc3  1  0.809151  0.195330  0.750023  1
  Sc  Sc4  1  0.811792  0.615099  0.751565  1
  Sc  Sc5  1  0.382907  0.189394  0.750072  1
  Al  Al6  1  0.562408  0.438358  0.250287  1
  Al  Al7  1  0.560823  0.121525  0.246916  1
  Al  Al8  1  0.881667  0.441025  0.250438  1
  Al  Al9  1  0.437592  0.561642  0.749713  1
  Al  Al10  1  0.439177  0.878475  0.753084  1
  Al  Al11  1  0.118333  0.558975  0.749562  1
  Al  Al12  1  0.323206  0.162151  0.419170  1
  Al  Al13  1  0.841501  0.167861  0.420467  1
  Al  Al14  1  0.841595  0.674483  0.420831  1
  Al  Al15  1  0.676794  0.837849  0.580830  1
  Al  Al16  1  0.158499  0.832139  0.579533  1
  Al  Al17  1  0.158405  0.325517  0.579169  1
  Al  Al18  1  0.675277  0.842725  0.921379  1
  Al  Al19  1  0.164427  0.836782  0.921701  1
  Al  Al20  1  0.158804  0.326348  0.922049  1
  Al  Al21  1  0.324723  0.157275  0.078621  1
  Al  Al22  1  0.835573  0.163218  0.078299  1
  Al  Al23  1  0.841196  0.673652  0.077951  1
  Al  Al24  1  0.672233  0.336335  0.542807  1
  Al  Al25  1  0.327767  0.663665  0.457193  1
  Al  Al26  1  0.330693  0.669348  0.042076  1
  Al  Al27  1  0.669307  0.330652  0.957924  1
  Al  Al28  1  0.998264  0.999893  0.249811  1
  Al  Al29  1  0.001736  0.000107  0.750189  1
  Ru  Ru30  1  0.000000  0.000000  0.500000  1
  Ru  Ru31  1  0.000000  0.000000  0.000000  1
  Ru  Ru32  1  0.000000  0.500000  0.500000  1
  Ru  Ru33  1  0.500000  0.000000  0.000000  1
  Ru  Ru34  1  0.000000  0.500000  0.000000  1
  Pt  Pt35  1  0.500000  0.500000  0.500000  1
  Pt  Pt36  1  0.500000  0.000000  0.500000  1
  Pt  Pt37  1  0.500000  0.500000  0.000000  1
