# generated using pymatgen
data_Tm4Al6ReTc
_symmetry_space_group_name_H-M   'P 1'
_cell_length_a   5.46242800
_cell_length_b   5.46242764
_cell_length_c   8.91132700
_cell_angle_alpha   90.00000000
_cell_angle_beta   90.00000000
_cell_angle_gamma   120.00000217
_symmetry_Int_Tables_number   1
_chemical_formula_structural   Tm4Al6ReTc
_chemical_formula_sum   'Tm4 Al6 Re1 Tc1'
_cell_volume   230.27374560
_cell_formula_units_Z   1
loop_
 _symmetry_equiv_pos_site_id
 _symmetry_equiv_pos_as_xyz
  1  'x, y, z'
loop_
 _atom_site_type_symbol
 _atom_site_label
 _atom_site_symmetry_multiplicity
 _atom_site_fract_x
 _atom_site_fract_y
 _atom_site_fract_z
 _atom_site_occupancy
  Tm  Tm0  1  0.666667  0.333334  0.051127  1
  Tm  Tm1  1  0.666667  0.333334  0.448906  1
  Tm  Tm2  1  0.333334  0.666668  0.551094  1
  Tm  Tm3  1  0.333334  0.666668  0.948873  1
  Al  Al4  1  0.162831  0.325664  0.250019  1
  Al  Al5  1  0.162832  0.837169  0.250019  1
  Al  Al6  1  0.674336  0.837169  0.250019  1
  Al  Al7  1  0.325665  0.162832  0.749981  1
  Al  Al8  1  0.837170  0.162832  0.749981  1
  Al  Al9  1  0.837168  0.674336  0.749981  1
  Re  Re10  1  0.000000  0.000000  0.500000  1
  Tc  Tc11  1  0.000000  0.000000  0.000000  1
