# generated using pymatgen
data_Hf5TiFeBr15
_symmetry_space_group_name_H-M   'P 1'
_cell_length_a   9.60720266
_cell_length_b   9.60724291
_cell_length_c   9.60720212
_cell_angle_alpha   112.35859490
_cell_angle_beta   103.83945898
_cell_angle_gamma   112.35859519
_symmetry_Int_Tables_number   1
_chemical_formula_structural   Hf5TiFeBr15
_chemical_formula_sum   'Hf5 Ti1 Fe1 Br15'
_cell_volume   677.72291686
_cell_formula_units_Z   1
loop_
 _symmetry_equiv_pos_site_id
 _symmetry_equiv_pos_as_xyz
  1  'x, y, z'
loop_
 _atom_site_type_symbol
 _atom_site_label
 _atom_site_symmetry_multiplicity
 _atom_site_fract_x
 _atom_site_fract_y
 _atom_site_fract_z
 _atom_site_occupancy
  Hf  Hf0  1  0.230214  0.234058  0.996155  1
  Hf  Hf1  1  0.791262  0.000003  0.791262  1
  Hf  Hf2  1  0.996155  0.234058  0.230214  1
  Hf  Hf3  1  0.996150  0.765942  0.762088  1
  Hf  Hf4  1  0.762088  0.765942  0.996150  1
  Ti  Ti5  1  0.178815  0.999996  0.178815  1
  Fe  Fe6  1  0.999338  0.000016  0.999338  1
  Br  Br7  1  0.982763  0.761723  0.221034  1
  Br  Br8  1  0.221034  0.761723  0.982763  1
  Br  Br9  1  0.521245  0.747334  0.773906  1
  Br  Br10  1  0.026577  0.252662  0.773914  1
  Br  Br11  1  0.745391  0.000003  0.248451  1
  Br  Br12  1  0.248444  0.503052  0.248444  1
  Br  Br13  1  0.773914  0.252662  0.026577  1
  Br  Br14  1  0.503654  0.500000  0.003655  1
  Br  Br15  1  0.221046  0.238271  0.459315  1
  Br  Br16  1  0.745390  0.496944  0.745390  1
  Br  Br17  1  0.773906  0.747334  0.521245  1
  Br  Br18  1  0.459315  0.238271  0.221046  1
  Br  Br19  1  0.248451  0.000003  0.745391  1
  Br  Br20  1  0.003655  0.500000  0.503654  1
  Br  Br21  1  0.571192  0.000000  0.571192  1
