# generated using pymatgen
data_Ta3Nb3B4(Os2Ru3)2
_symmetry_space_group_name_H-M   'P 1'
_cell_length_a   9.48380730
_cell_length_b   9.56141731
_cell_length_c   3.01556200
_cell_angle_alpha   90.00000000
_cell_angle_beta   90.00000000
_cell_angle_gamma   90.02908517
_symmetry_Int_Tables_number   1
_chemical_formula_structural   Ta3Nb3B4(Os2Ru3)2
_chemical_formula_sum   'Ta3 Nb3 B4 Os4 Ru6'
_cell_volume   273.44702370
_cell_formula_units_Z   1
loop_
 _symmetry_equiv_pos_site_id
 _symmetry_equiv_pos_as_xyz
  1  'x, y, z'
loop_
 _atom_site_type_symbol
 _atom_site_label
 _atom_site_symmetry_multiplicity
 _atom_site_fract_x
 _atom_site_fract_y
 _atom_site_fract_z
 _atom_site_occupancy
  Ta  Ta0  1  0.676350  0.176845  0.000000  1
  Ta  Ta1  1  0.500047  0.499938  0.000000  1
  Ta  Ta2  1  0.999935  0.000073  0.000000  1
  Nb  Nb3  1  0.823783  0.676671  0.000000  1
  Nb  Nb4  1  0.176161  0.323297  0.000000  1
  Nb  Nb5  1  0.323838  0.823346  0.000000  1
  B  B6  1  0.620922  0.878920  0.000000  1
  B  B7  1  0.379104  0.121072  0.000000  1
  B  B8  1  0.120883  0.621094  0.000000  1
  B  B9  1  0.879049  0.378891  0.000000  1
  Os  Os10  1  0.571554  0.719946  0.500000  1
  Os  Os11  1  0.428848  0.280186  0.500000  1
  Os  Os12  1  0.071483  0.780119  0.500000  1
  Os  Os13  1  0.928172  0.219523  0.500000  1
  Ru  Ru14  1  0.281662  0.570584  0.500000  1
  Ru  Ru15  1  0.718076  0.429220  0.500000  1
  Ru  Ru16  1  0.218497  0.070679  0.500000  1
  Ru  Ru17  1  0.781623  0.929647  0.500000  1
  Ru  Ru18  1  0.500116  0.000077  0.500000  1
  Ru  Ru19  1  0.999895  0.499874  0.500000  1
