# generated using pymatgen
data_AcLa8Pr3(Si7Br3)2
_symmetry_space_group_name_H-M   'P 1'
_cell_length_a   4.14609500
_cell_length_b   11.97899891
_cell_length_c   16.86095794
_cell_angle_alpha   89.83800277
_cell_angle_beta   90.00000000
_cell_angle_gamma   90.00000000
_symmetry_Int_Tables_number   1
_chemical_formula_structural   AcLa8Pr3(Si7Br3)2
_chemical_formula_sum   'Ac1 La8 Pr3 Si14 Br6'
_cell_volume   837.41412740
_cell_formula_units_Z   1
loop_
 _symmetry_equiv_pos_site_id
 _symmetry_equiv_pos_as_xyz
  1  'x, y, z'
loop_
 _atom_site_type_symbol
 _atom_site_label
 _atom_site_symmetry_multiplicity
 _atom_site_fract_x
 _atom_site_fract_y
 _atom_site_fract_z
 _atom_site_occupancy
  Ac  Ac0  1  0.500000  0.336652  0.500672  1
  La  La1  1  0.000000  0.658736  0.998492  1
  La  La2  1  0.500000  0.359229  0.756758  1
  La  La3  1  0.500000  0.359817  0.243075  1
  La  La4  1  0.000000  0.642700  0.254664  1
  La  La5  1  0.500000  0.066477  0.880447  1
  La  La6  1  0.000000  0.930715  0.621230  1
  La  La7  1  0.500000  0.067737  0.119312  1
  La  La8  1  0.000000  0.931477  0.380425  1
  Pr  Pr9  1  0.000000  0.639891  0.743823  1
  Pr  Pr10  1  0.500000  0.358172  0.999177  1
  Pr  Pr11  1  0.000000  0.642667  0.500575  1
  Si  Si12  1  0.000000  0.154674  0.999722  1
  Si  Si13  1  0.500000  0.844744  0.500961  1
  Si  Si14  1  0.500000  0.565141  0.876875  1
  Si  Si15  1  0.000000  0.438376  0.625431  1
  Si  Si16  1  0.500000  0.563989  0.120886  1
  Si  Si17  1  0.000000  0.438951  0.375610  1
  Si  Si18  1  0.000000  0.255629  0.875321  1
  Si  Si19  1  0.500000  0.744526  0.626297  1
  Si  Si20  1  0.000000  0.256336  0.123902  1
  Si  Si21  1  0.500000  0.745068  0.375600  1
  Si  Si22  1  0.000000  0.458501  0.876492  1
  Si  Si23  1  0.500000  0.543911  0.624506  1
  Si  Si24  1  0.500000  0.544530  0.375200  1
  Si  Si25  1  0.000000  0.458253  0.122627  1
  Br  Br26  1  0.500000  0.108513  0.692240  1
  Br  Br27  1  0.000000  0.890135  0.808239  1
  Br  Br28  1  0.000000  0.129976  0.500503  1
  Br  Br29  1  0.500000  0.862489  0.000581  1
  Br  Br30  1  0.500000  0.108556  0.308148  1
  Br  Br31  1  0.000000  0.893431  0.192207  1
