# generated using pymatgen
data_Cs2Cu3HgF12
_symmetry_space_group_name_H-M   'P 1'
_cell_length_a   7.50125783
_cell_length_b   7.50872563
_cell_length_c   7.50786887
_cell_angle_alpha   120.01560989
_cell_angle_beta   119.98440154
_cell_angle_gamma   59.94794182
_symmetry_Int_Tables_number   1
_chemical_formula_structural   Cs2Cu3HgF12
_chemical_formula_sum   'Cs2 Cu3 Hg1 F12'
_cell_volume   298.90332884
_cell_formula_units_Z   1
loop_
 _symmetry_equiv_pos_site_id
 _symmetry_equiv_pos_as_xyz
  1  'x, y, z'
loop_
 _atom_site_type_symbol
 _atom_site_label
 _atom_site_symmetry_multiplicity
 _atom_site_fract_x
 _atom_site_fract_y
 _atom_site_fract_z
 _atom_site_occupancy
  Cs  Cs0  1  0.116126  0.116114  0.348170  1
  Cs  Cs1  1  0.883875  0.883886  0.651830  1
  Cu  Cu2  1  0.000000  0.500000  0.000000  1
  Cu  Cu3  1  0.500000  0.500000  0.000000  1
  Cu  Cu4  1  0.500000  0.000000  0.000000  1
  Hg  Hg5  1  0.500001  0.500000  0.500001  1
  F  F6  1  0.797217  0.423144  0.017518  1
  F  F7  1  0.796990  0.796927  0.017304  1
  F  F8  1  0.414482  0.802011  0.018644  1
  F  F9  1  0.595441  0.124401  0.313872  1
  F  F10  1  0.595286  0.593813  0.313374  1
  F  F11  1  0.124560  0.594703  0.313969  1
  F  F12  1  0.404713  0.406187  0.686624  1
  F  F13  1  0.875437  0.405298  0.686029  1
  F  F14  1  0.404558  0.875599  0.686126  1
  F  F15  1  0.203010  0.203072  0.982696  1
  F  F16  1  0.585519  0.197989  0.981356  1
  F  F17  1  0.202783  0.576857  0.982482  1
