# generated using pymatgen
data_Lu3Ga2Sn
_symmetry_space_group_name_H-M   'P 1'
_cell_length_a   6.24504500
_cell_length_b   9.14195400
_cell_length_c   9.75878800
_cell_angle_alpha   90.00000000
_cell_angle_beta   90.00000000
_cell_angle_gamma   90.00000000
_symmetry_Int_Tables_number   1
_chemical_formula_structural   Lu3Ga2Sn
_chemical_formula_sum   'Lu12 Ga8 Sn4'
_cell_volume   557.14788639
_cell_formula_units_Z   4
loop_
 _symmetry_equiv_pos_site_id
 _symmetry_equiv_pos_as_xyz
  1  'x, y, z'
loop_
 _atom_site_type_symbol
 _atom_site_label
 _atom_site_symmetry_multiplicity
 _atom_site_fract_x
 _atom_site_fract_y
 _atom_site_fract_z
 _atom_site_occupancy
  Lu  Lu0  1  0.000000  0.750000  0.124306  1
  Lu  Lu1  1  0.500000  0.250000  0.875694  1
  Lu  Lu2  1  0.000000  0.250000  0.875694  1
  Lu  Lu3  1  0.500000  0.750000  0.124306  1
  Lu  Lu4  1  0.750000  0.479844  0.609296  1
  Lu  Lu5  1  0.250000  0.520156  0.390704  1
  Lu  Lu6  1  0.750000  0.979844  0.390704  1
  Lu  Lu7  1  0.250000  0.020156  0.609296  1
  Lu  Lu8  1  0.750000  0.367135  0.208126  1
  Lu  Lu9  1  0.250000  0.632865  0.791874  1
  Lu  Lu10  1  0.750000  0.867135  0.791874  1
  Lu  Lu11  1  0.250000  0.132865  0.208126  1
  Ga  Ga12  1  0.000000  0.750000  0.548853  1
  Ga  Ga13  1  0.500000  0.250000  0.451147  1
  Ga  Ga14  1  0.000000  0.250000  0.451147  1
  Ga  Ga15  1  0.500000  0.750000  0.548853  1
  Ga  Ga16  1  0.750000  0.142185  0.646413  1
  Ga  Ga17  1  0.250000  0.857815  0.353587  1
  Ga  Ga18  1  0.750000  0.642185  0.353587  1
  Ga  Ga19  1  0.250000  0.357815  0.646413  1
  Sn  Sn20  1  0.750000  0.054651  0.087153  1
  Sn  Sn21  1  0.250000  0.945349  0.912847  1
  Sn  Sn22  1  0.750000  0.554651  0.912847  1
  Sn  Sn23  1  0.250000  0.445349  0.087153  1
