# generated using pymatgen
data_Ac7NdSe12
_symmetry_space_group_name_H-M   'P 1'
_cell_length_a   4.45580100
_cell_length_b   8.16788707
_cell_length_c   16.98607512
_cell_angle_alpha   90.22679002
_cell_angle_beta   90.00000000
_cell_angle_gamma   90.00000000
_symmetry_Int_Tables_number   1
_chemical_formula_structural   Ac7NdSe12
_chemical_formula_sum   'Ac7 Nd1 Se12'
_cell_volume   618.19451753
_cell_formula_units_Z   1
loop_
 _symmetry_equiv_pos_site_id
 _symmetry_equiv_pos_as_xyz
  1  'x, y, z'
loop_
 _atom_site_type_symbol
 _atom_site_label
 _atom_site_symmetry_multiplicity
 _atom_site_fract_x
 _atom_site_fract_y
 _atom_site_fract_z
 _atom_site_occupancy
  Ac  Ac0  1  0.499999  0.728870  0.042507  1
  Ac  Ac1  1  0.000000  0.145718  0.199076  1
  Ac  Ac2  1  0.000000  0.643839  0.294561  1
  Ac  Ac3  1  0.499999  0.233176  0.455980  1
  Ac  Ac4  1  0.000000  0.766554  0.544066  1
  Ac  Ac5  1  0.499999  0.357177  0.706400  1
  Ac  Ac6  1  0.499999  0.859852  0.797258  1
  Nd  Nd7  1  0.000000  0.263005  0.956163  1
  Se  Se8  1  0.499999  0.131486  0.061134  1
  Se  Se9  1  0.000000  0.502921  0.107546  1
  Se  Se10  1  0.499999  0.856341  0.217745  1
  Se  Se11  1  0.499999  0.353509  0.279503  1
  Se  Se12  1  0.000000  0.005849  0.389383  1
  Se  Se13  1  0.499999  0.627402  0.433010  1
  Se  Se14  1  0.000000  0.373034  0.567585  1
  Se  Se15  1  0.499999  0.994181  0.612179  1
  Se  Se16  1  0.000000  0.647060  0.721573  1
  Se  Se17  1  0.000000  0.151246  0.785358  1
  Se  Se18  1  0.499999  0.479372  0.894391  1
  Se  Se19  1  0.000000  0.879394  0.934580  1
