# generated using pymatgen
data_LaPr2Nd(Al3Ir)6
_symmetry_space_group_name_H-M   'P 1'
_cell_length_a   7.63693208
_cell_length_b   7.64223500
_cell_length_c   9.65044600
_cell_angle_alpha   90.00000000
_cell_angle_beta   90.00000000
_cell_angle_gamma   119.29701089
_symmetry_Int_Tables_number   1
_chemical_formula_structural   LaPr2Nd(Al3Ir)6
_chemical_formula_sum   'La1 Pr2 Nd1 Al18 Ir6'
_cell_volume   491.19099869
_cell_formula_units_Z   1
loop_
 _symmetry_equiv_pos_site_id
 _symmetry_equiv_pos_as_xyz
  1  'x, y, z'
loop_
 _atom_site_type_symbol
 _atom_site_label
 _atom_site_symmetry_multiplicity
 _atom_site_fract_x
 _atom_site_fract_y
 _atom_site_fract_z
 _atom_site_occupancy
  La  La0  1  0.994706  0.670912  0.250000  1
  Pr  Pr1  1  0.005386  0.329336  0.750000  1
  Pr  Pr2  1  0.671266  0.994416  0.250000  1
  Nd  Nd3  1  0.328124  0.004685  0.750000  1
  Al  Al4  1  0.132425  0.133613  0.250000  1
  Al  Al5  1  0.868684  0.869254  0.750000  1
  Al  Al6  1  0.002798  0.334550  0.071544  1
  Al  Al7  1  0.997165  0.664577  0.925846  1
  Al  Al8  1  0.997165  0.664577  0.574154  1
  Al  Al9  1  0.336519  0.003647  0.428680  1
  Al  Al10  1  0.002798  0.334550  0.428456  1
  Al  Al11  1  0.664313  0.997837  0.572752  1
  Al  Al12  1  0.664313  0.997837  0.927248  1
  Al  Al13  1  0.336519  0.003647  0.071320  1
  Al  Al14  1  0.333917  0.333748  0.546581  1
  Al  Al15  1  0.665264  0.665902  0.456515  1
  Al  Al16  1  0.665264  0.665902  0.043485  1
  Al  Al17  1  0.333917  0.333748  0.953419  1
  Al  Al18  1  0.341841  0.546241  0.250000  1
  Al  Al19  1  0.659738  0.452580  0.750000  1
  Al  Al20  1  0.544342  0.337397  0.250000  1
  Al  Al21  1  0.453652  0.661031  0.750000  1
  Ir  Ir22  1  0.670649  0.328882  0.999626  1
  Ir  Ir23  1  0.328976  0.670978  0.999533  1
  Ir  Ir24  1  0.328976  0.670978  0.500467  1
  Ir  Ir25  1  0.670649  0.328882  0.500374  1
  Ir  Ir26  1  0.000318  0.000147  0.999615  1
  Ir  Ir27  1  0.000318  0.000147  0.500385  1
