# generated using pymatgen
data_Li4In8IrPd3
_symmetry_space_group_name_H-M   'P 1'
_cell_length_a   6.71518909
_cell_length_b   4.62899400
_cell_length_c   9.21872112
_cell_angle_alpha   90.00000000
_cell_angle_beta   89.99965914
_cell_angle_gamma   90.00000000
_symmetry_Int_Tables_number   1
_chemical_formula_structural   Li4In8IrPd3
_chemical_formula_sum   'Li4 In8 Ir1 Pd3'
_cell_volume   286.55998189
_cell_formula_units_Z   1
loop_
 _symmetry_equiv_pos_site_id
 _symmetry_equiv_pos_as_xyz
  1  'x, y, z'
loop_
 _atom_site_type_symbol
 _atom_site_label
 _atom_site_symmetry_multiplicity
 _atom_site_fract_x
 _atom_site_fract_y
 _atom_site_fract_z
 _atom_site_occupancy
  Li  Li0  1  0.250202  0.250000  0.120467  1
  Li  Li1  1  0.750345  0.750001  0.377048  1
  Li  Li2  1  0.249743  0.250000  0.624913  1
  Li  Li3  1  0.749638  0.750001  0.877134  1
  In  In4  1  0.000518  0.750001  0.123006  1
  In  In5  1  0.499508  0.750001  0.123296  1
  In  In6  1  0.004643  0.250000  0.373747  1
  In  In7  1  0.495746  0.250000  0.373876  1
  In  In8  1  0.499711  0.750001  0.629063  1
  In  In9  1  0.000365  0.750001  0.629159  1
  In  In10  1  0.495927  0.250000  0.874019  1
  In  In11  1  0.003936  0.250000  0.874372  1
  Ir  Ir12  1  0.249963  0.750001  0.876286  1
  Pd  Pd13  1  0.749856  0.250000  0.127139  1
  Pd  Pd14  1  0.249770  0.750001  0.376658  1
  Pd  Pd15  1  0.750130  0.250000  0.619816  1
