# generated using pymatgen
data_Ti12V8Si15As
_symmetry_space_group_name_H-M   'P 1'
_cell_length_a   6.55359348
_cell_length_b   6.55072834
_cell_length_c   12.06979659
_cell_angle_alpha   90.01699509
_cell_angle_beta   90.15782740
_cell_angle_gamma   89.96725745
_symmetry_Int_Tables_number   1
_chemical_formula_structural   Ti12V8Si15As
_chemical_formula_sum   'Ti12 V8 Si15 As1'
_cell_volume   518.16407734
_cell_formula_units_Z   1
loop_
 _symmetry_equiv_pos_site_id
 _symmetry_equiv_pos_as_xyz
  1  'x, y, z'
loop_
 _atom_site_type_symbol
 _atom_site_label
 _atom_site_symmetry_multiplicity
 _atom_site_fract_x
 _atom_site_fract_y
 _atom_site_fract_z
 _atom_site_occupancy
  Ti  Ti0  1  0.004646  0.339906  0.220411  1
  Ti  Ti1  1  0.159942  0.504589  0.470186  1
  Ti  Ti2  1  0.835816  0.498385  0.972894  1
  Ti  Ti3  1  0.506176  0.158845  0.528510  1
  Ti  Ti4  1  0.495910  0.839047  0.029850  1
  Ti  Ti5  1  0.995954  0.662336  0.719959  1
  Ti  Ti6  1  0.340762  0.003371  0.778670  1
  Ti  Ti7  1  0.660265  0.995604  0.279868  1
  Ti  Ti8  1  0.165698  0.165326  0.001063  1
  Ti  Ti9  1  0.334264  0.665550  0.250116  1
  Ti  Ti10  1  0.663684  0.333713  0.749847  1
  Ti  Ti11  1  0.834575  0.834381  0.499809  1
  V  V12  1  0.995348  0.155579  0.621046  1
  V  V13  1  0.345090  0.494095  0.871171  1
  V  V14  1  0.655956  0.505915  0.371503  1
  V  V15  1  0.493948  0.344202  0.128554  1
  V  V16  1  0.507081  0.657102  0.628262  1
  V  V17  1  0.005933  0.844111  0.121709  1
  V  V18  1  0.155720  0.994206  0.378360  1
  V  V19  1  0.842000  0.002833  0.879779  1
  Si  Si20  1  0.202142  0.541712  0.062799  1
  Si  Si21  1  0.797664  0.458400  0.561900  1
  Si  Si22  1  0.541000  0.201279  0.938236  1
  Si  Si23  1  0.458339  0.797447  0.437331  1
  Si  Si24  1  0.958534  0.702230  0.312321  1
  Si  Si25  1  0.298126  0.041412  0.187994  1
  Si  Si26  1  0.702539  0.958146  0.687410  1
  Si  Si27  1  0.296320  0.368184  0.667532  1
  Si  Si28  1  0.133167  0.791586  0.923002  1
  Si  Si29  1  0.867944  0.209220  0.422033  1
  Si  Si30  1  0.790326  0.132012  0.078594  1
  Si  Si31  1  0.209566  0.867702  0.577080  1
  Si  Si32  1  0.708507  0.632582  0.173077  1
  Si  Si33  1  0.367750  0.291141  0.327687  1
  Si  Si34  1  0.631525  0.709315  0.827501  1
  As  As35  1  0.037783  0.298537  0.813934  1
