# generated using pymatgen
data_Hf13Zr5(Re4Ir)2
_symmetry_space_group_name_H-M   'P 1'
_cell_length_a   8.53781000
_cell_length_b   8.70211670
_cell_length_c   8.68845300
_cell_angle_alpha   119.94721414
_cell_angle_beta   90.00000000
_cell_angle_gamma   90.00000000
_symmetry_Int_Tables_number   1
_chemical_formula_structural   Hf13Zr5(Re4Ir)2
_chemical_formula_sum   'Hf13 Zr5 Re8 Ir2'
_cell_volume   559.33917112
_cell_formula_units_Z   1
loop_
 _symmetry_equiv_pos_site_id
 _symmetry_equiv_pos_as_xyz
  1  'x, y, z'
loop_
 _atom_site_type_symbol
 _atom_site_label
 _atom_site_symmetry_multiplicity
 _atom_site_fract_x
 _atom_site_fract_y
 _atom_site_fract_z
 _atom_site_occupancy
  Hf  Hf0  1  0.554739  0.805294  0.609634  1
  Hf  Hf1  1  0.554753  0.805282  0.195674  1
  Hf  Hf2  1  0.555385  0.389451  0.194725  1
  Hf  Hf3  1  0.444308  0.194335  0.389769  1
  Hf  Hf4  1  0.444286  0.194341  0.804553  1
  Hf  Hf5  1  0.444547  0.610476  0.805241  1
  Hf  Hf6  1  0.055692  0.194335  0.389769  1
  Hf  Hf7  1  0.055714  0.194341  0.804553  1
  Hf  Hf8  1  0.055453  0.610476  0.805241  1
  Hf  Hf9  1  0.945261  0.805294  0.609634  1
  Hf  Hf10  1  0.945247  0.805282  0.195674  1
  Hf  Hf11  1  0.944615  0.389451  0.194725  1
  Hf  Hf12  1  0.250000  0.918460  0.459211  1
  Zr  Zr13  1  0.750000  0.458502  0.916962  1
  Zr  Zr14  1  0.750000  0.458509  0.541553  1
  Zr  Zr15  1  0.750000  0.083532  0.541779  1
  Zr  Zr16  1  0.250000  0.542469  0.084381  1
  Zr  Zr17  1  0.250000  0.542479  0.458079  1
  Re  Re18  1  0.750000  0.108903  0.218285  1
  Re  Re19  1  0.750000  0.108921  0.890640  1
  Re  Re20  1  0.750000  0.781719  0.890862  1
  Re  Re21  1  0.250000  0.890866  0.780534  1
  Re  Re22  1  0.250000  0.890872  0.110324  1
  Re  Re23  1  0.250000  0.217724  0.108857  1
  Re  Re24  1  0.499949  0.999856  0.999931  1
  Re  Re25  1  0.000051  0.999856  0.999931  1
  Ir  Ir26  1  0.750000  0.666208  0.333129  1
  Ir  Ir27  1  0.250000  0.332762  0.666352  1
