# generated using pymatgen
data_La5Nd6Y5(CdIr)4
_symmetry_space_group_name_H-M   'P 1'
_cell_length_a   9.90266486
_cell_length_b   9.91866266
_cell_length_c   9.91866107
_cell_angle_alpha   59.77509149
_cell_angle_beta   60.05332896
_cell_angle_gamma   60.05333788
_symmetry_Int_Tables_number   1
_chemical_formula_structural   La5Nd6Y5(CdIr)4
_chemical_formula_sum   'La5 Nd6 Y5 Cd4 Ir4'
_cell_volume   688.25293159
_cell_formula_units_Z   1
loop_
 _symmetry_equiv_pos_site_id
 _symmetry_equiv_pos_as_xyz
  1  'x, y, z'
loop_
 _atom_site_type_symbol
 _atom_site_label
 _atom_site_symmetry_multiplicity
 _atom_site_fract_x
 _atom_site_fract_y
 _atom_site_fract_z
 _atom_site_occupancy
  La  La0  1  0.345715  0.350795  0.350795  1
  La  La1  1  0.349538  0.348933  0.951993  1
  La  La2  1  0.349538  0.951993  0.348933  1
  La  La3  1  0.952696  0.350795  0.350795  1
  La  La4  1  0.814344  0.185656  0.185656  1
  Nd  Nd5  1  0.938023  0.561977  0.561977  1
  Nd  Nd6  1  0.561563  0.938437  0.938437  1
  Nd  Nd7  1  0.559936  0.937194  0.562590  1
  Nd  Nd8  1  0.940281  0.562590  0.937194  1
  Nd  Nd9  1  0.559936  0.562590  0.937194  1
  Nd  Nd10  1  0.940281  0.937194  0.562590  1
  Y  Y11  1  0.185559  0.814441  0.814441  1
  Y  Y12  1  0.189845  0.810826  0.185301  1
  Y  Y13  1  0.814028  0.185301  0.810826  1
  Y  Y14  1  0.189845  0.185301  0.810826  1
  Y  Y15  1  0.814028  0.810826  0.185301  1
  Cd  Cd16  1  0.580368  0.580181  0.580181  1
  Cd  Cd17  1  0.579009  0.582764  0.259216  1
  Cd  Cd18  1  0.579009  0.259216  0.582764  1
  Cd  Cd19  1  0.259270  0.580181  0.580181  1
  Ir  Ir20  1  0.138749  0.140946  0.140946  1
  Ir  Ir21  1  0.139541  0.141463  0.579455  1
  Ir  Ir22  1  0.139541  0.579455  0.141463  1
  Ir  Ir23  1  0.579358  0.140946  0.140946  1
