# generated using pymatgen
data_Nd2DyCd3Ga2Hg
_symmetry_space_group_name_H-M   'P 1'
_cell_length_a   7.46310846
_cell_length_b   7.50110397
_cell_length_c   4.53066000
_cell_angle_alpha   90.00000000
_cell_angle_beta   90.00000000
_cell_angle_gamma   120.16855745
_symmetry_Int_Tables_number   1
_chemical_formula_structural   Nd2DyCd3Ga2Hg
_chemical_formula_sum   'Nd2 Dy1 Cd3 Ga2 Hg1'
_cell_volume   219.27892117
_cell_formula_units_Z   1
loop_
 _symmetry_equiv_pos_site_id
 _symmetry_equiv_pos_as_xyz
  1  'x, y, z'
loop_
 _atom_site_type_symbol
 _atom_site_label
 _atom_site_symmetry_multiplicity
 _atom_site_fract_x
 _atom_site_fract_y
 _atom_site_fract_z
 _atom_site_occupancy
  Nd  Nd0  1  0.422249  0.424339  0.500000  1
  Nd  Nd1  1  0.577751  0.002089  0.500000  1
  Dy  Dy2  1  0.000000  0.576963  0.500000  1
  Cd  Cd3  1  0.747318  0.745942  0.000000  1
  Cd  Cd4  1  0.252682  0.998623  0.000000  1
  Cd  Cd5  1  0.000000  0.254855  0.000000  1
  Ga  Ga6  1  0.671923  0.337506  0.000000  1
  Ga  Ga7  1  0.328077  0.665584  0.000000  1
  Hg  Hg8  1  0.000000  0.994098  0.500000  1
