# generated using pymatgen
data_PrThZn21Pt
_symmetry_space_group_name_H-M   'P 1'
_cell_length_a   8.30273487
_cell_length_b   8.28946235
_cell_length_c   8.30273370
_cell_angle_alpha   100.00913796
_cell_angle_beta   99.89596996
_cell_angle_gamma   130.96978425
_symmetry_Int_Tables_number   1
_chemical_formula_structural   PrThZn21Pt
_chemical_formula_sum   'Pr1 Th1 Zn21 Pt1'
_cell_volume   392.25557864
_cell_formula_units_Z   1
loop_
 _symmetry_equiv_pos_site_id
 _symmetry_equiv_pos_as_xyz
  1  'x, y, z'
loop_
 _atom_site_type_symbol
 _atom_site_label
 _atom_site_symmetry_multiplicity
 _atom_site_fract_x
 _atom_site_fract_y
 _atom_site_fract_z
 _atom_site_occupancy
  Pr  Pr0  1  0.749436  0.252942  0.503506  1
  Th  Th1  1  0.499211  0.495452  0.996240  1
  Zn  Zn2  1  0.845359  0.430087  0.171682  1
  Zn  Zn3  1  0.125953  0.875918  0.749965  1
  Zn  Zn4  1  0.326073  0.153071  0.584015  1
  Zn  Zn5  1  0.258405  0.430087  0.584727  1
  Zn  Zn6  1  0.329424  0.743640  0.171520  1
  Zn  Zn7  1  0.992089  0.319781  0.915164  1
  Zn  Zn8  1  0.261815  0.676371  0.830411  1
  Zn  Zn9  1  0.246639  0.741944  0.495305  1
  Zn  Zn10  1  0.989379  0.074094  0.671015  1
  Zn  Zn11  1  0.002800  0.006976  0.004177  1
  Zn  Zn12  1  0.678888  0.006180  0.086011  1
  Zn  Zn13  1  0.623757  0.874359  0.749549  1
  Zn  Zn14  1  0.404619  0.319781  0.327692  1
  Zn  Zn15  1  0.920169  0.006180  0.327293  1
  Zn  Zn16  1  0.845959  0.676371  0.414555  1
  Zn  Zn17  1  0.572120  0.743640  0.414216  1
  Zn  Zn18  1  0.680975  0.597476  0.674046  1
  Zn  Zn19  1  0.403080  0.074094  0.084717  1
  Zn  Zn20  1  0.923431  0.597476  0.916501  1
  Zn  Zn21  1  0.569056  0.153071  0.826998  1
  Zn  Zn22  1  0.124810  0.874359  0.250602  1
  Pt  Pt23  1  0.126556  0.376650  0.250094  1
