# generated using pymatgen
data_ScTi4Pd15
_symmetry_space_group_name_H-M   'P 1'
_cell_length_a   3.96698400
_cell_length_b   3.96698400
_cell_length_c   19.79996200
_cell_angle_alpha   90.00000000
_cell_angle_beta   90.00000000
_cell_angle_gamma   90.00000000
_symmetry_Int_Tables_number   1
_chemical_formula_structural   ScTi4Pd15
_chemical_formula_sum   'Sc1 Ti4 Pd15'
_cell_volume   311.59125071
_cell_formula_units_Z   1
loop_
 _symmetry_equiv_pos_site_id
 _symmetry_equiv_pos_as_xyz
  1  'x, y, z'
loop_
 _atom_site_type_symbol
 _atom_site_label
 _atom_site_symmetry_multiplicity
 _atom_site_fract_x
 _atom_site_fract_y
 _atom_site_fract_z
 _atom_site_occupancy
  Sc  Sc0  1  0.000000  0.000000  0.000000  1
  Ti  Ti1  1  0.000000  0.000000  0.199978  1
  Ti  Ti2  1  0.000000  0.000000  0.400272  1
  Ti  Ti3  1  0.000000  0.000000  0.599728  1
  Ti  Ti4  1  0.000000  0.000000  0.800022  1
  Pd  Pd5  1  0.500000  0.500000  0.000000  1
  Pd  Pd6  1  0.500000  0.500000  0.203944  1
  Pd  Pd7  1  0.500000  0.500000  0.401422  1
  Pd  Pd8  1  0.500000  0.500000  0.598578  1
  Pd  Pd9  1  0.500000  0.500000  0.796056  1
  Pd  Pd10  1  0.500000  0.000000  0.105393  1
  Pd  Pd11  1  0.500000  0.000000  0.303012  1
  Pd  Pd12  1  0.500000  0.000000  0.500000  1
  Pd  Pd13  1  0.500000  0.000000  0.696988  1
  Pd  Pd14  1  0.500000  0.000000  0.894607  1
  Pd  Pd15  1  0.000000  0.500000  0.105393  1
  Pd  Pd16  1  0.000000  0.500000  0.303012  1
  Pd  Pd17  1  0.000000  0.500000  0.500000  1
  Pd  Pd18  1  0.000000  0.500000  0.696988  1
  Pd  Pd19  1  0.000000  0.500000  0.894607  1
