# generated using pymatgen
data_YThSiRh6
_symmetry_space_group_name_H-M   'P 1'
_cell_length_a   6.03338503
_cell_length_b   6.03338369
_cell_length_c   6.03338500
_cell_angle_alpha   59.99999827
_cell_angle_beta   60.00000563
_cell_angle_gamma   59.99999956
_symmetry_Int_Tables_number   1
_chemical_formula_structural   YThSiRh6
_chemical_formula_sum   'Y1 Th1 Si1 Rh6'
_cell_volume   155.29877803
_cell_formula_units_Z   1
loop_
 _symmetry_equiv_pos_site_id
 _symmetry_equiv_pos_as_xyz
  1  'x, y, z'
loop_
 _atom_site_type_symbol
 _atom_site_label
 _atom_site_symmetry_multiplicity
 _atom_site_fract_x
 _atom_site_fract_y
 _atom_site_fract_z
 _atom_site_occupancy
  Y  Y0  1  0.750000  0.750000  0.750000  1
  Th  Th1  1  0.250000  0.250000  0.250000  1
  Si  Si2  1  0.000000  0.000000  0.000000  1
  Rh  Rh3  1  0.731127  0.268874  0.268874  1
  Rh  Rh4  1  0.268874  0.731127  0.268874  1
  Rh  Rh5  1  0.731126  0.731126  0.268875  1
  Rh  Rh6  1  0.268875  0.731126  0.731126  1
  Rh  Rh7  1  0.268874  0.268874  0.731127  1
  Rh  Rh8  1  0.731126  0.268875  0.731126  1
