# generated using pymatgen
data_LuSc4U3(ReB6)4
_symmetry_space_group_name_H-M   'P 1'
_cell_length_a   3.59933200
_cell_length_b   8.96286211
_cell_length_c   11.31406203
_cell_angle_alpha   90.12214875
_cell_angle_beta   90.00000000
_cell_angle_gamma   90.00000000
_symmetry_Int_Tables_number   1
_chemical_formula_structural   LuSc4U3(ReB6)4
_chemical_formula_sum   'Lu1 Sc4 U3 Re4 B24'
_cell_volume   364.99439135
_cell_formula_units_Z   1
loop_
 _symmetry_equiv_pos_site_id
 _symmetry_equiv_pos_as_xyz
  1  'x, y, z'
loop_
 _atom_site_type_symbol
 _atom_site_label
 _atom_site_symmetry_multiplicity
 _atom_site_fract_x
 _atom_site_fract_y
 _atom_site_fract_z
 _atom_site_occupancy
  Lu  Lu0  1  0.000000  0.181299  0.913401  1
  Sc  Sc1  1  0.000000  0.946402  0.374070  1
  Sc  Sc2  1  0.000000  0.054833  0.626646  1
  Sc  Sc3  1  0.000000  0.444298  0.124714  1
  Sc  Sc4  1  0.000000  0.553803  0.874509  1
  U  U5  1  0.000000  0.321164  0.414235  1
  U  U6  1  0.000000  0.678316  0.586431  1
  U  U7  1  0.000000  0.821418  0.085784  1
  Re  Re8  1  0.000000  0.640284  0.320012  1
  Re  Re9  1  0.000000  0.361520  0.678138  1
  Re  Re10  1  0.000000  0.139598  0.182106  1
  Re  Re11  1  0.000000  0.858236  0.819450  1
  B  B12  1  0.500000  0.553434  0.433705  1
  B  B13  1  0.500000  0.446578  0.566070  1
  B  B14  1  0.500000  0.053148  0.066587  1
  B  B15  1  0.500000  0.945459  0.933975  1
  B  B16  1  0.500000  0.753187  0.420371  1
  B  B17  1  0.500000  0.246739  0.580688  1
  B  B18  1  0.500000  0.252629  0.079313  1
  B  B19  1  0.500000  0.747379  0.920715  1
  B  B20  1  0.500000  0.794972  0.264106  1
  B  B21  1  0.500000  0.205141  0.735774  1
  B  B22  1  0.500000  0.295085  0.234269  1
  B  B23  1  0.500000  0.704981  0.764892  1
  B  B24  1  0.500000  0.630497  0.181767  1
  B  B25  1  0.500000  0.369766  0.817514  1
  B  B26  1  0.500000  0.131050  0.317492  1
  B  B27  1  0.500000  0.869615  0.683161  1
  B  B28  1  0.500000  0.980759  0.213232  1
  B  B29  1  0.500000  0.019587  0.786537  1
  B  B30  1  0.500000  0.480696  0.285288  1
  B  B31  1  0.500000  0.518771  0.714723  1
  B  B32  1  0.500000  0.600304  0.027508  1
  B  B33  1  0.500000  0.398698  0.971971  1
  B  B34  1  0.500000  0.101715  0.472643  1
  B  B35  1  0.500000  0.898639  0.528205  1
