# generated using pymatgen
data_TbDy5TmRh3
_symmetry_space_group_name_H-M   'P 1'
_cell_length_a   9.80036402
_cell_length_b   9.80036316
_cell_length_c   6.17627500
_cell_angle_alpha   90.00099647
_cell_angle_beta   89.99900210
_cell_angle_gamma   120.00631338
_symmetry_Int_Tables_number   1
_chemical_formula_structural   TbDy5TmRh3
_chemical_formula_sum   'Tb2 Dy10 Tm2 Rh6'
_cell_volume   513.70524512
_cell_formula_units_Z   2
loop_
 _symmetry_equiv_pos_site_id
 _symmetry_equiv_pos_as_xyz
  1  'x, y, z'
loop_
 _atom_site_type_symbol
 _atom_site_label
 _atom_site_symmetry_multiplicity
 _atom_site_fract_x
 _atom_site_fract_y
 _atom_site_fract_z
 _atom_site_occupancy
  Tb  Tb0  1  0.875791  0.751664  0.741415  1
  Tb  Tb1  1  0.248336  0.124209  0.741415  1
  Dy  Dy2  1  0.875787  0.124213  0.741277  1
  Dy  Dy3  1  0.124117  0.248315  0.241275  1
  Dy  Dy4  1  0.751685  0.875883  0.241275  1
  Dy  Dy5  1  0.124175  0.875825  0.241278  1
  Dy  Dy6  1  0.459057  0.918030  0.547730  1
  Dy  Dy7  1  0.081970  0.540943  0.547730  1
  Dy  Dy8  1  0.459006  0.540994  0.547766  1
  Dy  Dy9  1  0.541012  0.081942  0.047821  1
  Dy  Dy10  1  0.918058  0.458988  0.047821  1
  Dy  Dy11  1  0.540974  0.459026  0.047865  1
  Tm  Tm12  1  0.666687  0.333313  0.533305  1
  Tm  Tm13  1  0.333334  0.666666  0.033331  1
  Rh  Rh14  1  0.190309  0.380770  0.813426  1
  Rh  Rh15  1  0.619230  0.809691  0.813426  1
  Rh  Rh16  1  0.190428  0.809572  0.813421  1
  Rh  Rh17  1  0.809642  0.619266  0.313239  1
  Rh  Rh18  1  0.380734  0.190358  0.313239  1
  Rh  Rh19  1  0.809669  0.190331  0.313386  1
