# generated using pymatgen
data_Ta2S8Br
_symmetry_space_group_name_H-M   'P 1'
_cell_length_a   9.03267429
_cell_length_b   9.03267399
_cell_length_c   9.03267381
_cell_angle_alpha   118.46801986
_cell_angle_beta   118.46802907
_cell_angle_gamma   92.67459681
_symmetry_Int_Tables_number   1
_chemical_formula_structural   Ta2S8Br
_chemical_formula_sum   'Ta4 S16 Br2'
_cell_volume   532.55467419
_cell_formula_units_Z   2
loop_
 _symmetry_equiv_pos_site_id
 _symmetry_equiv_pos_as_xyz
  1  'x, y, z'
loop_
 _atom_site_type_symbol
 _atom_site_label
 _atom_site_symmetry_multiplicity
 _atom_site_fract_x
 _atom_site_fract_y
 _atom_site_fract_z
 _atom_site_occupancy
  Ta  Ta0  1  0.250000  0.750000  0.500000  1
  Ta  Ta1  1  0.750000  0.250000  0.500000  1
  Ta  Ta2  1  0.000000  0.500000  0.500000  1
  Ta  Ta3  1  0.500000  0.000000  0.500000  1
  S  S4  1  0.340485  0.664354  0.744405  1
  S  S5  1  0.919949  0.596079  0.255595  1
  S  S6  1  0.335646  0.659515  0.255595  1
  S  S7  1  0.596079  0.340485  0.676129  1
  S  S8  1  0.664354  0.919949  0.323871  1
  S  S9  1  0.659515  0.403921  0.323871  1
  S  S10  1  0.202086  0.003055  0.445414  1
  S  S11  1  0.003055  0.557640  0.800969  1
  S  S12  1  0.756671  0.202086  0.199031  1
  S  S13  1  0.442360  0.996945  0.199031  1
  S  S14  1  0.797914  0.243329  0.800969  1
  S  S15  1  0.557640  0.756671  0.554586  1
  S  S16  1  0.996945  0.797914  0.554586  1
  S  S17  1  0.243329  0.442360  0.445414  1
  S  S18  1  0.403921  0.080051  0.744405  1
  S  S19  1  0.080051  0.335646  0.676129  1
  Br  Br20  1  0.846450  0.846450  0.000000  1
  Br  Br21  1  0.153550  0.153550  0.000000  1
