# generated using pymatgen
data_Ho8Tm12Si15Ag
_symmetry_space_group_name_H-M   'P 1'
_cell_length_a   7.35127686
_cell_length_b   7.61464915
_cell_length_c   14.50801690
_cell_angle_alpha   89.75484464
_cell_angle_beta   89.40056068
_cell_angle_gamma   90.08379997
_symmetry_Int_Tables_number   1
_chemical_formula_structural   Ho8Tm12Si15Ag
_chemical_formula_sum   'Ho8 Tm12 Si15 Ag1'
_cell_volume   812.06817764
_cell_formula_units_Z   1
loop_
 _symmetry_equiv_pos_site_id
 _symmetry_equiv_pos_as_xyz
  1  'x, y, z'
loop_
 _atom_site_type_symbol
 _atom_site_label
 _atom_site_symmetry_multiplicity
 _atom_site_fract_x
 _atom_site_fract_y
 _atom_site_fract_z
 _atom_site_occupancy
  Ho  Ho0  1  0.016953  0.178915  0.098649  1
  Ho  Ho1  1  0.983157  0.822449  0.903463  1
  Ho  Ho2  1  0.483186  0.679843  0.903504  1
  Ho  Ho3  1  0.985676  0.829882  0.598602  1
  Ho  Ho4  1  0.515604  0.319901  0.097070  1
  Ho  Ho5  1  0.011556  0.172618  0.398298  1
  Ho  Ho6  1  0.515118  0.318190  0.399615  1
  Ho  Ho7  1  0.490691  0.682769  0.600528  1
  Tm  Tm8  1  0.164044  0.509654  0.751504  1
  Tm  Tm9  1  0.837432  0.491378  0.251429  1
  Tm  Tm10  1  0.336801  0.006384  0.249564  1
  Tm  Tm11  1  0.665498  0.989678  0.750610  1
  Tm  Tm12  1  0.338911  0.174993  0.624000  1
  Tm  Tm13  1  0.664439  0.822179  0.376130  1
  Tm  Tm14  1  0.168599  0.674391  0.374199  1
  Tm  Tm15  1  0.671005  0.822683  0.123288  1
  Tm  Tm16  1  0.828481  0.325564  0.623120  1
  Tm  Tm17  1  0.328317  0.178146  0.877660  1
  Tm  Tm18  1  0.828514  0.320981  0.877970  1
  Tm  Tm19  1  0.170176  0.677842  0.123407  1
  Si  Si20  1  0.037175  0.112784  0.751067  1
  Si  Si21  1  0.964310  0.891300  0.249158  1
  Si  Si22  1  0.465813  0.606036  0.248144  1
  Si  Si23  1  0.535718  0.393761  0.751682  1
  Si  Si24  1  0.281429  0.873950  0.751274  1
  Si  Si25  1  0.717142  0.128689  0.248243  1
  Si  Si26  1  0.219158  0.368243  0.247975  1
  Si  Si27  1  0.783363  0.628874  0.753238  1
  Si  Si28  1  0.834289  0.532165  0.458967  1
  Si  Si29  1  0.333254  0.965745  0.460478  1
  Si  Si30  1  0.843273  0.532288  0.038697  1
  Si  Si31  1  0.663576  0.033205  0.538246  1
  Si  Si32  1  0.154816  0.467852  0.962278  1
  Si  Si33  1  0.656507  0.030487  0.960562  1
  Si  Si34  1  0.343212  0.968261  0.039696  1
  Ag  Ag35  1  0.162810  0.467924  0.537682  1
