# generated using pymatgen
data_Ta11Cu(TcOs)6
_symmetry_space_group_name_H-M   'P 1'
_cell_length_a   4.48599000
_cell_length_b   6.36132000
_cell_length_c   13.48561100
_cell_angle_alpha   90.00000000
_cell_angle_beta   90.00036145
_cell_angle_gamma   90.00000000
_symmetry_Int_Tables_number   1
_chemical_formula_structural   Ta11Cu(TcOs)6
_chemical_formula_sum   'Ta11 Cu1 Tc6 Os6'
_cell_volume   384.83642547
_cell_formula_units_Z   1
loop_
 _symmetry_equiv_pos_site_id
 _symmetry_equiv_pos_as_xyz
  1  'x, y, z'
loop_
 _atom_site_type_symbol
 _atom_site_label
 _atom_site_symmetry_multiplicity
 _atom_site_fract_x
 _atom_site_fract_y
 _atom_site_fract_z
 _atom_site_occupancy
  Ta  Ta0  1  0.500001  0.748809  0.000000  1
  Ta  Ta1  1  0.999981  0.249972  0.157727  1
  Ta  Ta2  1  0.999986  0.750426  0.163753  1
  Ta  Ta3  1  0.499987  0.250967  0.331175  1
  Ta  Ta4  1  0.499987  0.751283  0.330949  1
  Ta  Ta5  1  0.000000  0.250210  0.500000  1
  Ta  Ta6  1  0.000000  0.748930  0.500000  1
  Ta  Ta7  1  0.500014  0.250967  0.668825  1
  Ta  Ta8  1  0.500014  0.751283  0.669051  1
  Ta  Ta9  1  0.000019  0.249972  0.842273  1
  Ta  Ta10  1  0.000014  0.750426  0.836247  1
  Cu  Cu11  1  0.500001  0.249932  0.000000  1
  Tc  Tc12  1  0.000000  0.996525  0.000000  1
  Tc  Tc13  1  0.499985  0.500778  0.168712  1
  Tc  Tc14  1  0.999987  0.000860  0.332537  1
  Tc  Tc15  1  0.500000  0.499311  0.500000  1
  Tc  Tc16  1  0.000013  0.000860  0.667462  1
  Tc  Tc17  1  0.500016  0.500778  0.831288  1
  Os  Os18  1  0.000000  0.503539  0.000000  1
  Os  Os19  1  0.499982  0.997880  0.168945  1
  Os  Os20  1  0.999987  0.499388  0.332322  1
  Os  Os21  1  0.500000  0.999644  0.500000  1
  Os  Os22  1  0.000013  0.499388  0.667678  1
  Os  Os23  1  0.500016  0.997880  0.831055  1
