# generated using pymatgen
data_Tm2Pa(SnRh)3
_symmetry_space_group_name_H-M   'P 1'
_cell_length_a   7.52123596
_cell_length_b   7.62265399
_cell_length_c   3.83191600
_cell_angle_alpha   90.00000000
_cell_angle_beta   90.00000000
_cell_angle_gamma   120.44706674
_symmetry_Int_Tables_number   1
_chemical_formula_structural   Tm2Pa(SnRh)3
_chemical_formula_sum   'Tm2 Pa1 Sn3 Rh3'
_cell_volume   189.39472571
_cell_formula_units_Z   1
loop_
 _symmetry_equiv_pos_site_id
 _symmetry_equiv_pos_as_xyz
  1  'x, y, z'
loop_
 _atom_site_type_symbol
 _atom_site_label
 _atom_site_symmetry_multiplicity
 _atom_site_fract_x
 _atom_site_fract_y
 _atom_site_fract_z
 _atom_site_occupancy
  Tm  Tm0  1  0.595857  0.596123  0.000000  1
  Tm  Tm1  1  0.404143  0.000266  0.000000  1
  Pa  Pa2  1  0.000000  0.412595  0.000000  1
  Sn  Sn3  1  0.273826  0.259487  0.500000  1
  Sn  Sn4  1  0.000000  0.754317  0.500000  1
  Sn  Sn5  1  0.726174  0.985661  0.500000  1
  Rh  Rh6  1  0.693877  0.335835  0.500000  1
  Rh  Rh7  1  0.306123  0.641959  0.500000  1
  Rh  Rh8  1  0.000000  0.013758  0.000000  1
