# generated using pymatgen
data_HoPa4Re3C8
_symmetry_space_group_name_H-M   'P 1'
_cell_length_a   11.42093000
_cell_length_b   11.42093000
_cell_length_c   3.38501200
_cell_angle_alpha   90.00000000
_cell_angle_beta   90.00000000
_cell_angle_gamma   90.00000000
_symmetry_Int_Tables_number   1
_chemical_formula_structural   HoPa4Re3C8
_chemical_formula_sum   'Ho2 Pa8 Re6 C16'
_cell_volume   441.53298364
_cell_formula_units_Z   2
loop_
 _symmetry_equiv_pos_site_id
 _symmetry_equiv_pos_as_xyz
  1  'x, y, z'
loop_
 _atom_site_type_symbol
 _atom_site_label
 _atom_site_symmetry_multiplicity
 _atom_site_fract_x
 _atom_site_fract_y
 _atom_site_fract_z
 _atom_site_occupancy
  Ho  Ho0  1  0.000000  0.500000  0.000000  1
  Ho  Ho1  1  0.500000  0.000000  0.000000  1
  Pa  Pa2  1  0.271257  0.543515  0.500000  1
  Pa  Pa3  1  0.728743  0.456485  0.500000  1
  Pa  Pa4  1  0.543515  0.728743  0.500000  1
  Pa  Pa5  1  0.771257  0.956485  0.500000  1
  Pa  Pa6  1  0.228743  0.043515  0.500000  1
  Pa  Pa7  1  0.956485  0.228743  0.500000  1
  Pa  Pa8  1  0.456485  0.271257  0.500000  1
  Pa  Pa9  1  0.043515  0.771257  0.500000  1
  Re  Re10  1  0.202808  0.297192  0.000000  1
  Re  Re11  1  0.702808  0.202808  0.000000  1
  Re  Re12  1  0.297192  0.797192  0.000000  1
  Re  Re13  1  0.500000  0.500000  0.000000  1
  Re  Re14  1  0.797192  0.702808  0.000000  1
  Re  Re15  1  0.000000  0.000000  0.000000  1
  C  C16  1  0.346404  0.402352  0.000000  1
  C  C17  1  0.619373  0.119373  0.500000  1
  C  C18  1  0.902352  0.846404  0.000000  1
  C  C19  1  0.653601  0.846399  0.000000  1
  C  C20  1  0.346399  0.153601  0.000000  1
  C  C21  1  0.119373  0.380627  0.500000  1
  C  C22  1  0.153596  0.902352  0.000000  1
  C  C23  1  0.846399  0.346399  0.000000  1
  C  C24  1  0.653596  0.597648  0.000000  1
  C  C25  1  0.597648  0.346404  0.000000  1
  C  C26  1  0.880627  0.619373  0.500000  1
  C  C27  1  0.846404  0.097648  0.000000  1
  C  C28  1  0.380627  0.880627  0.500000  1
  C  C29  1  0.153601  0.653601  0.000000  1
  C  C30  1  0.097648  0.153596  0.000000  1
  C  C31  1  0.402352  0.653596  0.000000  1
