# generated using pymatgen
data_Tm5Sc3Re3B24Rh
_symmetry_space_group_name_H-M   'P 1'
_cell_length_a   3.58742600
_cell_length_b   8.99589164
_cell_length_c   11.36932816
_cell_angle_alpha   90.10348642
_cell_angle_beta   90.00000000
_cell_angle_gamma   90.00000000
_symmetry_Int_Tables_number   1
_chemical_formula_structural   Tm5Sc3Re3B24Rh
_chemical_formula_sum   'Tm5 Sc3 Re3 B24 Rh1'
_cell_volume   366.91144608
_cell_formula_units_Z   1
loop_
 _symmetry_equiv_pos_site_id
 _symmetry_equiv_pos_as_xyz
  1  'x, y, z'
loop_
 _atom_site_type_symbol
 _atom_site_label
 _atom_site_symmetry_multiplicity
 _atom_site_fract_x
 _atom_site_fract_y
 _atom_site_fract_z
 _atom_site_occupancy
  Tm  Tm0  1  0.000000  0.318084  0.415702  1
  Tm  Tm1  1  0.000000  0.679246  0.591170  1
  Tm  Tm2  1  0.000000  0.824335  0.081005  1
  Tm  Tm3  1  0.000000  0.178857  0.912177  1
  Tm  Tm4  1  0.000000  0.944561  0.372076  1
  Sc  Sc5  1  0.000000  0.055823  0.630445  1
  Sc  Sc6  1  0.000000  0.441598  0.126089  1
  Sc  Sc7  1  0.000000  0.556103  0.871286  1
  Re  Re8  1  0.000000  0.360631  0.681013  1
  Re  Re9  1  0.000000  0.142525  0.179569  1
  Re  Re10  1  0.000000  0.860004  0.819641  1
  B  B11  1  0.500000  0.553338  0.433962  1
  B  B12  1  0.500000  0.445670  0.566980  1
  B  B13  1  0.500000  0.054455  0.065637  1
  B  B14  1  0.500000  0.946115  0.932968  1
  B  B15  1  0.500000  0.749639  0.420655  1
  B  B16  1  0.500000  0.246791  0.582237  1
  B  B17  1  0.500000  0.254339  0.080062  1
  B  B18  1  0.500000  0.746666  0.919025  1
  B  B19  1  0.500000  0.791224  0.263265  1
  B  B20  1  0.500000  0.205829  0.735903  1
  B  B21  1  0.500000  0.296263  0.235149  1
  B  B22  1  0.500000  0.705359  0.765311  1
  B  B23  1  0.500000  0.628731  0.180914  1
  B  B24  1  0.500000  0.371696  0.817031  1
  B  B25  1  0.500000  0.132290  0.316238  1
  B  B26  1  0.500000  0.870304  0.683906  1
  B  B27  1  0.500000  0.982356  0.211534  1
  B  B28  1  0.500000  0.019025  0.786468  1
  B  B29  1  0.500000  0.481303  0.285557  1
  B  B30  1  0.500000  0.519629  0.713892  1
  B  B31  1  0.500000  0.598039  0.026682  1
  B  B32  1  0.500000  0.403318  0.973368  1
  B  B33  1  0.500000  0.100180  0.475007  1
  B  B34  1  0.500000  0.899266  0.529377  1
  Rh  Rh35  1  0.000000  0.636409  0.318700  1
