# generated using pymatgen
data_Ac11HoPd12
_symmetry_space_group_name_H-M   'P 1'
_cell_length_a   6.09897151
_cell_length_b   4.72399700
_cell_length_c   23.46318035
_cell_angle_alpha   90.00000000
_cell_angle_beta   96.80579857
_cell_angle_gamma   90.00000000
_symmetry_Int_Tables_number   1
_chemical_formula_structural   Ac11HoPd12
_chemical_formula_sum   'Ac11 Ho1 Pd12'
_cell_volume   671.24647208
_cell_formula_units_Z   1
loop_
 _symmetry_equiv_pos_site_id
 _symmetry_equiv_pos_as_xyz
  1  'x, y, z'
loop_
 _atom_site_type_symbol
 _atom_site_label
 _atom_site_symmetry_multiplicity
 _atom_site_fract_x
 _atom_site_fract_y
 _atom_site_fract_z
 _atom_site_occupancy
  Ac  Ac0  1  0.178421  0.750000  0.103937  1
  Ac  Ac1  1  0.514048  0.250001  0.222494  1
  Ac  Ac2  1  0.031747  0.750000  0.268777  1
  Ac  Ac3  1  0.799805  0.250001  0.392084  1
  Ac  Ac4  1  0.324631  0.750000  0.436895  1
  Ac  Ac5  1  0.673353  0.250001  0.560733  1
  Ac  Ac6  1  0.196175  0.750000  0.605299  1
  Ac  Ac7  1  0.965305  0.250001  0.729322  1
  Ac  Ac8  1  0.485116  0.750000  0.775184  1
  Ac  Ac9  1  0.831394  0.250001  0.899867  1
  Ac  Ac10  1  0.330078  0.750000  0.944722  1
  Ho  Ho11  1  0.679112  0.250001  0.062136  1
  Pd  Pd12  1  0.173759  0.250001  0.019095  1
  Pd  Pd13  1  0.691998  0.750000  0.141481  1
  Pd  Pd14  1  0.989801  0.250001  0.175570  1
  Pd  Pd15  1  0.556795  0.750000  0.313775  1
  Pd  Pd16  1  0.273268  0.250001  0.344359  1
  Pd  Pd17  1  0.843098  0.750000  0.483981  1
  Pd  Pd18  1  0.155665  0.250001  0.513867  1
  Pd  Pd19  1  0.723329  0.750000  0.652234  1
  Pd  Pd20  1  0.438497  0.250001  0.682517  1
  Pd  Pd21  1  0.998481  0.750000  0.822455  1
  Pd  Pd22  1  0.321445  0.250001  0.851899  1
  Pd  Pd23  1  0.824675  0.750000  0.997317  1
