# generated using pymatgen
data_Ca2Pr18(Ga3Pb)3
_symmetry_space_group_name_H-M   'P 1'
_cell_length_a   8.11286400
_cell_length_b   8.11286400
_cell_length_c   14.65102700
_cell_angle_alpha   90.00000000
_cell_angle_beta   90.00000000
_cell_angle_gamma   90.00000000
_symmetry_Int_Tables_number   1
_chemical_formula_structural   Ca2Pr18(Ga3Pb)3
_chemical_formula_sum   'Ca2 Pr18 Ga9 Pb3'
_cell_volume   964.30953310
_cell_formula_units_Z   1
loop_
 _symmetry_equiv_pos_site_id
 _symmetry_equiv_pos_as_xyz
  1  'x, y, z'
loop_
 _atom_site_type_symbol
 _atom_site_label
 _atom_site_symmetry_multiplicity
 _atom_site_fract_x
 _atom_site_fract_y
 _atom_site_fract_z
 _atom_site_occupancy
  Ca  Ca0  1  0.000000  0.000000  0.744606  1
  Ca  Ca1  1  0.500000  0.500000  0.251029  1
  Pr  Pr2  1  0.664999  0.168489  0.104544  1
  Pr  Pr3  1  0.177230  0.665816  0.609672  1
  Pr  Pr4  1  0.335001  0.831511  0.104544  1
  Pr  Pr5  1  0.822770  0.334184  0.609672  1
  Pr  Pr6  1  0.831511  0.664999  0.104544  1
  Pr  Pr7  1  0.334184  0.177230  0.609672  1
  Pr  Pr8  1  0.168489  0.335001  0.104544  1
  Pr  Pr9  1  0.665816  0.822770  0.609672  1
  Pr  Pr10  1  0.841473  0.319190  0.897448  1
  Pr  Pr11  1  0.323487  0.834163  0.389484  1
  Pr  Pr12  1  0.158527  0.680810  0.897448  1
  Pr  Pr13  1  0.676513  0.165837  0.389484  1
  Pr  Pr14  1  0.680810  0.841473  0.897448  1
  Pr  Pr15  1  0.165837  0.323487  0.389484  1
  Pr  Pr16  1  0.319190  0.158527  0.897448  1
  Pr  Pr17  1  0.834163  0.676513  0.389484  1
  Pr  Pr18  1  0.500000  0.500000  0.779643  1
  Pr  Pr19  1  0.000000  0.000000  0.213754  1
  Ga  Ga20  1  0.619058  0.122453  0.750568  1
  Ga  Ga21  1  0.121327  0.622639  0.250086  1
  Ga  Ga22  1  0.878673  0.377361  0.250086  1
  Ga  Ga23  1  0.380942  0.877547  0.750568  1
  Ga  Ga24  1  0.877547  0.619058  0.750568  1
  Ga  Ga25  1  0.377361  0.121327  0.250086  1
  Ga  Ga26  1  0.122453  0.380942  0.750568  1
  Ga  Ga27  1  0.622639  0.878673  0.250086  1
  Ga  Ga28  1  0.000000  0.000000  0.998907  1
  Pb  Pb29  1  0.500000  0.500000  0.494768  1
  Pb  Pb30  1  0.500000  0.500000  0.004987  1
  Pb  Pb31  1  0.000000  0.000000  0.505098  1
