# generated using pymatgen
data_Tb2(CO3)3
_symmetry_space_group_name_H-M   'P 1'
_cell_length_a   8.28946269
_cell_length_b   8.37313971
_cell_length_c   8.40667119
_cell_angle_alpha   119.86847447
_cell_angle_beta   90.05164472
_cell_angle_gamma   89.99775935
_symmetry_Int_Tables_number   1
_chemical_formula_structural   Tb2(CO3)3
_chemical_formula_sum   'Tb4 C6 O18'
_cell_volume   505.99153274
_cell_formula_units_Z   2
loop_
 _symmetry_equiv_pos_site_id
 _symmetry_equiv_pos_as_xyz
  1  'x, y, z'
loop_
 _atom_site_type_symbol
 _atom_site_label
 _atom_site_symmetry_multiplicity
 _atom_site_fract_x
 _atom_site_fract_y
 _atom_site_fract_z
 _atom_site_occupancy
  Tb  Tb0  1  0.968056  0.665385  0.332321  1
  Tb  Tb1  1  0.532034  0.667485  0.333501  1
  Tb  Tb2  1  0.467966  0.332515  0.666499  1
  Tb  Tb3  1  0.031944  0.334615  0.667679  1
  C  C4  1  0.249380  0.966814  0.373581  1
  C  C5  1  0.250176  0.407517  0.033973  1
  C  C6  1  0.749656  0.371776  0.406804  1
  C  C7  1  0.250344  0.628224  0.593196  1
  C  C8  1  0.749824  0.592483  0.966027  1
  C  C9  1  0.750620  0.033186  0.626419  1
  O  O10  1  0.114000  0.881091  0.321870  1
  O  O11  1  0.385529  0.882697  0.322499  1
  O  O12  1  0.749672  0.663170  0.144558  1
  O  O13  1  0.385689  0.442209  0.119249  1
  O  O14  1  0.114269  0.439940  0.118209  1
  O  O15  1  0.749368  0.479659  0.335352  1
  O  O16  1  0.751147  0.854088  0.517959  1
  O  O17  1  0.114346  0.678764  0.558823  1
  O  O18  1  0.385862  0.679930  0.559441  1
  O  O19  1  0.614138  0.320070  0.440559  1
  O  O20  1  0.885654  0.321236  0.441177  1
  O  O21  1  0.248853  0.145912  0.482041  1
  O  O22  1  0.250632  0.520341  0.664648  1
  O  O23  1  0.885731  0.560060  0.881791  1
  O  O24  1  0.614311  0.557791  0.880751  1
  O  O25  1  0.250328  0.336830  0.855442  1
  O  O26  1  0.614471  0.117303  0.677501  1
  O  O27  1  0.886000  0.118909  0.678130  1
