# generated using pymatgen
data_Ca10Mn3CrN14
_symmetry_space_group_name_H-M   'P 1'
_cell_length_a   6.02854418
_cell_length_b   8.59034004
_cell_length_c   8.65404127
_cell_angle_alpha   115.23158892
_cell_angle_beta   96.82511332
_cell_angle_gamma   89.30652840
_symmetry_Int_Tables_number   1
_chemical_formula_structural   Ca10Mn3CrN14
_chemical_formula_sum   'Ca10 Mn3 Cr1 N14'
_cell_volume   402.16615143
_cell_formula_units_Z   1
loop_
 _symmetry_equiv_pos_site_id
 _symmetry_equiv_pos_as_xyz
  1  'x, y, z'
loop_
 _atom_site_type_symbol
 _atom_site_label
 _atom_site_symmetry_multiplicity
 _atom_site_fract_x
 _atom_site_fract_y
 _atom_site_fract_z
 _atom_site_occupancy
  Ca  Ca0  1  0.840093  0.592589  0.326384  1
  Ca  Ca1  1  0.267234  0.984639  0.568360  1
  Ca  Ca2  1  0.714461  0.415628  0.854720  1
  Ca  Ca3  1  0.283034  0.580492  0.143373  1
  Ca  Ca4  1  0.407143  0.792386  0.926303  1
  Ca  Ca5  1  0.589845  0.207954  0.072131  1
  Ca  Ca6  1  0.159691  0.405585  0.674230  1
  Ca  Ca7  1  0.900358  0.850583  0.767628  1
  Ca  Ca8  1  0.101364  0.153302  0.231598  1
  Ca  Ca9  1  0.736559  0.017658  0.438533  1
  Mn  Mn10  1  0.573625  0.360864  0.474809  1
  Mn  Mn11  1  0.426298  0.638336  0.524614  1
  Mn  Mn12  1  0.121317  0.216617  0.913465  1
  Cr  Cr13  1  0.877907  0.784894  0.087839  1
  N  N14  1  0.533215  0.550571  0.675816  1
  N  N15  1  0.465738  0.448755  0.324003  1
  N  N16  1  0.158818  0.697233  0.554085  1
  N  N17  1  0.840719  0.302780  0.445494  1
  N  N18  1  0.411348  0.192251  0.465622  1
  N  N19  1  0.588903  0.807689  0.533784  1
  N  N20  1  0.949990  0.139111  0.715706  1
  N  N21  1  0.050573  0.861700  0.284313  1
  N  N22  1  0.234028  0.045752  0.953677  1
  N  N23  1  0.768043  0.952762  0.044290  1
  N  N24  1  0.357555  0.324623  0.894641  1
  N  N25  1  0.969260  0.350049  0.082313  1
  N  N26  1  0.028900  0.650855  0.919387  1
  N  N27  1  0.643981  0.674339  0.102883  1
