# generated using pymatgen
data_Pr3NdErPb3
_symmetry_space_group_name_H-M   'P 1'
_cell_length_a   9.36177500
_cell_length_b   9.36177614
_cell_length_c   6.87141400
_cell_angle_alpha   90.00000000
_cell_angle_beta   90.00000000
_cell_angle_gamma   119.99999951
_symmetry_Int_Tables_number   1
_chemical_formula_structural   Pr3NdErPb3
_chemical_formula_sum   'Pr6 Nd2 Er2 Pb6'
_cell_volume   521.54669815
_cell_formula_units_Z   2
loop_
 _symmetry_equiv_pos_site_id
 _symmetry_equiv_pos_as_xyz
  1  'x, y, z'
loop_
 _atom_site_type_symbol
 _atom_site_label
 _atom_site_symmetry_multiplicity
 _atom_site_fract_x
 _atom_site_fract_y
 _atom_site_fract_z
 _atom_site_occupancy
  Pr  Pr0  1  0.759211  0.759211  0.751565  1
  Pr  Pr1  1  0.240789  0.000000  0.751565  1
  Pr  Pr2  1  0.000000  0.240789  0.751565  1
  Pr  Pr3  1  0.240789  0.240789  0.248435  1
  Pr  Pr4  1  0.759211  0.000000  0.248435  1
  Pr  Pr5  1  0.000000  0.759211  0.248435  1
  Nd  Nd6  1  0.333333  0.666667  0.500000  1
  Nd  Nd7  1  0.666667  0.333333  0.500000  1
  Er  Er8  1  0.666667  0.333333  0.000000  1
  Er  Er9  1  0.333333  0.666667  0.000000  1
  Pb  Pb10  1  0.396917  0.396917  0.755589  1
  Pb  Pb11  1  0.603083  0.000000  0.755589  1
  Pb  Pb12  1  0.000000  0.603083  0.755589  1
  Pb  Pb13  1  0.603083  0.603083  0.244411  1
  Pb  Pb14  1  0.396917  0.000000  0.244411  1
  Pb  Pb15  1  0.000000  0.396917  0.244411  1
