# generated using pymatgen
data_K11Rb(TaSe4)4
_symmetry_space_group_name_H-M   'P 1'
_cell_length_a   9.64671233
_cell_length_b   10.21751215
_cell_length_c   11.04629300
_cell_angle_alpha   90.00000000
_cell_angle_beta   90.00000000
_cell_angle_gamma   89.72427150
_symmetry_Int_Tables_number   1
_chemical_formula_structural   K11Rb(TaSe4)4
_chemical_formula_sum   'K11 Rb1 Ta4 Se16'
_cell_volume   1088.76968580
_cell_formula_units_Z   1
loop_
 _symmetry_equiv_pos_site_id
 _symmetry_equiv_pos_as_xyz
  1  'x, y, z'
loop_
 _atom_site_type_symbol
 _atom_site_label
 _atom_site_symmetry_multiplicity
 _atom_site_fract_x
 _atom_site_fract_y
 _atom_site_fract_z
 _atom_site_occupancy
  K  K0  1  0.120558  0.071350  0.750000  1
  K  K1  1  0.376755  0.572528  0.250000  1
  K  K2  1  0.875787  0.928792  0.250000  1
  K  K3  1  0.563161  0.209051  0.045314  1
  K  K4  1  0.065481  0.292124  0.456824  1
  K  K5  1  0.435255  0.791063  0.544383  1
  K  K6  1  0.935746  0.710304  0.957455  1
  K  K7  1  0.435255  0.791063  0.955617  1
  K  K8  1  0.935746  0.710304  0.542545  1
  K  K9  1  0.563161  0.209051  0.454686  1
  K  K10  1  0.065481  0.292124  0.043176  1
  Rb  Rb11  1  0.632493  0.416285  0.750000  1
  Ta  Ta12  1  0.706868  0.982393  0.750000  1
  Ta  Ta13  1  0.211012  0.517696  0.750000  1
  Ta  Ta14  1  0.290016  0.017355  0.250000  1
  Ta  Ta15  1  0.792053  0.483661  0.250000  1
  Se  Se16  1  0.831727  0.045683  0.570377  1
  Se  Se17  1  0.335598  0.458631  0.931064  1
  Se  Se18  1  0.164046  0.957267  0.070164  1
  Se  Se19  1  0.665847  0.545116  0.429435  1
  Se  Se20  1  0.164046  0.957267  0.429836  1
  Se  Se21  1  0.665847  0.545116  0.070565  1
  Se  Se22  1  0.831727  0.045683  0.929623  1
  Se  Se23  1  0.335598  0.458631  0.568936  1
  Se  Se24  1  0.683360  0.747344  0.750000  1
  Se  Se25  1  0.178496  0.752462  0.750000  1
  Se  Se26  1  0.318171  0.252483  0.250000  1
  Se  Se27  1  0.820169  0.248228  0.250000  1
  Se  Se28  1  0.479833  0.083585  0.750000  1
  Se  Se29  1  0.990138  0.407447  0.750000  1
  Se  Se30  1  0.514426  0.910626  0.250000  1
  Se  Se31  1  0.016142  0.589290  0.250000  1
