# generated using pymatgen
data_Pr3In3Ag2Rh
_symmetry_space_group_name_H-M   'P 1'
_cell_length_a   7.89296100
_cell_length_b   7.89296148
_cell_length_c   4.15425000
_cell_angle_alpha   90.00000000
_cell_angle_beta   90.00000000
_cell_angle_gamma   120.00000219
_symmetry_Int_Tables_number   1
_chemical_formula_structural   Pr3In3Ag2Rh
_chemical_formula_sum   'Pr3 In3 Ag2 Rh1'
_cell_volume   224.13165127
_cell_formula_units_Z   1
loop_
 _symmetry_equiv_pos_site_id
 _symmetry_equiv_pos_as_xyz
  1  'x, y, z'
loop_
 _atom_site_type_symbol
 _atom_site_label
 _atom_site_symmetry_multiplicity
 _atom_site_fract_x
 _atom_site_fract_y
 _atom_site_fract_z
 _atom_site_occupancy
  Pr  Pr0  1  0.978908  0.575249  0.500000  1
  Pr  Pr1  1  0.424751  0.403660  0.500000  1
  Pr  Pr2  1  0.596340  0.021092  0.500000  1
  In  In3  1  0.746226  0.744324  0.000000  1
  In  In4  1  0.998098  0.253774  0.000000  1
  In  In5  1  0.255676  0.001902  0.000000  1
  Ag  Ag6  1  0.333333  0.666667  0.000000  1
  Ag  Ag7  1  0.000000  0.000000  0.500000  1
  Rh  Rh8  1  0.666667  0.333333  0.000000  1
