# generated using pymatgen
data_CoBi3Ir3RuO14
_symmetry_space_group_name_H-M   'P 1'
_cell_length_a   7.20205642
_cell_length_b   7.35600000
_cell_length_c   7.32973500
_cell_angle_alpha   60.11803839
_cell_angle_beta   59.41180201
_cell_angle_gamma   59.48812753
_symmetry_Int_Tables_number   1
_chemical_formula_structural   CoBi3Ir3RuO14
_chemical_formula_sum   'Co1 Bi3 Ir3 Ru1 O14'
_cell_volume   272.51433086
_cell_formula_units_Z   1
loop_
 _symmetry_equiv_pos_site_id
 _symmetry_equiv_pos_as_xyz
  1  'x, y, z'
loop_
 _atom_site_type_symbol
 _atom_site_label
 _atom_site_symmetry_multiplicity
 _atom_site_fract_x
 _atom_site_fract_y
 _atom_site_fract_z
 _atom_site_occupancy
  Co  Co0  1  0.625000  0.125000  0.125000  1
  Bi  Bi1  1  0.125000  0.625000  0.125000  1
  Bi  Bi2  1  0.125000  0.125000  0.625000  1
  Bi  Bi3  1  0.125000  0.125000  0.125000  1
  Ir  Ir4  1  0.125000  0.625000  0.625000  1
  Ir  Ir5  1  0.625000  0.625000  0.125000  1
  Ir  Ir6  1  0.625000  0.625000  0.625000  1
  Ru  Ru7  1  0.625000  0.125000  0.625000  1
  O  O8  1  0.702160  0.711686  0.293077  1
  O  O9  1  0.290174  0.295205  0.707310  1
  O  O10  1  0.705086  0.298352  0.697213  1
  O  O11  1  0.289608  0.709415  0.292591  1
  O  O12  1  0.289608  0.709415  0.708384  1
  O  O13  1  0.705086  0.298352  0.299348  1
  O  O14  1  0.547840  0.538314  0.956923  1
  O  O15  1  0.959826  0.954795  0.542690  1
  O  O16  1  0.544914  0.951648  0.552787  1
  O  O17  1  0.960392  0.540585  0.957409  1
  O  O18  1  0.960392  0.540585  0.541616  1
  O  O19  1  0.544914  0.951648  0.950652  1
  O  O20  1  0.287072  0.237788  0.237570  1
  O  O21  1  0.962928  0.012212  0.012430  1
