# generated using pymatgen
data_Tm5GaNiSb
_symmetry_space_group_name_H-M   'P 1'
_cell_length_a   8.40416853
_cell_length_b   8.40416820
_cell_length_c   8.53696123
_cell_angle_alpha   124.98335203
_cell_angle_beta   124.98334901
_cell_angle_gamma   80.51465592
_symmetry_Int_Tables_number   1
_chemical_formula_structural   Tm5GaNiSb
_chemical_formula_sum   'Tm10 Ga2 Ni2 Sb2'
_cell_volume   392.50755882
_cell_formula_units_Z   2
loop_
 _symmetry_equiv_pos_site_id
 _symmetry_equiv_pos_as_xyz
  1  'x, y, z'
loop_
 _atom_site_type_symbol
 _atom_site_label
 _atom_site_symmetry_multiplicity
 _atom_site_fract_x
 _atom_site_fract_y
 _atom_site_fract_z
 _atom_site_occupancy
  Tm  Tm0  1  0.000000  0.000000  0.000000  1
  Tm  Tm1  1  0.500000  0.500000  0.000000  1
  Tm  Tm2  1  0.784312  0.284312  0.793559  1
  Tm  Tm3  1  0.215688  0.715688  0.206441  1
  Tm  Tm4  1  0.490753  0.990753  0.206441  1
  Tm  Tm5  1  0.308417  0.462952  0.500000  1
  Tm  Tm6  1  0.037048  0.191583  0.500000  1
  Tm  Tm7  1  0.509247  0.009247  0.793559  1
  Tm  Tm8  1  0.691583  0.537048  0.500000  1
  Tm  Tm9  1  0.962952  0.808417  0.500000  1
  Ga  Ga10  1  0.136196  0.636196  0.772393  1
  Ga  Ga11  1  0.863804  0.363804  0.227607  1
  Ni  Ni12  1  0.628293  0.871707  0.500000  1
  Ni  Ni13  1  0.371707  0.128293  0.500000  1
  Sb  Sb14  1  0.250000  0.250000  0.000000  1
  Sb  Sb15  1  0.750000  0.750000  0.000000  1
