# generated using pymatgen
data_Er16MgIn3Pd4
_symmetry_space_group_name_H-M   'P 1'
_cell_length_a   9.67025574
_cell_length_b   9.67025464
_cell_length_c   9.67025614
_cell_angle_alpha   59.70466366
_cell_angle_beta   59.70466822
_cell_angle_gamma   59.70466542
_symmetry_Int_Tables_number   1
_chemical_formula_structural   Er16MgIn3Pd4
_chemical_formula_sum   'Er16 Mg1 In3 Pd4'
_cell_volume   635.14905952
_cell_formula_units_Z   1
loop_
 _symmetry_equiv_pos_site_id
 _symmetry_equiv_pos_as_xyz
  1  'x, y, z'
loop_
 _atom_site_type_symbol
 _atom_site_label
 _atom_site_symmetry_multiplicity
 _atom_site_fract_x
 _atom_site_fract_y
 _atom_site_fract_z
 _atom_site_occupancy
  Er  Er0  1  0.352293  0.352293  0.352293  1
  Er  Er1  1  0.352248  0.352248  0.941985  1
  Er  Er2  1  0.352248  0.941985  0.352248  1
  Er  Er3  1  0.941985  0.352248  0.352248  1
  Er  Er4  1  0.810786  0.189589  0.189589  1
  Er  Er5  1  0.189659  0.811188  0.811188  1
  Er  Er6  1  0.189589  0.810786  0.189589  1
  Er  Er7  1  0.811188  0.189659  0.811188  1
  Er  Er8  1  0.189589  0.189589  0.810786  1
  Er  Er9  1  0.811188  0.811188  0.189659  1
  Er  Er10  1  0.934900  0.565766  0.565766  1
  Er  Er11  1  0.563510  0.935888  0.935888  1
  Er  Er12  1  0.565766  0.934900  0.565766  1
  Er  Er13  1  0.935888  0.563510  0.935888  1
  Er  Er14  1  0.565766  0.565766  0.934900  1
  Er  Er15  1  0.935888  0.935888  0.563510  1
  Mg  Mg16  1  0.579580  0.579580  0.579580  1
  In  In17  1  0.583058  0.583058  0.251663  1
  In  In18  1  0.583058  0.251663  0.583058  1
  In  In19  1  0.251663  0.583058  0.583058  1
  Pd  Pd20  1  0.144529  0.144529  0.144529  1
  Pd  Pd21  1  0.143776  0.143776  0.568066  1
  Pd  Pd22  1  0.143776  0.568066  0.143776  1
  Pd  Pd23  1  0.568066  0.143776  0.143776  1
