# generated using pymatgen
data_YLu19ZnBi11
_symmetry_space_group_name_H-M   'P 1'
_cell_length_a   8.07045457
_cell_length_b   9.35214000
_cell_length_c   11.76062600
_cell_angle_alpha   90.00000000
_cell_angle_beta   89.73925764
_cell_angle_gamma   90.00000000
_symmetry_Int_Tables_number   1
_chemical_formula_structural   YLu19ZnBi11
_chemical_formula_sum   'Y1 Lu19 Zn1 Bi11'
_cell_volume   887.63606336
_cell_formula_units_Z   1
loop_
 _symmetry_equiv_pos_site_id
 _symmetry_equiv_pos_as_xyz
  1  'x, y, z'
loop_
 _atom_site_type_symbol
 _atom_site_label
 _atom_site_symmetry_multiplicity
 _atom_site_fract_x
 _atom_site_fract_y
 _atom_site_fract_z
 _atom_site_occupancy
  Y  Y0  1  0.313450  0.750000  0.281821  1
  Lu  Lu1  1  0.036552  0.250000  0.508726  1
  Lu  Lu2  1  0.981931  0.750000  0.491658  1
  Lu  Lu3  1  0.476741  0.750000  0.009372  1
  Lu  Lu4  1  0.525156  0.250000  0.989511  1
  Lu  Lu5  1  0.355351  0.250000  0.295442  1
  Lu  Lu6  1  0.649300  0.750000  0.718159  1
  Lu  Lu7  1  0.150369  0.750000  0.780469  1
  Lu  Lu8  1  0.851011  0.250000  0.216289  1
  Lu  Lu9  1  0.194016  0.250000  0.778432  1
  Lu  Lu10  1  0.808769  0.750000  0.216331  1
  Lu  Lu11  1  0.673340  0.250000  0.708833  1
  Lu  Lu12  1  0.193870  0.067617  0.061872  1
  Lu  Lu13  1  0.806316  0.932978  0.940209  1
  Lu  Lu14  1  0.309559  0.952526  0.558652  1
  Lu  Lu15  1  0.806316  0.567022  0.940209  1
  Lu  Lu16  1  0.682873  0.073275  0.445676  1
  Lu  Lu17  1  0.193870  0.432383  0.061872  1
  Lu  Lu18  1  0.682873  0.426725  0.445676  1
  Lu  Lu19  1  0.309559  0.547474  0.558652  1
  Zn  Zn20  1  0.407438  0.250000  0.539553  1
  Bi  Bi21  1  0.598154  0.750000  0.459112  1
  Bi  Bi22  1  0.095553  0.750000  0.041783  1
  Bi  Bi23  1  0.905412  0.250000  0.953690  1
  Bi  Bi24  1  0.058942  0.003299  0.323463  1
  Bi  Bi25  1  0.936210  0.998535  0.676315  1
  Bi  Bi26  1  0.436017  0.996940  0.824773  1
  Bi  Bi27  1  0.936210  0.501465  0.676315  1
  Bi  Bi28  1  0.564942  0.004920  0.174451  1
  Bi  Bi29  1  0.058942  0.496701  0.323463  1
  Bi  Bi30  1  0.564942  0.495080  0.174451  1
  Bi  Bi31  1  0.436017  0.503060  0.824773  1
