# generated using pymatgen
data_Sc11FeRh3
_symmetry_space_group_name_H-M   'P 1'
_cell_length_a   9.45475747
_cell_length_b   9.45475737
_cell_length_c   9.45475700
_cell_angle_alpha   59.99999780
_cell_angle_beta   59.99999814
_cell_angle_gamma   60.00000044
_symmetry_Int_Tables_number   1
_chemical_formula_structural   Sc11FeRh3
_chemical_formula_sum   'Sc22 Fe2 Rh6'
_cell_volume   597.63516409
_cell_formula_units_Z   2
loop_
 _symmetry_equiv_pos_site_id
 _symmetry_equiv_pos_as_xyz
  1  'x, y, z'
loop_
 _atom_site_type_symbol
 _atom_site_label
 _atom_site_symmetry_multiplicity
 _atom_site_fract_x
 _atom_site_fract_y
 _atom_site_fract_z
 _atom_site_occupancy
  Sc  Sc0  1  0.809049  0.809049  0.190951  1
  Sc  Sc1  1  0.190951  0.809049  0.190951  1
  Sc  Sc2  1  0.809049  0.190951  0.190951  1
  Sc  Sc3  1  0.190951  0.190951  0.809049  1
  Sc  Sc4  1  0.809049  0.190951  0.809049  1
  Sc  Sc5  1  0.190951  0.809049  0.809049  1
  Sc  Sc6  1  0.613711  0.613711  0.158865  1
  Sc  Sc7  1  0.613711  0.158865  0.613711  1
  Sc  Sc8  1  0.158865  0.613711  0.613711  1
  Sc  Sc9  1  0.613711  0.613711  0.613711  1
  Sc  Sc10  1  0.386289  0.386289  0.841135  1
  Sc  Sc11  1  0.386289  0.841135  0.386289  1
  Sc  Sc12  1  0.841135  0.386289  0.386289  1
  Sc  Sc13  1  0.386289  0.386289  0.386289  1
  Sc  Sc14  1  0.841605  0.841605  0.475182  1
  Sc  Sc15  1  0.841605  0.475182  0.841605  1
  Sc  Sc16  1  0.475182  0.841605  0.841605  1
  Sc  Sc17  1  0.841605  0.841605  0.841605  1
  Sc  Sc18  1  0.158395  0.158395  0.524818  1
  Sc  Sc19  1  0.158395  0.524818  0.158395  1
  Sc  Sc20  1  0.524818  0.158395  0.158395  1
  Sc  Sc21  1  0.158395  0.158395  0.158395  1
  Fe  Fe22  1  0.000000  0.000000  0.000000  1
  Fe  Fe23  1  0.500000  0.500000  0.500000  1
  Rh  Rh24  1  0.000000  0.000000  0.500000  1
  Rh  Rh25  1  0.500000  0.000000  0.500000  1
  Rh  Rh26  1  0.000000  0.500000  0.500000  1
  Rh  Rh27  1  0.500000  0.500000  0.000000  1
  Rh  Rh28  1  0.000000  0.500000  0.000000  1
  Rh  Rh29  1  0.500000  0.000000  0.000000  1
