# generated using pymatgen
data_Sc20Si7SnSb8
_symmetry_space_group_name_H-M   'P 1'
_cell_length_a   7.37679829
_cell_length_b   7.41096604
_cell_length_c   14.28886500
_cell_angle_alpha   90.00000000
_cell_angle_beta   90.00000000
_cell_angle_gamma   89.28941479
_symmetry_Int_Tables_number   1
_chemical_formula_structural   Sc20Si7SnSb8
_chemical_formula_sum   'Sc20 Si7 Sn1 Sb8'
_cell_volume   781.10076705
_cell_formula_units_Z   1
loop_
 _symmetry_equiv_pos_site_id
 _symmetry_equiv_pos_as_xyz
  1  'x, y, z'
loop_
 _atom_site_type_symbol
 _atom_site_label
 _atom_site_symmetry_multiplicity
 _atom_site_fract_x
 _atom_site_fract_y
 _atom_site_fract_z
 _atom_site_occupancy
  Sc  Sc0  1  0.215421  0.993239  0.750000  1
  Sc  Sc1  1  0.784531  0.000783  0.250000  1
  Sc  Sc2  1  0.283983  0.494373  0.250000  1
  Sc  Sc3  1  0.707025  0.509995  0.750000  1
  Sc  Sc4  1  0.046966  0.691284  0.612949  1
  Sc  Sc5  1  0.952935  0.320719  0.382948  1
  Sc  Sc6  1  0.450935  0.175129  0.382225  1
  Sc  Sc7  1  0.952935  0.320719  0.117052  1
  Sc  Sc8  1  0.546215  0.824213  0.614228  1
  Sc  Sc9  1  0.046966  0.691284  0.887051  1
  Sc  Sc10  1  0.546215  0.824213  0.885772  1
  Sc  Sc11  1  0.450935  0.175129  0.117775  1
  Sc  Sc12  1  0.399280  0.336101  0.628465  1
  Sc  Sc13  1  0.613531  0.660736  0.367594  1
  Sc  Sc14  1  0.115880  0.835706  0.368208  1
  Sc  Sc15  1  0.613531  0.660736  0.132406  1
  Sc  Sc16  1  0.873346  0.153583  0.627175  1
  Sc  Sc17  1  0.399280  0.336101  0.871535  1
  Sc  Sc18  1  0.873346  0.153583  0.872825  1
  Sc  Sc19  1  0.115880  0.835706  0.131792  1
  Si  Si20  1  0.913866  0.614946  0.250000  1
  Si  Si21  1  0.412883  0.882427  0.250000  1
  Si  Si22  1  0.584255  0.114944  0.750000  1
  Si  Si23  1  0.353086  0.642919  0.750000  1
  Si  Si24  1  0.655052  0.361409  0.250000  1
  Si  Si25  1  0.154840  0.133996  0.250000  1
  Si  Si26  1  0.844260  0.864679  0.750000  1
  Sn  Sn27  1  0.082580  0.382057  0.750000  1
  Sb  Sb28  1  0.225475  0.030707  0.539840  1
  Sb  Sb29  1  0.771625  0.971617  0.456527  1
  Sb  Sb30  1  0.273341  0.523769  0.458862  1
  Sb  Sb31  1  0.771625  0.971617  0.043473  1
  Sb  Sb32  1  0.734580  0.478556  0.540497  1
  Sb  Sb33  1  0.225475  0.030707  0.960160  1
  Sb  Sb34  1  0.734580  0.478556  0.959503  1
  Sb  Sb35  1  0.273341  0.523769  0.041138  1
