# generated using pymatgen
data_PuHg4S2Cl5
_symmetry_space_group_name_H-M   'P 1'
_cell_length_a   8.29394158
_cell_length_b   10.49373100
_cell_length_c   9.06132200
_cell_angle_alpha   90.00000000
_cell_angle_beta   113.07156051
_cell_angle_gamma   90.00000000
_symmetry_Int_Tables_number   1
_chemical_formula_structural   PuHg4S2Cl5
_chemical_formula_sum   'Pu2 Hg8 S4 Cl10'
_cell_volume   725.56763538
_cell_formula_units_Z   2
loop_
 _symmetry_equiv_pos_site_id
 _symmetry_equiv_pos_as_xyz
  1  'x, y, z'
loop_
 _atom_site_type_symbol
 _atom_site_label
 _atom_site_symmetry_multiplicity
 _atom_site_fract_x
 _atom_site_fract_y
 _atom_site_fract_z
 _atom_site_occupancy
  Pu  Pu0  1  0.501501  0.430896  0.506173  1
  Pu  Pu1  1  0.498499  0.930896  0.493827  1
  Hg  Hg2  1  0.925033  0.182771  0.328757  1
  Hg  Hg3  1  0.074967  0.682771  0.671243  1
  Hg  Hg4  1  0.948271  0.667367  0.356964  1
  Hg  Hg5  1  0.051729  0.167367  0.643036  1
  Hg  Hg6  1  0.496857  0.182009  0.986346  1
  Hg  Hg7  1  0.503143  0.682009  0.013654  1
  Hg  Hg8  1  0.806614  0.432222  0.017665  1
  Hg  Hg9  1  0.193386  0.932222  0.982335  1
  S  S10  1  0.800819  0.200112  0.027415  1
  S  S11  1  0.199181  0.700112  0.972585  1
  S  S12  1  0.193238  0.162207  0.944038  1
  S  S13  1  0.806762  0.662207  0.055962  1
  Cl  Cl14  1  0.841392  0.925122  0.686302  1
  Cl  Cl15  1  0.158608  0.425122  0.313698  1
  Cl  Cl16  1  0.846549  0.438123  0.708218  1
  Cl  Cl17  1  0.153451  0.938123  0.291782  1
  Cl  Cl18  1  0.408404  0.455662  0.763050  1
  Cl  Cl19  1  0.591596  0.955662  0.236950  1
  Cl  Cl20  1  0.594041  0.397230  0.256141  1
  Cl  Cl21  1  0.405959  0.897230  0.743859  1
  Cl  Cl22  1  0.493893  0.179880  0.569033  1
  Cl  Cl23  1  0.506107  0.679880  0.430967  1
