# generated using pymatgen
data_Nd6Y10MgCd3Ir4
_symmetry_space_group_name_H-M   'P 1'
_cell_length_a   9.80585765
_cell_length_b   9.80585816
_cell_length_c   9.80585706
_cell_angle_alpha   59.83600002
_cell_angle_beta   59.83599602
_cell_angle_gamma   59.83600309
_symmetry_Int_Tables_number   1
_chemical_formula_structural   Nd6Y10MgCd3Ir4
_chemical_formula_sum   'Nd6 Y10 Mg1 Cd3 Ir4'
_cell_volume   664.23574326
_cell_formula_units_Z   1
loop_
 _symmetry_equiv_pos_site_id
 _symmetry_equiv_pos_as_xyz
  1  'x, y, z'
loop_
 _atom_site_type_symbol
 _atom_site_label
 _atom_site_symmetry_multiplicity
 _atom_site_fract_x
 _atom_site_fract_y
 _atom_site_fract_z
 _atom_site_occupancy
  Nd  Nd0  1  0.940091  0.560101  0.560101  1
  Nd  Nd1  1  0.558169  0.941181  0.941181  1
  Nd  Nd2  1  0.560101  0.940091  0.560101  1
  Nd  Nd3  1  0.941181  0.558169  0.941181  1
  Nd  Nd4  1  0.560101  0.560101  0.940091  1
  Nd  Nd5  1  0.941181  0.941181  0.558169  1
  Y  Y6  1  0.348213  0.348213  0.348213  1
  Y  Y7  1  0.347734  0.347734  0.958502  1
  Y  Y8  1  0.347734  0.958502  0.347734  1
  Y  Y9  1  0.958502  0.347734  0.347734  1
  Y  Y10  1  0.810880  0.188848  0.188848  1
  Y  Y11  1  0.185370  0.812670  0.812670  1
  Y  Y12  1  0.188848  0.810880  0.188848  1
  Y  Y13  1  0.812670  0.185370  0.812670  1
  Y  Y14  1  0.188848  0.188848  0.810880  1
  Y  Y15  1  0.812670  0.812670  0.185370  1
  Mg  Mg16  1  0.575211  0.575211  0.575211  1
  Cd  Cd17  1  0.580181  0.580181  0.259470  1
  Cd  Cd18  1  0.580181  0.259470  0.580181  1
  Cd  Cd19  1  0.259470  0.580181  0.580181  1
  Ir  Ir20  1  0.141363  0.141363  0.141363  1
  Ir  Ir21  1  0.142325  0.142325  0.576650  1
  Ir  Ir22  1  0.142325  0.576650  0.142325  1
  Ir  Ir23  1  0.576650  0.142325  0.142325  1
