# generated using pymatgen
data_DyYSc3Si7Pd9
_symmetry_space_group_name_H-M   'P 1'
_cell_length_a   10.06139200
_cell_length_b   10.06139194
_cell_length_c   3.98575300
_cell_angle_alpha   90.00000000
_cell_angle_beta   90.00000000
_cell_angle_gamma   120.00000020
_symmetry_Int_Tables_number   1
_chemical_formula_structural   DyYSc3Si7Pd9
_chemical_formula_sum   'Dy1 Y1 Sc3 Si7 Pd9'
_cell_volume   349.42755507
_cell_formula_units_Z   1
loop_
 _symmetry_equiv_pos_site_id
 _symmetry_equiv_pos_as_xyz
  1  'x, y, z'
loop_
 _atom_site_type_symbol
 _atom_site_label
 _atom_site_symmetry_multiplicity
 _atom_site_fract_x
 _atom_site_fract_y
 _atom_site_fract_z
 _atom_site_occupancy
  Dy  Dy0  1  0.333333  0.666667  0.500000  1
  Y  Y1  1  0.000000  0.000000  0.000000  1
  Sc  Sc2  1  0.892210  0.453199  0.500000  1
  Sc  Sc3  1  0.560990  0.107790  0.500000  1
  Sc  Sc4  1  0.546801  0.439010  0.500000  1
  Si  Si5  1  0.247111  0.197239  0.500000  1
  Si  Si6  1  0.802761  0.049873  0.500000  1
  Si  Si7  1  0.950127  0.752889  0.500000  1
  Si  Si8  1  0.553863  0.645147  0.000000  1
  Si  Si9  1  0.354853  0.908714  0.000000  1
  Si  Si10  1  0.091286  0.446137  0.000000  1
  Si  Si11  1  0.666667  0.333333  0.000000  1
  Pd  Pd12  1  0.221730  0.936332  0.500000  1
  Pd  Pd13  1  0.063668  0.285398  0.500000  1
  Pd  Pd14  1  0.714602  0.778270  0.500000  1
  Pd  Pd15  1  0.306561  0.401799  0.000000  1
  Pd  Pd16  1  0.598201  0.904762  0.000000  1
  Pd  Pd17  1  0.095238  0.693439  0.000000  1
  Pd  Pd18  1  0.380370  0.167285  0.000000  1
  Pd  Pd19  1  0.832715  0.213086  0.000000  1
  Pd  Pd20  1  0.786914  0.619630  0.000000  1
