# generated using pymatgen
data_CeDy4(FeB3)2
_symmetry_space_group_name_H-M   'P 1'
_cell_length_a   5.43376003
_cell_length_b   5.43376007
_cell_length_c   8.02418541
_cell_angle_alpha   70.20922391
_cell_angle_beta   70.20922642
_cell_angle_gamma   59.99998731
_symmetry_Int_Tables_number   1
_chemical_formula_structural   CeDy4(FeB3)2
_chemical_formula_sum   'Ce1 Dy4 Fe2 B6'
_cell_volume   188.84760895
_cell_formula_units_Z   1
loop_
 _symmetry_equiv_pos_site_id
 _symmetry_equiv_pos_as_xyz
  1  'x, y, z'
loop_
 _atom_site_type_symbol
 _atom_site_label
 _atom_site_symmetry_multiplicity
 _atom_site_fract_x
 _atom_site_fract_y
 _atom_site_fract_z
 _atom_site_occupancy
  Ce  Ce0  1  0.000000  0.000000  0.000000  1
  Dy  Dy1  1  0.252807  0.252807  0.241579  1
  Dy  Dy2  1  0.747193  0.747193  0.758421  1
  Dy  Dy3  1  0.414327  0.414327  0.757020  1
  Dy  Dy4  1  0.585673  0.585673  0.242980  1
  Fe  Fe5  1  0.110480  0.110480  0.668560  1
  Fe  Fe6  1  0.889520  0.889520  0.331440  1
  B  B7  1  0.166877  0.833123  0.500000  1
  B  B8  1  0.833123  0.500000  0.500000  1
  B  B9  1  0.500000  0.166877  0.500000  1
  B  B10  1  0.166877  0.500000  0.500000  1
  B  B11  1  0.500000  0.833123  0.500000  1
  B  B12  1  0.833123  0.166877  0.500000  1
