# generated using pymatgen
data_Tm4Mg(GeB4)2
_symmetry_space_group_name_H-M   'P 1'
_cell_length_a   7.13490600
_cell_length_b   7.13490600
_cell_length_c   7.79434700
_cell_angle_alpha   90.00000000
_cell_angle_beta   90.00000000
_cell_angle_gamma   90.00000000
_symmetry_Int_Tables_number   1
_chemical_formula_structural   Tm4Mg(GeB4)2
_chemical_formula_sum   'Tm8 Mg2 Ge4 B16'
_cell_volume   396.78591569
_cell_formula_units_Z   2
loop_
 _symmetry_equiv_pos_site_id
 _symmetry_equiv_pos_as_xyz
  1  'x, y, z'
loop_
 _atom_site_type_symbol
 _atom_site_label
 _atom_site_symmetry_multiplicity
 _atom_site_fract_x
 _atom_site_fract_y
 _atom_site_fract_z
 _atom_site_occupancy
  Tm  Tm0  1  0.682178  0.182178  0.228305  1
  Tm  Tm1  1  0.317822  0.817822  0.771695  1
  Tm  Tm2  1  0.317822  0.817822  0.228305  1
  Tm  Tm3  1  0.817822  0.682178  0.228305  1
  Tm  Tm4  1  0.817822  0.682178  0.771695  1
  Tm  Tm5  1  0.682178  0.182178  0.771695  1
  Tm  Tm6  1  0.182178  0.317822  0.771695  1
  Tm  Tm7  1  0.182178  0.317822  0.228305  1
  Mg  Mg8  1  0.000000  0.000000  0.500000  1
  Mg  Mg9  1  0.500000  0.500000  0.500000  1
  Ge  Ge10  1  0.121179  0.621179  0.500000  1
  Ge  Ge11  1  0.878821  0.378821  0.500000  1
  Ge  Ge12  1  0.378821  0.121179  0.500000  1
  Ge  Ge13  1  0.621179  0.878821  0.500000  1
  B  B14  1  0.173960  0.039537  0.000000  1
  B  B15  1  0.826040  0.960463  0.000000  1
  B  B16  1  0.960463  0.173960  0.000000  1
  B  B17  1  0.326040  0.539537  0.000000  1
  B  B18  1  0.039537  0.826040  0.000000  1
  B  B19  1  0.673960  0.460463  0.000000  1
  B  B20  1  0.539537  0.673960  0.000000  1
  B  B21  1  0.460463  0.326040  0.000000  1
  B  B22  1  0.088813  0.588813  0.000000  1
  B  B23  1  0.911187  0.411187  0.000000  1
  B  B24  1  0.411187  0.088813  0.000000  1
  B  B25  1  0.588813  0.911187  0.000000  1
  B  B26  1  0.000000  0.000000  0.165228  1
  B  B27  1  0.000000  0.000000  0.834772  1
  B  B28  1  0.500000  0.500000  0.834772  1
  B  B29  1  0.500000  0.500000  0.165228  1
