# generated using pymatgen
data_Cs12Rb6TlInSb8
_symmetry_space_group_name_H-M   'P 1'
_cell_length_a   11.42659600
_cell_length_b   11.42659687
_cell_length_c   12.06375800
_cell_angle_alpha   90.00000000
_cell_angle_beta   90.00000000
_cell_angle_gamma   119.99999168
_symmetry_Int_Tables_number   1
_chemical_formula_structural   Cs12Rb6TlInSb8
_chemical_formula_sum   'Cs12 Rb6 Tl1 In1 Sb8'
_cell_volume   1364.10268347
_cell_formula_units_Z   1
loop_
 _symmetry_equiv_pos_site_id
 _symmetry_equiv_pos_as_xyz
  1  'x, y, z'
loop_
 _atom_site_type_symbol
 _atom_site_label
 _atom_site_symmetry_multiplicity
 _atom_site_fract_x
 _atom_site_fract_y
 _atom_site_fract_z
 _atom_site_occupancy
  Cs  Cs0  1  0.208157  0.416314  0.542987  1
  Cs  Cs1  1  0.791786  0.208214  0.042888  1
  Cs  Cs2  1  0.416428  0.208214  0.042888  1
  Cs  Cs3  1  0.583686  0.791843  0.542987  1
  Cs  Cs4  1  0.208157  0.791843  0.542987  1
  Cs  Cs5  1  0.791784  0.583570  0.457110  1
  Cs  Cs6  1  0.791784  0.208216  0.457110  1
  Cs  Cs7  1  0.791786  0.583572  0.042888  1
  Cs  Cs8  1  0.416430  0.208216  0.457110  1
  Cs  Cs9  1  0.583686  0.791843  0.957013  1
  Cs  Cs10  1  0.208157  0.416314  0.957013  1
  Cs  Cs11  1  0.208157  0.791843  0.957013  1
  Rb  Rb12  1  0.119286  0.238569  0.249994  1
  Rb  Rb13  1  0.880719  0.119281  0.750004  1
  Rb  Rb14  1  0.238559  0.119281  0.750004  1
  Rb  Rb15  1  0.761431  0.880714  0.249994  1
  Rb  Rb16  1  0.119286  0.880714  0.249994  1
  Rb  Rb17  1  0.880719  0.761441  0.750004  1
  Tl  Tl18  1  0.333333  0.666667  0.250000  1
  In  In19  1  0.666667  0.333333  0.750003  1
  Sb  Sb20  1  0.481245  0.518755  0.250001  1
  Sb  Sb21  1  0.957108  0.478554  0.750001  1
  Sb  Sb22  1  0.521446  0.042892  0.750001  1
  Sb  Sb23  1  0.481245  0.962489  0.250001  1
  Sb  Sb24  1  0.037511  0.518755  0.250001  1
  Sb  Sb25  1  0.521446  0.478554  0.750001  1
  Sb  Sb26  1  0.000000  0.000000  0.000010  1
  Sb  Sb27  1  0.000000  0.000000  0.499991  1
