# generated using pymatgen
data_Tb3YIr3RhO14
_symmetry_space_group_name_H-M   'P 1'
_cell_length_a   7.26292522
_cell_length_b   7.25397040
_cell_length_c   7.26292510
_cell_angle_alpha   60.00247265
_cell_angle_beta   60.04285079
_cell_angle_gamma   60.00246813
_symmetry_Int_Tables_number   1
_chemical_formula_structural   Tb3YIr3RhO14
_chemical_formula_sum   'Tb3 Y1 Ir3 Rh1 O14'
_cell_volume   270.67029211
_cell_formula_units_Z   1
loop_
 _symmetry_equiv_pos_site_id
 _symmetry_equiv_pos_as_xyz
  1  'x, y, z'
loop_
 _atom_site_type_symbol
 _atom_site_label
 _atom_site_symmetry_multiplicity
 _atom_site_fract_x
 _atom_site_fract_y
 _atom_site_fract_z
 _atom_site_occupancy
  Tb  Tb0  1  0.625000  0.125000  0.125000  1
  Tb  Tb1  1  0.125000  0.125000  0.625000  1
  Tb  Tb2  1  0.125000  0.125000  0.125000  1
  Y  Y3  1  0.125000  0.625000  0.125000  1
  Ir  Ir4  1  0.125000  0.625000  0.625000  1
  Ir  Ir5  1  0.625000  0.125000  0.625000  1
  Ir  Ir6  1  0.625000  0.625000  0.125000  1
  Rh  Rh7  1  0.625000  0.625000  0.625000  1
  O  O8  1  0.713730  0.713039  0.284201  1
  O  O9  1  0.290146  0.289675  0.713762  1
  O  O10  1  0.713505  0.283914  0.713505  1
  O  O11  1  0.290000  0.713418  0.290000  1
  O  O12  1  0.284201  0.713039  0.713730  1
  O  O13  1  0.713762  0.289675  0.290146  1
  O  O14  1  0.536270  0.536961  0.965799  1
  O  O15  1  0.959854  0.960325  0.536238  1
  O  O16  1  0.536495  0.966086  0.536495  1
  O  O17  1  0.960000  0.536582  0.960000  1
  O  O18  1  0.965799  0.536961  0.536270  1
  O  O19  1  0.536238  0.960325  0.959854  1
  O  O20  1  0.249160  0.250865  0.249160  1
  O  O21  1  0.000840  0.999135  0.000840  1
