# generated using pymatgen
data_Li6TaMn5Pt12
_symmetry_space_group_name_H-M   'P 1'
_cell_length_a   4.11823500
_cell_length_b   6.81120800
_cell_length_c   12.31909700
_cell_angle_alpha   89.99997764
_cell_angle_beta   89.99947520
_cell_angle_gamma   89.99996926
_symmetry_Int_Tables_number   1
_chemical_formula_structural   Li6TaMn5Pt12
_chemical_formula_sum   'Li6 Ta1 Mn5 Pt12'
_cell_volume   345.55258249
_cell_formula_units_Z   1
loop_
 _symmetry_equiv_pos_site_id
 _symmetry_equiv_pos_as_xyz
  1  'x, y, z'
loop_
 _atom_site_type_symbol
 _atom_site_label
 _atom_site_symmetry_multiplicity
 _atom_site_fract_x
 _atom_site_fract_y
 _atom_site_fract_z
 _atom_site_occupancy
  Li  Li0  1  0.000000  0.500000  0.000000  1
  Li  Li1  1  0.499950  0.000000  0.172787  1
  Li  Li2  1  0.999910  0.500001  0.337370  1
  Li  Li3  1  0.500000  0.000000  0.500000  1
  Li  Li4  1  0.000091  0.499999  0.662631  1
  Li  Li5  1  0.500051  0.000000  0.827213  1
  Ta  Ta6  1  0.000000  0.000000  0.000000  1
  Mn  Mn7  1  0.499948  0.499998  0.170136  1
  Mn  Mn8  1  0.999962  0.000005  0.335433  1
  Mn  Mn9  1  0.500000  0.500000  0.500000  1
  Mn  Mn10  1  0.000039  0.999995  0.664567  1
  Mn  Mn11  1  0.500053  0.500002  0.829864  1
  Pt  Pt12  1  0.499998  0.249042  0.000001  1
  Pt  Pt13  1  0.500002  0.750960  0.999999  1
  Pt  Pt14  1  0.999954  0.249384  0.167046  1
  Pt  Pt15  1  0.999956  0.750617  0.167046  1
  Pt  Pt16  1  0.499929  0.250343  0.334033  1
  Pt  Pt17  1  0.499929  0.749658  0.334034  1
  Pt  Pt18  1  0.000001  0.248759  0.499999  1
  Pt  Pt19  1  0.999999  0.751241  0.500001  1
  Pt  Pt20  1  0.500072  0.250342  0.665967  1
  Pt  Pt21  1  0.500072  0.749657  0.665968  1
  Pt  Pt22  1  0.000043  0.249383  0.832954  1
  Pt  Pt23  1  0.000045  0.750616  0.832954  1
