# generated using pymatgen
data_CeEr7(CdNi)2
_symmetry_space_group_name_H-M   'P 1'
_cell_length_a   9.49490635
_cell_length_b   9.49490657
_cell_length_c   9.55006500
_cell_angle_alpha   59.80764078
_cell_angle_beta   59.80764002
_cell_angle_gamma   59.69237054
_symmetry_Int_Tables_number   1
_chemical_formula_structural   CeEr7(CdNi)2
_chemical_formula_sum   'Ce2 Er14 Cd4 Ni4'
_cell_volume   605.60556735
_cell_formula_units_Z   2
loop_
 _symmetry_equiv_pos_site_id
 _symmetry_equiv_pos_as_xyz
  1  'x, y, z'
loop_
 _atom_site_type_symbol
 _atom_site_label
 _atom_site_symmetry_multiplicity
 _atom_site_fract_x
 _atom_site_fract_y
 _atom_site_fract_z
 _atom_site_occupancy
  Ce  Ce0  1  0.345208  0.345208  0.350278  1
  Ce  Ce1  1  0.345208  0.345208  0.959307  1
  Er  Er2  1  0.349672  0.949360  0.350484  1
  Er  Er3  1  0.949360  0.349672  0.350484  1
  Er  Er4  1  0.813048  0.188687  0.186998  1
  Er  Er5  1  0.188687  0.813048  0.811267  1
  Er  Er6  1  0.188687  0.813048  0.186998  1
  Er  Er7  1  0.813048  0.188687  0.811267  1
  Er  Er8  1  0.188028  0.188028  0.811972  1
  Er  Er9  1  0.812016  0.812016  0.187984  1
  Er  Er10  1  0.937037  0.563897  0.565205  1
  Er  Er11  1  0.563897  0.937037  0.933861  1
  Er  Er12  1  0.563897  0.937037  0.565205  1
  Er  Er13  1  0.937037  0.563897  0.933861  1
  Er  Er14  1  0.564126  0.564126  0.935874  1
  Er  Er15  1  0.935595  0.935595  0.564405  1
  Cd  Cd16  1  0.581908  0.581908  0.581628  1
  Cd  Cd17  1  0.581908  0.581908  0.254556  1
  Cd  Cd18  1  0.582257  0.254527  0.581607  1
  Cd  Cd19  1  0.254527  0.582257  0.581607  1
  Ni  Ni20  1  0.144226  0.144226  0.141590  1
  Ni  Ni21  1  0.144226  0.144226  0.569959  1
  Ni  Ni22  1  0.146734  0.569665  0.141800  1
  Ni  Ni23  1  0.569665  0.146734  0.141800  1
