# generated using pymatgen
data_CaYEr(Si3Pd10)2
_symmetry_space_group_name_H-M   'P 1'
_cell_length_a   8.71683068
_cell_length_b   8.71683088
_cell_length_c   8.71683100
_cell_angle_alpha   60.00000335
_cell_angle_beta   60.00000256
_cell_angle_gamma   60.00000469
_symmetry_Int_Tables_number   1
_chemical_formula_structural   CaYEr(Si3Pd10)2
_chemical_formula_sum   'Ca1 Y1 Er1 Si6 Pd20'
_cell_volume   468.33961349
_cell_formula_units_Z   1
loop_
 _symmetry_equiv_pos_site_id
 _symmetry_equiv_pos_as_xyz
  1  'x, y, z'
loop_
 _atom_site_type_symbol
 _atom_site_label
 _atom_site_symmetry_multiplicity
 _atom_site_fract_x
 _atom_site_fract_y
 _atom_site_fract_z
 _atom_site_occupancy
  Ca  Ca0  1  0.250000  0.250000  0.250000  1
  Y  Y1  1  0.750000  0.750000  0.750000  1
  Er  Er2  1  0.000000  0.000000  0.000000  1
  Si  Si3  1  0.732381  0.267619  0.267619  1
  Si  Si4  1  0.267619  0.732381  0.732381  1
  Si  Si5  1  0.267619  0.732381  0.267619  1
  Si  Si6  1  0.732381  0.267619  0.732381  1
  Si  Si7  1  0.267619  0.267619  0.732381  1
  Si  Si8  1  0.732381  0.732381  0.267619  1
  Pd  Pd9  1  0.345093  0.999412  0.999412  1
  Pd  Pd10  1  0.656083  0.999412  0.999412  1
  Pd  Pd11  1  0.999412  0.345093  0.656083  1
  Pd  Pd12  1  0.999412  0.656083  0.345093  1
  Pd  Pd13  1  0.999412  0.345093  0.999412  1
  Pd  Pd14  1  0.656083  0.999412  0.345093  1
  Pd  Pd15  1  0.999412  0.656083  0.999412  1
  Pd  Pd16  1  0.345093  0.999412  0.656083  1
  Pd  Pd17  1  0.999412  0.999412  0.345093  1
  Pd  Pd18  1  0.999412  0.999412  0.656083  1
  Pd  Pd19  1  0.656083  0.345093  0.999412  1
  Pd  Pd20  1  0.345093  0.656083  0.999412  1
  Pd  Pd21  1  0.384286  0.384286  0.384286  1
  Pd  Pd22  1  0.616190  0.616190  0.616190  1
  Pd  Pd23  1  0.384286  0.384286  0.847144  1
  Pd  Pd24  1  0.384286  0.847144  0.384286  1
  Pd  Pd25  1  0.616190  0.616190  0.151428  1
  Pd  Pd26  1  0.616190  0.151428  0.616190  1
  Pd  Pd27  1  0.847144  0.384286  0.384286  1
  Pd  Pd28  1  0.151428  0.616190  0.616190  1
