# generated using pymatgen
data_Tb2Gd2ErSn4
_symmetry_space_group_name_H-M   'P 1'
_cell_length_a   8.08006900
_cell_length_b   8.24153100
_cell_length_c   15.58450900
_cell_angle_alpha   90.00000000
_cell_angle_beta   90.00000000
_cell_angle_gamma   90.00000000
_symmetry_Int_Tables_number   1
_chemical_formula_structural   Tb2Gd2ErSn4
_chemical_formula_sum   'Tb8 Gd8 Er4 Sn16'
_cell_volume   1037.80579184
_cell_formula_units_Z   4
loop_
 _symmetry_equiv_pos_site_id
 _symmetry_equiv_pos_as_xyz
  1  'x, y, z'
loop_
 _atom_site_type_symbol
 _atom_site_label
 _atom_site_symmetry_multiplicity
 _atom_site_fract_x
 _atom_site_fract_y
 _atom_site_fract_z
 _atom_site_occupancy
  Tb  Tb0  1  0.365520  0.835975  0.877586  1
  Tb  Tb1  1  0.865520  0.664025  0.622414  1
  Tb  Tb2  1  0.634480  0.164025  0.377586  1
  Tb  Tb3  1  0.134480  0.335975  0.122414  1
  Tb  Tb4  1  0.634480  0.164025  0.122414  1
  Tb  Tb5  1  0.134480  0.335975  0.377586  1
  Tb  Tb6  1  0.365520  0.835975  0.622414  1
  Tb  Tb7  1  0.865520  0.664025  0.877586  1
  Gd  Gd8  1  0.519029  0.319184  0.903414  1
  Gd  Gd9  1  0.019029  0.180816  0.596586  1
  Gd  Gd10  1  0.480971  0.680816  0.403414  1
  Gd  Gd11  1  0.980971  0.819184  0.096586  1
  Gd  Gd12  1  0.480971  0.680816  0.096586  1
  Gd  Gd13  1  0.980971  0.819184  0.403414  1
  Gd  Gd14  1  0.519029  0.319184  0.596586  1
  Gd  Gd15  1  0.019029  0.180816  0.903414  1
  Er  Er16  1  0.197753  0.501094  0.750000  1
  Er  Er17  1  0.697753  0.998906  0.750000  1
  Er  Er18  1  0.802247  0.498906  0.250000  1
  Er  Er19  1  0.302247  0.001094  0.250000  1
  Sn  Sn20  1  0.295579  0.036246  0.042136  1
  Sn  Sn21  1  0.795579  0.463754  0.457864  1
  Sn  Sn22  1  0.704421  0.963754  0.542136  1
  Sn  Sn23  1  0.204421  0.536246  0.957864  1
  Sn  Sn24  1  0.704421  0.963754  0.957864  1
  Sn  Sn25  1  0.204421  0.536246  0.542136  1
  Sn  Sn26  1  0.295579  0.036246  0.457864  1
  Sn  Sn27  1  0.795579  0.463754  0.042136  1
  Sn  Sn28  1  0.562937  0.616809  0.750000  1
  Sn  Sn29  1  0.062937  0.883191  0.750000  1
  Sn  Sn30  1  0.437063  0.383191  0.250000  1
  Sn  Sn31  1  0.937063  0.116809  0.250000  1
  Sn  Sn32  1  0.326795  0.146847  0.750000  1
  Sn  Sn33  1  0.826795  0.353153  0.750000  1
  Sn  Sn34  1  0.673205  0.853153  0.250000  1
  Sn  Sn35  1  0.173205  0.646847  0.250000  1
