# generated using pymatgen
data_Y4Co15As12Ru5
_symmetry_space_group_name_H-M   'P 1'
_cell_length_a   3.83037600
_cell_length_b   10.79288344
_cell_length_c   12.27100809
_cell_angle_alpha   90.11756933
_cell_angle_beta   90.00000000
_cell_angle_gamma   90.00000000
_symmetry_Int_Tables_number   1
_chemical_formula_structural   Y4Co15As12Ru5
_chemical_formula_sum   'Y4 Co15 As12 Ru5'
_cell_volume   507.29224382
_cell_formula_units_Z   1
loop_
 _symmetry_equiv_pos_site_id
 _symmetry_equiv_pos_as_xyz
  1  'x, y, z'
loop_
 _atom_site_type_symbol
 _atom_site_label
 _atom_site_symmetry_multiplicity
 _atom_site_fract_x
 _atom_site_fract_y
 _atom_site_fract_z
 _atom_site_occupancy
  Y  Y0  1  0.250000  0.585665  0.705052  1
  Y  Y1  1  0.250000  0.915917  0.203294  1
  Y  Y2  1  0.750000  0.415960  0.293567  1
  Y  Y3  1  0.750000  0.083886  0.796662  1
  Co  Co4  1  0.250000  0.092765  0.988292  1
  Co  Co5  1  0.750000  0.596785  0.512892  1
  Co  Co6  1  0.750000  0.906871  0.011454  1
  Co  Co7  1  0.250000  0.216203  0.174440  1
  Co  Co8  1  0.250000  0.280057  0.679220  1
  Co  Co9  1  0.750000  0.783889  0.824122  1
  Co  Co10  1  0.750000  0.717921  0.323045  1
  Co  Co11  1  0.250000  0.886231  0.700355  1
  Co  Co12  1  0.250000  0.616105  0.197905  1
  Co  Co13  1  0.750000  0.113551  0.299171  1
  Co  Co14  1  0.750000  0.385940  0.801622  1
  Co  Co15  1  0.250000  0.466255  0.930938  1
  Co  Co16  1  0.250000  0.032900  0.431753  1
  Co  Co17  1  0.750000  0.534423  0.067932  1
  Co  Co18  1  0.750000  0.964888  0.568982  1
  As  As19  1  0.250000  0.417712  0.113027  1
  As  As20  1  0.250000  0.081357  0.613927  1
  As  As21  1  0.750000  0.583384  0.886468  1
  As  As22  1  0.750000  0.917661  0.386027  1
  As  As23  1  0.250000  0.268478  0.868658  1
  As  As24  1  0.250000  0.227094  0.364055  1
  As  As25  1  0.750000  0.731538  0.132202  1
  As  As26  1  0.750000  0.769176  0.633800  1
  As  As27  1  0.250000  0.600162  0.386603  1
  As  As28  1  0.250000  0.904329  0.889952  1
  As  As29  1  0.750000  0.403396  0.614468  1
  As  As30  1  0.750000  0.095319  0.109632  1
  Ru  Ru31  1  0.250000  0.711379  0.990204  1
  Ru  Ru32  1  0.250000  0.789746  0.491277  1
  Ru  Ru33  1  0.750000  0.288226  0.009238  1
  Ru  Ru34  1  0.750000  0.207976  0.511638  1
  Ru  Ru35  1  0.250000  0.406854  0.488124  1
