# generated using pymatgen
data_HgBi5(TeO6)3
_symmetry_space_group_name_H-M   'P 1'
_cell_length_a   9.43224000
_cell_length_b   9.30768335
_cell_length_c   5.45484587
_cell_angle_alpha   90.31001648
_cell_angle_beta   90.00000000
_cell_angle_gamma   120.44368788
_symmetry_Int_Tables_number   1
_chemical_formula_structural   HgBi5(TeO6)3
_chemical_formula_sum   'Hg1 Bi5 Te3 O18'
_cell_volume   412.85914263
_cell_formula_units_Z   1
loop_
 _symmetry_equiv_pos_site_id
 _symmetry_equiv_pos_as_xyz
  1  'x, y, z'
loop_
 _atom_site_type_symbol
 _atom_site_label
 _atom_site_symmetry_multiplicity
 _atom_site_fract_x
 _atom_site_fract_y
 _atom_site_fract_z
 _atom_site_occupancy
  Hg  Hg0  1  0.615344  0.000000  0.500000  1
  Bi  Bi1  1  0.998449  0.621805  0.500497  1
  Bi  Bi2  1  0.992404  0.281645  0.005878  1
  Bi  Bi3  1  0.376644  0.378195  0.499503  1
  Bi  Bi4  1  0.290415  0.000000  0.000000  1
  Bi  Bi5  1  0.710758  0.718355  0.994122  1
  Te  Te6  1  0.331730  0.664758  0.986643  1
  Te  Te7  1  0.002415  0.000000  0.500000  1
  Te  Te8  1  0.666975  0.335242  0.013357  1
  O  O9  1  0.083036  0.877009  0.307328  1
  O  O10  1  0.226486  0.757892  0.779271  1
  O  O11  1  0.137850  0.540260  0.197296  1
  O  O12  1  0.402980  0.862728  0.192873  1
  O  O13  1  0.228967  0.460538  0.780857  1
  O  O14  1  0.125605  0.201410  0.296134  1
  O  O15  1  0.206028  0.122991  0.692672  1
  O  O16  1  0.526136  0.763833  0.773395  1
  O  O17  1  0.455895  0.592078  0.188519  1
  O  O18  1  0.810118  0.923530  0.293038  1
  O  O19  1  0.468595  0.242108  0.220729  1
  O  O20  1  0.597589  0.459740  0.802704  1
  O  O21  1  0.540253  0.137272  0.807127  1
  O  O22  1  0.768429  0.539462  0.219143  1
  O  O23  1  0.924195  0.798590  0.703866  1
  O  O24  1  0.762303  0.236167  0.226605  1
  O  O25  1  0.863816  0.407922  0.811481  1
  O  O26  1  0.886588  0.076470  0.706962  1
