# generated using pymatgen
data_NdTh3U4(ReB6)4
_symmetry_space_group_name_H-M   'P 1'
_cell_length_a   3.72446500
_cell_length_b   9.41739400
_cell_length_c   11.53942300
_cell_angle_alpha   90.00130640
_cell_angle_beta   90.00000000
_cell_angle_gamma   90.00000000
_symmetry_Int_Tables_number   1
_chemical_formula_structural   NdTh3U4(ReB6)4
_chemical_formula_sum   'Nd1 Th3 U4 Re4 B24'
_cell_volume   404.74242695
_cell_formula_units_Z   1
loop_
 _symmetry_equiv_pos_site_id
 _symmetry_equiv_pos_as_xyz
  1  'x, y, z'
loop_
 _atom_site_type_symbol
 _atom_site_label
 _atom_site_symmetry_multiplicity
 _atom_site_fract_x
 _atom_site_fract_y
 _atom_site_fract_z
 _atom_site_occupancy
  Nd  Nd0  1  0.000000  0.335510  0.407561  1
  Th  Th1  1  0.000000  0.664021  0.591754  1
  Th  Th2  1  0.000000  0.834896  0.092655  1
  Th  Th3  1  0.000000  0.165189  0.907591  1
  U  U4  1  0.000000  0.958933  0.397255  1
  U  U5  1  0.000000  0.043060  0.602096  1
  U  U6  1  0.000000  0.457439  0.103048  1
  U  U7  1  0.000000  0.541712  0.897397  1
  Re  Re8  1  0.000000  0.647822  0.317883  1
  Re  Re9  1  0.000000  0.352875  0.682968  1
  Re  Re10  1  0.000000  0.146751  0.181223  1
  Re  Re11  1  0.000000  0.852758  0.817971  1
  B  B12  1  0.500000  0.555257  0.427902  1
  B  B13  1  0.500000  0.444216  0.571913  1
  B  B14  1  0.500000  0.055399  0.072071  1
  B  B15  1  0.500000  0.944528  0.927872  1
  B  B16  1  0.500000  0.745126  0.421638  1
  B  B17  1  0.500000  0.254455  0.578406  1
  B  B18  1  0.500000  0.245630  0.078868  1
  B  B19  1  0.500000  0.754452  0.921538  1
  B  B20  1  0.500000  0.802068  0.275387  1
  B  B21  1  0.500000  0.197985  0.724598  1
  B  B22  1  0.500000  0.301802  0.224898  1
  B  B23  1  0.500000  0.697923  0.775202  1
  B  B24  1  0.500000  0.643296  0.188527  1
  B  B25  1  0.500000  0.356396  0.811784  1
  B  B26  1  0.500000  0.143797  0.311791  1
  B  B27  1  0.500000  0.856275  0.688127  1
  B  B28  1  0.500000  0.991577  0.221003  1
  B  B29  1  0.500000  0.008615  0.779034  1
  B  B30  1  0.500000  0.491477  0.279433  1
  B  B31  1  0.500000  0.508646  0.720328  1
  B  B32  1  0.500000  0.636647  0.037516  1
  B  B33  1  0.500000  0.363505  0.962758  1
  B  B34  1  0.500000  0.136482  0.462550  1
  B  B35  1  0.500000  0.863482  0.537454  1
