# generated using pymatgen
data_SrPa9O20
_symmetry_space_group_name_H-M   'P 1'
_cell_length_a   6.72434996
_cell_length_b   7.75726653
_cell_length_c   8.66840227
_cell_angle_alpha   102.86341063
_cell_angle_beta   97.44805504
_cell_angle_gamma   106.81840236
_symmetry_Int_Tables_number   1
_chemical_formula_structural   SrPa9O20
_chemical_formula_sum   'Sr1 Pa9 O20'
_cell_volume   412.74046751
_cell_formula_units_Z   1
loop_
 _symmetry_equiv_pos_site_id
 _symmetry_equiv_pos_as_xyz
  1  'x, y, z'
loop_
 _atom_site_type_symbol
 _atom_site_label
 _atom_site_symmetry_multiplicity
 _atom_site_fract_x
 _atom_site_fract_y
 _atom_site_fract_z
 _atom_site_occupancy
  Sr  Sr0  1  0.000000  0.500000  0.000000  1
  Pa  Pa1  1  0.799420  0.599500  0.601382  1
  Pa  Pa2  1  0.603210  0.201276  0.199495  1
  Pa  Pa3  1  0.396790  0.798724  0.800505  1
  Pa  Pa4  1  0.799973  0.101046  0.601422  1
  Pa  Pa5  1  0.200580  0.400500  0.398618  1
  Pa  Pa6  1  0.600155  0.699117  0.198761  1
  Pa  Pa7  1  0.000000  0.000000  0.000000  1
  Pa  Pa8  1  0.399845  0.300883  0.801239  1
  Pa  Pa9  1  0.200027  0.898954  0.398578  1
  O  O10  1  0.647233  0.926454  0.049018  1
  O  O11  1  0.445779  0.525164  0.646467  1
  O  O12  1  0.732787  0.366777  0.734903  1
  O  O13  1  0.258139  0.126867  0.251405  1
  O  O14  1  0.630422  0.419072  0.055088  1
  O  O15  1  0.554168  0.978267  0.351002  1
  O  O16  1  0.445832  0.021733  0.648998  1
  O  O17  1  0.049877  0.739040  0.840890  1
  O  O18  1  0.741861  0.873133  0.748595  1
  O  O19  1  0.369578  0.580928  0.944912  1
  O  O20  1  0.852411  0.326085  0.450979  1
  O  O21  1  0.267213  0.633223  0.265097  1
  O  O22  1  0.554221  0.474836  0.353533  1
  O  O23  1  0.150671  0.174510  0.546674  1
  O  O24  1  0.052569  0.206699  0.840195  1
  O  O25  1  0.352767  0.073546  0.950982  1
  O  O26  1  0.849329  0.825490  0.453326  1
  O  O27  1  0.947431  0.793301  0.159805  1
  O  O28  1  0.147589  0.673915  0.549021  1
  O  O29  1  0.950123  0.260960  0.159110  1
