# generated using pymatgen
data_Nd5OsPb2
_symmetry_space_group_name_H-M   'P 1'
_cell_length_a   8.26173200
_cell_length_b   9.25423200
_cell_length_c   12.89485400
_cell_angle_alpha   90.00000000
_cell_angle_beta   90.00000000
_cell_angle_gamma   90.00000000
_symmetry_Int_Tables_number   1
_chemical_formula_structural   Nd5OsPb2
_chemical_formula_sum   'Nd20 Os4 Pb8'
_cell_volume   985.88875949
_cell_formula_units_Z   4
loop_
 _symmetry_equiv_pos_site_id
 _symmetry_equiv_pos_as_xyz
  1  'x, y, z'
loop_
 _atom_site_type_symbol
 _atom_site_label
 _atom_site_symmetry_multiplicity
 _atom_site_fract_x
 _atom_site_fract_y
 _atom_site_fract_z
 _atom_site_occupancy
  Nd  Nd0  1  0.844003  0.750000  0.786286  1
  Nd  Nd1  1  0.155997  0.250000  0.213714  1
  Nd  Nd2  1  0.344003  0.250000  0.713714  1
  Nd  Nd3  1  0.655997  0.750000  0.286286  1
  Nd  Nd4  1  0.377685  0.750000  0.694605  1
  Nd  Nd5  1  0.622315  0.250000  0.305395  1
  Nd  Nd6  1  0.877685  0.250000  0.805395  1
  Nd  Nd7  1  0.122315  0.750000  0.194605  1
  Nd  Nd8  1  0.946988  0.750000  0.501505  1
  Nd  Nd9  1  0.053012  0.250000  0.498495  1
  Nd  Nd10  1  0.446988  0.250000  0.998495  1
  Nd  Nd11  1  0.553012  0.750000  0.001505  1
  Nd  Nd12  1  0.672902  0.035659  0.567891  1
  Nd  Nd13  1  0.327098  0.964341  0.432109  1
  Nd  Nd14  1  0.172902  0.964341  0.932109  1
  Nd  Nd15  1  0.327098  0.535659  0.432109  1
  Nd  Nd16  1  0.827098  0.035659  0.067891  1
  Nd  Nd17  1  0.672902  0.464341  0.567891  1
  Nd  Nd18  1  0.827098  0.464341  0.067891  1
  Nd  Nd19  1  0.172902  0.535659  0.932109  1
  Os  Os20  1  0.579109  0.750000  0.508382  1
  Os  Os21  1  0.420891  0.250000  0.491618  1
  Os  Os22  1  0.079109  0.250000  0.991618  1
  Os  Os23  1  0.920891  0.750000  0.008382  1
  Pb  Pb24  1  0.570966  0.494519  0.829946  1
  Pb  Pb25  1  0.429034  0.505481  0.170054  1
  Pb  Pb26  1  0.070966  0.505481  0.670054  1
  Pb  Pb27  1  0.429034  0.994519  0.170054  1
  Pb  Pb28  1  0.929034  0.494519  0.329946  1
  Pb  Pb29  1  0.570966  0.005481  0.829946  1
  Pb  Pb30  1  0.929034  0.005481  0.329946  1
  Pb  Pb31  1  0.070966  0.994519  0.670054  1
