# generated using pymatgen
data_Eu2Zn3Ga3Ni4
_symmetry_space_group_name_H-M   'P 1'
_cell_length_a   6.35932606
_cell_length_b   6.36188144
_cell_length_c   5.16640800
_cell_angle_alpha   90.00000000
_cell_angle_beta   90.00000000
_cell_angle_gamma   104.02056660
_symmetry_Int_Tables_number   1
_chemical_formula_structural   Eu2Zn3Ga3Ni4
_chemical_formula_sum   'Eu2 Zn3 Ga3 Ni4'
_cell_volume   202.79189100
_cell_formula_units_Z   1
loop_
 _symmetry_equiv_pos_site_id
 _symmetry_equiv_pos_as_xyz
  1  'x, y, z'
loop_
 _atom_site_type_symbol
 _atom_site_label
 _atom_site_symmetry_multiplicity
 _atom_site_fract_x
 _atom_site_fract_y
 _atom_site_fract_z
 _atom_site_occupancy
  Eu  Eu0  1  0.666679  0.661415  0.250000  1
  Eu  Eu1  1  0.338476  0.340229  0.750000  1
  Zn  Zn2  1  0.056878  0.061136  0.250000  1
  Zn  Zn3  1  0.941448  0.940871  0.750000  1
  Zn  Zn4  1  0.083904  0.465973  0.250000  1
  Ga  Ga5  1  0.531199  0.912759  0.750000  1
  Ga  Ga6  1  0.920416  0.531255  0.750000  1
  Ga  Ga7  1  0.466714  0.084486  0.250000  1
  Ni  Ni8  1  0.208722  0.793605  0.499227  1
  Ni  Ni9  1  0.208722  0.793605  0.000773  1
  Ni  Ni10  1  0.788420  0.207332  0.501966  1
  Ni  Ni11  1  0.788420  0.207332  0.998034  1
