# generated using pymatgen
data_Lu8Al9Si7Tc12
_symmetry_space_group_name_H-M   'P 1'
_cell_length_a   6.81167755
_cell_length_b   6.84872392
_cell_length_c   12.83758714
_cell_angle_alpha   89.95716790
_cell_angle_beta   89.97624941
_cell_angle_gamma   89.96013338
_symmetry_Int_Tables_number   1
_chemical_formula_structural   Lu8Al9Si7Tc12
_chemical_formula_sum   'Lu8 Al9 Si7 Tc12'
_cell_volume   598.88975200
_cell_formula_units_Z   1
loop_
 _symmetry_equiv_pos_site_id
 _symmetry_equiv_pos_as_xyz
  1  'x, y, z'
loop_
 _atom_site_type_symbol
 _atom_site_label
 _atom_site_symmetry_multiplicity
 _atom_site_fract_x
 _atom_site_fract_y
 _atom_site_fract_z
 _atom_site_occupancy
  Lu  Lu0  1  0.490501  0.336078  0.093524  1
  Lu  Lu1  1  0.985586  0.167084  0.405868  1
  Lu  Lu2  1  0.510409  0.662816  0.596206  1
  Lu  Lu3  1  0.009316  0.834435  0.907509  1
  Lu  Lu4  1  0.517104  0.666623  0.905334  1
  Lu  Lu5  1  0.014651  0.835673  0.596156  1
  Lu  Lu6  1  0.479563  0.335769  0.404434  1
  Lu  Lu7  1  0.982813  0.165982  0.094033  1
  Al  Al8  1  0.655214  0.055670  0.552300  1
  Al  Al9  1  0.158288  0.445420  0.947298  1
  Al  Al10  1  0.343533  0.944933  0.052186  1
  Al  Al11  1  0.839528  0.552915  0.449054  1
  Al  Al12  1  0.343164  0.944489  0.447213  1
  Al  Al13  1  0.523926  0.348572  0.748244  1
  Al  Al14  1  0.024056  0.152092  0.755473  1
  Al  Al15  1  0.475433  0.655876  0.248038  1
  Al  Al16  1  0.982477  0.851433  0.252385  1
  Si  Si17  1  0.844874  0.549676  0.050453  1
  Si  Si18  1  0.655259  0.049858  0.950104  1
  Si  Si19  1  0.154312  0.449416  0.549727  1
  Si  Si20  1  0.811636  0.638062  0.750225  1
  Si  Si21  1  0.310050  0.863214  0.750809  1
  Si  Si22  1  0.189344  0.358827  0.248029  1
  Si  Si23  1  0.688410  0.139531  0.250490  1
  Tc  Tc24  1  0.830169  0.358343  0.627285  1
  Tc  Tc25  1  0.331228  0.140684  0.875493  1
  Tc  Tc26  1  0.169108  0.640206  0.124372  1
  Tc  Tc27  1  0.683402  0.858524  0.372068  1
  Tc  Tc28  1  0.180028  0.634502  0.375107  1
  Tc  Tc29  1  0.692224  0.854723  0.120552  1
  Tc  Tc30  1  0.810808  0.355421  0.879439  1
  Tc  Tc31  1  0.311444  0.149433  0.624782  1
  Tc  Tc32  1  0.666877  0.982021  0.754654  1
  Tc  Tc33  1  0.166439  0.518678  0.746474  1
  Tc  Tc34  1  0.335932  0.019961  0.249048  1
  Tc  Tc35  1  0.832895  0.483058  0.245629  1
