# generated using pymatgen
data_TaHS2
_symmetry_space_group_name_H-M   'P 1'
_cell_length_a   3.34704600
_cell_length_b   3.34704512
_cell_length_c   14.88231000
_cell_angle_alpha   90.00000000
_cell_angle_beta   90.00000000
_cell_angle_gamma   119.99996918
_symmetry_Int_Tables_number   1
_chemical_formula_structural   TaHS2
_chemical_formula_sum   'Ta2 H2 S4'
_cell_volume   144.38575928
_cell_formula_units_Z   2
loop_
 _symmetry_equiv_pos_site_id
 _symmetry_equiv_pos_as_xyz
  1  'x, y, z'
loop_
 _atom_site_type_symbol
 _atom_site_label
 _atom_site_symmetry_multiplicity
 _atom_site_fract_x
 _atom_site_fract_y
 _atom_site_fract_z
 _atom_site_occupancy
  Ta  Ta0  1  0.333333  0.666667  0.336701  1
  Ta  Ta1  1  0.666667  0.333333  0.788405  1
  H  H2  1  0.000000  0.000000  0.787287  1
  H  H3  1  0.000000  0.000000  0.337505  1
  S  S4  1  0.333333  0.666667  0.898220  1
  S  S5  1  0.333333  0.666667  0.678437  1
  S  S6  1  0.666667  0.333333  0.446623  1
  S  S7  1  0.666667  0.333333  0.226822  1
