# generated using pymatgen
data_Pr2Al5Ga7Rh
_symmetry_space_group_name_H-M   'P 1'
_cell_length_a   6.05674127
_cell_length_b   6.05536000
_cell_length_c   15.89742567
_cell_angle_alpha   90.00000000
_cell_angle_beta   90.19698386
_cell_angle_gamma   90.00000000
_symmetry_Int_Tables_number   1
_chemical_formula_structural   Pr2Al5Ga7Rh
_chemical_formula_sum   'Pr4 Al10 Ga14 Rh2'
_cell_volume   583.04654452
_cell_formula_units_Z   2
loop_
 _symmetry_equiv_pos_site_id
 _symmetry_equiv_pos_as_xyz
  1  'x, y, z'
loop_
 _atom_site_type_symbol
 _atom_site_label
 _atom_site_symmetry_multiplicity
 _atom_site_fract_x
 _atom_site_fract_y
 _atom_site_fract_z
 _atom_site_occupancy
  Pr  Pr0  1  0.752238  0.250716  0.247137  1
  Pr  Pr1  1  0.252238  0.749284  0.247137  1
  Pr  Pr2  1  0.248603  0.749815  0.752473  1
  Pr  Pr3  1  0.748603  0.250185  0.752473  1
  Al  Al4  1  0.499908  0.999504  0.914400  1
  Al  Al5  1  0.999908  0.000496  0.914400  1
  Al  Al6  1  0.499848  0.500544  0.914444  1
  Al  Al7  1  0.999848  0.499456  0.914444  1
  Al  Al8  1  0.499920  0.000480  0.085445  1
  Al  Al9  1  0.999920  0.999520  0.085445  1
  Al  Al10  1  0.500175  0.499250  0.085386  1
  Al  Al11  1  0.000175  0.500750  0.085386  1
  Al  Al12  1  0.583849  0.081931  0.433417  1
  Al  Al13  1  0.083849  0.918069  0.433417  1
  Ga  Ga14  1  0.250228  0.250081  0.187942  1
  Ga  Ga15  1  0.750228  0.749919  0.187942  1
  Ga  Ga16  1  0.749305  0.749819  0.812092  1
  Ga  Ga17  1  0.249305  0.250181  0.812092  1
  Ga  Ga18  1  0.252273  0.246992  0.343935  1
  Ga  Ga19  1  0.752273  0.753008  0.343935  1
  Ga  Ga20  1  0.748432  0.748821  0.655879  1
  Ga  Ga21  1  0.248432  0.251179  0.655879  1
  Ga  Ga22  1  0.419015  0.582139  0.431491  1
  Ga  Ga23  1  0.919015  0.417861  0.431491  1
  Ga  Ga24  1  0.416608  0.920054  0.568388  1
  Ga  Ga25  1  0.916608  0.079946  0.568388  1
  Ga  Ga26  1  0.579616  0.417184  0.567548  1
  Ga  Ga27  1  0.079616  0.582816  0.567548  1
  Rh  Rh28  1  0.749983  0.249924  0.000023  1
  Rh  Rh29  1  0.249983  0.750076  0.000023  1
