# generated using pymatgen
data_Pm4Fe(MoO4)3
_symmetry_space_group_name_H-M   'P 1'
_cell_length_a   5.56348173
_cell_length_b   5.87245463
_cell_length_c   8.08010714
_cell_angle_alpha   89.71691122
_cell_angle_beta   89.84781952
_cell_angle_gamma   89.88884030
_symmetry_Int_Tables_number   1
_chemical_formula_structural   Pm4Fe(MoO4)3
_chemical_formula_sum   'Pm4 Fe1 Mo3 O12'
_cell_volume   263.98291292
_cell_formula_units_Z   1
loop_
 _symmetry_equiv_pos_site_id
 _symmetry_equiv_pos_as_xyz
  1  'x, y, z'
loop_
 _atom_site_type_symbol
 _atom_site_label
 _atom_site_symmetry_multiplicity
 _atom_site_fract_x
 _atom_site_fract_y
 _atom_site_fract_z
 _atom_site_occupancy
  Pm  Pm0  1  0.980205  0.062251  0.243096  1
  Pm  Pm1  1  0.521303  0.565153  0.244503  1
  Pm  Pm2  1  0.478697  0.434847  0.755497  1
  Pm  Pm3  1  0.019794  0.937749  0.756904  1
  Fe  Fe4  1  0.500000  0.000000  0.000000  1
  Mo  Mo5  1  0.000000  0.500001  0.000000  1
  Mo  Mo6  1  0.500000  0.000000  0.500000  1
  Mo  Mo7  1  0.000000  0.500001  0.500000  1
  O  O8  1  0.687308  0.294333  0.058417  1
  O  O9  1  0.798263  0.810136  0.054354  1
  O  O10  1  0.124600  0.448928  0.249652  1
  O  O11  1  0.383613  0.953277  0.242448  1
  O  O12  1  0.691417  0.304031  0.431375  1
  O  O13  1  0.807769  0.802626  0.427513  1
  O  O14  1  0.192232  0.197374  0.572488  1
  O  O15  1  0.308584  0.695969  0.568626  1
  O  O16  1  0.616387  0.046723  0.757552  1
  O  O17  1  0.875401  0.551072  0.750348  1
  O  O18  1  0.201738  0.189864  0.945645  1
  O  O19  1  0.312693  0.705667  0.941582  1
