# generated using pymatgen
data_Y2TmLu3FeSb2
_symmetry_space_group_name_H-M   'P 1'
_cell_length_a   8.09208296
_cell_length_b   8.06698667
_cell_length_c   4.13516900
_cell_angle_alpha   90.00000000
_cell_angle_beta   90.00000000
_cell_angle_gamma   119.89746600
_symmetry_Int_Tables_number   1
_chemical_formula_structural   Y2TmLu3FeSb2
_chemical_formula_sum   'Y2 Tm1 Lu3 Fe1 Sb2'
_cell_volume   234.01481221
_cell_formula_units_Z   1
loop_
 _symmetry_equiv_pos_site_id
 _symmetry_equiv_pos_as_xyz
  1  'x, y, z'
loop_
 _atom_site_type_symbol
 _atom_site_label
 _atom_site_symmetry_multiplicity
 _atom_site_fract_x
 _atom_site_fract_y
 _atom_site_fract_z
 _atom_site_occupancy
  Y  Y0  1  0.395809  0.396033  0.500000  1
  Y  Y1  1  0.604191  0.000224  0.500000  1
  Tm  Tm2  1  0.000000  0.607086  0.500000  1
  Lu  Lu3  1  0.231335  0.998711  0.000000  1
  Lu  Lu4  1  0.768665  0.767376  0.000000  1
  Lu  Lu5  1  0.000000  0.232293  0.000000  1
  Fe  Fe6  1  0.000000  0.996494  0.500000  1
  Sb  Sb7  1  0.331695  0.666739  0.000000  1
  Sb  Sb8  1  0.668305  0.335043  0.000000  1
