# generated using pymatgen
data_Zr3Sb4PdPt3
_symmetry_space_group_name_H-M   'P 1'
_cell_length_a   6.41691089
_cell_length_b   6.41691042
_cell_length_c   7.75044322
_cell_angle_alpha   65.82933067
_cell_angle_beta   65.82933732
_cell_angle_gamma   90.17134527
_symmetry_Int_Tables_number   1
_chemical_formula_structural   Zr3Sb4PdPt3
_chemical_formula_sum   'Zr3 Sb4 Pd1 Pt3'
_cell_volume   259.99072107
_cell_formula_units_Z   1
loop_
 _symmetry_equiv_pos_site_id
 _symmetry_equiv_pos_as_xyz
  1  'x, y, z'
loop_
 _atom_site_type_symbol
 _atom_site_label
 _atom_site_symmetry_multiplicity
 _atom_site_fract_x
 _atom_site_fract_y
 _atom_site_fract_z
 _atom_site_occupancy
  Zr  Zr0  1  0.500544  0.500544  0.999851  1
  Zr  Zr1  1  0.750289  0.249717  0.499675  1
  Zr  Zr2  1  0.249717  0.750289  0.499675  1
  Sb  Sb3  1  0.498757  0.999980  0.998694  1
  Sb  Sb4  1  0.999980  0.498757  0.998694  1
  Sb  Sb5  1  0.765654  0.765654  0.472370  1
  Sb  Sb6  1  0.234350  0.234350  0.529571  1
  Pd  Pd7  1  0.868112  0.868112  0.742628  1
  Pt  Pt8  1  0.604850  0.132909  0.260593  1
  Pt  Pt9  1  0.132909  0.604850  0.260593  1
  Pt  Pt10  1  0.394837  0.394837  0.737658  1
