# generated using pymatgen
data_Eu5Ir2Au
_symmetry_space_group_name_H-M   'P 1'
_cell_length_a   9.19595384
_cell_length_b   9.19595399
_cell_length_c   9.19595427
_cell_angle_alpha   128.42499069
_cell_angle_beta   128.42498635
_cell_angle_gamma   75.93756441
_symmetry_Int_Tables_number   1
_chemical_formula_structural   Eu5Ir2Au
_chemical_formula_sum   'Eu10 Ir4 Au2'
_cell_volume   464.10387907
_cell_formula_units_Z   2
loop_
 _symmetry_equiv_pos_site_id
 _symmetry_equiv_pos_as_xyz
  1  'x, y, z'
loop_
 _atom_site_type_symbol
 _atom_site_label
 _atom_site_symmetry_multiplicity
 _atom_site_fract_x
 _atom_site_fract_y
 _atom_site_fract_z
 _atom_site_occupancy
  Eu  Eu0  1  0.500000  0.500000  0.000000  1
  Eu  Eu1  1  0.000000  0.000000  0.000000  1
  Eu  Eu2  1  0.533716  0.033716  0.833541  1
  Eu  Eu3  1  0.200176  0.700176  0.166459  1
  Eu  Eu4  1  0.033716  0.200176  0.500000  1
  Eu  Eu5  1  0.700176  0.533716  0.500000  1
  Eu  Eu6  1  0.466284  0.966284  0.166459  1
  Eu  Eu7  1  0.799824  0.299824  0.833541  1
  Eu  Eu8  1  0.966284  0.799824  0.500000  1
  Eu  Eu9  1  0.299824  0.466284  0.500000  1
  Ir  Ir10  1  0.128247  0.628247  0.756492  1
  Ir  Ir11  1  0.871753  0.371753  0.243508  1
  Ir  Ir12  1  0.628247  0.871753  0.500000  1
  Ir  Ir13  1  0.371753  0.128247  0.500000  1
  Au  Au14  1  0.250000  0.250000  0.000000  1
  Au  Au15  1  0.750000  0.750000  0.000000  1
