# generated using pymatgen
data_Tb3Dy5Re2(TcB12)2
_symmetry_space_group_name_H-M   'P 1'
_cell_length_a   3.69354100
_cell_length_b   9.18096295
_cell_length_c   11.57081101
_cell_angle_alpha   90.05028641
_cell_angle_beta   90.00000000
_cell_angle_gamma   90.00000000
_symmetry_Int_Tables_number   1
_chemical_formula_structural   Tb3Dy5Re2(TcB12)2
_chemical_formula_sum   'Tb3 Dy5 Re2 Tc2 B24'
_cell_volume   392.36909444
_cell_formula_units_Z   1
loop_
 _symmetry_equiv_pos_site_id
 _symmetry_equiv_pos_as_xyz
  1  'x, y, z'
loop_
 _atom_site_type_symbol
 _atom_site_label
 _atom_site_symmetry_multiplicity
 _atom_site_fract_x
 _atom_site_fract_y
 _atom_site_fract_z
 _atom_site_occupancy
  Tb  Tb0  1  0.000000  0.323960  0.413963  1
  Tb  Tb1  1  0.000000  0.676040  0.586070  1
  Tb  Tb2  1  0.000000  0.823660  0.085935  1
  Dy  Dy3  1  0.000000  0.176289  0.914044  1
  Dy  Dy4  1  0.000000  0.942022  0.369694  1
  Dy  Dy5  1  0.000000  0.058026  0.630362  1
  Dy  Dy6  1  0.000000  0.443482  0.130653  1
  Dy  Dy7  1  0.000000  0.556432  0.869292  1
  Re  Re8  1  0.000000  0.138690  0.179265  1
  Re  Re9  1  0.000000  0.861428  0.820605  1
  Tc  Tc10  1  0.000000  0.638719  0.320649  1
  Tc  Tc11  1  0.000000  0.361194  0.679454  1
  B  B12  1  0.500000  0.553594  0.432576  1
  B  B13  1  0.500000  0.446383  0.567445  1
  B  B14  1  0.500000  0.053560  0.067146  1
  B  B15  1  0.500000  0.946667  0.932709  1
  B  B16  1  0.500000  0.748455  0.418180  1
  B  B17  1  0.500000  0.251550  0.581851  1
  B  B18  1  0.500000  0.248919  0.081582  1
  B  B19  1  0.500000  0.751120  0.918164  1
  B  B20  1  0.500000  0.791470  0.265693  1
  B  B21  1  0.500000  0.208442  0.734479  1
  B  B22  1  0.500000  0.291797  0.234391  1
  B  B23  1  0.500000  0.708245  0.765588  1
  B  B24  1  0.500000  0.630956  0.186078  1
  B  B25  1  0.500000  0.368884  0.814060  1
  B  B26  1  0.500000  0.130638  0.314179  1
  B  B27  1  0.500000  0.869407  0.685852  1
  B  B28  1  0.500000  0.982593  0.211879  1
  B  B29  1  0.500000  0.017629  0.788203  1
  B  B30  1  0.500000  0.482924  0.288176  1
  B  B31  1  0.500000  0.517036  0.711829  1
  B  B32  1  0.500000  0.600292  0.027927  1
  B  B33  1  0.500000  0.399478  0.971996  1
  B  B34  1  0.500000  0.099986  0.471882  1
  B  B35  1  0.500000  0.900034  0.528145  1
