# generated using pymatgen
data_YbEr7(B6Os)4
_symmetry_space_group_name_H-M   'P 1'
_cell_length_a   3.63198500
_cell_length_b   9.11130272
_cell_length_c   11.49191632
_cell_angle_alpha   89.91688199
_cell_angle_beta   90.00000000
_cell_angle_gamma   90.00000000
_symmetry_Int_Tables_number   1
_chemical_formula_structural   YbEr7(B6Os)4
_chemical_formula_sum   'Yb1 Er7 B24 Os4'
_cell_volume   380.29141422
_cell_formula_units_Z   1
loop_
 _symmetry_equiv_pos_site_id
 _symmetry_equiv_pos_as_xyz
  1  'x, y, z'
loop_
 _atom_site_type_symbol
 _atom_site_label
 _atom_site_symmetry_multiplicity
 _atom_site_fract_x
 _atom_site_fract_y
 _atom_site_fract_z
 _atom_site_occupancy
  Yb  Yb0  1  0.000000  0.322669  0.413512  1
  Er  Er1  1  0.000000  0.676660  0.585105  1
  Er  Er2  1  0.000000  0.821811  0.086443  1
  Er  Er3  1  0.000000  0.178806  0.914519  1
  Er  Er4  1  0.000000  0.944089  0.371749  1
  Er  Er5  1  0.000000  0.057704  0.627500  1
  Er  Er6  1  0.000000  0.443076  0.128770  1
  Er  Er7  1  0.000000  0.556208  0.872780  1
  B  B8  1  0.500000  0.553685  0.432907  1
  B  B9  1  0.500000  0.446310  0.567120  1
  B  B10  1  0.500000  0.052984  0.066066  1
  B  B11  1  0.500000  0.946153  0.933030  1
  B  B12  1  0.500000  0.748591  0.419391  1
  B  B13  1  0.500000  0.251892  0.581028  1
  B  B14  1  0.500000  0.247912  0.080267  1
  B  B15  1  0.500000  0.751383  0.919806  1
  B  B16  1  0.500000  0.791679  0.265889  1
  B  B17  1  0.500000  0.209379  0.734516  1
  B  B18  1  0.500000  0.290134  0.233600  1
  B  B19  1  0.500000  0.708992  0.766207  1
  B  B20  1  0.500000  0.631641  0.185601  1
  B  B21  1  0.500000  0.368864  0.815438  1
  B  B22  1  0.500000  0.130886  0.313946  1
  B  B23  1  0.500000  0.868733  0.685106  1
  B  B24  1  0.500000  0.982502  0.211852  1
  B  B25  1  0.500000  0.017359  0.787209  1
  B  B26  1  0.500000  0.483154  0.287519  1
  B  B27  1  0.500000  0.517242  0.712924  1
  B  B28  1  0.500000  0.606833  0.029847  1
  B  B29  1  0.500000  0.393447  0.970810  1
  B  B30  1  0.500000  0.103329  0.471242  1
  B  B31  1  0.500000  0.895168  0.529042  1
  Os  Os32  1  0.000000  0.639028  0.320831  1
  Os  Os33  1  0.000000  0.362736  0.679839  1
  Os  Os34  1  0.000000  0.136160  0.177020  1
  Os  Os35  1  0.000000  0.862801  0.821575  1
