# generated using pymatgen
data_Sc3Al2ZnRh6
_symmetry_space_group_name_H-M   'P 1'
_cell_length_a   4.43865800
_cell_length_b   6.21854100
_cell_length_c   13.26714600
_cell_angle_alpha   90.00000000
_cell_angle_beta   90.00043120
_cell_angle_gamma   90.00000000
_symmetry_Int_Tables_number   1
_chemical_formula_structural   Sc3Al2ZnRh6
_chemical_formula_sum   'Sc6 Al4 Zn2 Rh12'
_cell_volume   366.19945553
_cell_formula_units_Z   2
loop_
 _symmetry_equiv_pos_site_id
 _symmetry_equiv_pos_as_xyz
  1  'x, y, z'
loop_
 _atom_site_type_symbol
 _atom_site_label
 _atom_site_symmetry_multiplicity
 _atom_site_fract_x
 _atom_site_fract_y
 _atom_site_fract_z
 _atom_site_occupancy
  Sc  Sc0  1  0.999995  0.500000  0.003122  1
  Sc  Sc1  1  0.499980  0.000000  0.163539  1
  Sc  Sc2  1  0.999981  0.500000  0.330629  1
  Sc  Sc3  1  0.500005  0.000000  0.500344  1
  Sc  Sc4  1  0.000020  0.500000  0.666333  1
  Sc  Sc5  1  0.500020  0.000000  0.836035  1
  Al  Al6  1  0.999988  0.000000  0.333332  1
  Al  Al7  1  0.500002  0.500000  0.499729  1
  Al  Al8  1  0.000017  0.000000  0.666971  1
  Al  Al9  1  0.500010  0.500000  0.833316  1
  Zn  Zn10  1  0.000001  0.000000  0.999537  1
  Zn  Zn11  1  0.499977  0.500000  0.167109  1
  Rh  Rh12  1  0.500006  0.254090  0.997258  1
  Rh  Rh13  1  0.500006  0.745910  0.997258  1
  Rh  Rh14  1  0.999976  0.245878  0.169411  1
  Rh  Rh15  1  0.999976  0.754122  0.169411  1
  Rh  Rh16  1  0.499983  0.247619  0.335790  1
  Rh  Rh17  1  0.499983  0.752381  0.335790  1
  Rh  Rh18  1  0.000003  0.249570  0.500033  1
  Rh  Rh19  1  0.000003  0.750430  0.500033  1
  Rh  Rh20  1  0.500015  0.250431  0.666631  1
  Rh  Rh21  1  0.500015  0.749569  0.666631  1
  Rh  Rh22  1  0.000013  0.252376  0.830879  1
  Rh  Rh23  1  0.000013  0.747624  0.830879  1
