# generated using pymatgen
data_Lu3Si2GeOs2
_symmetry_space_group_name_H-M   'P 1'
_cell_length_a   5.65655458
_cell_length_b   5.65655640
_cell_length_c   13.59751100
_cell_angle_alpha   90.00000000
_cell_angle_beta   90.00000000
_cell_angle_gamma   136.90464821
_symmetry_Int_Tables_number   1
_chemical_formula_structural   Lu3Si2GeOs2
_chemical_formula_sum   'Lu6 Si4 Ge2 Os4'
_cell_volume   297.24914899
_cell_formula_units_Z   2
loop_
 _symmetry_equiv_pos_site_id
 _symmetry_equiv_pos_as_xyz
  1  'x, y, z'
loop_
 _atom_site_type_symbol
 _atom_site_label
 _atom_site_symmetry_multiplicity
 _atom_site_fract_x
 _atom_site_fract_y
 _atom_site_fract_z
 _atom_site_occupancy
  Lu  Lu0  1  0.646479  0.353521  0.250000  1
  Lu  Lu1  1  0.353521  0.646479  0.750000  1
  Lu  Lu2  1  0.927092  0.072908  0.113469  1
  Lu  Lu3  1  0.072908  0.927092  0.886531  1
  Lu  Lu4  1  0.072908  0.927092  0.613469  1
  Lu  Lu5  1  0.927092  0.072908  0.386531  1
  Si  Si6  1  0.614164  0.385836  0.038254  1
  Si  Si7  1  0.385836  0.614164  0.961746  1
  Si  Si8  1  0.385836  0.614164  0.538254  1
  Si  Si9  1  0.614164  0.385836  0.461746  1
  Ge  Ge10  1  0.339841  0.660159  0.250000  1
  Ge  Ge11  1  0.660159  0.339841  0.750000  1
  Os  Os12  1  0.789205  0.210795  0.581187  1
  Os  Os13  1  0.210795  0.789205  0.418813  1
  Os  Os14  1  0.210795  0.789205  0.081187  1
  Os  Os15  1  0.789205  0.210795  0.918813  1
