# generated using pymatgen
data_SmFe3As12Rh
_symmetry_space_group_name_H-M   'P 1'
_cell_length_a   7.30192273
_cell_length_b   7.30192073
_cell_length_c   7.30192302
_cell_angle_alpha   109.51459569
_cell_angle_beta   109.51460272
_cell_angle_gamma   109.51459750
_symmetry_Int_Tables_number   1
_chemical_formula_structural   SmFe3As12Rh
_chemical_formula_sum   'Sm1 Fe3 As12 Rh1'
_cell_volume   299.21974705
_cell_formula_units_Z   1
loop_
 _symmetry_equiv_pos_site_id
 _symmetry_equiv_pos_as_xyz
  1  'x, y, z'
loop_
 _atom_site_type_symbol
 _atom_site_label
 _atom_site_symmetry_multiplicity
 _atom_site_fract_x
 _atom_site_fract_y
 _atom_site_fract_z
 _atom_site_occupancy
  Sm  Sm0  1  0.000000  0.000000  0.000000  1
  Fe  Fe1  1  0.500000  0.000000  0.000000  1
  Fe  Fe2  1  0.000000  0.500000  0.000000  1
  Fe  Fe3  1  0.000000  0.000000  0.500000  1
  As  As4  1  0.857265  0.662122  0.502255  1
  As  As5  1  0.142735  0.337878  0.497745  1
  As  As6  1  0.156487  0.659721  0.815352  1
  As  As7  1  0.843513  0.340279  0.184648  1
  As  As8  1  0.662122  0.502255  0.857265  1
  As  As9  1  0.337878  0.497745  0.142735  1
  As  As10  1  0.659721  0.815352  0.156487  1
  As  As11  1  0.340279  0.184648  0.843513  1
  As  As12  1  0.502255  0.857265  0.662122  1
  As  As13  1  0.497745  0.142735  0.337878  1
  As  As14  1  0.184648  0.843513  0.340279  1
  As  As15  1  0.815352  0.156487  0.659721  1
  Rh  Rh16  1  0.500000  0.500000  0.500000  1
