# generated using pymatgen
data_Y6Sc4Al12Ir7
_symmetry_space_group_name_H-M   'P 1'
_cell_length_a   9.10881062
_cell_length_b   9.10881115
_cell_length_c   9.10881000
_cell_angle_alpha   59.99999691
_cell_angle_beta   59.99999500
_cell_angle_gamma   59.99999858
_symmetry_Int_Tables_number   1
_chemical_formula_structural   Y6Sc4Al12Ir7
_chemical_formula_sum   'Y6 Sc4 Al12 Ir7'
_cell_volume   534.40435074
_cell_formula_units_Z   1
loop_
 _symmetry_equiv_pos_site_id
 _symmetry_equiv_pos_as_xyz
  1  'x, y, z'
loop_
 _atom_site_type_symbol
 _atom_site_label
 _atom_site_symmetry_multiplicity
 _atom_site_fract_x
 _atom_site_fract_y
 _atom_site_fract_z
 _atom_site_occupancy
  Y  Y0  1  0.703371  0.703371  0.296629  1
  Y  Y1  1  0.296629  0.703371  0.296629  1
  Y  Y2  1  0.703371  0.296629  0.296629  1
  Y  Y3  1  0.296629  0.296629  0.703371  1
  Y  Y4  1  0.703371  0.296629  0.703371  1
  Y  Y5  1  0.296629  0.703371  0.703371  1
  Sc  Sc6  1  0.880946  0.880946  0.357161  1
  Sc  Sc7  1  0.880946  0.357161  0.880946  1
  Sc  Sc8  1  0.357161  0.880946  0.880946  1
  Sc  Sc9  1  0.880946  0.880946  0.880946  1
  Al  Al10  1  0.120093  0.120093  0.639720  1
  Al  Al11  1  0.120093  0.639720  0.120093  1
  Al  Al12  1  0.639720  0.120093  0.120093  1
  Al  Al13  1  0.120093  0.120093  0.120093  1
  Al  Al14  1  0.669035  0.669035  0.992895  1
  Al  Al15  1  0.669035  0.992895  0.669035  1
  Al  Al16  1  0.992895  0.669035  0.669035  1
  Al  Al17  1  0.669035  0.669035  0.669035  1
  Al  Al18  1  0.329175  0.329175  0.012476  1
  Al  Al19  1  0.329175  0.012476  0.329175  1
  Al  Al20  1  0.012476  0.329175  0.329175  1
  Al  Al21  1  0.329175  0.329175  0.329175  1
  Ir  Ir22  1  0.000000  0.000000  0.000000  1
  Ir  Ir23  1  0.001806  0.001806  0.498194  1
  Ir  Ir24  1  0.498194  0.001806  0.498194  1
  Ir  Ir25  1  0.001806  0.498194  0.498194  1
  Ir  Ir26  1  0.498194  0.498194  0.001806  1
  Ir  Ir27  1  0.001806  0.498194  0.001806  1
  Ir  Ir28  1  0.498194  0.001806  0.001806  1
