# generated using pymatgen
data_Pr2Ta2Ni10As7
_symmetry_space_group_name_H-M   'P 1'
_cell_length_a   9.62556500
_cell_length_b   9.49511831
_cell_length_c   3.89139900
_cell_angle_alpha   90.00000000
_cell_angle_beta   90.00000000
_cell_angle_gamma   120.16878975
_symmetry_Int_Tables_number   1
_chemical_formula_structural   Pr2Ta2Ni10As7
_chemical_formula_sum   'Pr2 Ta2 Ni10 As7'
_cell_volume   307.48350750
_cell_formula_units_Z   1
loop_
 _symmetry_equiv_pos_site_id
 _symmetry_equiv_pos_as_xyz
  1  'x, y, z'
loop_
 _atom_site_type_symbol
 _atom_site_label
 _atom_site_symmetry_multiplicity
 _atom_site_fract_x
 _atom_site_fract_y
 _atom_site_fract_z
 _atom_site_occupancy
  Pr  Pr0  1  0.340239  0.665782  0.000000  1
  Pr  Pr1  1  0.667247  0.340184  0.500000  1
  Ta  Ta2  1  0.214625  0.101438  0.500000  1
  Ta  Ta3  1  0.893930  0.107721  0.500000  1
  Ni  Ni4  1  0.426077  0.062579  0.000000  1
  Ni  Ni5  1  0.147510  0.277152  0.000000  1
  Ni  Ni6  1  0.939057  0.365229  0.000000  1
  Ni  Ni7  1  0.635229  0.572587  0.000000  1
  Ni  Ni8  1  0.131828  0.844980  0.000000  1
  Ni  Ni9  1  0.717751  0.874336  0.000000  1
  Ni  Ni10  1  0.377426  0.433397  0.500000  1
  Ni  Ni11  1  0.047674  0.624385  0.500000  1
  Ni  Ni12  1  0.887623  0.785096  0.500000  1
  Ni  Ni13  1  0.568592  0.944632  0.500000  1
  As  As14  1  0.993982  0.985877  0.000000  1
  As  As15  1  0.693038  0.109685  0.000000  1
  As  As16  1  0.408978  0.306321  0.000000  1
  As  As17  1  0.892999  0.594906  0.000000  1
  As  As18  1  0.110588  0.410276  0.500000  1
  As  As19  1  0.606473  0.707516  0.500000  1
  As  As20  1  0.299133  0.885924  0.500000  1
