# generated using pymatgen
data_Dy7Ho3(IrPt)3
_symmetry_space_group_name_H-M   'P 1'
_cell_length_a   11.02588446
_cell_length_b   11.02357800
_cell_length_c   6.32212700
_cell_angle_alpha   90.00000000
_cell_angle_beta   90.01502667
_cell_angle_gamma   90.00000000
_symmetry_Int_Tables_number   1
_chemical_formula_structural   Dy7Ho3(IrPt)3
_chemical_formula_sum   'Dy14 Ho6 Ir6 Pt6'
_cell_volume   768.42098641
_cell_formula_units_Z   2
loop_
 _symmetry_equiv_pos_site_id
 _symmetry_equiv_pos_as_xyz
  1  'x, y, z'
loop_
 _atom_site_type_symbol
 _atom_site_label
 _atom_site_symmetry_multiplicity
 _atom_site_fract_x
 _atom_site_fract_y
 _atom_site_fract_z
 _atom_site_occupancy
  Dy  Dy0  1  0.295215  0.090514  0.372568  1
  Dy  Dy1  1  0.295215  0.909486  0.872568  1
  Dy  Dy2  1  0.704626  0.087329  0.872043  1
  Dy  Dy3  1  0.704626  0.912671  0.372043  1
  Dy  Dy4  1  0.584169  0.792034  0.872712  1
  Dy  Dy5  1  0.584169  0.207966  0.372712  1
  Dy  Dy6  1  0.410823  0.792733  0.377590  1
  Dy  Dy7  1  0.410823  0.207267  0.877590  1
  Dy  Dy8  1  0.209552  0.414052  0.624123  1
  Dy  Dy9  1  0.209552  0.585948  0.124123  1
  Dy  Dy10  1  0.794772  0.412339  0.125681  1
  Dy  Dy11  1  0.794772  0.587661  0.625681  1
  Dy  Dy12  1  0.913654  0.704800  0.127356  1
  Dy  Dy13  1  0.913654  0.295200  0.627356  1
  Ho  Ho14  1  0.091241  0.704482  0.627787  1
  Ho  Ho15  1  0.091241  0.295518  0.127787  1
  Ho  Ho16  1  0.999854  0.999647  0.499950  1
  Ho  Ho17  1  0.999854  0.000353  0.999950  1
  Ho  Ho18  1  0.497189  0.499204  0.000055  1
  Ho  Ho19  1  0.497189  0.500796  0.500055  1
  Ir  Ir20  1  0.346133  0.345801  0.249916  1
  Ir  Ir21  1  0.346133  0.654199  0.749916  1
  Ir  Ir22  1  0.500250  0.999811  0.121394  1
  Ir  Ir23  1  0.500250  0.000189  0.621394  1
  Ir  Ir24  1  0.999525  0.500072  0.878626  1
  Ir  Ir25  1  0.999525  0.499928  0.378626  1
  Pt  Pt26  1  0.845881  0.153639  0.250334  1
  Pt  Pt27  1  0.845881  0.846361  0.750334  1
  Pt  Pt28  1  0.152993  0.153697  0.749850  1
  Pt  Pt29  1  0.152993  0.846303  0.249850  1
  Pt  Pt30  1  0.654124  0.346199  0.750016  1
  Pt  Pt31  1  0.654124  0.653801  0.250016  1
