# generated using pymatgen
data_Ho3Tm2Co19P12
_symmetry_space_group_name_H-M   'P 1'
_cell_length_a   11.95470200
_cell_length_b   11.95559347
_cell_length_c   3.65827400
_cell_angle_alpha   90.00000000
_cell_angle_beta   90.00000000
_cell_angle_gamma   119.99753342
_symmetry_Int_Tables_number   1
_chemical_formula_structural   Ho3Tm2Co19P12
_chemical_formula_sum   'Ho3 Tm2 Co19 P12'
_cell_volume   452.82203280
_cell_formula_units_Z   1
loop_
 _symmetry_equiv_pos_site_id
 _symmetry_equiv_pos_as_xyz
  1  'x, y, z'
loop_
 _atom_site_type_symbol
 _atom_site_label
 _atom_site_symmetry_multiplicity
 _atom_site_fract_x
 _atom_site_fract_y
 _atom_site_fract_z
 _atom_site_occupancy
  Ho  Ho0  1  0.333376  0.666674  0.000000  1
  Ho  Ho1  1  0.666703  0.333326  0.000000  1
  Ho  Ho2  1  0.186642  0.000000  0.500000  1
  Tm  Tm3  1  0.999923  0.186796  0.500000  1
  Tm  Tm4  1  0.813127  0.813204  0.500000  1
  Co  Co5  1  0.623203  0.822118  0.000000  1
  Co  Co6  1  0.177780  0.800456  0.000000  1
  Co  Co7  1  0.198873  0.377007  0.000000  1
  Co  Co8  1  0.377324  0.199544  0.000000  1
  Co  Co9  1  0.821866  0.622993  0.000000  1
  Co  Co10  1  0.801085  0.177882  0.000000  1
  Co  Co11  1  0.999887  0.552016  0.000000  1
  Co  Co12  1  0.447870  0.447984  0.000000  1
  Co  Co13  1  0.552360  0.000000  0.000000  1
  Co  Co14  1  0.516711  0.642009  0.500000  1
  Co  Co15  1  0.358297  0.874602  0.500000  1
  Co  Co16  1  0.125320  0.483372  0.500000  1
  Co  Co17  1  0.483695  0.125398  0.500000  1
  Co  Co18  1  0.641948  0.516628  0.500000  1
  Co  Co19  1  0.874702  0.357991  0.500000  1
  Co  Co20  1  0.999684  0.715165  0.500000  1
  Co  Co21  1  0.284520  0.284835  0.500000  1
  Co  Co22  1  0.715564  0.000000  0.500000  1
  Co  Co23  1  0.999559  0.000000  0.000000  1
  P  P24  1  0.000006  0.366998  0.000000  1
  P  P25  1  0.633008  0.633002  0.000000  1
  P  P26  1  0.367662  0.000000  0.000000  1
  P  P27  1  0.520033  0.834408  0.500000  1
  P  P28  1  0.165594  0.685475  0.500000  1
  P  P29  1  0.314508  0.480230  0.500000  1
  P  P30  1  0.480120  0.314525  0.500000  1
  P  P31  1  0.834279  0.519770  0.500000  1
  P  P32  1  0.685626  0.165592  0.500000  1
  P  P33  1  0.999344  0.819780  0.000000  1
  P  P34  1  0.179564  0.180220  0.000000  1
  P  P35  1  0.820238  0.000000  0.000000  1
