# generated using pymatgen
data_Nb12Ga8TcNi(RhC2)2
_symmetry_space_group_name_H-M   'P 1'
_cell_length_a   8.30297124
_cell_length_b   8.32129768
_cell_length_c   8.30326600
_cell_angle_alpha   59.92848098
_cell_angle_beta   59.93647828
_cell_angle_gamma   59.92717623
_symmetry_Int_Tables_number   1
_chemical_formula_structural   Nb12Ga8TcNi(RhC2)2
_chemical_formula_sum   'Nb12 Ga8 Tc1 Ni1 Rh2 C4'
_cell_volume   405.01905486
_cell_formula_units_Z   1
loop_
 _symmetry_equiv_pos_site_id
 _symmetry_equiv_pos_as_xyz
  1  'x, y, z'
loop_
 _atom_site_type_symbol
 _atom_site_label
 _atom_site_symmetry_multiplicity
 _atom_site_fract_x
 _atom_site_fract_y
 _atom_site_fract_z
 _atom_site_occupancy
  Nb  Nb0  1  0.807799  0.808576  0.184623  1
  Nb  Nb1  1  0.189412  0.186184  0.812755  1
  Nb  Nb2  1  0.811391  0.187424  0.813759  1
  Nb  Nb3  1  0.199130  0.809135  0.182599  1
  Nb  Nb4  1  0.189411  0.811647  0.812758  1
  Nb  Nb5  1  0.807799  0.199002  0.184622  1
  Nb  Nb6  1  0.442203  0.441424  0.065375  1
  Nb  Nb7  1  0.060589  0.063816  0.437242  1
  Nb  Nb8  1  0.438611  0.062576  0.436238  1
  Nb  Nb9  1  0.050872  0.440865  0.067399  1
  Nb  Nb10  1  0.060591  0.438353  0.437240  1
  Nb  Nb11  1  0.442203  0.050997  0.065376  1
  Ga  Ga12  1  0.753921  0.413045  0.419988  1
  Ga  Ga13  1  0.405993  0.754268  0.422767  1
  Ga  Ga14  1  0.407123  0.416581  0.759715  1
  Ga  Ga15  1  0.405995  0.416972  0.422767  1
  Ga  Ga16  1  0.496080  0.836955  0.830010  1
  Ga  Ga17  1  0.844009  0.495732  0.827231  1
  Ga  Ga18  1  0.842879  0.833419  0.490283  1
  Ga  Ga19  1  0.844006  0.833028  0.827231  1
  Tc  Tc20  1  0.625001  0.625000  0.124998  1
  Ni  Ni21  1  0.125000  0.625000  0.624999  1
  Rh  Rh22  1  0.624986  0.124993  0.625006  1
  Rh  Rh23  1  0.624994  0.625004  0.625022  1
  C  C24  1  0.625001  0.125000  0.124999  1
  C  C25  1  0.125001  0.625000  0.124999  1
  C  C26  1  0.125001  0.125000  0.624999  1
  C  C27  1  0.125001  0.125000  0.124999  1
