# generated using pymatgen
data_Hf5Nb3P4
_symmetry_space_group_name_H-M   'P 1'
_cell_length_a   3.54021200
_cell_length_b   6.90964614
_cell_length_c   8.42786220
_cell_angle_alpha   89.73074078
_cell_angle_beta   90.00000000
_cell_angle_gamma   90.00000000
_symmetry_Int_Tables_number   1
_chemical_formula_structural   Hf5Nb3P4
_chemical_formula_sum   'Hf5 Nb3 P4'
_cell_volume   206.15682012
_cell_formula_units_Z   1
loop_
 _symmetry_equiv_pos_site_id
 _symmetry_equiv_pos_as_xyz
  1  'x, y, z'
loop_
 _atom_site_type_symbol
 _atom_site_label
 _atom_site_symmetry_multiplicity
 _atom_site_fract_x
 _atom_site_fract_y
 _atom_site_fract_z
 _atom_site_occupancy
  Hf  Hf0  1  0.250000  0.032270  0.665372  1
  Hf  Hf1  1  0.250000  0.525911  0.827771  1
  Hf  Hf2  1  0.750000  0.466613  0.168020  1
  Hf  Hf3  1  0.750000  0.969571  0.334037  1
  Hf  Hf4  1  0.750000  0.859277  0.939427  1
  Nb  Nb5  1  0.250000  0.639192  0.440116  1
  Nb  Nb6  1  0.750000  0.357583  0.559770  1
  Nb  Nb7  1  0.250000  0.147444  0.062384  1
  P  P8  1  0.250000  0.264370  0.355899  1
  P  P9  1  0.250000  0.765321  0.150421  1
  P  P10  1  0.750000  0.736202  0.641005  1
  P  P11  1  0.750000  0.236245  0.855779  1
