# generated using pymatgen
data_Nd4Y3Er13Pt16
_symmetry_space_group_name_H-M   'P 1'
_cell_length_a   7.51495164
_cell_length_b   7.58916224
_cell_length_c   14.76568245
_cell_angle_alpha   90.00082714
_cell_angle_beta   90.00451226
_cell_angle_gamma   89.92507903
_symmetry_Int_Tables_number   1
_chemical_formula_structural   Nd4Y3Er13Pt16
_chemical_formula_sum   'Nd4 Y3 Er13 Pt16'
_cell_volume   842.11844302
_cell_formula_units_Z   1
loop_
 _symmetry_equiv_pos_site_id
 _symmetry_equiv_pos_as_xyz
  1  'x, y, z'
loop_
 _atom_site_type_symbol
 _atom_site_label
 _atom_site_symmetry_multiplicity
 _atom_site_fract_x
 _atom_site_fract_y
 _atom_site_fract_z
 _atom_site_occupancy
  Nd  Nd0  1  0.500177  0.676697  0.093250  1
  Nd  Nd1  1  0.500273  0.324484  0.592895  1
  Nd  Nd2  1  0.999896  0.176610  0.907812  1
  Nd  Nd3  1  0.999496  0.173646  0.592831  1
  Y  Y4  1  0.501745  0.321035  0.905246  1
  Y  Y5  1  0.498962  0.680738  0.405436  1
  Y  Y6  1  0.998249  0.820598  0.095428  1
  Er  Er7  1  0.681212  0.990049  0.250880  1
  Er  Er8  1  0.180964  0.510202  0.251212  1
  Er  Er9  1  0.819329  0.489957  0.750582  1
  Er  Er10  1  0.319978  0.010130  0.750510  1
  Er  Er11  1  0.654299  0.831245  0.621986  1
  Er  Er12  1  0.156053  0.667419  0.878413  1
  Er  Er13  1  0.842997  0.332518  0.377535  1
  Er  Er14  1  0.343565  0.167847  0.122771  1
  Er  Er15  1  0.341635  0.165949  0.377426  1
  Er  Er16  1  0.843849  0.332611  0.123976  1
  Er  Er17  1  0.154605  0.668687  0.621993  1
  Er  Er18  1  0.656426  0.832804  0.877361  1
  Er  Er19  1  0.998224  0.818168  0.405122  1
  Pt  Pt20  1  0.818395  0.642340  0.252685  1
  Pt  Pt21  1  0.312867  0.860441  0.252581  1
  Pt  Pt22  1  0.683169  0.139756  0.750880  1
  Pt  Pt23  1  0.186789  0.362321  0.750301  1
  Pt  Pt24  1  0.547857  0.380577  0.251667  1
  Pt  Pt25  1  0.045808  0.117672  0.250793  1
  Pt  Pt26  1  0.952608  0.877557  0.749588  1
  Pt  Pt27  1  0.453400  0.621702  0.750531  1
  Pt  Pt28  1  0.821314  0.542465  0.538741  1
  Pt  Pt29  1  0.322339  0.965921  0.957701  1
  Pt  Pt30  1  0.685467  0.027531  0.454762  1
  Pt  Pt31  1  0.176279  0.466637  0.043383  1
  Pt  Pt32  1  0.181242  0.473223  0.454339  1
  Pt  Pt33  1  0.682519  0.036344  0.042636  1
  Pt  Pt34  1  0.321875  0.958817  0.538996  1
  Pt  Pt35  1  0.816139  0.535301  0.957750  1
