# generated using pymatgen
data_Y5CuTe4
_symmetry_space_group_name_H-M   'P 1'
_cell_length_a   7.58207387
_cell_length_b   7.58207367
_cell_length_c   10.73614600
_cell_angle_alpha   61.04036058
_cell_angle_beta   61.04036139
_cell_angle_gamma   32.24900568
_symmetry_Int_Tables_number   1
_chemical_formula_structural   Y5CuTe4
_chemical_formula_sum   'Y5 Cu1 Te4'
_cell_volume   284.44519426
_cell_formula_units_Z   1
loop_
 _symmetry_equiv_pos_site_id
 _symmetry_equiv_pos_as_xyz
  1  'x, y, z'
loop_
 _atom_site_type_symbol
 _atom_site_label
 _atom_site_symmetry_multiplicity
 _atom_site_fract_x
 _atom_site_fract_y
 _atom_site_fract_z
 _atom_site_occupancy
  Y  Y0  1  0.000000  0.000000  0.500000  1
  Y  Y1  1  0.582527  0.582527  0.090847  1
  Y  Y2  1  0.184915  0.184915  0.730294  1
  Y  Y3  1  0.815085  0.815085  0.269706  1
  Y  Y4  1  0.417473  0.417473  0.909153  1
  Cu  Cu5  1  0.000000  0.000000  0.000000  1
  Te  Te6  1  0.611664  0.611664  0.584417  1
  Te  Te7  1  0.192373  0.192373  0.192751  1
  Te  Te8  1  0.807627  0.807627  0.807249  1
  Te  Te9  1  0.388336  0.388336  0.415583  1
