# generated using pymatgen
data_Pr2MgSi4(AsPd10)2
_symmetry_space_group_name_H-M   'P 1'
_cell_length_a   8.76164462
_cell_length_b   8.81200953
_cell_length_c   8.81201012
_cell_angle_alpha   59.62222666
_cell_angle_beta   60.18889246
_cell_angle_gamma   60.18889094
_symmetry_Int_Tables_number   1
_chemical_formula_structural   Pr2MgSi4(AsPd10)2
_chemical_formula_sum   'Pr2 Mg1 Si4 As2 Pd20'
_cell_volume   481.05241611
_cell_formula_units_Z   1
loop_
 _symmetry_equiv_pos_site_id
 _symmetry_equiv_pos_as_xyz
  1  'x, y, z'
loop_
 _atom_site_type_symbol
 _atom_site_label
 _atom_site_symmetry_multiplicity
 _atom_site_fract_x
 _atom_site_fract_y
 _atom_site_fract_z
 _atom_site_occupancy
  Pr  Pr0  1  0.250000  0.250000  0.250000  1
  Pr  Pr1  1  0.750000  0.750000  0.750000  1
  Mg  Mg2  1  0.000000  0.000000  0.000000  1
  Si  Si3  1  0.264551  0.735449  0.264551  1
  Si  Si4  1  0.735449  0.264551  0.735449  1
  Si  Si5  1  0.264551  0.264551  0.735449  1
  Si  Si6  1  0.735449  0.735449  0.264551  1
  As  As7  1  0.735641  0.264359  0.264359  1
  As  As8  1  0.264359  0.735641  0.735641  1
  Pd  Pd9  1  0.380817  0.387782  0.387782  1
  Pd  Pd10  1  0.619183  0.612218  0.612218  1
  Pd  Pd11  1  0.387782  0.380817  0.843620  1
  Pd  Pd12  1  0.387782  0.843620  0.380817  1
  Pd  Pd13  1  0.612218  0.619183  0.156380  1
  Pd  Pd14  1  0.612218  0.156380  0.619183  1
  Pd  Pd15  1  0.843620  0.387782  0.387782  1
  Pd  Pd16  1  0.156380  0.612218  0.612218  1
  Pd  Pd17  1  0.344651  0.000000  0.000000  1
  Pd  Pd18  1  0.655349  0.000000  0.000000  1
  Pd  Pd19  1  0.000000  0.344651  0.655349  1
  Pd  Pd20  1  0.000000  0.655349  0.344651  1
  Pd  Pd21  1  0.005933  0.345143  0.994067  1
  Pd  Pd22  1  0.654857  0.994067  0.345143  1
  Pd  Pd23  1  0.994067  0.654857  0.005933  1
  Pd  Pd24  1  0.345143  0.005933  0.654857  1
  Pd  Pd25  1  0.005933  0.994067  0.345143  1
  Pd  Pd26  1  0.994067  0.005933  0.654857  1
  Pd  Pd27  1  0.654857  0.345143  0.994067  1
  Pd  Pd28  1  0.345143  0.654857  0.005933  1
