# generated using pymatgen
data_La2Nd3Ho3(CdNi)2
_symmetry_space_group_name_H-M   'P 1'
_cell_length_a   9.77975185
_cell_length_b   9.77991768
_cell_length_c   9.77849575
_cell_angle_alpha   60.10439051
_cell_angle_beta   60.11841513
_cell_angle_gamma   60.10905860
_symmetry_Int_Tables_number   1
_chemical_formula_structural   La2Nd3Ho3(CdNi)2
_chemical_formula_sum   'La4 Nd6 Ho6 Cd4 Ni4'
_cell_volume   662.99032216
_cell_formula_units_Z   2
loop_
 _symmetry_equiv_pos_site_id
 _symmetry_equiv_pos_as_xyz
  1  'x, y, z'
loop_
 _atom_site_type_symbol
 _atom_site_label
 _atom_site_symmetry_multiplicity
 _atom_site_fract_x
 _atom_site_fract_y
 _atom_site_fract_z
 _atom_site_occupancy
  La  La0  1  0.598719  0.598693  0.598651  1
  La  La1  1  0.599572  0.599694  0.200438  1
  La  La2  1  0.599667  0.200340  0.599655  1
  La  La3  1  0.200419  0.599548  0.599599  1
  Nd  Nd4  1  0.189141  0.813284  0.813260  1
  Nd  Nd5  1  0.811204  0.187151  0.187189  1
  Nd  Nd6  1  0.813329  0.189179  0.813202  1
  Nd  Nd7  1  0.187160  0.811176  0.187246  1
  Nd  Nd8  1  0.813383  0.813166  0.189225  1
  Nd  Nd9  1  0.187199  0.187163  0.811188  1
  Ho  Ho10  1  0.066759  0.434262  0.434264  1
  Ho  Ho11  1  0.433579  0.065920  0.065956  1
  Ho  Ho12  1  0.434246  0.066710  0.434319  1
  Ho  Ho13  1  0.065993  0.433647  0.065829  1
  Ho  Ho14  1  0.434264  0.434288  0.066692  1
  Ho  Ho15  1  0.065844  0.066026  0.433630  1
  Cd  Cd16  1  0.830068  0.830065  0.830070  1
  Cd  Cd17  1  0.830403  0.830402  0.508887  1
  Cd  Cd18  1  0.830375  0.508894  0.830424  1
  Cd  Cd19  1  0.508878  0.830387  0.830404  1
  Ni  Ni20  1  0.389787  0.389848  0.389909  1
  Ni  Ni21  1  0.389524  0.389407  0.831052  1
  Ni  Ni22  1  0.389340  0.831223  0.389441  1
  Ni  Ni23  1  0.831145  0.389528  0.389474  1
