# generated using pymatgen
data_Ho8Sc12Si15Ag
_symmetry_space_group_name_H-M   'P 1'
_cell_length_a   7.12105000
_cell_length_b   7.36413471
_cell_length_c   14.05403303
_cell_angle_alpha   89.87664883
_cell_angle_beta   89.61124808
_cell_angle_gamma   90.18233104
_symmetry_Int_Tables_number   1
_chemical_formula_structural   Ho8Sc12Si15Ag
_chemical_formula_sum   'Ho8 Sc12 Si15 Ag1'
_cell_volume   736.97627380
_cell_formula_units_Z   1
loop_
 _symmetry_equiv_pos_site_id
 _symmetry_equiv_pos_as_xyz
  1  'x, y, z'
loop_
 _atom_site_type_symbol
 _atom_site_label
 _atom_site_symmetry_multiplicity
 _atom_site_fract_x
 _atom_site_fract_y
 _atom_site_fract_z
 _atom_site_occupancy
  Ho  Ho0  1  0.012542  0.175532  0.097769  1
  Ho  Ho1  1  0.987310  0.825371  0.903695  1
  Ho  Ho2  1  0.487112  0.676795  0.903461  1
  Ho  Ho3  1  0.987813  0.830441  0.597784  1
  Ho  Ho4  1  0.512340  0.323627  0.096892  1
  Ho  Ho5  1  0.009523  0.172100  0.399087  1
  Ho  Ho6  1  0.512462  0.323158  0.400151  1
  Ho  Ho7  1  0.493497  0.678122  0.599664  1
  Sc  Sc8  1  0.162945  0.501918  0.752908  1
  Sc  Sc9  1  0.837974  0.498226  0.250857  1
  Sc  Sc10  1  0.338142  0.000846  0.249082  1
  Sc  Sc11  1  0.664138  0.995842  0.751031  1
  Sc  Sc12  1  0.340013  0.173018  0.626653  1
  Sc  Sc13  1  0.665958  0.823315  0.373929  1
  Sc  Sc14  1  0.167878  0.675394  0.372333  1
  Sc  Sc15  1  0.670091  0.824304  0.124883  1
  Sc  Sc16  1  0.826152  0.324959  0.625310  1
  Sc  Sc17  1  0.328875  0.175304  0.875963  1
  Sc  Sc18  1  0.830180  0.322698  0.875798  1
  Sc  Sc19  1  0.169259  0.676549  0.125165  1
  Si  Si20  1  0.035519  0.120070  0.750128  1
  Si  Si21  1  0.965878  0.883917  0.248964  1
  Si  Si22  1  0.466868  0.615242  0.248392  1
  Si  Si23  1  0.534057  0.385945  0.751844  1
  Si  Si24  1  0.284710  0.873078  0.750765  1
  Si  Si25  1  0.713247  0.128016  0.248657  1
  Si  Si26  1  0.214737  0.370648  0.248695  1
  Si  Si27  1  0.787759  0.627935  0.752225  1
  Si  Si28  1  0.834820  0.537295  0.459329  1
  Si  Si29  1  0.338242  0.962608  0.460697  1
  Si  Si30  1  0.843237  0.535214  0.039007  1
  Si  Si31  1  0.659018  0.035828  0.537955  1
  Si  Si32  1  0.155902  0.464657  0.961783  1
  Si  Si33  1  0.657451  0.034789  0.960733  1
  Si  Si34  1  0.342533  0.964693  0.039687  1
  Ag  Ag35  1  0.161820  0.462547  0.538723  1
