# generated using pymatgen
data_HoTm3Al15(SiRh2)3
_symmetry_space_group_name_H-M   'P 1'
_cell_length_a   7.52007892
_cell_length_b   7.50322953
_cell_length_c   9.29998897
_cell_angle_alpha   89.99365439
_cell_angle_beta   89.92367316
_cell_angle_gamma   119.60915408
_symmetry_Int_Tables_number   1
_chemical_formula_structural   HoTm3Al15(SiRh2)3
_chemical_formula_sum   'Ho1 Tm3 Al15 Si3 Rh6'
_cell_volume   456.22611149
_cell_formula_units_Z   1
loop_
 _symmetry_equiv_pos_site_id
 _symmetry_equiv_pos_as_xyz
  1  'x, y, z'
loop_
 _atom_site_type_symbol
 _atom_site_label
 _atom_site_symmetry_multiplicity
 _atom_site_fract_x
 _atom_site_fract_y
 _atom_site_fract_z
 _atom_site_occupancy
  Ho  Ho0  1  0.993605  0.670284  0.247999  1
  Tm  Tm1  1  0.004797  0.323029  0.753677  1
  Tm  Tm2  1  0.682284  0.001097  0.247570  1
  Tm  Tm3  1  0.323346  0.005574  0.749618  1
  Al  Al4  1  0.998228  0.667242  0.920497  1
  Al  Al5  1  0.999319  0.663301  0.577043  1
  Al  Al6  1  0.336909  0.999950  0.423760  1
  Al  Al7  1  0.001929  0.336751  0.428399  1
  Al  Al8  1  0.662856  0.999462  0.576477  1
  Al  Al9  1  0.658414  0.994481  0.921216  1
  Al  Al10  1  0.336486  0.000094  0.076514  1
  Al  Al11  1  0.335224  0.334664  0.557115  1
  Al  Al12  1  0.665412  0.666366  0.444081  1
  Al  Al13  1  0.664738  0.665884  0.056911  1
  Al  Al14  1  0.337558  0.334567  0.943640  1
  Al  Al15  1  0.335485  0.549725  0.250193  1
  Al  Al16  1  0.664599  0.448146  0.750185  1
  Al  Al17  1  0.547581  0.336045  0.250411  1
  Al  Al18  1  0.447807  0.662352  0.749251  1
  Si  Si19  1  0.131625  0.128487  0.250588  1
  Si  Si20  1  0.871120  0.872817  0.749503  1
  Si  Si21  1  0.002007  0.338459  0.073890  1
  Rh  Rh22  1  0.679711  0.328161  0.001802  1
  Rh  Rh23  1  0.319991  0.664379  0.999942  1
  Rh  Rh24  1  0.327677  0.671628  0.499524  1
  Rh  Rh25  1  0.672420  0.328111  0.499145  1
  Rh  Rh26  1  0.999020  0.008167  0.001496  1
  Rh  Rh27  1  0.999851  0.000775  0.499553  1
