# generated using pymatgen
data_Er3Lu7Cd3Co
_symmetry_space_group_name_H-M   'P 1'
_cell_length_a   9.42275600
_cell_length_b   9.42275544
_cell_length_c   9.54811700
_cell_angle_alpha   90.00000000
_cell_angle_beta   90.00000000
_cell_angle_gamma   119.99999495
_symmetry_Int_Tables_number   1
_chemical_formula_structural   Er3Lu7Cd3Co
_chemical_formula_sum   'Er6 Lu14 Cd6 Co2'
_cell_volume   734.18287576
_cell_formula_units_Z   2
loop_
 _symmetry_equiv_pos_site_id
 _symmetry_equiv_pos_as_xyz
  1  'x, y, z'
loop_
 _atom_site_type_symbol
 _atom_site_label
 _atom_site_symmetry_multiplicity
 _atom_site_fract_x
 _atom_site_fract_y
 _atom_site_fract_z
 _atom_site_occupancy
  Er  Er0  1  0.541820  0.458180  0.250000  1
  Er  Er1  1  0.541820  0.083640  0.250000  1
  Er  Er2  1  0.916360  0.458180  0.250000  1
  Er  Er3  1  0.458180  0.541820  0.750000  1
  Er  Er4  1  0.458180  0.916360  0.750000  1
  Er  Er5  1  0.083640  0.541820  0.750000  1
  Lu  Lu6  1  0.000000  0.000000  0.500000  1
  Lu  Lu7  1  0.000000  0.000000  0.000000  1
  Lu  Lu8  1  0.211698  0.788302  0.436521  1
  Lu  Lu9  1  0.211698  0.423396  0.436521  1
  Lu  Lu10  1  0.576604  0.788302  0.436521  1
  Lu  Lu11  1  0.788302  0.211698  0.563479  1
  Lu  Lu12  1  0.788302  0.576604  0.563479  1
  Lu  Lu13  1  0.423396  0.211698  0.563479  1
  Lu  Lu14  1  0.788302  0.211698  0.936521  1
  Lu  Lu15  1  0.788302  0.576604  0.936521  1
  Lu  Lu16  1  0.423396  0.211698  0.936521  1
  Lu  Lu17  1  0.211698  0.788302  0.063479  1
  Lu  Lu18  1  0.211698  0.423396  0.063479  1
  Lu  Lu19  1  0.576604  0.788302  0.063479  1
  Cd  Cd20  1  0.885996  0.114004  0.250000  1
  Cd  Cd21  1  0.885996  0.771993  0.250000  1
  Cd  Cd22  1  0.228007  0.114004  0.250000  1
  Cd  Cd23  1  0.114004  0.885996  0.750000  1
  Cd  Cd24  1  0.114004  0.228007  0.750000  1
  Cd  Cd25  1  0.771993  0.885996  0.750000  1
  Co  Co26  1  0.333333  0.666667  0.250000  1
  Co  Co27  1  0.666667  0.333333  0.750000  1
