# generated using pymatgen
data_La10Pr6Mg3HgIr4
_symmetry_space_group_name_H-M   'P 1'
_cell_length_a   10.11629220
_cell_length_b   10.11629281
_cell_length_c   10.11629270
_cell_angle_alpha   60.07205312
_cell_angle_beta   60.07205466
_cell_angle_gamma   60.07205306
_symmetry_Int_Tables_number   1
_chemical_formula_structural   La10Pr6Mg3HgIr4
_chemical_formula_sum   'La10 Pr6 Mg3 Hg1 Ir4'
_cell_volume   733.25954098
_cell_formula_units_Z   1
loop_
 _symmetry_equiv_pos_site_id
 _symmetry_equiv_pos_as_xyz
  1  'x, y, z'
loop_
 _atom_site_type_symbol
 _atom_site_label
 _atom_site_symmetry_multiplicity
 _atom_site_fract_x
 _atom_site_fract_y
 _atom_site_fract_z
 _atom_site_occupancy
  La  La0  1  0.345681  0.345681  0.345681  1
  La  La1  1  0.346743  0.346743  0.961077  1
  La  La2  1  0.346743  0.961077  0.346743  1
  La  La3  1  0.961077  0.346743  0.346743  1
  La  La4  1  0.810945  0.188306  0.188306  1
  La  La5  1  0.191407  0.806743  0.806743  1
  La  La6  1  0.188306  0.810945  0.188306  1
  La  La7  1  0.806743  0.191407  0.806743  1
  La  La8  1  0.188306  0.188306  0.810945  1
  La  La9  1  0.806743  0.806743  0.191407  1
  Pr  Pr10  1  0.936873  0.562691  0.562691  1
  Pr  Pr11  1  0.561291  0.935895  0.935895  1
  Pr  Pr12  1  0.562691  0.936873  0.562691  1
  Pr  Pr13  1  0.935895  0.561291  0.935895  1
  Pr  Pr14  1  0.562691  0.562691  0.936873  1
  Pr  Pr15  1  0.935895  0.935895  0.561291  1
  Mg  Mg16  1  0.579249  0.579249  0.266153  1
  Mg  Mg17  1  0.579249  0.266153  0.579249  1
  Mg  Mg18  1  0.266153  0.579249  0.579249  1
  Hg  Hg19  1  0.582509  0.582509  0.582509  1
  Ir  Ir20  1  0.141267  0.141267  0.141267  1
  Ir  Ir21  1  0.142559  0.142559  0.578423  1
  Ir  Ir22  1  0.142559  0.578423  0.142559  1
  Ir  Ir23  1  0.578423  0.142559  0.142559  1
