# generated using pymatgen
data_Li3Y3ZnSn4
_symmetry_space_group_name_H-M   'P 1'
_cell_length_a   8.63278913
_cell_length_b   8.53573411
_cell_length_c   8.53573500
_cell_angle_alpha   149.20809861
_cell_angle_beta   130.86906913
_cell_angle_gamma   59.00590278
_symmetry_Int_Tables_number   1
_chemical_formula_structural   Li3Y3ZnSn4
_chemical_formula_sum   'Li3 Y3 Zn1 Sn4'
_cell_volume   241.67536387
_cell_formula_units_Z   1
loop_
 _symmetry_equiv_pos_site_id
 _symmetry_equiv_pos_as_xyz
  1  'x, y, z'
loop_
 _atom_site_type_symbol
 _atom_site_label
 _atom_site_symmetry_multiplicity
 _atom_site_fract_x
 _atom_site_fract_y
 _atom_site_fract_z
 _atom_site_occupancy
  Li  Li0  1  0.013918  0.326272  0.687647  1
  Li  Li1  1  0.983226  0.670717  0.312508  1
  Li  Li2  1  0.638006  0.327079  0.310928  1
  Y  Y3  1  0.995793  0.000280  0.995513  1
  Y  Y4  1  0.381759  0.873785  0.507974  1
  Y  Y5  1  0.623518  0.127436  0.496082  1
  Zn  Zn6  1  0.372316  0.675434  0.696883  1
  Sn  Sn7  1  0.210917  0.215259  0.995658  1
  Sn  Sn8  1  0.700206  0.499995  0.200210  1
  Sn  Sn9  1  0.292203  0.498286  0.793917  1
  Sn  Sn10  1  0.788137  0.785457  0.002681  1
