# generated using pymatgen
data_PuTl2(PO4)2
_symmetry_space_group_name_H-M   'P 1'
_cell_length_a   5.33489700
_cell_length_b   5.33489597
_cell_length_c   9.30528600
_cell_angle_alpha   90.00000000
_cell_angle_beta   90.00000000
_cell_angle_gamma   119.99998781
_symmetry_Int_Tables_number   1
_chemical_formula_structural   PuTl2(PO4)2
_chemical_formula_sum   'Pu1 Tl2 P2 O8'
_cell_volume   229.35721400
_cell_formula_units_Z   1
loop_
 _symmetry_equiv_pos_site_id
 _symmetry_equiv_pos_as_xyz
  1  'x, y, z'
loop_
 _atom_site_type_symbol
 _atom_site_label
 _atom_site_symmetry_multiplicity
 _atom_site_fract_x
 _atom_site_fract_y
 _atom_site_fract_z
 _atom_site_occupancy
  Pu  Pu0  1  0.000000  0.000000  0.000000  1
  Tl  Tl1  1  0.333333  0.666667  0.645679  1
  Tl  Tl2  1  0.666667  0.333333  0.354321  1
  P  P3  1  0.333333  0.666667  0.198176  1
  P  P4  1  0.666667  0.333333  0.801824  1
  O  O5  1  0.333333  0.666667  0.362107  1
  O  O6  1  0.666667  0.333333  0.637893  1
  O  O7  1  0.283723  0.913274  0.140753  1
  O  O8  1  0.086726  0.370448  0.140753  1
  O  O9  1  0.629552  0.716277  0.140753  1
  O  O10  1  0.716277  0.086726  0.859247  1
  O  O11  1  0.913274  0.629552  0.859247  1
  O  O12  1  0.370448  0.283723  0.859247  1
