# generated using pymatgen
data_DyHo3Co8(PRu)12
_symmetry_space_group_name_H-M   'P 1'
_cell_length_a   3.77699500
_cell_length_b   10.62506952
_cell_length_c   12.09872287
_cell_angle_alpha   90.07892567
_cell_angle_beta   90.00000000
_cell_angle_gamma   90.00000000
_symmetry_Int_Tables_number   1
_chemical_formula_structural   DyHo3Co8(PRu)12
_chemical_formula_sum   'Dy1 Ho3 Co8 P12 Ru12'
_cell_volume   485.53138391
_cell_formula_units_Z   1
loop_
 _symmetry_equiv_pos_site_id
 _symmetry_equiv_pos_as_xyz
  1  'x, y, z'
loop_
 _atom_site_type_symbol
 _atom_site_label
 _atom_site_symmetry_multiplicity
 _atom_site_fract_x
 _atom_site_fract_y
 _atom_site_fract_z
 _atom_site_occupancy
  Dy  Dy0  1  0.250000  0.584382  0.706842  1
  Ho  Ho1  1  0.250000  0.915421  0.206614  1
  Ho  Ho2  1  0.750000  0.415513  0.293261  1
  Ho  Ho3  1  0.750000  0.084571  0.793338  1
  Co  Co4  1  0.250000  0.888105  0.695901  1
  Co  Co5  1  0.250000  0.612038  0.196088  1
  Co  Co6  1  0.750000  0.112042  0.303973  1
  Co  Co7  1  0.750000  0.387740  0.804244  1
  Co  Co8  1  0.250000  0.462881  0.935140  1
  Co  Co9  1  0.250000  0.037036  0.434825  1
  Co  Co10  1  0.750000  0.536986  0.065196  1
  Co  Co11  1  0.750000  0.963069  0.565135  1
  P  P12  1  0.250000  0.425675  0.112886  1
  P  P13  1  0.250000  0.074185  0.612897  1
  P  P14  1  0.750000  0.574373  0.887532  1
  P  P15  1  0.750000  0.925859  0.387069  1
  P  P16  1  0.250000  0.271582  0.871352  1
  P  P17  1  0.250000  0.228221  0.371252  1
  P  P18  1  0.750000  0.728525  0.128691  1
  P  P19  1  0.750000  0.772064  0.628503  1
  P  P20  1  0.250000  0.601040  0.386842  1
  P  P21  1  0.250000  0.898834  0.886918  1
  P  P22  1  0.750000  0.398646  0.612952  1
  P  P23  1  0.750000  0.101151  0.113110  1
  Ru  Ru24  1  0.250000  0.706239  0.986536  1
  Ru  Ru25  1  0.250000  0.793797  0.486543  1
  Ru  Ru26  1  0.750000  0.293670  0.013492  1
  Ru  Ru27  1  0.750000  0.206135  0.513357  1
  Ru  Ru28  1  0.250000  0.405337  0.485587  1
  Ru  Ru29  1  0.250000  0.094603  0.985554  1
  Ru  Ru30  1  0.750000  0.594562  0.513884  1
  Ru  Ru31  1  0.750000  0.905423  0.014518  1
  Ru  Ru32  1  0.250000  0.224054  0.180317  1
  Ru  Ru33  1  0.250000  0.275970  0.680426  1
  Ru  Ru34  1  0.750000  0.776247  0.819764  1
  Ru  Ru35  1  0.750000  0.724021  0.319463  1
