# generated using pymatgen
data_Pr4In5(SnPd4)3
_symmetry_space_group_name_H-M   'P 1'
_cell_length_a   4.78469300
_cell_length_b   10.27401185
_cell_length_c   10.00835241
_cell_angle_alpha   90.24726078
_cell_angle_beta   90.00000000
_cell_angle_gamma   90.00000000
_symmetry_Int_Tables_number   1
_chemical_formula_structural   Pr4In5(SnPd4)3
_chemical_formula_sum   'Pr4 In5 Sn3 Pd12'
_cell_volume   491.98593191
_cell_formula_units_Z   1
loop_
 _symmetry_equiv_pos_site_id
 _symmetry_equiv_pos_as_xyz
  1  'x, y, z'
loop_
 _atom_site_type_symbol
 _atom_site_label
 _atom_site_symmetry_multiplicity
 _atom_site_fract_x
 _atom_site_fract_y
 _atom_site_fract_z
 _atom_site_occupancy
  Pr  Pr0  1  0.250000  0.434142  0.733986  1
  Pr  Pr1  1  0.250000  0.065909  0.236202  1
  Pr  Pr2  1  0.750000  0.565401  0.263567  1
  Pr  Pr3  1  0.750000  0.934602  0.763515  1
  In  In4  1  0.750000  0.373270  0.981180  1
  In  In5  1  0.250000  0.150824  0.888260  1
  In  In6  1  0.250000  0.350443  0.388392  1
  In  In7  1  0.750000  0.852006  0.112510  1
  In  In8  1  0.750000  0.648711  0.613766  1
  Sn  Sn9  1  0.250000  0.871036  0.518045  1
  Sn  Sn10  1  0.250000  0.625045  0.017511  1
  Sn  Sn11  1  0.750000  0.127697  0.480982  1
  Pd  Pd12  1  0.250000  0.132739  0.606052  1
  Pd  Pd13  1  0.250000  0.367041  0.110434  1
  Pd  Pd14  1  0.750000  0.865417  0.393765  1
  Pd  Pd15  1  0.750000  0.637135  0.894330  1
  Pd  Pd16  1  0.250000  0.730827  0.749349  1
  Pd  Pd17  1  0.250000  0.769030  0.248286  1
  Pd  Pd18  1  0.750000  0.268672  0.251594  1
  Pd  Pd19  1  0.750000  0.229333  0.748762  1
  Pd  Pd20  1  0.250000  0.899124  0.979538  1
  Pd  Pd21  1  0.250000  0.601142  0.479476  1
  Pd  Pd22  1  0.750000  0.101359  0.020104  1
  Pd  Pd23  1  0.750000  0.399094  0.520392  1
