# generated using pymatgen
data_Pr4Re15Si8W
_symmetry_space_group_name_H-M   'P 1'
_cell_length_a   4.18708100
_cell_length_b   7.36822848
_cell_length_c   15.57949200
_cell_angle_alpha   90.06990679
_cell_angle_beta   90.00000000
_cell_angle_gamma   90.00000000
_symmetry_Int_Tables_number   1
_chemical_formula_structural   Pr4Re15Si8W
_chemical_formula_sum   'Pr4 Re15 Si8 W1'
_cell_volume   480.64830641
_cell_formula_units_Z   1
loop_
 _symmetry_equiv_pos_site_id
 _symmetry_equiv_pos_as_xyz
  1  'x, y, z'
loop_
 _atom_site_type_symbol
 _atom_site_label
 _atom_site_symmetry_multiplicity
 _atom_site_fract_x
 _atom_site_fract_y
 _atom_site_fract_z
 _atom_site_occupancy
  Pr  Pr0  1  0.000000  0.583053  0.118151  1
  Pr  Pr1  1  0.000000  0.421490  0.881080  1
  Pr  Pr2  1  0.500000  0.079757  0.382177  1
  Pr  Pr3  1  0.500000  0.919995  0.618206  1
  Re  Re4  1  0.000000  0.861119  0.946724  1
  Re  Re5  1  0.500000  0.637217  0.448148  1
  Re  Re6  1  0.500000  0.361394  0.552317  1
  Re  Re7  1  0.000000  0.731132  0.321184  1
  Re  Re8  1  0.000000  0.268978  0.678921  1
  Re  Re9  1  0.500000  0.230645  0.179649  1
  Re  Re10  1  0.500000  0.768733  0.820488  1
  Re  Re11  1  0.000000  0.432450  0.418537  1
  Re  Re12  1  0.000000  0.566904  0.581865  1
  Re  Re13  1  0.500000  0.930048  0.082286  1
  Re  Re14  1  0.500000  0.067795  0.917365  1
  Re  Re15  1  0.000000  0.989495  0.207583  1
  Re  Re16  1  0.000000  0.010237  0.793670  1
  Re  Re17  1  0.500000  0.489723  0.294221  1
  Re  Re18  1  0.500000  0.510288  0.705614  1
  Si  Si19  1  0.000000  0.825021  0.475422  1
  Si  Si20  1  0.000000  0.174152  0.524486  1
  Si  Si21  1  0.500000  0.328253  0.024026  1
  Si  Si22  1  0.500000  0.674690  0.975139  1
  Si  Si23  1  0.000000  0.292964  0.272872  1
  Si  Si24  1  0.000000  0.707993  0.726815  1
  Si  Si25  1  0.500000  0.792366  0.227635  1
  Si  Si26  1  0.500000  0.208183  0.772764  1
  W  W27  1  0.000000  0.135926  0.052650  1
