# generated using pymatgen
data_Er2Co9Si7Rh3
_symmetry_space_group_name_H-M   'P 1'
_cell_length_a   3.71166600
_cell_length_b   9.21523732
_cell_length_c   9.21523600
_cell_angle_alpha   119.99999527
_cell_angle_beta   90.00000000
_cell_angle_gamma   90.00000000
_symmetry_Int_Tables_number   1
_chemical_formula_structural   Er2Co9Si7Rh3
_chemical_formula_sum   'Er2 Co9 Si7 Rh3'
_cell_volume   272.96849603
_cell_formula_units_Z   1
loop_
 _symmetry_equiv_pos_site_id
 _symmetry_equiv_pos_as_xyz
  1  'x, y, z'
loop_
 _atom_site_type_symbol
 _atom_site_label
 _atom_site_symmetry_multiplicity
 _atom_site_fract_x
 _atom_site_fract_y
 _atom_site_fract_z
 _atom_site_occupancy
  Er  Er0  1  0.000000  0.666667  0.333333  1
  Er  Er1  1  0.500000  0.333333  0.666667  1
  Co  Co2  1  0.000000  0.566410  0.943770  1
  Co  Co3  1  0.000000  0.377360  0.433590  1
  Co  Co4  1  0.000000  0.056230  0.622640  1
  Co  Co5  1  0.000000  0.872350  0.155908  1
  Co  Co6  1  0.000000  0.283558  0.127650  1
  Co  Co7  1  0.000000  0.844092  0.716442  1
  Co  Co8  1  0.500000  0.946884  0.384155  1
  Co  Co9  1  0.500000  0.437271  0.053116  1
  Co  Co10  1  0.500000  0.615845  0.562729  1
  Si  Si11  1  0.000000  0.000000  0.000000  1
  Si  Si12  1  0.500000  0.708343  0.115057  1
  Si  Si13  1  0.500000  0.406713  0.291657  1
  Si  Si14  1  0.500000  0.884943  0.593287  1
  Si  Si15  1  0.000000  0.593805  0.704301  1
  Si  Si16  1  0.000000  0.110496  0.406195  1
  Si  Si17  1  0.000000  0.295699  0.889504  1
  Rh  Rh18  1  0.500000  0.773677  0.896318  1
  Rh  Rh19  1  0.500000  0.122641  0.226323  1
  Rh  Rh20  1  0.500000  0.103682  0.877359  1
