# generated using pymatgen
data_Ga7Se10
_symmetry_space_group_name_H-M   'P 1'
_cell_length_a   9.70348650
_cell_length_b   9.70348668
_cell_length_c   9.70348668
_cell_angle_alpha   89.40698910
_cell_angle_beta   89.40698867
_cell_angle_gamma   89.40698825
_symmetry_Int_Tables_number   1
_chemical_formula_structural   Ga7Se10
_chemical_formula_sum   'Ga14 Se20'
_cell_volume   913.51171888
_cell_formula_units_Z   2
loop_
 _symmetry_equiv_pos_site_id
 _symmetry_equiv_pos_as_xyz
  1  'x, y, z'
loop_
 _atom_site_type_symbol
 _atom_site_label
 _atom_site_symmetry_multiplicity
 _atom_site_fract_x
 _atom_site_fract_y
 _atom_site_fract_z
 _atom_site_occupancy
  Ga  Ga0  1  0.847195  0.889329  0.579209  1
  Ga  Ga1  1  0.579209  0.847195  0.889329  1
  Ga  Ga2  1  0.889329  0.579209  0.847195  1
  Ga  Ga3  1  0.152805  0.420791  0.110671  1
  Ga  Ga4  1  0.110671  0.152805  0.420791  1
  Ga  Ga5  1  0.420791  0.110671  0.152805  1
  Ga  Ga6  1  0.742029  0.164914  0.343783  1
  Ga  Ga7  1  0.343783  0.742029  0.164914  1
  Ga  Ga8  1  0.164914  0.343783  0.742029  1
  Ga  Ga9  1  0.257971  0.656217  0.835086  1
  Ga  Ga10  1  0.835086  0.257971  0.656217  1
  Ga  Ga11  1  0.656217  0.835086  0.257971  1
  Ga  Ga12  1  0.573533  0.573533  0.573533  1
  Ga  Ga13  1  0.426467  0.426467  0.426467  1
  Se  Se14  1  0.422930  0.921640  0.326947  1
  Se  Se15  1  0.921640  0.326947  0.422930  1
  Se  Se16  1  0.326947  0.422930  0.921640  1
  Se  Se17  1  0.078360  0.577070  0.673053  1
  Se  Se18  1  0.577070  0.673053  0.078360  1
  Se  Se19  1  0.673053  0.078360  0.577070  1
  Se  Se20  1  0.760248  0.692696  0.441436  1
  Se  Se21  1  0.441436  0.760248  0.692696  1
  Se  Se22  1  0.692696  0.441436  0.760248  1
  Se  Se23  1  0.239752  0.558564  0.307304  1
  Se  Se24  1  0.307304  0.239752  0.558564  1
  Se  Se25  1  0.558564  0.307304  0.239752  1
  Se  Se26  1  0.500000  0.079388  0.920612  1
  Se  Se27  1  0.920612  0.500000  0.079388  1
  Se  Se28  1  0.079388  0.920612  0.500000  1
  Se  Se29  1  0.000000  0.181244  0.818756  1
  Se  Se30  1  0.818756  0.000000  0.181244  1
  Se  Se31  1  0.181244  0.818756  0.000000  1
  Se  Se32  1  0.830413  0.830413  0.830413  1
  Se  Se33  1  0.169587  0.169587  0.169587  1
