# generated using pymatgen
data_Ce8Fe(Si4Os)3
_symmetry_space_group_name_H-M   'P 1'
_cell_length_a   8.22456438
_cell_length_b   8.22533308
_cell_length_c   8.13236701
_cell_angle_alpha   90.00237226
_cell_angle_beta   89.99599878
_cell_angle_gamma   120.01693400
_symmetry_Int_Tables_number   1
_chemical_formula_structural   Ce8Fe(Si4Os)3
_chemical_formula_sum   'Ce8 Fe1 Si12 Os3'
_cell_volume   476.36502272
_cell_formula_units_Z   1
loop_
 _symmetry_equiv_pos_site_id
 _symmetry_equiv_pos_as_xyz
  1  'x, y, z'
loop_
 _atom_site_type_symbol
 _atom_site_label
 _atom_site_symmetry_multiplicity
 _atom_site_fract_x
 _atom_site_fract_y
 _atom_site_fract_z
 _atom_site_occupancy
  Ce  Ce0  1  0.999993  0.000000  0.248672  1
  Ce  Ce1  1  0.999983  0.000004  0.751160  1
  Ce  Ce2  1  0.500772  0.499234  0.249674  1
  Ce  Ce3  1  0.500728  0.001458  0.249644  1
  Ce  Ce4  1  0.998571  0.499297  0.249658  1
  Ce  Ce5  1  0.499467  0.500517  0.749677  1
  Ce  Ce6  1  0.499454  0.998925  0.749695  1
  Ce  Ce7  1  0.001094  0.500558  0.749691  1
  Fe  Fe8  1  0.333263  0.666668  0.013100  1
  Si  Si9  1  0.165293  0.834718  0.499433  1
  Si  Si10  1  0.165289  0.330588  0.499433  1
  Si  Si11  1  0.669385  0.834704  0.499417  1
  Si  Si12  1  0.834681  0.165308  0.500249  1
  Si  Si13  1  0.834694  0.669361  0.500273  1
  Si  Si14  1  0.330660  0.165312  0.500249  1
  Si  Si15  1  0.835295  0.164698  0.001815  1
  Si  Si16  1  0.835304  0.670598  0.001806  1
  Si  Si17  1  0.329421  0.164700  0.001821  1
  Si  Si18  1  0.170383  0.829610  0.998233  1
  Si  Si19  1  0.170384  0.340794  0.998244  1
  Si  Si20  1  0.659201  0.829612  0.998262  1
  Os  Os21  1  0.333310  0.666656  0.496770  1
  Os  Os22  1  0.666682  0.333341  0.502534  1
  Os  Os23  1  0.666697  0.333337  0.990491  1
