# generated using pymatgen
data_Hf8Be(Si5Mo4)3
_symmetry_space_group_name_H-M   'P 1'
_cell_length_a   6.55914795
_cell_length_b   6.71755112
_cell_length_c   12.63357200
_cell_angle_alpha   90.00000000
_cell_angle_beta   90.00000000
_cell_angle_gamma   89.87369172
_symmetry_Int_Tables_number   1
_chemical_formula_structural   Hf8Be(Si5Mo4)3
_chemical_formula_sum   'Hf8 Be1 Si15 Mo12'
_cell_volume   556.65166368
_cell_formula_units_Z   1
loop_
 _symmetry_equiv_pos_site_id
 _symmetry_equiv_pos_as_xyz
  1  'x, y, z'
loop_
 _atom_site_type_symbol
 _atom_site_label
 _atom_site_symmetry_multiplicity
 _atom_site_fract_x
 _atom_site_fract_y
 _atom_site_fract_z
 _atom_site_occupancy
  Hf  Hf0  1  0.994822  0.170711  0.091617  1
  Hf  Hf1  1  0.004178  0.832476  0.906322  1
  Hf  Hf2  1  0.503588  0.671850  0.905512  1
  Hf  Hf3  1  0.004178  0.832476  0.593678  1
  Hf  Hf4  1  0.494647  0.329379  0.091680  1
  Hf  Hf5  1  0.994822  0.170711  0.408383  1
  Hf  Hf6  1  0.494647  0.329379  0.408320  1
  Hf  Hf7  1  0.503588  0.671850  0.594488  1
  Be  Be8  1  0.037461  0.122272  0.750000  1
  Si  Si9  1  0.966648  0.877443  0.250000  1
  Si  Si10  1  0.466502  0.623196  0.250000  1
  Si  Si11  1  0.536100  0.374483  0.750000  1
  Si  Si12  1  0.292168  0.868758  0.750000  1
  Si  Si13  1  0.699060  0.139646  0.250000  1
  Si  Si14  1  0.199455  0.360681  0.250000  1
  Si  Si15  1  0.801724  0.639113  0.750000  1
  Si  Si16  1  0.168027  0.459134  0.543268  1
  Si  Si17  1  0.831666  0.540433  0.459054  1
  Si  Si18  1  0.332763  0.959153  0.457216  1
  Si  Si19  1  0.831666  0.540433  0.040946  1
  Si  Si20  1  0.667288  0.040910  0.543357  1
  Si  Si21  1  0.168027  0.459134  0.956732  1
  Si  Si22  1  0.667288  0.040910  0.956643  1
  Si  Si23  1  0.332763  0.959153  0.042784  1
  Mo  Mo24  1  0.166797  0.506587  0.750000  1
  Mo  Mo25  1  0.831620  0.487361  0.250000  1
  Mo  Mo26  1  0.330831  0.013037  0.250000  1
  Mo  Mo27  1  0.667494  0.990577  0.750000  1
  Mo  Mo28  1  0.331354  0.163678  0.623600  1
  Mo  Mo29  1  0.668598  0.835845  0.376955  1
  Mo  Mo30  1  0.166956  0.663567  0.376933  1
  Mo  Mo31  1  0.668598  0.835845  0.123045  1
  Mo  Mo32  1  0.838183  0.331287  0.624859  1
  Mo  Mo33  1  0.331354  0.163678  0.876400  1
  Mo  Mo34  1  0.838183  0.331287  0.875141  1
  Mo  Mo35  1  0.166956  0.663567  0.123067  1
