# generated using pymatgen
data_Tb3Y7Al3Ru
_symmetry_space_group_name_H-M   'P 1'
_cell_length_a   9.59621700
_cell_length_b   9.59621528
_cell_length_c   9.63168500
_cell_angle_alpha   90.00000000
_cell_angle_beta   90.00000000
_cell_angle_gamma   120.00000250
_symmetry_Int_Tables_number   1
_chemical_formula_structural   Tb3Y7Al3Ru
_chemical_formula_sum   'Tb6 Y14 Al6 Ru2'
_cell_volume   768.12682798
_cell_formula_units_Z   2
loop_
 _symmetry_equiv_pos_site_id
 _symmetry_equiv_pos_as_xyz
  1  'x, y, z'
loop_
 _atom_site_type_symbol
 _atom_site_label
 _atom_site_symmetry_multiplicity
 _atom_site_fract_x
 _atom_site_fract_y
 _atom_site_fract_z
 _atom_site_occupancy
  Tb  Tb0  1  0.207120  0.792880  0.439721  1
  Tb  Tb1  1  0.207120  0.414242  0.439721  1
  Tb  Tb2  1  0.585758  0.792880  0.439721  1
  Tb  Tb3  1  0.792880  0.207120  0.560279  1
  Tb  Tb4  1  0.792880  0.585758  0.560279  1
  Tb  Tb5  1  0.414242  0.207120  0.560279  1
  Y  Y6  1  0.000000  0.000000  0.500000  1
  Y  Y7  1  0.000000  0.000000  0.000000  1
  Y  Y8  1  0.792737  0.207263  0.940658  1
  Y  Y9  1  0.792737  0.585473  0.940658  1
  Y  Y10  1  0.414527  0.207263  0.940658  1
  Y  Y11  1  0.207263  0.792737  0.059342  1
  Y  Y12  1  0.207263  0.414527  0.059342  1
  Y  Y13  1  0.585473  0.792737  0.059342  1
  Y  Y14  1  0.540296  0.459704  0.250618  1
  Y  Y15  1  0.540296  0.080590  0.250618  1
  Y  Y16  1  0.919410  0.459704  0.250618  1
  Y  Y17  1  0.459704  0.540296  0.749382  1
  Y  Y18  1  0.459704  0.919410  0.749382  1
  Y  Y19  1  0.080590  0.540296  0.749382  1
  Al  Al20  1  0.887995  0.112005  0.248746  1
  Al  Al21  1  0.887995  0.775991  0.248746  1
  Al  Al22  1  0.224009  0.112005  0.248746  1
  Al  Al23  1  0.112005  0.887995  0.751254  1
  Al  Al24  1  0.112005  0.224009  0.751254  1
  Al  Al25  1  0.775991  0.887995  0.751254  1
  Ru  Ru26  1  0.333333  0.666667  0.251528  1
  Ru  Ru27  1  0.666667  0.333333  0.748472  1
