# generated using pymatgen
data_SrLa2(BPt2)3
_symmetry_space_group_name_H-M   'P 1'
_cell_length_a   5.66047500
_cell_length_b   5.58980493
_cell_length_c   7.82585400
_cell_angle_alpha   90.00000000
_cell_angle_beta   90.00000000
_cell_angle_gamma   120.41909897
_symmetry_Int_Tables_number   1
_chemical_formula_structural   SrLa2(BPt2)3
_chemical_formula_sum   'Sr1 La2 B3 Pt6'
_cell_volume   213.53166677
_cell_formula_units_Z   1
loop_
 _symmetry_equiv_pos_site_id
 _symmetry_equiv_pos_as_xyz
  1  'x, y, z'
loop_
 _atom_site_type_symbol
 _atom_site_label
 _atom_site_symmetry_multiplicity
 _atom_site_fract_x
 _atom_site_fract_y
 _atom_site_fract_z
 _atom_site_occupancy
  Sr  Sr0  1  0.500000  0.000000  0.000000  1
  La  La1  1  0.500000  0.500000  0.328643  1
  La  La2  1  0.000000  0.500000  0.671357  1
  B  B3  1  0.000000  0.500000  0.164072  1
  B  B4  1  0.500000  0.500000  0.835928  1
  B  B5  1  0.500000  0.000000  0.500000  1
  Pt  Pt6  1  0.303682  0.155396  0.664210  1
  Pt  Pt7  1  0.148286  0.844604  0.335790  1
  Pt  Pt8  1  0.849773  0.699547  0.000000  1
  Pt  Pt9  1  0.851714  0.155396  0.335790  1
  Pt  Pt10  1  0.150227  0.300453  0.000000  1
  Pt  Pt11  1  0.696318  0.844604  0.664210  1
