# generated using pymatgen
data_Ho4Sc4Ir3Rh
_symmetry_space_group_name_H-M   'P 1'
_cell_length_a   4.21707100
_cell_length_b   7.13129031
_cell_length_c   8.74443788
_cell_angle_alpha   89.72936665
_cell_angle_beta   90.00000000
_cell_angle_gamma   90.00000000
_symmetry_Int_Tables_number   1
_chemical_formula_structural   Ho4Sc4Ir3Rh
_chemical_formula_sum   'Ho4 Sc4 Ir3 Rh1'
_cell_volume   262.96992441
_cell_formula_units_Z   1
loop_
 _symmetry_equiv_pos_site_id
 _symmetry_equiv_pos_as_xyz
  1  'x, y, z'
loop_
 _atom_site_type_symbol
 _atom_site_label
 _atom_site_symmetry_multiplicity
 _atom_site_fract_x
 _atom_site_fract_y
 _atom_site_fract_z
 _atom_site_occupancy
  Ho  Ho0  1  0.250000  0.518594  0.175234  1
  Ho  Ho1  1  0.750000  0.485198  0.827623  1
  Ho  Ho2  1  0.750000  0.977378  0.674751  1
  Ho  Ho3  1  0.250000  0.017873  0.324168  1
  Sc  Sc4  1  0.250000  0.643065  0.562183  1
  Sc  Sc5  1  0.750000  0.357527  0.437290  1
  Sc  Sc6  1  0.750000  0.857394  0.062850  1
  Sc  Sc7  1  0.250000  0.142860  0.938601  1
  Ir  Ir8  1  0.250000  0.763703  0.887095  1
  Ir  Ir9  1  0.750000  0.238173  0.111933  1
  Ir  Ir10  1  0.750000  0.737189  0.388787  1
  Rh  Rh11  1  0.250000  0.261047  0.609484  1
