# generated using pymatgen
data_YbEu(CoO2)6
_symmetry_space_group_name_H-M   'P 1'
_cell_length_a   4.92448160
_cell_length_b   5.63515958
_cell_length_c   8.52126662
_cell_angle_alpha   89.90385122
_cell_angle_beta   90.06817782
_cell_angle_gamma   73.51120520
_symmetry_Int_Tables_number   1
_chemical_formula_structural   YbEu(CoO2)6
_chemical_formula_sum   'Yb1 Eu1 Co6 O12'
_cell_volume   226.74187760
_cell_formula_units_Z   1
loop_
 _symmetry_equiv_pos_site_id
 _symmetry_equiv_pos_as_xyz
  1  'x, y, z'
loop_
 _atom_site_type_symbol
 _atom_site_label
 _atom_site_symmetry_multiplicity
 _atom_site_fract_x
 _atom_site_fract_y
 _atom_site_fract_z
 _atom_site_occupancy
  Yb  Yb0  1  0.499991  0.499993  0.666634  1
  Eu  Eu1  1  0.000011  0.500003  0.166676  1
  Co  Co2  1  0.500001  0.000007  0.166669  1
  Co  Co3  1  0.499994  0.000103  0.832793  1
  Co  Co4  1  0.500005  0.999889  0.500554  1
  Co  Co5  1  0.000000  0.999994  0.666669  1
  Co  Co6  1  0.999947  0.999929  0.335622  1
  Co  Co7  1  0.000053  0.000083  0.997708  1
  O  O8  1  0.775335  0.182950  0.166628  1
  O  O9  1  0.273120  0.184018  0.666449  1
  O  O10  1  0.224664  0.817068  0.166710  1
  O  O11  1  0.726882  0.815965  0.666902  1
  O  O12  1  0.272798  0.184949  0.999891  1
  O  O13  1  0.773260  0.184936  0.504567  1
  O  O14  1  0.273075  0.184620  0.333494  1
  O  O15  1  0.773228  0.185155  0.828691  1
  O  O16  1  0.727196  0.815056  0.333437  1
  O  O17  1  0.226741  0.815052  0.828763  1
  O  O18  1  0.726932  0.815392  0.999845  1
  O  O19  1  0.226767  0.814840  0.504633  1
