# generated using pymatgen
data_Tb3InC3
_symmetry_space_group_name_H-M   'P 1'
_cell_length_a   3.58888000
_cell_length_b   7.17165900
_cell_length_c   10.37074500
_cell_angle_alpha   90.00000000
_cell_angle_beta   90.00000000
_cell_angle_gamma   90.00000000
_symmetry_Int_Tables_number   1
_chemical_formula_structural   Tb3InC3
_chemical_formula_sum   'Tb6 In2 C6'
_cell_volume   266.92455321
_cell_formula_units_Z   2
loop_
 _symmetry_equiv_pos_site_id
 _symmetry_equiv_pos_as_xyz
  1  'x, y, z'
loop_
 _atom_site_type_symbol
 _atom_site_label
 _atom_site_symmetry_multiplicity
 _atom_site_fract_x
 _atom_site_fract_y
 _atom_site_fract_z
 _atom_site_occupancy
  Tb  Tb0  1  0.500000  0.514656  0.210553  1
  Tb  Tb1  1  0.500000  0.485344  0.789447  1
  Tb  Tb2  1  0.500000  0.985344  0.210553  1
  Tb  Tb3  1  0.500000  0.014656  0.789447  1
  Tb  Tb4  1  0.000000  0.750000  0.462963  1
  Tb  Tb5  1  0.000000  0.250000  0.537037  1
  In  In6  1  0.000000  0.750000  0.995711  1
  In  In7  1  0.000000  0.250000  0.004289  1
  C  C8  1  0.500000  0.507545  0.563756  1
  C  C9  1  0.500000  0.492455  0.436244  1
  C  C10  1  0.500000  0.992455  0.563756  1
  C  C11  1  0.500000  0.007545  0.436244  1
  C  C12  1  0.000000  0.750000  0.220590  1
  C  C13  1  0.000000  0.250000  0.779410  1
