# generated using pymatgen
data_ZrCd3Pd8
_symmetry_space_group_name_H-M   'P 1'
_cell_length_a   4.13286808
_cell_length_b   5.71952585
_cell_length_c   17.11526514
_cell_angle_alpha   89.97510852
_cell_angle_beta   89.99982529
_cell_angle_gamma   90.01823770
_symmetry_Int_Tables_number   1
_chemical_formula_structural   ZrCd3Pd8
_chemical_formula_sum   'Zr2 Cd6 Pd16'
_cell_volume   404.57136295
_cell_formula_units_Z   2
loop_
 _symmetry_equiv_pos_site_id
 _symmetry_equiv_pos_as_xyz
  1  'x, y, z'
loop_
 _atom_site_type_symbol
 _atom_site_label
 _atom_site_symmetry_multiplicity
 _atom_site_fract_x
 _atom_site_fract_y
 _atom_site_fract_z
 _atom_site_occupancy
  Zr  Zr0  1  0.524427  0.841893  0.206155  1
  Zr  Zr1  1  0.527496  0.236445  0.706112  1
  Cd  Cd2  1  0.524598  0.335880  0.043246  1
  Cd  Cd3  1  0.525790  0.335591  0.369025  1
  Cd  Cd4  1  0.026712  0.040197  0.456088  1
  Cd  Cd5  1  0.527411  0.744621  0.543274  1
  Cd  Cd6  1  0.526173  0.741878  0.869089  1
  Cd  Cd7  1  0.025323  0.039000  0.956102  1
  Pd  Pd8  1  0.524592  0.827815  0.040230  1
  Pd  Pd9  1  0.024203  0.091708  0.124200  1
  Pd  Pd10  1  0.024270  0.596300  0.124996  1
  Pd  Pd11  1  0.524465  0.343746  0.206127  1
  Pd  Pd12  1  0.025040  0.595629  0.287380  1
  Pd  Pd13  1  0.024902  0.091074  0.287896  1
  Pd  Pd14  1  0.525810  0.827429  0.372098  1
  Pd  Pd15  1  0.026764  0.540195  0.456263  1
  Pd  Pd16  1  0.527475  0.252842  0.540230  1
  Pd  Pd17  1  0.027819  0.988336  0.624332  1
  Pd  Pd18  1  0.027778  0.483610  0.625046  1
  Pd  Pd19  1  0.527658  0.734522  0.706184  1
  Pd  Pd20  1  0.027003  0.481304  0.787359  1
  Pd  Pd21  1  0.027078  0.985953  0.787943  1
  Pd  Pd22  1  0.526243  0.249929  0.871973  1
  Pd  Pd23  1  0.025304  0.539070  0.956192  1
