# generated using pymatgen
data_Th4In2Ni3Ru
_symmetry_space_group_name_H-M   'P 1'
_cell_length_a   7.67927300
_cell_length_b   7.67927362
_cell_length_c   3.75892700
_cell_angle_alpha   90.00000000
_cell_angle_beta   90.00000000
_cell_angle_gamma   89.91413770
_symmetry_Int_Tables_number   1
_chemical_formula_structural   Th4In2Ni3Ru
_chemical_formula_sum   'Th4 In2 Ni3 Ru1'
_cell_volume   221.66833206
_cell_formula_units_Z   1
loop_
 _symmetry_equiv_pos_site_id
 _symmetry_equiv_pos_as_xyz
  1  'x, y, z'
loop_
 _atom_site_type_symbol
 _atom_site_label
 _atom_site_symmetry_multiplicity
 _atom_site_fract_x
 _atom_site_fract_y
 _atom_site_fract_z
 _atom_site_occupancy
  Th  Th0  1  0.325324  0.832916  0.500000  1
  Th  Th1  1  0.829327  0.670673  0.500000  1
  Th  Th2  1  0.174000  0.326000  0.500000  1
  Th  Th3  1  0.667084  0.174676  0.500000  1
  In  In4  1  0.993670  0.998869  0.000000  1
  In  In5  1  0.501131  0.506330  0.000000  1
  Ni  Ni6  1  0.875875  0.375516  0.000000  1
  Ni  Ni7  1  0.124484  0.624125  0.000000  1
  Ni  Ni8  1  0.634856  0.865144  0.000000  1
  Ru  Ru9  1  0.374248  0.125752  0.000000  1
