# generated using pymatgen
data_Tb20IrPt5Rh6
_symmetry_space_group_name_H-M   'P 1'
_cell_length_a   11.06273061
_cell_length_b   11.06273046
_cell_length_c   6.35275402
_cell_angle_alpha   90.01145926
_cell_angle_beta   90.01145950
_cell_angle_gamma   89.89463376
_symmetry_Int_Tables_number   1
_chemical_formula_structural   Tb20IrPt5Rh6
_chemical_formula_sum   'Tb20 Ir1 Pt5 Rh6'
_cell_volume   777.47414664
_cell_formula_units_Z   1
loop_
 _symmetry_equiv_pos_site_id
 _symmetry_equiv_pos_as_xyz
  1  'x, y, z'
loop_
 _atom_site_type_symbol
 _atom_site_label
 _atom_site_symmetry_multiplicity
 _atom_site_fract_x
 _atom_site_fract_y
 _atom_site_fract_z
 _atom_site_occupancy
  Tb  Tb0  1  0.293536  0.090336  0.375453  1
  Tb  Tb1  1  0.294101  0.908279  0.874288  1
  Tb  Tb2  1  0.706031  0.087583  0.874409  1
  Tb  Tb3  1  0.706088  0.908883  0.374781  1
  Tb  Tb4  1  0.587341  0.789844  0.878538  1
  Tb  Tb5  1  0.587163  0.206797  0.376220  1
  Tb  Tb6  1  0.411081  0.791040  0.379892  1
  Tb  Tb7  1  0.409468  0.207699  0.880007  1
  Tb  Tb8  1  0.210156  0.412659  0.621462  1
  Tb  Tb9  1  0.208960  0.588919  0.120108  1
  Tb  Tb10  1  0.793203  0.412837  0.123780  1
  Tb  Tb11  1  0.792301  0.590532  0.619993  1
  Tb  Tb12  1  0.909664  0.706464  0.124547  1
  Tb  Tb13  1  0.912417  0.293969  0.625591  1
  Tb  Tb14  1  0.091721  0.705899  0.625712  1
  Tb  Tb15  1  0.091117  0.293912  0.125219  1
  Tb  Tb16  1  0.999550  0.999803  0.499934  1
  Tb  Tb17  1  0.000197  0.000450  0.000066  1
  Tb  Tb18  1  0.498290  0.500948  0.000354  1
  Tb  Tb19  1  0.499052  0.501710  0.499646  1
  Ir  Ir20  1  0.345141  0.654859  0.750000  1
  Pt  Pt21  1  0.845043  0.154957  0.250000  1
  Pt  Pt22  1  0.845177  0.846059  0.750466  1
  Pt  Pt23  1  0.153941  0.154823  0.749534  1
  Pt  Pt24  1  0.154310  0.845690  0.250000  1
  Pt  Pt25  1  0.654888  0.345112  0.750000  1
  Rh  Rh26  1  0.654409  0.653832  0.250128  1
  Rh  Rh27  1  0.346168  0.345591  0.249872  1
  Rh  Rh28  1  0.500328  0.000383  0.121273  1
  Rh  Rh29  1  0.500198  0.000659  0.622011  1
  Rh  Rh30  1  0.999341  0.499802  0.877989  1
  Rh  Rh31  1  0.999617  0.499672  0.378727  1
