# generated using pymatgen
data_YTm2(In2Rh)2
_symmetry_space_group_name_H-M   'P 1'
_cell_length_a   7.91736428
_cell_length_b   7.91078661
_cell_length_c   3.72205200
_cell_angle_alpha   90.00000000
_cell_angle_beta   90.00000000
_cell_angle_gamma   119.90797358
_symmetry_Int_Tables_number   1
_chemical_formula_structural   YTm2(In2Rh)2
_chemical_formula_sum   'Y1 Tm2 In4 Rh2'
_cell_volume   202.07628465
_cell_formula_units_Z   1
loop_
 _symmetry_equiv_pos_site_id
 _symmetry_equiv_pos_as_xyz
  1  'x, y, z'
loop_
 _atom_site_type_symbol
 _atom_site_label
 _atom_site_symmetry_multiplicity
 _atom_site_fract_x
 _atom_site_fract_y
 _atom_site_fract_z
 _atom_site_occupancy
  Y  Y0  1  0.411038  0.032800  0.000000  1
  Tm  Tm1  1  0.963337  0.374866  0.000000  1
  Tm  Tm2  1  0.625967  0.589553  0.000000  1
  In  In3  1  0.738504  0.998299  0.500001  1
  In  In4  1  0.259299  0.261027  0.500001  1
  In  In5  1  0.332407  0.664217  0.500001  1
  In  In6  1  0.001299  0.740678  0.500001  1
  Rh  Rh7  1  0.997224  0.999924  0.000000  1
  Rh  Rh8  1  0.670925  0.338637  0.500001  1
