# generated using pymatgen
data_Lu6GaNiRh
_symmetry_space_group_name_H-M   'P 1'
_cell_length_a   8.19688419
_cell_length_b   8.19688387
_cell_length_c   8.19688401
_cell_angle_alpha   112.52995763
_cell_angle_beta   109.75752418
_cell_angle_gamma   106.18818996
_symmetry_Int_Tables_number   1
_chemical_formula_structural   Lu6GaNiRh
_chemical_formula_sum   'Lu12 Ga2 Ni2 Rh2'
_cell_volume   422.65990928
_cell_formula_units_Z   2
loop_
 _symmetry_equiv_pos_site_id
 _symmetry_equiv_pos_as_xyz
  1  'x, y, z'
loop_
 _atom_site_type_symbol
 _atom_site_label
 _atom_site_symmetry_multiplicity
 _atom_site_fract_x
 _atom_site_fract_y
 _atom_site_fract_z
 _atom_site_occupancy
  Lu  Lu0  1  0.437622  0.243678  0.193944  1
  Lu  Lu1  1  0.562378  0.756322  0.806056  1
  Lu  Lu2  1  0.049735  0.243678  0.806056  1
  Lu  Lu3  1  0.950265  0.756322  0.193944  1
  Lu  Lu4  1  0.178904  0.279046  0.457950  1
  Lu  Lu5  1  0.821096  0.720954  0.542050  1
  Lu  Lu6  1  0.178904  0.720954  0.899858  1
  Lu  Lu7  1  0.821096  0.279046  0.100142  1
  Lu  Lu8  1  0.325373  0.634716  0.309344  1
  Lu  Lu9  1  0.674627  0.365284  0.690656  1
  Lu  Lu10  1  0.325373  0.016029  0.690656  1
  Lu  Lu11  1  0.674627  0.983971  0.309344  1
  Ga  Ga12  1  0.500000  0.500000  0.000000  1
  Ga  Ga13  1  0.000000  0.000000  0.000000  1
  Ni  Ni14  1  0.119788  0.619788  0.500000  1
  Ni  Ni15  1  0.880212  0.380212  0.500000  1
  Rh  Rh16  1  0.334859  0.000000  0.334859  1
  Rh  Rh17  1  0.665141  0.000000  0.665141  1
