# generated using pymatgen
data_Yb6Hg2Ir
_symmetry_space_group_name_H-M   'P 1'
_cell_length_a   8.28130900
_cell_length_b   8.28130978
_cell_length_c   4.27189600
_cell_angle_alpha   90.00000000
_cell_angle_beta   90.00000000
_cell_angle_gamma   120.00000889
_symmetry_Int_Tables_number   1
_chemical_formula_structural   Yb6Hg2Ir
_chemical_formula_sum   'Yb6 Hg2 Ir1'
_cell_volume   253.71683443
_cell_formula_units_Z   1
loop_
 _symmetry_equiv_pos_site_id
 _symmetry_equiv_pos_as_xyz
  1  'x, y, z'
loop_
 _atom_site_type_symbol
 _atom_site_label
 _atom_site_symmetry_multiplicity
 _atom_site_fract_x
 _atom_site_fract_y
 _atom_site_fract_z
 _atom_site_occupancy
  Yb  Yb0  1  0.761884  0.000000  0.000000  1
  Yb  Yb1  1  0.238117  0.238116  0.000000  1
  Yb  Yb2  1  0.000000  0.761884  0.000000  1
  Yb  Yb3  1  0.393274  0.000000  0.500001  1
  Yb  Yb4  1  0.000000  0.393274  0.500001  1
  Yb  Yb5  1  0.606726  0.606726  0.500001  1
  Hg  Hg6  1  0.666667  0.333333  0.000000  1
  Hg  Hg7  1  0.333333  0.666666  0.000000  1
  Ir  Ir8  1  0.000000  0.000000  0.500001  1
