# generated using pymatgen
data_Pr4ReTc5B12
_symmetry_space_group_name_H-M   'P 1'
_cell_length_a   6.31864688
_cell_length_b   6.32867716
_cell_length_c   7.66233974
_cell_angle_alpha   89.42927619
_cell_angle_beta   89.37559341
_cell_angle_gamma   114.68323616
_symmetry_Int_Tables_number   1
_chemical_formula_structural   Pr4ReTc5B12
_chemical_formula_sum   'Pr4 Re1 Tc5 B12'
_cell_volume   278.35850967
_cell_formula_units_Z   1
loop_
 _symmetry_equiv_pos_site_id
 _symmetry_equiv_pos_as_xyz
  1  'x, y, z'
loop_
 _atom_site_type_symbol
 _atom_site_label
 _atom_site_symmetry_multiplicity
 _atom_site_fract_x
 _atom_site_fract_y
 _atom_site_fract_z
 _atom_site_occupancy
  Pr  Pr0  1  0.908190  0.560286  0.326262  1
  Pr  Pr1  1  0.438829  0.092118  0.172532  1
  Pr  Pr2  1  0.092105  0.442712  0.673559  1
  Pr  Pr3  1  0.563333  0.908404  0.827188  1
  Re  Re4  1  0.196302  0.011380  0.589185  1
  Tc  Tc5  1  0.417141  0.583024  0.249184  1
  Tc  Tc6  1  0.582858  0.417260  0.749468  1
  Tc  Tc7  1  0.010881  0.197343  0.088481  1
  Tc  Tc8  1  0.802558  0.988533  0.411889  1
  Tc  Tc9  1  0.988873  0.801626  0.912281  1
  B  B10  1  0.760701  0.848199  0.131523  1
  B  B11  1  0.152515  0.237753  0.370146  1
  B  B12  1  0.237583  0.151290  0.866811  1
  B  B13  1  0.848082  0.758444  0.630789  1
  B  B14  1  0.417446  0.844256  0.483158  1
  B  B15  1  0.157093  0.580926  0.018380  1
  B  B16  1  0.582284  0.157278  0.517800  1
  B  B17  1  0.843115  0.418348  0.982209  1
  B  B18  1  0.560025  0.651012  0.531795  1
  B  B19  1  0.349592  0.439669  0.967742  1
  B  B20  1  0.440374  0.350552  0.467697  1
  B  B21  1  0.650121  0.559588  0.031920  1
