# generated using pymatgen
data_Er2Co4B4Ru
_symmetry_space_group_name_H-M   'P 1'
_cell_length_a   7.10587043
_cell_length_b   6.00833632
_cell_length_c   5.22218100
_cell_angle_alpha   78.15793170
_cell_angle_beta   55.84785037
_cell_angle_gamma   46.52111446
_symmetry_Int_Tables_number   1
_chemical_formula_structural   Er2Co4B4Ru
_chemical_formula_sum   'Er2 Co4 B4 Ru1'
_cell_volume   127.65305118
_cell_formula_units_Z   1
loop_
 _symmetry_equiv_pos_site_id
 _symmetry_equiv_pos_as_xyz
  1  'x, y, z'
loop_
 _atom_site_type_symbol
 _atom_site_label
 _atom_site_symmetry_multiplicity
 _atom_site_fract_x
 _atom_site_fract_y
 _atom_site_fract_z
 _atom_site_occupancy
  Er  Er0  1  0.643247  0.643246  0.356753  1
  Er  Er1  1  0.356754  0.356753  0.643246  1
  Co  Co2  1  0.000000  0.000000  0.000000  1
  Co  Co3  1  0.248653  0.248654  0.251347  1
  Co  Co4  1  0.000000  0.000000  0.500001  1
  Co  Co5  1  0.751348  0.751347  0.748653  1
  B  B6  1  0.283249  0.984977  0.024309  1
  B  B7  1  0.015023  0.716751  0.292533  1
  B  B8  1  0.984978  0.283247  0.707465  1
  B  B9  1  0.716753  0.015022  0.975690  1
  Ru  Ru10  1  0.499999  0.500000  0.000000  1
