# generated using pymatgen
data_HfMn2NbSiAs
_symmetry_space_group_name_H-M   'P 1'
_cell_length_a   3.63307700
_cell_length_b   6.48942400
_cell_length_c   7.62090900
_cell_angle_alpha   90.00000000
_cell_angle_beta   90.00000000
_cell_angle_gamma   90.00000000
_symmetry_Int_Tables_number   1
_chemical_formula_structural   HfMn2NbSiAs
_chemical_formula_sum   'Hf2 Mn4 Nb2 Si2 As2'
_cell_volume   179.67494844
_cell_formula_units_Z   2
loop_
 _symmetry_equiv_pos_site_id
 _symmetry_equiv_pos_as_xyz
  1  'x, y, z'
loop_
 _atom_site_type_symbol
 _atom_site_label
 _atom_site_symmetry_multiplicity
 _atom_site_fract_x
 _atom_site_fract_y
 _atom_site_fract_z
 _atom_site_occupancy
  Hf  Hf0  1  0.750000  0.037843  0.669348  1
  Hf  Hf1  1  0.750000  0.537843  0.830652  1
  Mn  Mn2  1  0.250000  0.361102  0.556551  1
  Mn  Mn3  1  0.250000  0.861102  0.943449  1
  Mn  Mn4  1  0.750000  0.632777  0.432950  1
  Mn  Mn5  1  0.750000  0.132777  0.067050  1
  Nb  Nb6  1  0.250000  0.967969  0.322007  1
  Nb  Nb7  1  0.250000  0.467969  0.177993  1
  Si  Si8  1  0.750000  0.264447  0.367278  1
  Si  Si9  1  0.750000  0.764447  0.132722  1
  As  As10  1  0.250000  0.735863  0.626044  1
  As  As11  1  0.250000  0.235863  0.873956  1
