# generated using pymatgen
data_Tb7Dy(YRh)4
_symmetry_space_group_name_H-M   'P 1'
_cell_length_a   6.27513692
_cell_length_b   7.20024713
_cell_length_c   9.57915686
_cell_angle_alpha   89.99084211
_cell_angle_beta   89.91837519
_cell_angle_gamma   89.93521804
_symmetry_Int_Tables_number   1
_chemical_formula_structural   Tb7Dy(YRh)4
_chemical_formula_sum   'Tb7 Dy1 Y4 Rh4'
_cell_volume   432.80988402
_cell_formula_units_Z   1
loop_
 _symmetry_equiv_pos_site_id
 _symmetry_equiv_pos_as_xyz
  1  'x, y, z'
loop_
 _atom_site_type_symbol
 _atom_site_label
 _atom_site_symmetry_multiplicity
 _atom_site_fract_x
 _atom_site_fract_y
 _atom_site_fract_z
 _atom_site_occupancy
  Tb  Tb0  1  0.169991  0.176748  0.436490  1
  Tb  Tb1  1  0.669964  0.323358  0.563574  1
  Tb  Tb2  1  0.829868  0.823176  0.936649  1
  Tb  Tb3  1  0.670001  0.323480  0.936693  1
  Tb  Tb4  1  0.829947  0.823226  0.563542  1
  Tb  Tb5  1  0.330012  0.676603  0.436058  1
  Tb  Tb6  1  0.170160  0.176657  0.063481  1
  Dy  Dy7  1  0.329858  0.676528  0.063974  1
  Y  Y8  1  0.865642  0.533116  0.249770  1
  Y  Y9  1  0.634315  0.032467  0.249826  1
  Y  Y10  1  0.134661  0.467272  0.750092  1
  Y  Y11  1  0.365297  0.967198  0.750159  1
  Rh  Rh12  1  0.063744  0.882331  0.249812  1
  Rh  Rh13  1  0.437001  0.383268  0.249498  1
  Rh  Rh14  1  0.936760  0.117268  0.749864  1
  Rh  Rh15  1  0.562779  0.617306  0.750519  1
