# generated using pymatgen
data_SmDy3Np2O12
_symmetry_space_group_name_H-M   'P 1'
_cell_length_a   5.57439500
_cell_length_b   7.88600361
_cell_length_c   11.90436553
_cell_angle_alpha   73.85878241
_cell_angle_beta   90.00000000
_cell_angle_gamma   90.00000000
_symmetry_Int_Tables_number   1
_chemical_formula_structural   SmDy3Np2O12
_chemical_formula_sum   'Sm2 Dy6 Np4 O24'
_cell_volume   502.68304637
_cell_formula_units_Z   2
loop_
 _symmetry_equiv_pos_site_id
 _symmetry_equiv_pos_as_xyz
  1  'x, y, z'
loop_
 _atom_site_type_symbol
 _atom_site_label
 _atom_site_symmetry_multiplicity
 _atom_site_fract_x
 _atom_site_fract_y
 _atom_site_fract_z
 _atom_site_occupancy
  Sm  Sm0  1  0.694133  0.500000  0.750000  1
  Sm  Sm1  1  0.305867  0.500000  0.250000  1
  Dy  Dy2  1  0.744448  0.000000  0.750000  1
  Dy  Dy3  1  0.255552  0.000000  0.250000  1
  Dy  Dy4  1  0.187268  0.795469  0.578537  1
  Dy  Dy5  1  0.812732  0.795469  0.078537  1
  Dy  Dy6  1  0.187268  0.204531  0.921463  1
  Dy  Dy7  1  0.812732  0.204531  0.421463  1
  Np  Np8  1  0.254627  0.724370  0.885747  1
  Np  Np9  1  0.745373  0.724370  0.385747  1
  Np  Np10  1  0.254627  0.275630  0.614253  1
  Np  Np11  1  0.745373  0.275630  0.114253  1
  O  O12  1  0.042546  0.946179  0.896076  1
  O  O13  1  0.552334  0.849073  0.931276  1
  O  O14  1  0.957454  0.946179  0.396076  1
  O  O15  1  0.450365  0.800996  0.726082  1
  O  O16  1  0.447666  0.849073  0.431276  1
  O  O17  1  0.967006  0.716544  0.767667  1
  O  O18  1  0.549635  0.800996  0.226082  1
  O  O19  1  0.873784  0.632290  0.552983  1
  O  O20  1  0.379111  0.482828  0.885108  1
  O  O21  1  0.032994  0.716544  0.267667  1
  O  O22  1  0.379111  0.517172  0.614892  1
  O  O23  1  0.873784  0.367710  0.947017  1
  O  O24  1  0.126216  0.632290  0.052983  1
  O  O25  1  0.620889  0.482828  0.385108  1
  O  O26  1  0.967006  0.283456  0.732333  1
  O  O27  1  0.620889  0.517172  0.114892  1
  O  O28  1  0.126216  0.367710  0.447017  1
  O  O29  1  0.450365  0.199004  0.773918  1
  O  O30  1  0.032994  0.283456  0.232333  1
  O  O31  1  0.552334  0.150927  0.568724  1
  O  O32  1  0.549635  0.199004  0.273918  1
  O  O33  1  0.042546  0.053821  0.603924  1
  O  O34  1  0.447666  0.150927  0.068724  1
  O  O35  1  0.957454  0.053821  0.103924  1
