# generated using pymatgen
data_Er2Fe3Re14C3
_symmetry_space_group_name_H-M   'P 1'
_cell_length_a   6.91790991
_cell_length_b   6.91790943
_cell_length_c   6.91790823
_cell_angle_alpha   82.50627448
_cell_angle_beta   82.50627989
_cell_angle_gamma   82.50627854
_symmetry_Int_Tables_number   1
_chemical_formula_structural   Er2Fe3Re14C3
_chemical_formula_sum   'Er2 Fe3 Re14 C3'
_cell_volume   323.26931265
_cell_formula_units_Z   1
loop_
 _symmetry_equiv_pos_site_id
 _symmetry_equiv_pos_as_xyz
  1  'x, y, z'
loop_
 _atom_site_type_symbol
 _atom_site_label
 _atom_site_symmetry_multiplicity
 _atom_site_fract_x
 _atom_site_fract_y
 _atom_site_fract_z
 _atom_site_occupancy
  Er  Er0  1  0.649025  0.649025  0.649025  1
  Er  Er1  1  0.350975  0.350975  0.350975  1
  Fe  Fe2  1  0.000000  0.000000  0.500000  1
  Fe  Fe3  1  0.500000  0.000000  0.000000  1
  Fe  Fe4  1  0.000000  0.500000  0.000000  1
  Re  Re5  1  0.722183  0.277817  0.000000  1
  Re  Re6  1  0.000000  0.722183  0.277817  1
  Re  Re7  1  0.277817  0.000000  0.722183  1
  Re  Re8  1  0.000000  0.277817  0.722183  1
  Re  Re9  1  0.722183  0.000000  0.277817  1
  Re  Re10  1  0.277817  0.722183  0.000000  1
  Re  Re11  1  0.346679  0.860342  0.346679  1
  Re  Re12  1  0.346679  0.346679  0.860342  1
  Re  Re13  1  0.860342  0.346679  0.346679  1
  Re  Re14  1  0.653321  0.139658  0.653321  1
  Re  Re15  1  0.653321  0.653321  0.139658  1
  Re  Re16  1  0.139658  0.653321  0.653321  1
  Re  Re17  1  0.897383  0.897383  0.897383  1
  Re  Re18  1  0.102617  0.102617  0.102617  1
  C  C19  1  0.500000  0.500000  0.000000  1
  C  C20  1  0.000000  0.500000  0.500000  1
  C  C21  1  0.500000  0.000000  0.500000  1
