# generated using pymatgen
data_Nd6CuIr17
_symmetry_space_group_name_H-M   'P 1'
_cell_length_a   5.40351000
_cell_length_b   5.40351006
_cell_length_c   17.52967600
_cell_angle_alpha   90.00000000
_cell_angle_beta   90.00000000
_cell_angle_gamma   119.99999963
_symmetry_Int_Tables_number   1
_chemical_formula_structural   Nd6CuIr17
_chemical_formula_sum   'Nd6 Cu1 Ir17'
_cell_volume   443.25786104
_cell_formula_units_Z   1
loop_
 _symmetry_equiv_pos_site_id
 _symmetry_equiv_pos_as_xyz
  1  'x, y, z'
loop_
 _atom_site_type_symbol
 _atom_site_label
 _atom_site_symmetry_multiplicity
 _atom_site_fract_x
 _atom_site_fract_y
 _atom_site_fract_z
 _atom_site_occupancy
  Nd  Nd0  1  0.333333  0.666667  0.538531  1
  Nd  Nd1  1  0.666667  0.333333  0.041401  1
  Nd  Nd2  1  0.666667  0.333333  0.458599  1
  Nd  Nd3  1  0.333333  0.666667  0.961469  1
  Nd  Nd4  1  0.333333  0.666667  0.750000  1
  Nd  Nd5  1  0.666667  0.333333  0.250000  1
  Cu  Cu6  1  0.000000  0.000000  0.250000  1
  Ir  Ir7  1  0.165552  0.331103  0.129194  1
  Ir  Ir8  1  0.833432  0.666864  0.627467  1
  Ir  Ir9  1  0.668897  0.834448  0.129194  1
  Ir  Ir10  1  0.165552  0.834448  0.129194  1
  Ir  Ir11  1  0.833432  0.166568  0.627467  1
  Ir  Ir12  1  0.333136  0.166568  0.627467  1
  Ir  Ir13  1  0.833432  0.666864  0.872533  1
  Ir  Ir14  1  0.833432  0.166568  0.872533  1
  Ir  Ir15  1  0.333136  0.166568  0.872533  1
  Ir  Ir16  1  0.668897  0.834448  0.370806  1
  Ir  Ir17  1  0.165552  0.834448  0.370806  1
  Ir  Ir18  1  0.165552  0.331103  0.370806  1
  Ir  Ir19  1  0.000000  0.000000  0.750000  1
  Ir  Ir20  1  0.333333  0.666667  0.250000  1
  Ir  Ir21  1  0.666667  0.333333  0.750000  1
  Ir  Ir22  1  0.000000  0.000000  0.001164  1
  Ir  Ir23  1  0.000000  0.000000  0.498836  1
