# generated using pymatgen
data_LaTlFe4(SeO3)8
_symmetry_space_group_name_H-M   'P 1'
_cell_length_a   9.10949532
_cell_length_b   9.13410932
_cell_length_c   9.24742900
_cell_angle_alpha   109.41935962
_cell_angle_beta   111.72767359
_cell_angle_gamma   106.77363573
_symmetry_Int_Tables_number   1
_chemical_formula_structural   LaTlFe4(SeO3)8
_chemical_formula_sum   'La1 Tl1 Fe4 Se8 O24'
_cell_volume   595.06378363
_cell_formula_units_Z   1
loop_
 _symmetry_equiv_pos_site_id
 _symmetry_equiv_pos_as_xyz
  1  'x, y, z'
loop_
 _atom_site_type_symbol
 _atom_site_label
 _atom_site_symmetry_multiplicity
 _atom_site_fract_x
 _atom_site_fract_y
 _atom_site_fract_z
 _atom_site_occupancy
  La  La0  1  0.249931  0.749922  0.499924  1
  Tl  Tl1  1  0.749941  0.249992  0.499903  1
  Fe  Fe2  1  0.749980  0.750072  0.500009  1
  Fe  Fe3  1  0.250280  0.250223  0.500336  1
  Fe  Fe4  1  0.498709  0.991835  0.989731  1
  Fe  Fe5  1  0.001224  0.508080  0.010130  1
  Se  Se6  1  0.839662  0.921217  0.260579  1
  Se  Se7  1  0.344054  0.444753  0.288363  1
  Se  Se8  1  0.660505  0.578959  0.739482  1
  Se  Se9  1  0.155878  0.055139  0.711603  1
  Se  Se10  1  0.706472  0.415436  0.116289  1
  Se  Se11  1  0.201231  0.908740  0.117822  1
  Se  Se12  1  0.298925  0.591405  0.882428  1
  Se  Se13  1  0.793299  0.084527  0.883494  1
  O  O14  1  0.827538  0.597335  0.923134  1
  O  O15  1  0.321171  0.079563  0.898215  1
  O  O16  1  0.672739  0.902986  0.076856  1
  O  O17  1  0.178469  0.420126  0.101817  1
  O  O18  1  0.668740  0.549717  0.261316  1
  O  O19  1  0.219102  0.094603  0.265625  1
  O  O20  1  0.281299  0.405506  0.734845  1
  O  O21  1  0.831014  0.950269  0.738409  1
  O  O22  1  0.812135  0.256392  0.837622  1
  O  O23  1  0.310376  0.727892  0.783771  1
  O  O24  1  0.082246  0.530176  0.840656  1
  O  O25  1  0.557633  0.974753  0.785376  1
  O  O26  1  0.417819  0.969660  0.159312  1
  O  O27  1  0.942149  0.525184  0.214416  1
  O  O28  1  0.687636  0.243588  0.162179  1
  O  O29  1  0.189676  0.771959  0.216217  1
  O  O30  1  0.516088  0.354930  0.612035  1
  O  O31  1  0.021220  0.824593  0.581857  1
  O  O32  1  0.751619  0.591475  0.606340  1
  O  O33  1  0.254641  0.059495  0.580005  1
  O  O34  1  0.748184  0.908455  0.393406  1
  O  O35  1  0.245597  0.440556  0.420287  1
  O  O36  1  0.984216  0.145181  0.388295  1
  O  O37  1  0.478598  0.675303  0.417914  1
