# generated using pymatgen
data_Er20Co2IrPt9
_symmetry_space_group_name_H-M   'P 1'
_cell_length_a   10.91248700
_cell_length_b   10.91248700
_cell_length_c   6.32869700
_cell_angle_alpha   90.00000000
_cell_angle_beta   90.00000000
_cell_angle_gamma   90.00000000
_symmetry_Int_Tables_number   1
_chemical_formula_structural   Er20Co2IrPt9
_chemical_formula_sum   'Er20 Co2 Ir1 Pt9'
_cell_volume   753.63625375
_cell_formula_units_Z   1
loop_
 _symmetry_equiv_pos_site_id
 _symmetry_equiv_pos_as_xyz
  1  'x, y, z'
loop_
 _atom_site_type_symbol
 _atom_site_label
 _atom_site_symmetry_multiplicity
 _atom_site_fract_x
 _atom_site_fract_y
 _atom_site_fract_z
 _atom_site_occupancy
  Er  Er0  1  0.295594  0.087301  0.379100  1
  Er  Er1  1  0.293861  0.912997  0.867723  1
  Er  Er2  1  0.706139  0.087003  0.867723  1
  Er  Er3  1  0.704406  0.912699  0.379100  1
  Er  Er4  1  0.587003  0.793861  0.867723  1
  Er  Er5  1  0.587301  0.204406  0.379100  1
  Er  Er6  1  0.412699  0.795594  0.379100  1
  Er  Er7  1  0.412997  0.206139  0.867723  1
  Er  Er8  1  0.204143  0.413865  0.628807  1
  Er  Er9  1  0.203387  0.587482  0.124358  1
  Er  Er10  1  0.796613  0.412518  0.124358  1
  Er  Er11  1  0.795857  0.586135  0.628807  1
  Er  Er12  1  0.912518  0.703387  0.124358  1
  Er  Er13  1  0.913865  0.295857  0.628807  1
  Er  Er14  1  0.086135  0.704143  0.628807  1
  Er  Er15  1  0.087482  0.296613  0.124358  1
  Er  Er16  1  0.000000  0.000000  0.500627  1
  Er  Er17  1  0.000000  0.000000  0.000715  1
  Er  Er18  1  0.500000  0.500000  0.000715  1
  Er  Er19  1  0.500000  0.500000  0.500627  1
  Co  Co20  1  0.500000  0.000000  0.617597  1
  Co  Co21  1  0.000000  0.500000  0.881051  1
  Ir  Ir22  1  0.000000  0.500000  0.380346  1
  Pt  Pt23  1  0.845484  0.153217  0.250171  1
  Pt  Pt24  1  0.846169  0.845976  0.750295  1
  Pt  Pt25  1  0.153831  0.154024  0.750295  1
  Pt  Pt26  1  0.154516  0.846783  0.250171  1
  Pt  Pt27  1  0.654024  0.346169  0.750295  1
  Pt  Pt28  1  0.653217  0.654516  0.250171  1
  Pt  Pt29  1  0.346783  0.345484  0.250171  1
  Pt  Pt30  1  0.345976  0.653831  0.750295  1
  Pt  Pt31  1  0.500000  0.000000  0.116498  1
