# generated using pymatgen
data_Tm5Lu3Ti9Si16Mo3
_symmetry_space_group_name_H-M   'P 1'
_cell_length_a   6.75978437
_cell_length_b   6.93510802
_cell_length_c   13.19782900
_cell_angle_alpha   89.98588147
_cell_angle_beta   90.00410348
_cell_angle_gamma   90.06477450
_symmetry_Int_Tables_number   1
_chemical_formula_structural   Tm5Lu3Ti9Si16Mo3
_chemical_formula_sum   'Tm5 Lu3 Ti9 Si16 Mo3'
_cell_volume   618.71162832
_cell_formula_units_Z   1
loop_
 _symmetry_equiv_pos_site_id
 _symmetry_equiv_pos_as_xyz
  1  'x, y, z'
loop_
 _atom_site_type_symbol
 _atom_site_label
 _atom_site_symmetry_multiplicity
 _atom_site_fract_x
 _atom_site_fract_y
 _atom_site_fract_z
 _atom_site_occupancy
  Tm  Tm0  1  0.502927  0.326978  0.097510  1
  Tm  Tm1  1  0.002950  0.173597  0.403128  1
  Tm  Tm2  1  0.495543  0.670837  0.595319  1
  Tm  Tm3  1  0.997623  0.826555  0.904603  1
  Tm  Tm4  1  0.495325  0.670723  0.904276  1
  Lu  Lu5  1  0.997713  0.826403  0.595617  1
  Lu  Lu6  1  0.502868  0.326843  0.402275  1
  Lu  Lu7  1  0.002767  0.173744  0.097743  1
  Ti  Ti8  1  0.835755  0.326998  0.626714  1
  Ti  Ti9  1  0.332496  0.174964  0.873034  1
  Ti  Ti10  1  0.167708  0.674240  0.127020  1
  Ti  Ti11  1  0.667484  0.826928  0.373146  1
  Ti  Ti12  1  0.167669  0.674316  0.373409  1
  Ti  Ti13  1  0.667438  0.827031  0.126888  1
  Ti  Ti14  1  0.835935  0.326913  0.873128  1
  Ti  Ti15  1  0.332412  0.175372  0.626358  1
  Ti  Ti16  1  0.661584  0.008967  0.749810  1
  Si  Si17  1  0.661138  0.038315  0.540839  1
  Si  Si18  1  0.159969  0.459705  0.958476  1
  Si  Si19  1  0.339083  0.962012  0.042525  1
  Si  Si20  1  0.837861  0.539492  0.457808  1
  Si  Si21  1  0.340434  0.962411  0.457476  1
  Si  Si22  1  0.839248  0.538611  0.042624  1
  Si  Si23  1  0.660194  0.038371  0.959017  1
  Si  Si24  1  0.159625  0.461329  0.541894  1
  Si  Si25  1  0.535769  0.375523  0.749840  1
  Si  Si26  1  0.035958  0.124236  0.749680  1
  Si  Si27  1  0.465111  0.623537  0.250250  1
  Si  Si28  1  0.964713  0.875868  0.249999  1
  Si  Si29  1  0.795792  0.628515  0.749673  1
  Si  Si30  1  0.294521  0.872010  0.749589  1
  Si  Si31  1  0.203147  0.372390  0.250168  1
  Si  Si32  1  0.703732  0.127262  0.250137  1
  Mo  Mo33  1  0.159837  0.489976  0.749728  1
  Mo  Mo34  1  0.338409  0.989486  0.250140  1
  Mo  Mo35  1  0.839260  0.509543  0.250161  1
