# generated using pymatgen
data_K4GaFeF10
_symmetry_space_group_name_H-M   'P 1'
_cell_length_a   5.74146900
_cell_length_b   7.51537900
_cell_length_c   11.69151300
_cell_angle_alpha   90.00000000
_cell_angle_beta   90.00000000
_cell_angle_gamma   90.00000000
_symmetry_Int_Tables_number   1
_chemical_formula_structural   K4GaFeF10
_chemical_formula_sum   'K8 Ga2 Fe2 F20'
_cell_volume   504.48078371
_cell_formula_units_Z   2
loop_
 _symmetry_equiv_pos_site_id
 _symmetry_equiv_pos_as_xyz
  1  'x, y, z'
loop_
 _atom_site_type_symbol
 _atom_site_label
 _atom_site_symmetry_multiplicity
 _atom_site_fract_x
 _atom_site_fract_y
 _atom_site_fract_z
 _atom_site_occupancy
  K  K0  1  0.250000  0.153344  0.585473  1
  K  K1  1  0.250000  0.653344  0.914527  1
  K  K2  1  0.750000  0.844259  0.416394  1
  K  K3  1  0.750000  0.344259  0.083606  1
  K  K4  1  0.250000  0.488455  0.273163  1
  K  K5  1  0.250000  0.988455  0.226837  1
  K  K6  1  0.750000  0.511523  0.726544  1
  K  K7  1  0.750000  0.011523  0.773456  1
  Ga  Ga8  1  0.250000  0.670247  0.561626  1
  Ga  Ga9  1  0.250000  0.170247  0.938374  1
  Fe  Fe10  1  0.750000  0.331294  0.438809  1
  Fe  Fe11  1  0.750000  0.831294  0.061191  1
  F  F12  1  0.002989  0.501314  0.500269  1
  F  F13  1  0.497011  0.001314  0.999731  1
  F  F14  1  0.497011  0.501314  0.500269  1
  F  F15  1  0.002989  0.001314  0.999731  1
  F  F16  1  0.250000  0.531214  0.694789  1
  F  F17  1  0.250000  0.031214  0.805211  1
  F  F18  1  0.750000  0.472193  0.302568  1
  F  F19  1  0.750000  0.972193  0.197432  1
  F  F20  1  0.250000  0.773363  0.411567  1
  F  F21  1  0.250000  0.273363  0.088433  1
  F  F22  1  0.750000  0.224402  0.591633  1
  F  F23  1  0.750000  0.724402  0.908367  1
  F  F24  1  0.007878  0.821335  0.611477  1
  F  F25  1  0.492122  0.321335  0.888523  1
  F  F26  1  0.505752  0.177206  0.387573  1
  F  F27  1  0.994248  0.677206  0.112427  1
  F  F28  1  0.994248  0.177206  0.387573  1
  F  F29  1  0.505752  0.677206  0.112427  1
  F  F30  1  0.492122  0.821335  0.611477  1
  F  F31  1  0.007878  0.321335  0.888523  1
