# generated using pymatgen
data_Sc8Zn4Cd3Ir
_symmetry_space_group_name_H-M   'P 1'
_cell_length_a   6.85141900
_cell_length_b   6.79516400
_cell_length_c   6.85267100
_cell_angle_alpha   90.00000000
_cell_angle_beta   89.99874572
_cell_angle_gamma   90.00000000
_symmetry_Int_Tables_number   1
_chemical_formula_structural   Sc8Zn4Cd3Ir
_chemical_formula_sum   'Sc8 Zn4 Cd3 Ir1'
_cell_volume   319.03648522
_cell_formula_units_Z   1
loop_
 _symmetry_equiv_pos_site_id
 _symmetry_equiv_pos_as_xyz
  1  'x, y, z'
loop_
 _atom_site_type_symbol
 _atom_site_label
 _atom_site_symmetry_multiplicity
 _atom_site_fract_x
 _atom_site_fract_y
 _atom_site_fract_z
 _atom_site_occupancy
  Sc  Sc0  1  0.240402  0.989353  0.259616  1
  Sc  Sc1  1  0.240402  0.510645  0.259616  1
  Sc  Sc2  1  0.759690  0.511217  0.259663  1
  Sc  Sc3  1  0.759690  0.988782  0.259663  1
  Sc  Sc4  1  0.240343  0.989315  0.740324  1
  Sc  Sc5  1  0.240343  0.510683  0.740324  1
  Sc  Sc6  1  0.759633  0.511187  0.740395  1
  Sc  Sc7  1  0.759633  0.988812  0.740395  1
  Zn  Zn8  1  0.999456  0.249999  0.000000  1
  Zn  Zn9  1  0.000525  0.750000  0.000003  1
  Zn  Zn10  1  0.499396  0.750000  0.499995  1
  Zn  Zn11  1  0.500518  0.249999  0.499998  1
  Cd  Cd12  1  0.500381  0.249999  0.000001  1
  Cd  Cd13  1  0.499644  0.750000  0.000003  1
  Cd  Cd14  1  0.999605  0.249999  0.500001  1
  Ir  Ir15  1  0.000338  0.750000  0.500003  1
