# generated using pymatgen
data_Ho2Tm2B12MoRu
_symmetry_space_group_name_H-M   'P 1'
_cell_length_a   3.63253500
_cell_length_b   9.15182188
_cell_length_c   11.54149730
_cell_angle_alpha   89.75531170
_cell_angle_beta   90.00000000
_cell_angle_gamma   90.00000000
_symmetry_Int_Tables_number   1
_chemical_formula_structural   Ho2Tm2B12MoRu
_chemical_formula_sum   'Ho4 Tm4 B24 Mo2 Ru2'
_cell_volume   383.68565295
_cell_formula_units_Z   2
loop_
 _symmetry_equiv_pos_site_id
 _symmetry_equiv_pos_as_xyz
  1  'x, y, z'
loop_
 _atom_site_type_symbol
 _atom_site_label
 _atom_site_symmetry_multiplicity
 _atom_site_fract_x
 _atom_site_fract_y
 _atom_site_fract_z
 _atom_site_occupancy
  Ho  Ho0  1  0.000000  0.321855  0.414564  1
  Ho  Ho1  1  0.000000  0.678145  0.585436  1
  Ho  Ho2  1  0.000000  0.821858  0.085606  1
  Ho  Ho3  1  0.000000  0.178142  0.914394  1
  Tm  Tm4  1  0.000000  0.944776  0.371091  1
  Tm  Tm5  1  0.000000  0.055224  0.628909  1
  Tm  Tm6  1  0.000000  0.442007  0.128395  1
  Tm  Tm7  1  0.000000  0.557993  0.871605  1
  B  B8  1  0.500000  0.552006  0.433959  1
  B  B9  1  0.500000  0.447994  0.566041  1
  B  B10  1  0.500000  0.054196  0.067037  1
  B  B11  1  0.500000  0.945804  0.932963  1
  B  B12  1  0.500000  0.751219  0.420580  1
  B  B13  1  0.500000  0.248781  0.579420  1
  B  B14  1  0.500000  0.249029  0.081156  1
  B  B15  1  0.500000  0.750971  0.918844  1
  B  B16  1  0.500000  0.795418  0.264044  1
  B  B17  1  0.500000  0.204582  0.735956  1
  B  B18  1  0.500000  0.290926  0.233956  1
  B  B19  1  0.500000  0.709074  0.766044  1
  B  B20  1  0.500000  0.631336  0.182267  1
  B  B21  1  0.500000  0.368664  0.817733  1
  B  B22  1  0.500000  0.130388  0.313925  1
  B  B23  1  0.500000  0.869612  0.686075  1
  B  B24  1  0.500000  0.983307  0.211955  1
  B  B25  1  0.500000  0.016693  0.788045  1
  B  B26  1  0.500000  0.478609  0.286793  1
  B  B27  1  0.500000  0.521391  0.713207  1
  B  B28  1  0.500000  0.602178  0.027736  1
  B  B29  1  0.500000  0.397822  0.972264  1
  B  B30  1  0.500000  0.102124  0.471111  1
  B  B31  1  0.500000  0.897876  0.528889  1
  Mo  Mo32  1  0.000000  0.639598  0.318483  1
  Mo  Mo33  1  0.000000  0.360402  0.681517  1
  Ru  Ru34  1  0.000000  0.138498  0.178467  1
  Ru  Ru35  1  0.000000  0.861502  0.821533  1
