# generated using pymatgen
data_LiNb5Re5Si6Ru
_symmetry_space_group_name_H-M   'P 1'
_cell_length_a   7.65117779
_cell_length_b   7.56152255
_cell_length_c   7.63957809
_cell_angle_alpha   126.09321383
_cell_angle_beta   128.90025832
_cell_angle_gamma   77.66341101
_symmetry_Int_Tables_number   1
_chemical_formula_structural   LiNb5Re5Si6Ru
_chemical_formula_sum   'Li1 Nb5 Re5 Si6 Ru1'
_cell_volume   269.22867104
_cell_formula_units_Z   1
loop_
 _symmetry_equiv_pos_site_id
 _symmetry_equiv_pos_as_xyz
  1  'x, y, z'
loop_
 _atom_site_type_symbol
 _atom_site_label
 _atom_site_symmetry_multiplicity
 _atom_site_fract_x
 _atom_site_fract_y
 _atom_site_fract_z
 _atom_site_occupancy
  Li  Li0  1  0.554089  0.106753  0.054984  1
  Nb  Nb1  1  0.448278  0.494225  0.539933  1
  Nb  Nb2  1  0.954461  0.498346  0.046231  1
  Nb  Nb3  1  0.038735  0.092070  0.540365  1
  Nb  Nb4  1  0.754746  0.897181  0.647895  1
  Nb  Nb5  1  0.240999  0.886281  0.142334  1
  Re  Re6  1  0.001766  0.238427  0.236141  1
  Re  Re7  1  0.124691  0.753749  0.621739  1
  Re  Re8  1  0.876881  0.499770  0.632796  1
  Re  Re9  1  0.633093  0.752761  0.129043  1
  Re  Re10  1  0.366920  0.501084  0.124830  1
  Si  Si11  1  0.746095  0.488619  0.241968  1
  Si  Si12  1  0.254281  0.491375  0.742568  1
  Si  Si13  1  0.344737  0.842698  0.521392  1
  Si  Si14  1  0.654876  0.161384  0.481936  1
  Si  Si15  1  0.819193  0.836780  0.991770  1
  Si  Si16  1  0.179337  0.159877  0.000433  1
  Ru  Ru17  1  0.506820  0.240819  0.745841  1
