# generated using pymatgen
data_DyYTi3Si4
_symmetry_space_group_name_H-M   'P 1'
_cell_length_a   7.06287300
_cell_length_b   7.06288201
_cell_length_c   12.98296602
_cell_angle_alpha   90.00545305
_cell_angle_beta   89.99899388
_cell_angle_gamma   90.00279064
_symmetry_Int_Tables_number   1
_chemical_formula_structural   DyYTi3Si4
_chemical_formula_sum   'Dy4 Y4 Ti12 Si16'
_cell_volume   647.64537152
_cell_formula_units_Z   4
loop_
 _symmetry_equiv_pos_site_id
 _symmetry_equiv_pos_as_xyz
  1  'x, y, z'
loop_
 _atom_site_type_symbol
 _atom_site_label
 _atom_site_symmetry_multiplicity
 _atom_site_fract_x
 _atom_site_fract_y
 _atom_site_fract_z
 _atom_site_occupancy
  Dy  Dy0  1  0.840234  0.497428  0.283414  1
  Dy  Dy1  1  0.502575  0.159761  0.216594  1
  Dy  Dy2  1  0.497439  0.840266  0.716568  1
  Dy  Dy3  1  0.340261  0.002553  0.466553  1
  Y  Y4  1  0.997424  0.659740  0.033425  1
  Y  Y5  1  0.002609  0.340223  0.533391  1
  Y  Y6  1  0.659732  0.997421  0.966589  1
  Y  Y7  1  0.159775  0.502605  0.783403  1
  Ti  Ti8  1  0.347762  0.508430  0.373407  1
  Ti  Ti9  1  0.847766  0.991550  0.376537  1
  Ti  Ti10  1  0.008440  0.152244  0.123451  1
  Ti  Ti11  1  0.991593  0.847819  0.623437  1
  Ti  Ti12  1  0.508463  0.347718  0.626561  1
  Ti  Ti13  1  0.152239  0.008454  0.876531  1
  Ti  Ti14  1  0.672875  0.672933  0.499990  1
  Ti  Ti15  1  0.827093  0.172854  0.749996  1
  Ti  Ti16  1  0.172902  0.827120  0.250037  1
  Ti  Ti17  1  0.327132  0.327093  0.000023  1
  Ti  Ti18  1  0.491556  0.652220  0.126574  1
  Ti  Ti19  1  0.652223  0.491566  0.873419  1
  Si  Si20  1  0.046926  0.709197  0.435015  1
  Si  Si21  1  0.953079  0.290809  0.935047  1
  Si  Si22  1  0.709098  0.046873  0.564980  1
  Si  Si23  1  0.209206  0.453063  0.185077  1
  Si  Si24  1  0.790753  0.546959  0.685071  1
  Si  Si25  1  0.453090  0.209154  0.814936  1
  Si  Si26  1  0.546893  0.790850  0.314962  1
  Si  Si27  1  0.290866  0.953118  0.064989  1
  Si  Si28  1  0.797543  0.869884  0.184822  1
  Si  Si29  1  0.297600  0.630225  0.565222  1
  Si  Si30  1  0.702390  0.369868  0.065252  1
  Si  Si31  1  0.630080  0.297541  0.434748  1
  Si  Si32  1  0.369915  0.702440  0.934778  1
  Si  Si33  1  0.130161  0.202409  0.315224  1
  Si  Si34  1  0.202462  0.130017  0.684786  1
  Si  Si35  1  0.869841  0.797596  0.815190  1
