# generated using pymatgen
data_Pr2SeO5
_symmetry_space_group_name_H-M   'P 1'
_cell_length_a   8.84659232
_cell_length_b   8.84659310
_cell_length_c   11.27262700
_cell_angle_alpha   90.00000000
_cell_angle_beta   90.00000000
_cell_angle_gamma   142.46318361
_symmetry_Int_Tables_number   1
_chemical_formula_structural   Pr2SeO5
_chemical_formula_sum   'Pr8 Se4 O20'
_cell_volume   537.51151414
_cell_formula_units_Z   4
loop_
 _symmetry_equiv_pos_site_id
 _symmetry_equiv_pos_as_xyz
  1  'x, y, z'
loop_
 _atom_site_type_symbol
 _atom_site_label
 _atom_site_symmetry_multiplicity
 _atom_site_fract_x
 _atom_site_fract_y
 _atom_site_fract_z
 _atom_site_occupancy
  Pr  Pr0  1  0.754114  0.254114  0.608471  1
  Pr  Pr1  1  0.254114  0.754114  0.391529  1
  Pr  Pr2  1  0.250732  0.750732  0.882168  1
  Pr  Pr3  1  0.750732  0.250732  0.117832  1
  Pr  Pr4  1  0.901971  0.072117  0.389086  1
  Pr  Pr5  1  0.072117  0.901971  0.610914  1
  Pr  Pr6  1  0.401971  0.572117  0.610914  1
  Pr  Pr7  1  0.572117  0.401971  0.389086  1
  Se  Se8  1  0.390089  0.570337  0.132056  1
  Se  Se9  1  0.570337  0.390089  0.867944  1
  Se  Se10  1  0.890089  0.070337  0.867944  1
  Se  Se11  1  0.070337  0.890089  0.132056  1
  O  O12  1  0.138751  0.444506  0.213034  1
  O  O13  1  0.444506  0.138751  0.786966  1
  O  O14  1  0.638751  0.944506  0.786966  1
  O  O15  1  0.944506  0.638751  0.213034  1
  O  O16  1  0.579942  0.908424  0.507231  1
  O  O17  1  0.908424  0.579942  0.492769  1
  O  O18  1  0.079942  0.408424  0.492769  1
  O  O19  1  0.408424  0.079942  0.507231  1
  O  O20  1  0.124007  0.624007  0.706393  1
  O  O21  1  0.624007  0.124007  0.293607  1
  O  O22  1  0.503931  0.822186  0.060430  1
  O  O23  1  0.822186  0.503931  0.939570  1
  O  O24  1  0.202389  0.100403  0.242674  1
  O  O25  1  0.100403  0.202389  0.757326  1
  O  O26  1  0.702389  0.600403  0.757326  1
  O  O27  1  0.600403  0.702389  0.242674  1
  O  O28  1  0.238625  0.238625  0.500000  1
  O  O29  1  0.738625  0.738625  0.500000  1
  O  O30  1  0.322186  0.003931  0.060430  1
  O  O31  1  0.003931  0.322186  0.939570  1
