# generated using pymatgen
data_K3Sr(BO3)2
_symmetry_space_group_name_H-M   'P 1'
_cell_length_a   5.78336300
_cell_length_b   7.09208800
_cell_length_c   9.92447500
_cell_angle_alpha   90.00000000
_cell_angle_beta   90.00000000
_cell_angle_gamma   90.00000000
_symmetry_Int_Tables_number   1
_chemical_formula_structural   K3Sr(BO3)2
_chemical_formula_sum   'K6 Sr2 B4 O12'
_cell_volume   407.06345091
_cell_formula_units_Z   2
loop_
 _symmetry_equiv_pos_site_id
 _symmetry_equiv_pos_as_xyz
  1  'x, y, z'
loop_
 _atom_site_type_symbol
 _atom_site_label
 _atom_site_symmetry_multiplicity
 _atom_site_fract_x
 _atom_site_fract_y
 _atom_site_fract_z
 _atom_site_occupancy
  K  K0  1  0.000000  0.230282  0.332886  1
  K  K1  1  0.000000  0.769718  0.667114  1
  K  K2  1  0.500000  0.730282  0.167114  1
  K  K3  1  0.500000  0.500000  0.500000  1
  K  K4  1  0.500000  0.269718  0.832886  1
  K  K5  1  0.000000  0.000000  0.000000  1
  Sr  Sr6  1  0.000000  0.500000  0.000000  1
  Sr  Sr7  1  0.500000  0.000000  0.500000  1
  B  B8  1  0.000000  0.756702  0.334316  1
  B  B9  1  0.000000  0.243298  0.665684  1
  B  B10  1  0.500000  0.743298  0.834316  1
  B  B11  1  0.500000  0.256702  0.165684  1
  O  O12  1  0.706861  0.279539  0.097478  1
  O  O13  1  0.206861  0.220461  0.597478  1
  O  O14  1  0.500000  0.213956  0.301508  1
  O  O15  1  0.706861  0.720461  0.902522  1
  O  O16  1  0.293139  0.279539  0.097478  1
  O  O17  1  0.206861  0.779539  0.402522  1
  O  O18  1  0.793139  0.220461  0.597478  1
  O  O19  1  0.293139  0.720461  0.902522  1
  O  O20  1  0.793139  0.779539  0.402522  1
  O  O21  1  0.000000  0.286044  0.801508  1
  O  O22  1  0.000000  0.713956  0.198492  1
  O  O23  1  0.500000  0.786044  0.698492  1
