# generated using pymatgen
data_Tm3Th(B4Mo)4
_symmetry_space_group_name_H-M   'P 1'
_cell_length_a   3.64770200
_cell_length_b   6.03135465
_cell_length_c   11.66281351
_cell_angle_alpha   89.77907654
_cell_angle_beta   90.00000000
_cell_angle_gamma   90.00000000
_symmetry_Int_Tables_number   1
_chemical_formula_structural   Tm3Th(B4Mo)4
_chemical_formula_sum   'Tm3 Th1 B16 Mo4'
_cell_volume   256.58680596
_cell_formula_units_Z   1
loop_
 _symmetry_equiv_pos_site_id
 _symmetry_equiv_pos_as_xyz
  1  'x, y, z'
loop_
 _atom_site_type_symbol
 _atom_site_label
 _atom_site_symmetry_multiplicity
 _atom_site_fract_x
 _atom_site_fract_y
 _atom_site_fract_z
 _atom_site_occupancy
  Tm  Tm0  1  0.000000  0.126810  0.149793  1
  Tm  Tm1  1  0.000000  0.873888  0.852887  1
  Tm  Tm2  1  0.000000  0.627169  0.348007  1
  Th  Th3  1  0.000000  0.373702  0.651322  1
  B  B4  1  0.500000  0.021682  0.693407  1
  B  B5  1  0.500000  0.976836  0.304358  1
  B  B6  1  0.500000  0.526453  0.810243  1
  B  B7  1  0.500000  0.477120  0.193987  1
  B  B8  1  0.500000  0.109826  0.544555  1
  B  B9  1  0.500000  0.883320  0.449968  1
  B  B10  1  0.500000  0.615770  0.954198  1
  B  B11  1  0.500000  0.384934  0.049067  1
  B  B12  1  0.500000  0.287096  0.312134  1
  B  B13  1  0.500000  0.716522  0.686591  1
  B  B14  1  0.500000  0.788290  0.185810  1
  B  B15  1  0.500000  0.210645  0.817459  1
  B  B16  1  0.500000  0.364843  0.464886  1
  B  B17  1  0.500000  0.635306  0.529682  1
  B  B18  1  0.500000  0.867061  0.032884  1
  B  B19  1  0.500000  0.132743  0.969891  1
  Mo  Mo20  1  0.000000  0.129366  0.413152  1
  Mo  Mo21  1  0.000000  0.868823  0.583124  1
  Mo  Mo22  1  0.000000  0.630706  0.084989  1
  Mo  Mo23  1  0.000000  0.371090  0.917608  1
