# generated using pymatgen
data_Gd2NiSnRu
_symmetry_space_group_name_H-M   'P 1'
_cell_length_a   5.60929012
_cell_length_b   5.60928970
_cell_length_c   5.60929032
_cell_angle_alpha   134.76643467
_cell_angle_beta   118.10338949
_cell_angle_gamma   79.90490200
_symmetry_Int_Tables_number   1
_chemical_formula_structural   Gd2NiSnRu
_chemical_formula_sum   'Gd2 Ni1 Sn1 Ru1'
_cell_volume   107.02788258
_cell_formula_units_Z   1
loop_
 _symmetry_equiv_pos_site_id
 _symmetry_equiv_pos_as_xyz
  1  'x, y, z'
loop_
 _atom_site_type_symbol
 _atom_site_label
 _atom_site_symmetry_multiplicity
 _atom_site_fract_x
 _atom_site_fract_y
 _atom_site_fract_z
 _atom_site_occupancy
  Gd  Gd0  1  0.305293  0.795132  0.510160  1
  Gd  Gd1  1  0.715028  0.204868  0.510160  1
  Ni  Ni2  1  0.273999  0.500000  0.773999  1
  Sn  Sn3  1  0.008626  0.000000  0.008626  1
  Ru  Ru4  1  0.697054  0.500000  0.197054  1
