# generated using pymatgen
data_Pa3Ga2Co3Ge
_symmetry_space_group_name_H-M   'P 1'
_cell_length_a   3.93495900
_cell_length_b   6.79249046
_cell_length_c   6.76430464
_cell_angle_alpha   120.13794044
_cell_angle_beta   90.00000000
_cell_angle_gamma   90.00000000
_symmetry_Int_Tables_number   1
_chemical_formula_structural   Pa3Ga2Co3Ge
_chemical_formula_sum   'Pa3 Ga2 Co3 Ge1'
_cell_volume   156.35713304
_cell_formula_units_Z   1
loop_
 _symmetry_equiv_pos_site_id
 _symmetry_equiv_pos_as_xyz
  1  'x, y, z'
loop_
 _atom_site_type_symbol
 _atom_site_label
 _atom_site_symmetry_multiplicity
 _atom_site_fract_x
 _atom_site_fract_y
 _atom_site_fract_z
 _atom_site_occupancy
  Pa  Pa0  1  0.500000  0.580190  0.000000  1
  Pa  Pa1  1  0.500000  0.417717  0.420304  1
  Pa  Pa2  1  0.500000  0.997413  0.579696  1
  Ga  Ga3  1  0.000000  0.757507  0.760107  1
  Ga  Ga4  1  0.000000  0.997401  0.239893  1
  Co  Co5  1  0.000000  0.332457  0.669201  1
  Co  Co6  1  0.000000  0.663256  0.330799  1
  Co  Co7  1  0.500000  0.011431  0.000000  1
  Ge  Ge8  1  0.000000  0.242529  0.000000  1
