# generated using pymatgen
data_Er7TmB24Ir3Ru
_symmetry_space_group_name_H-M   'P 1'
_cell_length_a   3.62328400
_cell_length_b   9.14436190
_cell_length_c   11.46080608
_cell_angle_alpha   90.03235779
_cell_angle_beta   90.00000000
_cell_angle_gamma   90.00000000
_symmetry_Int_Tables_number   1
_chemical_formula_structural   Er7TmB24Ir3Ru
_chemical_formula_sum   'Er7 Tm1 B24 Ir3 Ru1'
_cell_volume   379.72647427
_cell_formula_units_Z   1
loop_
 _symmetry_equiv_pos_site_id
 _symmetry_equiv_pos_as_xyz
  1  'x, y, z'
loop_
 _atom_site_type_symbol
 _atom_site_label
 _atom_site_symmetry_multiplicity
 _atom_site_fract_x
 _atom_site_fract_y
 _atom_site_fract_z
 _atom_site_occupancy
  Er  Er0  1  0.000000  0.320500  0.413230  1
  Er  Er1  1  0.000000  0.680708  0.588052  1
  Er  Er2  1  0.000000  0.820728  0.084929  1
  Er  Er3  1  0.000000  0.177527  0.912959  1
  Er  Er4  1  0.000000  0.944121  0.373966  1
  Er  Er5  1  0.000000  0.054398  0.626987  1
  Er  Er6  1  0.000000  0.444134  0.125680  1
  Tm  Tm7  1  0.000000  0.557773  0.874182  1
  B  B8  1  0.500000  0.553652  0.434702  1
  B  B9  1  0.500000  0.446480  0.565597  1
  B  B10  1  0.500000  0.053207  0.065518  1
  B  B11  1  0.500000  0.945845  0.933647  1
  B  B12  1  0.500000  0.749866  0.421126  1
  B  B13  1  0.500000  0.250244  0.579098  1
  B  B14  1  0.500000  0.249554  0.078989  1
  B  B15  1  0.500000  0.751370  0.919979  1
  B  B16  1  0.500000  0.793207  0.264778  1
  B  B17  1  0.500000  0.207014  0.734607  1
  B  B18  1  0.500000  0.293597  0.235198  1
  B  B19  1  0.500000  0.707466  0.765878  1
  B  B20  1  0.500000  0.631917  0.183825  1
  B  B21  1  0.500000  0.368330  0.816170  1
  B  B22  1  0.500000  0.132377  0.316070  1
  B  B23  1  0.500000  0.868172  0.685176  1
  B  B24  1  0.500000  0.981496  0.213040  1
  B  B25  1  0.500000  0.016890  0.786714  1
  B  B26  1  0.500000  0.481699  0.286635  1
  B  B27  1  0.500000  0.518439  0.713893  1
  B  B28  1  0.500000  0.609409  0.030100  1
  B  B29  1  0.500000  0.390344  0.969774  1
  B  B30  1  0.500000  0.109708  0.469816  1
  B  B31  1  0.500000  0.890298  0.529819  1
  Ir  Ir32  1  0.000000  0.638062  0.321731  1
  Ir  Ir33  1  0.000000  0.362391  0.678890  1
  Ir  Ir34  1  0.000000  0.137710  0.178176  1
  Ru  Ru35  1  0.000000  0.861366  0.821069  1
