# generated using pymatgen
data_YHo(Co5As3)2
_symmetry_space_group_name_H-M   'P 1'
_cell_length_a   3.79104700
_cell_length_b   12.19239816
_cell_length_c   10.68500314
_cell_angle_alpha   89.98158308
_cell_angle_beta   90.00000000
_cell_angle_gamma   90.00000000
_symmetry_Int_Tables_number   1
_chemical_formula_structural   YHo(Co5As3)2
_chemical_formula_sum   'Y2 Ho2 Co20 As12'
_cell_volume   493.88170291
_cell_formula_units_Z   2
loop_
 _symmetry_equiv_pos_site_id
 _symmetry_equiv_pos_as_xyz
  1  'x, y, z'
loop_
 _atom_site_type_symbol
 _atom_site_label
 _atom_site_symmetry_multiplicity
 _atom_site_fract_x
 _atom_site_fract_y
 _atom_site_fract_z
 _atom_site_occupancy
  Y  Y0  1  0.250000  0.798482  0.581777  1
  Y  Y1  1  0.750000  0.201518  0.418223  1
  Ho  Ho2  1  0.750000  0.701455  0.081266  1
  Ho  Ho3  1  0.250000  0.298545  0.918734  1
  Co  Co4  1  0.750000  0.697009  0.383418  1
  Co  Co5  1  0.250000  0.302991  0.616582  1
  Co  Co6  1  0.250000  0.802793  0.884381  1
  Co  Co7  1  0.750000  0.197207  0.115619  1
  Co  Co8  1  0.750000  0.991366  0.211676  1
  Co  Co9  1  0.250000  0.008634  0.788324  1
  Co  Co10  1  0.250000  0.508656  0.712094  1
  Co  Co11  1  0.750000  0.491344  0.287906  1
  Co  Co12  1  0.750000  0.677528  0.784088  1
  Co  Co13  1  0.250000  0.322472  0.215912  1
  Co  Co14  1  0.250000  0.822369  0.283542  1
  Co  Co15  1  0.750000  0.177631  0.716458  1
  Co  Co16  1  0.750000  0.932075  0.969592  1
  Co  Co17  1  0.250000  0.067925  0.030408  1
  Co  Co18  1  0.250000  0.567856  0.469033  1
  Co  Co19  1  0.750000  0.432144  0.530967  1
  Co  Co20  1  0.750000  0.988245  0.592993  1
  Co  Co21  1  0.250000  0.011755  0.407007  1
  Co  Co22  1  0.250000  0.512254  0.092763  1
  Co  Co23  1  0.750000  0.487745  0.907237  1
  As  As24  1  0.750000  0.613943  0.584403  1
  As  As25  1  0.250000  0.386057  0.415597  1
  As  As26  1  0.250000  0.885718  0.084467  1
  As  As27  1  0.750000  0.114282  0.915533  1
  As  As28  1  0.750000  0.890807  0.398847  1
  As  As29  1  0.250000  0.109193  0.601153  1
  As  As30  1  0.250000  0.609358  0.899292  1
  As  As31  1  0.750000  0.390642  0.100708  1
  As  As32  1  0.750000  0.870346  0.769504  1
  As  As33  1  0.250000  0.129654  0.230496  1
  As  As34  1  0.250000  0.629982  0.268714  1
  As  As35  1  0.750000  0.370018  0.731286  1
