# generated using pymatgen
data_Tb3Gd(CO5)2
_symmetry_space_group_name_H-M   'P 1'
_cell_length_a   3.95561224
_cell_length_b   3.95561294
_cell_length_c   15.29249939
_cell_angle_alpha   90.01358552
_cell_angle_beta   89.98641385
_cell_angle_gamma   122.10770415
_symmetry_Int_Tables_number   1
_chemical_formula_structural   Tb3Gd(CO5)2
_chemical_formula_sum   'Tb3 Gd1 C2 O10'
_cell_volume   202.68202731
_cell_formula_units_Z   1
loop_
 _symmetry_equiv_pos_site_id
 _symmetry_equiv_pos_as_xyz
  1  'x, y, z'
loop_
 _atom_site_type_symbol
 _atom_site_label
 _atom_site_symmetry_multiplicity
 _atom_site_fract_x
 _atom_site_fract_y
 _atom_site_fract_z
 _atom_site_occupancy
  Tb  Tb0  1  0.335448  0.664552  0.907297  1
  Tb  Tb1  1  0.664906  0.335094  0.093109  1
  Tb  Tb2  1  0.664639  0.335361  0.405482  1
  Gd  Gd3  1  0.335003  0.664997  0.592757  1
  C  C4  1  0.073365  0.926635  0.751260  1
  C  C5  1  0.926722  0.073278  0.249798  1
  O  O6  1  0.984491  0.015509  0.826292  1
  O  O7  1  0.014756  0.985244  0.174558  1
  O  O8  1  0.014360  0.985640  0.325096  1
  O  O9  1  0.986445  0.013555  0.675734  1
  O  O10  1  0.335723  0.664277  0.440927  1
  O  O11  1  0.664324  0.335676  0.555596  1
  O  O12  1  0.664152  0.335848  0.943013  1
  O  O13  1  0.335729  0.664271  0.057659  1
  O  O14  1  0.258290  0.741710  0.751712  1
  O  O15  1  0.741645  0.258355  0.249709  1
