# generated using pymatgen
data_Pr3(CdBi3)2
_symmetry_space_group_name_H-M   'P 1'
_cell_length_a   4.49182600
_cell_length_b   11.09557600
_cell_length_c   13.97705700
_cell_angle_alpha   90.00000000
_cell_angle_beta   90.00000000
_cell_angle_gamma   90.00000000
_symmetry_Int_Tables_number   1
_chemical_formula_structural   Pr3(CdBi3)2
_chemical_formula_sum   'Pr6 Cd4 Bi12'
_cell_volume   696.60808938
_cell_formula_units_Z   2
loop_
 _symmetry_equiv_pos_site_id
 _symmetry_equiv_pos_as_xyz
  1  'x, y, z'
loop_
 _atom_site_type_symbol
 _atom_site_label
 _atom_site_symmetry_multiplicity
 _atom_site_fract_x
 _atom_site_fract_y
 _atom_site_fract_z
 _atom_site_occupancy
  Pr  Pr0  1  0.750000  0.258105  0.750000  1
  Pr  Pr1  1  0.750000  0.268447  0.412370  1
  Pr  Pr2  1  0.250000  0.731553  0.912370  1
  Pr  Pr3  1  0.250000  0.731553  0.587630  1
  Pr  Pr4  1  0.250000  0.741895  0.250000  1
  Pr  Pr5  1  0.750000  0.268447  0.087630  1
  Cd  Cd6  1  0.250000  0.001818  0.093517  1
  Cd  Cd7  1  0.250000  0.001818  0.406483  1
  Cd  Cd8  1  0.750000  0.998182  0.593517  1
  Cd  Cd9  1  0.750000  0.998182  0.906483  1
  Bi  Bi10  1  0.750000  0.503914  0.250000  1
  Bi  Bi11  1  0.750000  0.492374  0.916466  1
  Bi  Bi12  1  0.750000  0.816327  0.750000  1
  Bi  Bi13  1  0.750000  0.817425  0.418902  1
  Bi  Bi14  1  0.250000  0.182575  0.918902  1
  Bi  Bi15  1  0.250000  0.182575  0.581098  1
  Bi  Bi16  1  0.250000  0.183673  0.250000  1
  Bi  Bi17  1  0.250000  0.507626  0.083534  1
  Bi  Bi18  1  0.250000  0.496086  0.750000  1
  Bi  Bi19  1  0.250000  0.507626  0.416466  1
  Bi  Bi20  1  0.750000  0.492374  0.583534  1
  Bi  Bi21  1  0.750000  0.817425  0.081098  1
