# generated using pymatgen
data_Li6Ca6AsP5O24
_symmetry_space_group_name_H-M   'P 1'
_cell_length_a   7.65532400
_cell_length_b   7.65532069
_cell_length_c   10.13121400
_cell_angle_alpha   89.99989401
_cell_angle_beta   90.00002828
_cell_angle_gamma   120.00038459
_symmetry_Int_Tables_number   1
_chemical_formula_structural   Li6Ca6AsP5O24
_chemical_formula_sum   'Li6 Ca6 As1 P5 O24'
_cell_volume   514.18263135
_cell_formula_units_Z   1
loop_
 _symmetry_equiv_pos_site_id
 _symmetry_equiv_pos_as_xyz
  1  'x, y, z'
loop_
 _atom_site_type_symbol
 _atom_site_label
 _atom_site_symmetry_multiplicity
 _atom_site_fract_x
 _atom_site_fract_y
 _atom_site_fract_z
 _atom_site_occupancy
  Li  Li0  1  0.045223  0.243268  0.262155  1
  Li  Li1  1  0.756736  0.801955  0.262154  1
  Li  Li2  1  0.198047  0.954779  0.262153  1
  Li  Li3  1  0.240944  0.042306  0.751919  1
  Li  Li4  1  0.801362  0.759053  0.751917  1
  Li  Li5  1  0.957691  0.198638  0.751918  1
  Ca  Ca6  1  0.018652  0.541114  0.484897  1
  Ca  Ca7  1  0.458889  0.477540  0.484896  1
  Ca  Ca8  1  0.522462  0.981346  0.484892  1
  Ca  Ca9  1  0.522666  0.021208  0.983720  1
  Ca  Ca10  1  0.498545  0.477336  0.983720  1
  Ca  Ca11  1  0.978794  0.501462  0.983718  1
  As  As12  1  0.999999  0.000005  0.003130  1
  P  P13  1  0.333334  0.666666  0.184604  1
  P  P14  1  0.666669  0.333334  0.257090  1
  P  P15  1  0.000000  0.999999  0.502115  1
  P  P16  1  0.666663  0.333328  0.684496  1
  P  P17  1  0.333333  0.666668  0.754368  1
  O  O18  1  0.666671  0.333337  0.102466  1
  O  O19  1  0.551813  0.773774  0.127623  1
  O  O20  1  0.226228  0.778038  0.127622  1
  O  O21  1  0.221962  0.448188  0.127621  1
  O  O22  1  0.000000  0.000000  0.173030  1
  O  O23  1  0.667047  0.523917  0.307695  1
  O  O24  1  0.856872  0.332952  0.307696  1
  O  O25  1  0.476081  0.143125  0.307691  1
  O  O26  1  0.333333  0.666666  0.337955  1
  O  O27  1  0.123747  0.221879  0.449100  1
  O  O28  1  0.778120  0.901866  0.449099  1
  O  O29  1  0.098133  0.876254  0.449099  1
  O  O30  1  0.333335  0.666669  0.599349  1
  O  O31  1  0.764913  0.550556  0.626501  1
  O  O32  1  0.785644  0.235084  0.626500  1
  O  O33  1  0.449438  0.214352  0.626498  1
  O  O34  1  0.999998  0.999999  0.656459  1
  O  O35  1  0.528269  0.676488  0.804513  1
  O  O36  1  0.323512  0.851783  0.804513  1
  O  O37  1  0.148213  0.471730  0.804510  1
  O  O38  1  0.666664  0.333330  0.837442  1
  O  O39  1  0.245315  0.131701  0.943184  1
  O  O40  1  0.886384  0.754689  0.943185  1
  O  O41  1  0.868298  0.113619  0.943184  1
