# generated using pymatgen
data_Pr16MgCd3(RuPt)2
_symmetry_space_group_name_H-M   'P 1'
_cell_length_a   10.07474165
_cell_length_b   10.07474187
_cell_length_c   10.13297634
_cell_angle_alpha   59.76060407
_cell_angle_beta   59.76060385
_cell_angle_gamma   59.83245023
_symmetry_Int_Tables_number   1
_chemical_formula_structural   Pr16MgCd3(RuPt)2
_chemical_formula_sum   'Pr16 Mg1 Cd3 Ru2 Pt2'
_cell_volume   723.70227639
_cell_formula_units_Z   1
loop_
 _symmetry_equiv_pos_site_id
 _symmetry_equiv_pos_as_xyz
  1  'x, y, z'
loop_
 _atom_site_type_symbol
 _atom_site_label
 _atom_site_symmetry_multiplicity
 _atom_site_fract_x
 _atom_site_fract_y
 _atom_site_fract_z
 _atom_site_occupancy
  Pr  Pr0  1  0.347299  0.347299  0.354801  1
  Pr  Pr1  1  0.347833  0.347833  0.950852  1
  Pr  Pr2  1  0.343616  0.958709  0.348233  1
  Pr  Pr3  1  0.958709  0.343616  0.348233  1
  Pr  Pr4  1  0.814857  0.190510  0.190814  1
  Pr  Pr5  1  0.188055  0.815842  0.805230  1
  Pr  Pr6  1  0.190510  0.814857  0.190814  1
  Pr  Pr7  1  0.815842  0.188055  0.805230  1
  Pr  Pr8  1  0.189951  0.189951  0.809983  1
  Pr  Pr9  1  0.807661  0.807661  0.191567  1
  Pr  Pr10  1  0.937682  0.559719  0.565342  1
  Pr  Pr11  1  0.557780  0.938092  0.940432  1
  Pr  Pr12  1  0.559719  0.937682  0.565342  1
  Pr  Pr13  1  0.938092  0.557780  0.940432  1
  Pr  Pr14  1  0.562119  0.562119  0.939508  1
  Pr  Pr15  1  0.938061  0.938061  0.561172  1
  Mg  Mg16  1  0.575479  0.575479  0.574977  1
  Cd  Cd17  1  0.580414  0.580414  0.259224  1
  Cd  Cd18  1  0.581507  0.257777  0.580258  1
  Cd  Cd19  1  0.257777  0.581507  0.580258  1
  Ru  Ru20  1  0.143454  0.143454  0.137646  1
  Ru  Ru21  1  0.143366  0.143366  0.577623  1
  Pt  Pt22  1  0.146342  0.573871  0.141012  1
  Pt  Pt23  1  0.573871  0.146342  0.141012  1
