# generated using pymatgen
data_YbHo15(InIr)4
_symmetry_space_group_name_H-M   'P 1'
_cell_length_a   9.63974584
_cell_length_b   9.63974577
_cell_length_c   9.64448300
_cell_angle_alpha   59.98374585
_cell_angle_beta   59.98374607
_cell_angle_gamma   59.97315959
_symmetry_Int_Tables_number   1
_chemical_formula_structural   YbHo15(InIr)4
_chemical_formula_sum   'Yb1 Ho15 In4 Ir4'
_cell_volume   633.43236227
_cell_formula_units_Z   1
loop_
 _symmetry_equiv_pos_site_id
 _symmetry_equiv_pos_as_xyz
  1  'x, y, z'
loop_
 _atom_site_type_symbol
 _atom_site_label
 _atom_site_symmetry_multiplicity
 _atom_site_fract_x
 _atom_site_fract_y
 _atom_site_fract_z
 _atom_site_occupancy
  Yb  Yb0  1  0.439767  0.439767  0.060233  1
  Ho  Ho1  1  0.651595  0.651595  0.046474  1
  Ho  Ho2  1  0.190835  0.810023  0.191246  1
  Ho  Ho3  1  0.059605  0.439307  0.060453  1
  Ho  Ho4  1  0.190835  0.810023  0.807897  1
  Ho  Ho5  1  0.059605  0.439307  0.440634  1
  Ho  Ho6  1  0.810023  0.190835  0.191246  1
  Ho  Ho7  1  0.651595  0.651595  0.650336  1
  Ho  Ho8  1  0.810023  0.190835  0.807897  1
  Ho  Ho9  1  0.190483  0.190483  0.809517  1
  Ho  Ho10  1  0.047063  0.650193  0.651373  1
  Ho  Ho11  1  0.439307  0.059605  0.060453  1
  Ho  Ho12  1  0.060967  0.060967  0.439033  1
  Ho  Ho13  1  0.650193  0.047063  0.651373  1
  Ho  Ho14  1  0.809146  0.809146  0.190854  1
  Ho  Ho15  1  0.439307  0.059605  0.440634  1
  In  In16  1  0.416337  0.416337  0.418870  1
  In  In17  1  0.416337  0.416337  0.748457  1
  In  In18  1  0.417197  0.748591  0.417107  1
  In  In19  1  0.748591  0.417197  0.417107  1
  Ir  Ir20  1  0.423431  0.860325  0.858122  1
  Ir  Ir21  1  0.858717  0.858717  0.858979  1
  Ir  Ir22  1  0.860325  0.423431  0.858122  1
  Ir  Ir23  1  0.858717  0.858717  0.423586  1
