# generated using pymatgen
data_Nd4Ho15ErBi12
_symmetry_space_group_name_H-M   'P 1'
_cell_length_a   8.34780810
_cell_length_b   9.50613300
_cell_length_c   12.17057914
_cell_angle_alpha   90.00000000
_cell_angle_beta   89.98260182
_cell_angle_gamma   90.00000000
_symmetry_Int_Tables_number   1
_chemical_formula_structural   Nd4Ho15ErBi12
_chemical_formula_sum   'Nd4 Ho15 Er1 Bi12'
_cell_volume   965.80081520
_cell_formula_units_Z   1
loop_
 _symmetry_equiv_pos_site_id
 _symmetry_equiv_pos_as_xyz
  1  'x, y, z'
loop_
 _atom_site_type_symbol
 _atom_site_label
 _atom_site_symmetry_multiplicity
 _atom_site_fract_x
 _atom_site_fract_y
 _atom_site_fract_z
 _atom_site_occupancy
  Nd  Nd0  1  0.171502  0.750000  0.226088  1
  Nd  Nd1  1  0.328564  0.750000  0.726174  1
  Nd  Nd2  1  0.828534  0.250000  0.773923  1
  Nd  Nd3  1  0.671467  0.250000  0.273788  1
  Ho  Ho4  1  0.810301  0.563413  0.064599  1
  Ho  Ho5  1  0.689567  0.936647  0.564627  1
  Ho  Ho6  1  0.189602  0.063270  0.935405  1
  Ho  Ho7  1  0.310486  0.436742  0.435354  1
  Ho  Ho8  1  0.189602  0.436730  0.935405  1
  Ho  Ho9  1  0.310486  0.063258  0.435354  1
  Ho  Ho10  1  0.810301  0.936587  0.064599  1
  Ho  Ho11  1  0.689567  0.563353  0.564627  1
  Ho  Ho12  1  0.022819  0.750000  0.503808  1
  Ho  Ho13  1  0.522898  0.250000  0.996157  1
  Ho  Ho14  1  0.977098  0.250000  0.496131  1
  Ho  Ho15  1  0.664547  0.750000  0.289106  1
  Ho  Ho16  1  0.835408  0.750000  0.789324  1
  Ho  Ho17  1  0.335395  0.250000  0.710822  1
  Ho  Ho18  1  0.164560  0.250000  0.210734  1
  Er  Er19  1  0.477202  0.750000  0.003899  1
  Bi  Bi20  1  0.402819  0.750000  0.467171  1
  Bi  Bi21  1  0.097650  0.750000  0.967154  1
  Bi  Bi22  1  0.597167  0.250000  0.532883  1
  Bi  Bi23  1  0.902891  0.250000  0.032851  1
  Bi  Bi24  1  0.935215  0.506966  0.327943  1
  Bi  Bi25  1  0.564567  0.992771  0.828235  1
  Bi  Bi26  1  0.064763  0.006965  0.672052  1
  Bi  Bi27  1  0.435239  0.493331  0.171778  1
  Bi  Bi28  1  0.064763  0.493035  0.672052  1
  Bi  Bi29  1  0.435239  0.006669  0.171778  1
  Bi  Bi30  1  0.935215  0.993034  0.327943  1
  Bi  Bi31  1  0.564567  0.507229  0.828235  1
