# generated using pymatgen
data_Ho20In3Ga8Pb
_symmetry_space_group_name_H-M   'P 1'
_cell_length_a   7.73770300
_cell_length_b   7.73770300
_cell_length_c   14.20802900
_cell_angle_alpha   90.00000000
_cell_angle_beta   90.00000000
_cell_angle_gamma   90.00000000
_symmetry_Int_Tables_number   1
_chemical_formula_structural   Ho20In3Ga8Pb
_chemical_formula_sum   'Ho20 In3 Ga8 Pb1'
_cell_volume   850.66379024
_cell_formula_units_Z   1
loop_
 _symmetry_equiv_pos_site_id
 _symmetry_equiv_pos_as_xyz
  1  'x, y, z'
loop_
 _atom_site_type_symbol
 _atom_site_label
 _atom_site_symmetry_multiplicity
 _atom_site_fract_x
 _atom_site_fract_y
 _atom_site_fract_z
 _atom_site_occupancy
  Ho  Ho0  1  0.000000  0.500000  0.761340  1
  Ho  Ho1  1  0.000000  0.500000  0.254997  1
  Ho  Ho2  1  0.500000  0.000000  0.239844  1
  Ho  Ho3  1  0.500000  0.000000  0.742365  1
  Ho  Ho4  1  0.668693  0.661788  0.606918  1
  Ho  Ho5  1  0.671741  0.339524  0.106127  1
  Ho  Ho6  1  0.827426  0.841429  0.393401  1
  Ho  Ho7  1  0.171544  0.839654  0.893781  1
  Ho  Ho8  1  0.331307  0.338212  0.606918  1
  Ho  Ho9  1  0.328259  0.660476  0.106127  1
  Ho  Ho10  1  0.172574  0.158571  0.393401  1
  Ho  Ho11  1  0.828456  0.160346  0.893781  1
  Ho  Ho12  1  0.658571  0.327426  0.393401  1
  Ho  Ho13  1  0.339654  0.328456  0.893781  1
  Ho  Ho14  1  0.161788  0.831307  0.606918  1
  Ho  Ho15  1  0.839524  0.828259  0.106127  1
  Ho  Ho16  1  0.341429  0.672574  0.393401  1
  Ho  Ho17  1  0.660346  0.671544  0.893781  1
  Ho  Ho18  1  0.838212  0.168693  0.606918  1
  Ho  Ho19  1  0.160476  0.171741  0.106127  1
  In  In20  1  0.000000  0.500000  0.996901  1
  In  In21  1  0.500000  0.000000  0.503674  1
  In  In22  1  0.500000  0.000000  0.003519  1
  Ga  Ga23  1  0.874395  0.874014  0.749450  1
  Ga  Ga24  1  0.874903  0.126202  0.250538  1
  Ga  Ga25  1  0.626202  0.625097  0.250538  1
  Ga  Ga26  1  0.374014  0.625605  0.749450  1
  Ga  Ga27  1  0.125605  0.125986  0.749450  1
  Ga  Ga28  1  0.125097  0.873798  0.250538  1
  Ga  Ga29  1  0.373798  0.374903  0.250538  1
  Ga  Ga30  1  0.625986  0.374395  0.749450  1
  Pb  Pb31  1  0.000000  0.500000  0.496499  1
