# generated using pymatgen
data_Li2TbNd2AgPb3
_symmetry_space_group_name_H-M   'P 1'
_cell_length_a   7.51352858
_cell_length_b   7.58761058
_cell_length_c   4.71535800
_cell_angle_alpha   90.00000000
_cell_angle_beta   90.00000000
_cell_angle_gamma   120.32671345
_symmetry_Int_Tables_number   1
_chemical_formula_structural   Li2TbNd2AgPb3
_chemical_formula_sum   'Li2 Tb1 Nd2 Ag1 Pb3'
_cell_volume   232.03583835
_cell_formula_units_Z   1
loop_
 _symmetry_equiv_pos_site_id
 _symmetry_equiv_pos_as_xyz
  1  'x, y, z'
loop_
 _atom_site_type_symbol
 _atom_site_label
 _atom_site_symmetry_multiplicity
 _atom_site_fract_x
 _atom_site_fract_y
 _atom_site_fract_z
 _atom_site_occupancy
  Li  Li0  1  0.232103  0.004339  0.000000  1
  Li  Li1  1  0.767897  0.772238  0.000000  1
  Tb  Tb2  1  0.000000  0.556097  0.500000  1
  Nd  Nd3  1  0.573784  0.004617  0.500000  1
  Nd  Nd4  1  0.426216  0.430833  0.500000  1
  Ag  Ag5  1  0.000000  0.235961  0.000000  1
  Pb  Pb6  1  0.000000  0.982905  0.500000  1
  Pb  Pb7  1  0.333695  0.673355  0.000000  1
  Pb  Pb8  1  0.666305  0.339657  0.000000  1
