# generated using pymatgen
data_Tm6Ta4Ga12Os7
_symmetry_space_group_name_H-M   'P 1'
_cell_length_a   8.99025866
_cell_length_b   8.99025940
_cell_length_c   8.99025900
_cell_angle_alpha   59.99999780
_cell_angle_beta   59.99999507
_cell_angle_gamma   59.99999944
_symmetry_Int_Tables_number   1
_chemical_formula_structural   Tm6Ta4Ga12Os7
_chemical_formula_sum   'Tm6 Ta4 Ga12 Os7'
_cell_volume   513.80886173
_cell_formula_units_Z   1
loop_
 _symmetry_equiv_pos_site_id
 _symmetry_equiv_pos_as_xyz
  1  'x, y, z'
loop_
 _atom_site_type_symbol
 _atom_site_label
 _atom_site_symmetry_multiplicity
 _atom_site_fract_x
 _atom_site_fract_y
 _atom_site_fract_z
 _atom_site_occupancy
  Tm  Tm0  1  0.709196  0.709196  0.290804  1
  Tm  Tm1  1  0.290804  0.709196  0.290804  1
  Tm  Tm2  1  0.709196  0.290804  0.290804  1
  Tm  Tm3  1  0.290804  0.290804  0.709196  1
  Tm  Tm4  1  0.709196  0.290804  0.709196  1
  Tm  Tm5  1  0.290804  0.709196  0.709196  1
  Ta  Ta6  1  0.878116  0.878116  0.365653  1
  Ta  Ta7  1  0.878116  0.365653  0.878116  1
  Ta  Ta8  1  0.365653  0.878116  0.878116  1
  Ta  Ta9  1  0.878116  0.878116  0.878116  1
  Ga  Ga10  1  0.119711  0.119711  0.640866  1
  Ga  Ga11  1  0.119711  0.640866  0.119711  1
  Ga  Ga12  1  0.640866  0.119711  0.119711  1
  Ga  Ga13  1  0.119711  0.119711  0.119711  1
  Ga  Ga14  1  0.661750  0.661750  0.014751  1
  Ga  Ga15  1  0.661750  0.014751  0.661750  1
  Ga  Ga16  1  0.014751  0.661750  0.661750  1
  Ga  Ga17  1  0.661750  0.661750  0.661750  1
  Ga  Ga18  1  0.335904  0.335904  0.992290  1
  Ga  Ga19  1  0.335904  0.992290  0.335904  1
  Ga  Ga20  1  0.992290  0.335904  0.335904  1
  Ga  Ga21  1  0.335904  0.335904  0.335904  1
  Os  Os22  1  0.000000  0.000000  0.000000  1
  Os  Os23  1  0.995809  0.995809  0.504191  1
  Os  Os24  1  0.504191  0.995809  0.504191  1
  Os  Os25  1  0.995809  0.504191  0.504191  1
  Os  Os26  1  0.504191  0.504191  0.995809  1
  Os  Os27  1  0.995809  0.504191  0.995809  1
  Os  Os28  1  0.504191  0.995809  0.995809  1
