# generated using pymatgen
data_Tb3Er(HgO4)2
_symmetry_space_group_name_H-M   'P 1'
_cell_length_a   7.10446333
_cell_length_b   7.10446243
_cell_length_c   10.13260449
_cell_angle_alpha   58.81837519
_cell_angle_beta   58.81837999
_cell_angle_gamma   29.80743397
_symmetry_Int_Tables_number   1
_chemical_formula_structural   Tb3Er(HgO4)2
_chemical_formula_sum   'Tb3 Er1 Hg2 O8'
_cell_volume   214.65607267
_cell_formula_units_Z   1
loop_
 _symmetry_equiv_pos_site_id
 _symmetry_equiv_pos_as_xyz
  1  'x, y, z'
loop_
 _atom_site_type_symbol
 _atom_site_label
 _atom_site_symmetry_multiplicity
 _atom_site_fract_x
 _atom_site_fract_y
 _atom_site_fract_z
 _atom_site_occupancy
  Tb  Tb0  1  0.880522  0.880522  0.463015  1
  Tb  Tb1  1  0.118275  0.118275  0.539100  1
  Tb  Tb2  1  0.659503  0.659503  0.198959  1
  Er  Er3  1  0.341715  0.341715  0.799168  1
  Hg  Hg4  1  0.613926  0.613926  0.838225  1
  Hg  Hg5  1  0.386434  0.386434  0.160165  1
  O  O6  1  0.081800  0.081800  0.347523  1
  O  O7  1  0.916992  0.916992  0.655476  1
  O  O8  1  0.268483  0.268483  0.614109  1
  O  O9  1  0.731475  0.731475  0.388644  1
  O  O10  1  0.705343  0.705343  0.942425  1
  O  O11  1  0.297562  0.297562  0.052051  1
  O  O12  1  0.532864  0.532864  0.719839  1
  O  O13  1  0.465105  0.465105  0.281299  1
