# generated using pymatgen
data_CaIn2Pd3
_symmetry_space_group_name_H-M   'P 1'
_cell_length_a   4.65873400
_cell_length_b   9.99151200
_cell_length_c   10.27121400
_cell_angle_alpha   90.00000000
_cell_angle_beta   90.00000000
_cell_angle_gamma   90.00000000
_symmetry_Int_Tables_number   1
_chemical_formula_structural   CaIn2Pd3
_chemical_formula_sum   'Ca4 In8 Pd12'
_cell_volume   478.10238078
_cell_formula_units_Z   4
loop_
 _symmetry_equiv_pos_site_id
 _symmetry_equiv_pos_as_xyz
  1  'x, y, z'
loop_
 _atom_site_type_symbol
 _atom_site_label
 _atom_site_symmetry_multiplicity
 _atom_site_fract_x
 _atom_site_fract_y
 _atom_site_fract_z
 _atom_site_occupancy
  Ca  Ca0  1  0.250000  0.443078  0.728879  1
  Ca  Ca1  1  0.250000  0.056922  0.228879  1
  Ca  Ca2  1  0.750000  0.556922  0.271121  1
  Ca  Ca3  1  0.750000  0.943078  0.771121  1
  In  In4  1  0.250000  0.885908  0.516137  1
  In  In5  1  0.250000  0.614092  0.016137  1
  In  In6  1  0.750000  0.114092  0.483863  1
  In  In7  1  0.750000  0.385908  0.983863  1
  In  In8  1  0.250000  0.158961  0.893971  1
  In  In9  1  0.250000  0.341039  0.393971  1
  In  In10  1  0.750000  0.841039  0.106029  1
  In  In11  1  0.750000  0.658961  0.606029  1
  Pd  Pd12  1  0.250000  0.146343  0.618315  1
  Pd  Pd13  1  0.250000  0.353657  0.118315  1
  Pd  Pd14  1  0.750000  0.853657  0.381685  1
  Pd  Pd15  1  0.750000  0.646343  0.881685  1
  Pd  Pd16  1  0.250000  0.737460  0.741869  1
  Pd  Pd17  1  0.250000  0.762540  0.241869  1
  Pd  Pd18  1  0.750000  0.262540  0.258131  1
  Pd  Pd19  1  0.750000  0.237460  0.758131  1
  Pd  Pd20  1  0.250000  0.895325  0.975082  1
  Pd  Pd21  1  0.250000  0.604675  0.475082  1
  Pd  Pd22  1  0.750000  0.104675  0.024918  1
  Pd  Pd23  1  0.750000  0.395325  0.524918  1
