# generated using pymatgen
data_Sm8Er12Si15Te
_symmetry_space_group_name_H-M   'P 1'
_cell_length_a   7.50877666
_cell_length_b   7.69348663
_cell_length_c   14.65443000
_cell_angle_alpha   89.92658440
_cell_angle_beta   86.88061078
_cell_angle_gamma   90.02941615
_symmetry_Int_Tables_number   1
_chemical_formula_structural   Sm8Er12Si15Te
_chemical_formula_sum   'Sm8 Er12 Si15 Te1'
_cell_volume   845.31178637
_cell_formula_units_Z   1
loop_
 _symmetry_equiv_pos_site_id
 _symmetry_equiv_pos_as_xyz
  1  'x, y, z'
loop_
 _atom_site_type_symbol
 _atom_site_label
 _atom_site_symmetry_multiplicity
 _atom_site_fract_x
 _atom_site_fract_y
 _atom_site_fract_z
 _atom_site_occupancy
  Sm  Sm0  1  0.020107  0.181830  0.099372  1
  Sm  Sm1  1  0.979957  0.820365  0.900616  1
  Sm  Sm2  1  0.480633  0.681219  0.900967  1
  Sm  Sm3  1  0.001674  0.825521  0.600227  1
  Sm  Sm4  1  0.520467  0.318714  0.100417  1
  Sm  Sm5  1  0.994426  0.175161  0.398882  1
  Sm  Sm6  1  0.505411  0.313108  0.396949  1
  Sm  Sm7  1  0.514937  0.687810  0.602554  1
  Er  Er8  1  0.168073  0.505985  0.754281  1
  Er  Er9  1  0.830379  0.494207  0.254011  1
  Er  Er10  1  0.329613  0.006463  0.252993  1
  Er  Er11  1  0.673015  0.993376  0.748993  1
  Er  Er12  1  0.359594  0.152497  0.624007  1
  Er  Er13  1  0.645843  0.832575  0.379014  1
  Er  Er14  1  0.141623  0.676752  0.373430  1
  Er  Er15  1  0.672037  0.822442  0.122208  1
  Er  Er16  1  0.840615  0.331458  0.621885  1
  Er  Er17  1  0.327021  0.177921  0.876944  1
  Er  Er18  1  0.827044  0.322774  0.876722  1
  Er  Er19  1  0.172196  0.677640  0.122885  1
  Si  Si20  1  0.044662  0.115690  0.750352  1
  Si  Si21  1  0.953737  0.888605  0.246679  1
  Si  Si22  1  0.455071  0.612727  0.248477  1
  Si  Si23  1  0.541445  0.388259  0.750688  1
  Si  Si24  1  0.289241  0.870307  0.752728  1
  Si  Si25  1  0.713314  0.124455  0.246977  1
  Si  Si26  1  0.212513  0.375362  0.248145  1
  Si  Si27  1  0.790507  0.626883  0.751742  1
  Si  Si28  1  0.796004  0.536511  0.456270  1
  Si  Si29  1  0.301582  0.963476  0.457224  1
  Si  Si30  1  0.852046  0.531157  0.040112  1
  Si  Si31  1  0.698815  0.035539  0.543298  1
  Si  Si32  1  0.145634  0.470349  0.959533  1
  Si  Si33  1  0.645845  0.031460  0.959210  1
  Si  Si34  1  0.352225  0.970288  0.040765  1
  Te  Te35  1  0.202692  0.461114  0.540442  1
