# generated using pymatgen
data_Hf6Ti4AlGa11Rh7
_symmetry_space_group_name_H-M   'P 1'
_cell_length_a   8.76211906
_cell_length_b   8.76211862
_cell_length_c   8.75013710
_cell_angle_alpha   59.95469654
_cell_angle_beta   59.95469710
_cell_angle_gamma   60.00000100
_symmetry_Int_Tables_number   1
_chemical_formula_structural   Hf6Ti4AlGa11Rh7
_chemical_formula_sum   'Hf6 Ti4 Al1 Ga11 Rh7'
_cell_volume   474.70129389
_cell_formula_units_Z   1
loop_
 _symmetry_equiv_pos_site_id
 _symmetry_equiv_pos_as_xyz
  1  'x, y, z'
loop_
 _atom_site_type_symbol
 _atom_site_label
 _atom_site_symmetry_multiplicity
 _atom_site_fract_x
 _atom_site_fract_y
 _atom_site_fract_z
 _atom_site_occupancy
  Hf  Hf0  1  0.691210  0.691210  0.308971  1
  Hf  Hf1  1  0.308610  0.691210  0.308971  1
  Hf  Hf2  1  0.691210  0.308610  0.308971  1
  Hf  Hf3  1  0.308610  0.308610  0.692357  1
  Hf  Hf4  1  0.690424  0.308610  0.692357  1
  Hf  Hf5  1  0.308610  0.690424  0.692357  1
  Ti  Ti6  1  0.878984  0.878984  0.363049  1
  Ti  Ti7  1  0.878232  0.364926  0.878611  1
  Ti  Ti8  1  0.364926  0.878232  0.878611  1
  Ti  Ti9  1  0.878232  0.878232  0.878611  1
  Al  Al10  1  0.121158  0.121158  0.636525  1
  Ga  Ga11  1  0.118720  0.643261  0.119297  1
  Ga  Ga12  1  0.643261  0.118720  0.119297  1
  Ga  Ga13  1  0.118720  0.118720  0.119297  1
  Ga  Ga14  1  0.659302  0.659302  0.022093  1
  Ga  Ga15  1  0.659150  0.022706  0.658994  1
  Ga  Ga16  1  0.022706  0.659150  0.658994  1
  Ga  Ga17  1  0.659150  0.659150  0.658994  1
  Ga  Ga18  1  0.339864  0.339864  0.980407  1
  Ga  Ga19  1  0.340174  0.977885  0.341766  1
  Ga  Ga20  1  0.977885  0.340174  0.341766  1
  Ga  Ga21  1  0.340174  0.340174  0.341766  1
  Rh  Rh22  1  0.002656  0.002656  0.992031  1
  Rh  Rh23  1  0.997865  0.997865  0.503503  1
  Rh  Rh24  1  0.500767  0.997865  0.503503  1
  Rh  Rh25  1  0.997865  0.500767  0.503503  1
  Rh  Rh26  1  0.501969  0.501969  0.998465  1
  Rh  Rh27  1  0.997597  0.501969  0.998465  1
  Rh  Rh28  1  0.501969  0.997597  0.998465  1
