# generated using pymatgen
data_YEr2In3IrPd2
_symmetry_space_group_name_H-M   'P 1'
_cell_length_a   7.72796012
_cell_length_b   7.73343103
_cell_length_c   3.79045400
_cell_angle_alpha   90.00000000
_cell_angle_beta   90.00000000
_cell_angle_gamma   119.91486128
_symmetry_Int_Tables_number   1
_chemical_formula_structural   YEr2In3IrPd2
_chemical_formula_sum   'Y1 Er2 In3 Ir1 Pd2'
_cell_volume   196.34999728
_cell_formula_units_Z   1
loop_
 _symmetry_equiv_pos_site_id
 _symmetry_equiv_pos_as_xyz
  1  'x, y, z'
loop_
 _atom_site_type_symbol
 _atom_site_label
 _atom_site_symmetry_multiplicity
 _atom_site_fract_x
 _atom_site_fract_y
 _atom_site_fract_z
 _atom_site_occupancy
  Y  Y0  1  0.415059  0.017344  0.500000  1
  Er  Er1  1  0.603229  0.584193  0.500000  1
  Er  Er2  1  0.980979  0.396978  0.500000  1
  In  In3  1  0.261405  0.266459  0.000000  1
  In  In4  1  0.733354  0.994649  0.000000  1
  In  In5  1  0.005420  0.739240  0.000000  1
  Ir  Ir6  1  0.670237  0.337642  0.000000  1
  Pd  Pd7  1  0.998086  0.000083  0.500000  1
  Pd  Pd8  1  0.332231  0.663411  0.000000  1
