# generated using pymatgen
data_Dy11Tm9Co3Bi8Ru
_symmetry_space_group_name_H-M   'P 1'
_cell_length_a   7.92627015
_cell_length_b   8.89346600
_cell_length_c   12.39728470
_cell_angle_alpha   90.00000000
_cell_angle_beta   90.12803986
_cell_angle_gamma   90.00000000
_symmetry_Int_Tables_number   1
_chemical_formula_structural   Dy11Tm9Co3Bi8Ru
_chemical_formula_sum   'Dy11 Tm9 Co3 Bi8 Ru1'
_cell_volume   873.90738578
_cell_formula_units_Z   1
loop_
 _symmetry_equiv_pos_site_id
 _symmetry_equiv_pos_as_xyz
  1  'x, y, z'
loop_
 _atom_site_type_symbol
 _atom_site_label
 _atom_site_symmetry_multiplicity
 _atom_site_fract_x
 _atom_site_fract_y
 _atom_site_fract_z
 _atom_site_occupancy
  Dy  Dy0  1  0.848246  0.750000  0.800269  1
  Dy  Dy1  1  0.348696  0.250000  0.699142  1
  Dy  Dy2  1  0.653189  0.750000  0.295790  1
  Dy  Dy3  1  0.379434  0.750000  0.691792  1
  Dy  Dy4  1  0.617452  0.250000  0.311887  1
  Dy  Dy5  1  0.881300  0.250000  0.812056  1
  Dy  Dy6  1  0.117577  0.750000  0.185745  1
  Dy  Dy7  1  0.949011  0.750000  0.503860  1
  Dy  Dy8  1  0.051782  0.250000  0.496462  1
  Dy  Dy9  1  0.448126  0.250000  0.997467  1
  Dy  Dy10  1  0.550800  0.750000  0.002778  1
  Tm  Tm11  1  0.150682  0.250000  0.197585  1
  Tm  Tm12  1  0.674385  0.042950  0.564339  1
  Tm  Tm13  1  0.326111  0.965668  0.436596  1
  Tm  Tm14  1  0.172814  0.965778  0.937453  1
  Tm  Tm15  1  0.326111  0.534332  0.436596  1
  Tm  Tm16  1  0.826508  0.037533  0.063187  1
  Tm  Tm17  1  0.674385  0.457050  0.564339  1
  Tm  Tm18  1  0.826508  0.462467  0.063187  1
  Tm  Tm19  1  0.172814  0.534222  0.937453  1
  Co  Co20  1  0.434786  0.250000  0.491539  1
  Co  Co21  1  0.061021  0.250000  0.993040  1
  Co  Co22  1  0.937599  0.750000  0.006693  1
  Bi  Bi23  1  0.569943  0.492020  0.827274  1
  Bi  Bi24  1  0.428550  0.507246  0.173360  1
  Bi  Bi25  1  0.070443  0.507543  0.674292  1
  Bi  Bi26  1  0.428550  0.992754  0.173360  1
  Bi  Bi27  1  0.932324  0.491903  0.325723  1
  Bi  Bi28  1  0.569943  0.007980  0.827274  1
  Bi  Bi29  1  0.932324  0.008097  0.325723  1
  Bi  Bi30  1  0.070443  0.992457  0.674292  1
  Ru  Ru31  1  0.568145  0.750000  0.509448  1
