# generated using pymatgen
data_Tb2Y3Zr3(As3Pd4)4
_symmetry_space_group_name_H-M   'P 1'
_cell_length_a   13.58316400
_cell_length_b   13.58316442
_cell_length_c   4.10831700
_cell_angle_alpha   90.00000000
_cell_angle_beta   90.00000000
_cell_angle_gamma   120.00000384
_symmetry_Int_Tables_number   1
_chemical_formula_structural   Tb2Y3Zr3(As3Pd4)4
_chemical_formula_sum   'Tb2 Y3 Zr3 As12 Pd16'
_cell_volume   656.44215671
_cell_formula_units_Z   1
loop_
 _symmetry_equiv_pos_site_id
 _symmetry_equiv_pos_as_xyz
  1  'x, y, z'
loop_
 _atom_site_type_symbol
 _atom_site_label
 _atom_site_symmetry_multiplicity
 _atom_site_fract_x
 _atom_site_fract_y
 _atom_site_fract_z
 _atom_site_occupancy
  Tb  Tb0  1  0.333333  0.666667  0.000000  1
  Tb  Tb1  1  0.666667  0.333333  0.000000  1
  Y  Y2  1  0.189325  0.189325  0.500000  1
  Y  Y3  1  0.810675  0.000000  0.500000  1
  Y  Y4  1  0.000000  0.810675  0.500000  1
  Zr  Zr5  1  0.556432  0.556432  0.000000  1
  Zr  Zr6  1  0.443568  0.000000  0.000000  1
  Zr  Zr7  1  0.000000  0.443568  0.000000  1
  As  As8  1  0.825993  0.825993  0.000000  1
  As  As9  1  0.174007  0.000000  0.000000  1
  As  As10  1  0.000000  0.174007  0.000000  1
  As  As11  1  0.166915  0.483341  0.500000  1
  As  As12  1  0.516659  0.683574  0.500000  1
  As  As13  1  0.316426  0.833085  0.500000  1
  As  As14  1  0.683574  0.516659  0.500000  1
  As  As15  1  0.833085  0.316426  0.500000  1
  As  As16  1  0.483341  0.166915  0.500000  1
  As  As17  1  0.358239  0.358239  0.000000  1
  As  As18  1  0.641761  0.000000  0.000000  1
  As  As19  1  0.000000  0.641761  0.000000  1
  Pd  Pd20  1  0.722073  0.722073  0.500000  1
  Pd  Pd21  1  0.277927  0.000000  0.500000  1
  Pd  Pd22  1  0.000000  0.277927  0.500000  1
  Pd  Pd23  1  0.181557  0.372394  0.000000  1
  Pd  Pd24  1  0.627606  0.809162  0.000000  1
  Pd  Pd25  1  0.190838  0.818443  0.000000  1
  Pd  Pd26  1  0.809162  0.627606  0.000000  1
  Pd  Pd27  1  0.818443  0.190838  0.000000  1
  Pd  Pd28  1  0.372394  0.181557  0.000000  1
  Pd  Pd29  1  0.356876  0.485323  0.500000  1
  Pd  Pd30  1  0.514677  0.871553  0.500000  1
  Pd  Pd31  1  0.128447  0.643124  0.500000  1
  Pd  Pd32  1  0.871553  0.514677  0.500000  1
  Pd  Pd33  1  0.643124  0.128447  0.500000  1
  Pd  Pd34  1  0.485323  0.356876  0.500000  1
  Pd  Pd35  1  0.000000  0.000000  0.000000  1
