# generated using pymatgen
data_Tm12Fe4AgBi
_symmetry_space_group_name_H-M   'P 1'
_cell_length_a   8.27936813
_cell_length_b   8.27936787
_cell_length_c   8.27936755
_cell_angle_alpha   110.51956619
_cell_angle_beta   111.31479301
_cell_angle_gamma   106.61749606
_symmetry_Int_Tables_number   1
_chemical_formula_structural   Tm12Fe4AgBi
_chemical_formula_sum   'Tm12 Fe4 Ag1 Bi1'
_cell_volume   436.05764677
_cell_formula_units_Z   1
loop_
 _symmetry_equiv_pos_site_id
 _symmetry_equiv_pos_as_xyz
  1  'x, y, z'
loop_
 _atom_site_type_symbol
 _atom_site_label
 _atom_site_symmetry_multiplicity
 _atom_site_fract_x
 _atom_site_fract_y
 _atom_site_fract_z
 _atom_site_occupancy
  Tm  Tm0  1  0.290346  0.187104  0.477451  1
  Tm  Tm1  1  0.709654  0.812896  0.522549  1
  Tm  Tm2  1  0.290346  0.812896  0.103241  1
  Tm  Tm3  1  0.709654  0.187104  0.896759  1
  Tm  Tm4  1  0.613344  0.310065  0.303279  1
  Tm  Tm5  1  0.386656  0.689935  0.696721  1
  Tm  Tm6  1  0.006785  0.310065  0.696721  1
  Tm  Tm7  1  0.993215  0.689935  0.303279  1
  Tm  Tm8  1  0.217514  0.429903  0.212392  1
  Tm  Tm9  1  0.782486  0.570097  0.787608  1
  Tm  Tm10  1  0.217514  0.005122  0.787608  1
  Tm  Tm11  1  0.782486  0.994878  0.212392  1
  Fe  Fe12  1  0.000000  0.385612  0.385612  1
  Fe  Fe13  1  0.000000  0.614388  0.614388  1
  Fe  Fe14  1  0.391853  0.891853  0.500000  1
  Fe  Fe15  1  0.608147  0.108147  0.500000  1
  Ag  Ag16  1  0.000000  0.000000  0.000000  1
  Bi  Bi17  1  0.500000  0.500000  0.000000  1
