# generated using pymatgen
data_Y8In3Pd
_symmetry_space_group_name_H-M   'P 1'
_cell_length_a   10.56655800
_cell_length_b   10.56656686
_cell_length_c   6.98408500
_cell_angle_alpha   90.00000000
_cell_angle_beta   90.00000000
_cell_angle_gamma   120.00002527
_symmetry_Int_Tables_number   1
_chemical_formula_structural   Y8In3Pd
_chemical_formula_sum   'Y16 In6 Pd2'
_cell_volume   675.31669129
_cell_formula_units_Z   2
loop_
 _symmetry_equiv_pos_site_id
 _symmetry_equiv_pos_as_xyz
  1  'x, y, z'
loop_
 _atom_site_type_symbol
 _atom_site_label
 _atom_site_symmetry_multiplicity
 _atom_site_fract_x
 _atom_site_fract_y
 _atom_site_fract_z
 _atom_site_occupancy
  Y  Y0  1  0.470118  0.529883  0.476479  1
  Y  Y1  1  0.059765  0.529883  0.476479  1
  Y  Y2  1  0.470118  0.940235  0.476479  1
  Y  Y3  1  0.529882  0.470117  0.976479  1
  Y  Y4  1  0.940235  0.470117  0.976479  1
  Y  Y5  1  0.529882  0.059765  0.976479  1
  Y  Y6  1  0.825799  0.174201  0.271167  1
  Y  Y7  1  0.348402  0.174201  0.271166  1
  Y  Y8  1  0.825799  0.651597  0.271167  1
  Y  Y9  1  0.174201  0.825799  0.771167  1
  Y  Y10  1  0.651598  0.825799  0.771166  1
  Y  Y11  1  0.174201  0.348403  0.771167  1
  Y  Y12  1  0.333333  0.666667  0.106588  1
  Y  Y13  1  0.666667  0.333333  0.606588  1
  Y  Y14  1  0.000000  0.000000  0.500254  1
  Y  Y15  1  0.000000  0.000000  0.000254  1
  In  In16  1  0.163124  0.836876  0.237967  1
  In  In17  1  0.673752  0.836876  0.237967  1
  In  In18  1  0.163124  0.326248  0.237967  1
  In  In19  1  0.836876  0.163124  0.737967  1
  In  In20  1  0.326248  0.163124  0.737967  1
  In  In21  1  0.836876  0.673752  0.737967  1
  Pd  Pd22  1  0.333334  0.666667  0.708598  1
  Pd  Pd23  1  0.666666  0.333333  0.208598  1
