# generated using pymatgen
data_Sr8Cd15SiAu12
_symmetry_space_group_name_H-M   'P 1'
_cell_length_a   15.18311300
_cell_length_b   15.18311449
_cell_length_c   4.57671800
_cell_angle_alpha   90.00000000
_cell_angle_beta   90.00000000
_cell_angle_gamma   119.99999893
_symmetry_Int_Tables_number   1
_chemical_formula_structural   Sr8Cd15SiAu12
_chemical_formula_sum   'Sr8 Cd15 Si1 Au12'
_cell_volume   913.70600939
_cell_formula_units_Z   1
loop_
 _symmetry_equiv_pos_site_id
 _symmetry_equiv_pos_as_xyz
  1  'x, y, z'
loop_
 _atom_site_type_symbol
 _atom_site_label
 _atom_site_symmetry_multiplicity
 _atom_site_fract_x
 _atom_site_fract_y
 _atom_site_fract_z
 _atom_site_occupancy
  Sr  Sr0  1  0.450224  0.000000  0.000000  1
  Sr  Sr1  1  0.000000  0.450224  0.000000  1
  Sr  Sr2  1  0.549776  0.549776  0.000000  1
  Sr  Sr3  1  0.333333  0.666667  0.000000  1
  Sr  Sr4  1  0.666667  0.333333  0.000000  1
  Sr  Sr5  1  0.829440  0.000000  0.500000  1
  Sr  Sr6  1  0.000000  0.829440  0.500000  1
  Sr  Sr7  1  0.170560  0.170560  0.500000  1
  Cd  Cd8  1  0.176690  0.374072  0.000000  1
  Cd  Cd9  1  0.625928  0.802618  0.000000  1
  Cd  Cd10  1  0.374072  0.176690  0.000000  1
  Cd  Cd11  1  0.197382  0.823310  0.000000  1
  Cd  Cd12  1  0.802618  0.625928  0.000000  1
  Cd  Cd13  1  0.823310  0.197382  0.000000  1
  Cd  Cd14  1  0.274220  0.000000  0.500000  1
  Cd  Cd15  1  0.000000  0.274220  0.500000  1
  Cd  Cd16  1  0.725780  0.725780  0.500000  1
  Cd  Cd17  1  0.346155  0.469495  0.500000  1
  Cd  Cd18  1  0.530505  0.876660  0.500000  1
  Cd  Cd19  1  0.469495  0.346155  0.500000  1
  Cd  Cd20  1  0.123340  0.653845  0.500000  1
  Cd  Cd21  1  0.876660  0.530505  0.500000  1
  Cd  Cd22  1  0.653845  0.123340  0.500000  1
  Si  Si23  1  0.000000  0.000000  0.000000  1
  Au  Au24  1  0.169089  0.492471  0.500000  1
  Au  Au25  1  0.507529  0.676618  0.500000  1
  Au  Au26  1  0.492471  0.169089  0.500000  1
  Au  Au27  1  0.323382  0.830911  0.500000  1
  Au  Au28  1  0.676618  0.507529  0.500000  1
  Au  Au29  1  0.830911  0.323382  0.500000  1
  Au  Au30  1  0.160953  0.000000  0.000000  1
  Au  Au31  1  0.000000  0.160953  0.000000  1
  Au  Au32  1  0.839047  0.839047  0.000000  1
  Au  Au33  1  0.656583  0.000000  0.000000  1
  Au  Au34  1  0.000000  0.656583  0.000000  1
  Au  Au35  1  0.343417  0.343417  0.000000  1
