# generated using pymatgen
data_La2TbDy3OsI10
_symmetry_space_group_name_H-M   'P 1'
_cell_length_a   7.89216280
_cell_length_b   9.95491645
_cell_length_c   9.87323084
_cell_angle_alpha   106.93445962
_cell_angle_beta   95.73996873
_cell_angle_gamma   105.82401822
_symmetry_Int_Tables_number   1
_chemical_formula_structural   La2TbDy3OsI10
_chemical_formula_sum   'La2 Tb1 Dy3 Os1 I10'
_cell_volume   700.24168813
_cell_formula_units_Z   1
loop_
 _symmetry_equiv_pos_site_id
 _symmetry_equiv_pos_as_xyz
  1  'x, y, z'
loop_
 _atom_site_type_symbol
 _atom_site_label
 _atom_site_symmetry_multiplicity
 _atom_site_fract_x
 _atom_site_fract_y
 _atom_site_fract_z
 _atom_site_occupancy
  La  La0  1  0.385228  0.957212  0.730011  1
  La  La1  1  0.614743  0.042439  0.269801  1
  Tb  Tb2  1  0.472761  0.290542  0.588771  1
  Dy  Dy3  1  0.527004  0.710680  0.411465  1
  Dy  Dy4  1  0.852804  0.129338  0.667778  1
  Dy  Dy5  1  0.147323  0.870248  0.332184  1
  Os  Os6  1  0.499898  0.999745  0.499910  1
  I  I7  1  0.417919  0.622961  0.673680  1
  I  I8  1  0.582276  0.377886  0.325586  1
  I  I9  1  0.279733  0.264991  0.843706  1
  I  I10  1  0.719489  0.734447  0.157018  1
  I  I11  1  0.853360  0.449549  0.769007  1
  I  I12  1  0.148173  0.550432  0.231435  1
  I  I13  1  0.052708  0.179633  0.413448  1
  I  I14  1  0.228757  0.910057  0.045183  1
  I  I15  1  0.771059  0.089890  0.954865  1
  I  I16  1  0.946765  0.819950  0.586149  1
