# generated using pymatgen
data_TbYb5Si24Os3Ru5
_symmetry_space_group_name_H-M   'P 1'
_cell_length_a   10.15022655
_cell_length_b   10.15257420
_cell_length_c   8.15058690
_cell_angle_alpha   89.95001730
_cell_angle_beta   90.07449211
_cell_angle_gamma   132.65969197
_symmetry_Int_Tables_number   1
_chemical_formula_structural   TbYb5Si24Os3Ru5
_chemical_formula_sum   'Tb1 Yb5 Si24 Os3 Ru5'
_cell_volume   617.67358816
_cell_formula_units_Z   1
loop_
 _symmetry_equiv_pos_site_id
 _symmetry_equiv_pos_as_xyz
  1  'x, y, z'
loop_
 _atom_site_type_symbol
 _atom_site_label
 _atom_site_symmetry_multiplicity
 _atom_site_fract_x
 _atom_site_fract_y
 _atom_site_fract_z
 _atom_site_occupancy
  Tb  Tb0  1  0.999790  0.499857  0.750038  1
  Yb  Yb1  1  0.499797  0.499591  0.499724  1
  Yb  Yb2  1  0.999529  0.999841  0.000311  1
  Yb  Yb3  1  0.500953  0.000807  0.749917  1
  Yb  Yb4  1  0.999425  0.499293  0.250177  1
  Yb  Yb5  1  0.498798  0.998857  0.249869  1
  Si  Si6  1  0.793709  0.203552  0.498129  1
  Si  Si7  1  0.296361  0.706498  0.001053  1
  Si  Si8  1  0.206583  0.796197  0.498917  1
  Si  Si9  1  0.704232  0.293620  0.001757  1
  Si  Si10  1  0.332651  0.332988  0.832016  1
  Si  Si11  1  0.665216  0.667184  0.168182  1
  Si  Si12  1  0.167207  0.164966  0.331540  1
  Si  Si13  1  0.833348  0.832621  0.668317  1
  Si  Si14  1  0.123693  0.891181  0.729700  1
  Si  Si15  1  0.109856  0.877002  0.269726  1
  Si  Si16  1  0.609129  0.375945  0.229627  1
  Si  Si17  1  0.623898  0.391494  0.771294  1
  Si  Si18  1  0.875656  0.108813  0.268948  1
  Si  Si19  1  0.891799  0.124459  0.730338  1
  Si  Si20  1  0.391846  0.624403  0.770508  1
  Si  Si21  1  0.376012  0.608851  0.230012  1
  Si  Si22  1  0.347204  0.113528  0.506918  1
  Si  Si23  1  0.887219  0.654610  0.492661  1
  Si  Si24  1  0.387149  0.153580  0.007259  1
  Si  Si25  1  0.845326  0.612484  0.992000  1
  Si  Si26  1  0.653412  0.886653  0.491744  1
  Si  Si27  1  0.113003  0.345531  0.508880  1
  Si  Si28  1  0.613987  0.848167  0.992973  1
  Si  Si29  1  0.153461  0.386859  0.007323  1
  Os  Os30  1  0.671559  0.331418  0.501024  1
  Os  Os31  1  0.169266  0.829545  0.999199  1
  Os  Os32  1  0.329587  0.668977  0.500720  1
  Ru  Ru33  1  0.831038  0.171533  0.999153  1
  Ru  Ru34  1  0.126163  0.125648  0.624613  1
  Ru  Ru35  1  0.873285  0.873612  0.375394  1
  Ru  Ru36  1  0.373266  0.373252  0.124448  1
  Ru  Ru37  1  0.625584  0.626583  0.875591  1
