# generated using pymatgen
data_Hf2ZrSc(MnP)4
_symmetry_space_group_name_H-M   'P 1'
_cell_length_a   3.60836100
_cell_length_b   6.41638709
_cell_length_c   7.48409717
_cell_angle_alpha   89.86761324
_cell_angle_beta   90.00000000
_cell_angle_gamma   90.00000000
_symmetry_Int_Tables_number   1
_chemical_formula_structural   Hf2ZrSc(MnP)4
_chemical_formula_sum   'Hf2 Zr1 Sc1 Mn4 P4'
_cell_volume   173.27615205
_cell_formula_units_Z   1
loop_
 _symmetry_equiv_pos_site_id
 _symmetry_equiv_pos_as_xyz
  1  'x, y, z'
loop_
 _atom_site_type_symbol
 _atom_site_label
 _atom_site_symmetry_multiplicity
 _atom_site_fract_x
 _atom_site_fract_y
 _atom_site_fract_z
 _atom_site_occupancy
  Hf  Hf0  1  0.750000  0.968178  0.674752  1
  Hf  Hf1  1  0.250000  0.031312  0.325535  1
  Zr  Zr2  1  0.750000  0.468302  0.825350  1
  Sc  Sc3  1  0.250000  0.532627  0.174796  1
  Mn  Mn4  1  0.250000  0.638161  0.559275  1
  Mn  Mn5  1  0.750000  0.362266  0.440073  1
  Mn  Mn6  1  0.750000  0.866293  0.059841  1
  Mn  Mn7  1  0.250000  0.133252  0.940465  1
  P  P8  1  0.250000  0.768483  0.873498  1
  P  P9  1  0.750000  0.233282  0.128786  1
  P  P10  1  0.750000  0.731555  0.371023  1
  P  P11  1  0.250000  0.266289  0.626607  1
