# generated using pymatgen
data_Ce3Er(Si5Os3)2
_symmetry_space_group_name_H-M   'P 1'
_cell_length_a   8.17446266
_cell_length_b   8.16944130
_cell_length_c   5.82928956
_cell_angle_alpha   70.58788024
_cell_angle_beta   70.43285321
_cell_angle_gamma   93.68476160
_symmetry_Int_Tables_number   1
_chemical_formula_structural   Ce3Er(Si5Os3)2
_chemical_formula_sum   'Ce3 Er1 Si10 Os6'
_cell_volume   339.13217944
_cell_formula_units_Z   1
loop_
 _symmetry_equiv_pos_site_id
 _symmetry_equiv_pos_as_xyz
  1  'x, y, z'
loop_
 _atom_site_type_symbol
 _atom_site_label
 _atom_site_symmetry_multiplicity
 _atom_site_fract_x
 _atom_site_fract_y
 _atom_site_fract_z
 _atom_site_occupancy
  Ce  Ce0  1  0.867376  0.600909  0.757940  1
  Ce  Ce1  1  0.399356  0.132773  0.742441  1
  Ce  Ce2  1  0.132204  0.399234  0.241835  1
  Er  Er3  1  0.600826  0.867211  0.258117  1
  Si  Si4  1  0.062397  0.262657  0.834555  1
  Si  Si5  1  0.738077  0.936958  0.664460  1
  Si  Si6  1  0.934361  0.739568  0.165356  1
  Si  Si7  1  0.260967  0.060772  0.335913  1
  Si  Si8  1  0.205989  0.791876  0.755064  1
  Si  Si9  1  0.791365  0.204892  0.248205  1
  Si  Si10  1  0.513797  0.487823  0.750642  1
  Si  Si11  1  0.488824  0.516233  0.246559  1
  Si  Si12  1  0.773915  0.224223  0.753584  1
  Si  Si13  1  0.228060  0.773333  0.247926  1
  Os  Os14  1  0.256935  0.544374  0.633181  1
  Os  Os15  1  0.458839  0.745483  0.864664  1
  Os  Os16  1  0.745149  0.455882  0.367060  1
  Os  Os17  1  0.540642  0.254279  0.135233  1
  Os  Os18  1  0.002992  0.998065  0.748945  1
  Os  Os19  1  0.997928  0.003458  0.248319  1
