# generated using pymatgen
data_TmB3W
_symmetry_space_group_name_H-M   'P 1'
_cell_length_a   5.41177864
_cell_length_b   3.14972600
_cell_length_c   6.77987096
_cell_angle_alpha   90.00000000
_cell_angle_beta   101.68537732
_cell_angle_gamma   90.00000000
_symmetry_Int_Tables_number   1
_chemical_formula_structural   TmB3W
_chemical_formula_sum   'Tm2 B6 W2'
_cell_volume   113.17192120
_cell_formula_units_Z   2
loop_
 _symmetry_equiv_pos_site_id
 _symmetry_equiv_pos_as_xyz
  1  'x, y, z'
loop_
 _atom_site_type_symbol
 _atom_site_label
 _atom_site_symmetry_multiplicity
 _atom_site_fract_x
 _atom_site_fract_y
 _atom_site_fract_z
 _atom_site_occupancy
  Tm  Tm0  1  0.176716  0.250000  0.208785  1
  Tm  Tm1  1  0.823284  0.749999  0.791214  1
  B  B2  1  0.584604  0.250000  0.023712  1
  B  B3  1  0.083348  0.749999  0.492253  1
  B  B4  1  0.412623  0.749999  0.494580  1
  B  B5  1  0.587378  0.250000  0.505421  1
  B  B6  1  0.916652  0.250000  0.507747  1
  B  B7  1  0.415396  0.749999  0.976288  1
  W  W8  1  0.689272  0.749999  0.278458  1
  W  W9  1  0.310728  0.250000  0.721541  1
