# generated using pymatgen
data_PrSm7Sc12Si15Ru
_symmetry_space_group_name_H-M   'P 1'
_cell_length_a   7.18053822
_cell_length_b   7.53604629
_cell_length_c   14.11934856
_cell_angle_alpha   90.04835258
_cell_angle_beta   90.02330900
_cell_angle_gamma   90.18415697
_symmetry_Int_Tables_number   1
_chemical_formula_structural   PrSm7Sc12Si15Ru
_chemical_formula_sum   'Pr1 Sm7 Sc12 Si15 Ru1'
_cell_volume   764.03416807
_cell_formula_units_Z   1
loop_
 _symmetry_equiv_pos_site_id
 _symmetry_equiv_pos_as_xyz
  1  'x, y, z'
loop_
 _atom_site_type_symbol
 _atom_site_label
 _atom_site_symmetry_multiplicity
 _atom_site_fract_x
 _atom_site_fract_y
 _atom_site_fract_z
 _atom_site_occupancy
  Pr  Pr0  1  0.010997  0.176159  0.095720  1
  Sm  Sm1  1  0.990599  0.827291  0.902547  1
  Sm  Sm2  1  0.488763  0.674684  0.903247  1
  Sm  Sm3  1  0.990537  0.827351  0.597153  1
  Sm  Sm4  1  0.511081  0.325245  0.096303  1
  Sm  Sm5  1  0.011540  0.177733  0.403269  1
  Sm  Sm6  1  0.511399  0.325005  0.403908  1
  Sm  Sm7  1  0.488368  0.674655  0.596489  1
  Sc  Sc8  1  0.155491  0.495628  0.750028  1
  Sc  Sc9  1  0.839161  0.497611  0.250240  1
  Sc  Sc10  1  0.339287  0.003412  0.250219  1
  Sc  Sc11  1  0.669087  0.001489  0.750042  1
  Sc  Sc12  1  0.317104  0.171428  0.628124  1
  Sc  Sc13  1  0.671746  0.826133  0.374086  1
  Sc  Sc14  1  0.171826  0.677207  0.374248  1
  Sc  Sc15  1  0.671798  0.825925  0.126324  1
  Sc  Sc16  1  0.836816  0.318967  0.627959  1
  Sc  Sc17  1  0.317752  0.171377  0.871575  1
  Sc  Sc18  1  0.836271  0.319653  0.871878  1
  Sc  Sc19  1  0.171780  0.676953  0.126139  1
  Si  Si20  1  0.967902  0.878142  0.250688  1
  Si  Si21  1  0.468882  0.618711  0.250155  1
  Si  Si22  1  0.529397  0.384517  0.749888  1
  Si  Si23  1  0.287590  0.873209  0.749864  1
  Si  Si24  1  0.710700  0.124260  0.251015  1
  Si  Si25  1  0.214309  0.377407  0.250909  1
  Si  Si26  1  0.780548  0.622660  0.749926  1
  Si  Si27  1  0.156204  0.467720  0.537648  1
  Si  Si28  1  0.847627  0.537146  0.461268  1
  Si  Si29  1  0.347475  0.964686  0.460155  1
  Si  Si30  1  0.846874  0.539127  0.038236  1
  Si  Si31  1  0.653002  0.035156  0.538905  1
  Si  Si32  1  0.156667  0.469662  0.961630  1
  Si  Si33  1  0.652311  0.034830  0.960742  1
  Si  Si34  1  0.349755  0.963317  0.039398  1
  Ru  Ru35  1  0.029355  0.115541  0.750076  1
