# generated using pymatgen
data_Ce6LuHfPb10
_symmetry_space_group_name_H-M   'P 1'
_cell_length_a   9.56908400
_cell_length_b   9.56908501
_cell_length_c   6.56168300
_cell_angle_alpha   90.00000000
_cell_angle_beta   90.00000000
_cell_angle_gamma   119.99999651
_symmetry_Int_Tables_number   1
_chemical_formula_structural   Ce6LuHfPb10
_chemical_formula_sum   'Ce6 Lu1 Hf1 Pb10'
_cell_volume   520.33935240
_cell_formula_units_Z   1
loop_
 _symmetry_equiv_pos_site_id
 _symmetry_equiv_pos_as_xyz
  1  'x, y, z'
loop_
 _atom_site_type_symbol
 _atom_site_label
 _atom_site_symmetry_multiplicity
 _atom_site_fract_x
 _atom_site_fract_y
 _atom_site_fract_z
 _atom_site_occupancy
  Ce  Ce0  1  0.615909  0.000000  0.248976  1
  Ce  Ce1  1  0.384091  0.000000  0.751024  1
  Ce  Ce2  1  0.000000  0.615909  0.248976  1
  Ce  Ce3  1  0.000000  0.384091  0.751024  1
  Ce  Ce4  1  0.384091  0.384091  0.248976  1
  Ce  Ce5  1  0.615909  0.615909  0.751024  1
  Lu  Lu6  1  0.000000  0.000000  0.000000  1
  Hf  Hf7  1  0.000000  0.000000  0.500000  1
  Pb  Pb8  1  0.274030  0.000000  0.256041  1
  Pb  Pb9  1  0.725970  0.000000  0.743959  1
  Pb  Pb10  1  0.000000  0.274030  0.256041  1
  Pb  Pb11  1  0.000000  0.725970  0.743959  1
  Pb  Pb12  1  0.725970  0.725970  0.256041  1
  Pb  Pb13  1  0.274030  0.274030  0.743959  1
  Pb  Pb14  1  0.333333  0.666667  0.000000  1
  Pb  Pb15  1  0.666667  0.333333  0.000000  1
  Pb  Pb16  1  0.666667  0.333333  0.500000  1
  Pb  Pb17  1  0.333333  0.666667  0.500000  1
