# generated using pymatgen
data_Dy2Zn5Sn
_symmetry_space_group_name_H-M   'P 1'
_cell_length_a   8.37412922
_cell_length_b   8.37412904
_cell_length_c   9.01397500
_cell_angle_alpha   90.00000000
_cell_angle_beta   90.00000000
_cell_angle_gamma   149.74832534
_symmetry_Int_Tables_number   1
_chemical_formula_structural   Dy2Zn5Sn
_chemical_formula_sum   'Dy4 Zn10 Sn2'
_cell_volume   318.45872464
_cell_formula_units_Z   2
loop_
 _symmetry_equiv_pos_site_id
 _symmetry_equiv_pos_as_xyz
  1  'x, y, z'
loop_
 _atom_site_type_symbol
 _atom_site_label
 _atom_site_symmetry_multiplicity
 _atom_site_fract_x
 _atom_site_fract_y
 _atom_site_fract_z
 _atom_site_occupancy
  Dy  Dy0  1  0.202805  0.797195  0.250000  1
  Dy  Dy1  1  0.797195  0.202805  0.750000  1
  Dy  Dy2  1  0.000000  0.000000  0.500000  1
  Dy  Dy3  1  0.000000  0.000000  0.000000  1
  Zn  Zn4  1  0.813353  0.186647  0.390763  1
  Zn  Zn5  1  0.186647  0.813353  0.609237  1
  Zn  Zn6  1  0.813353  0.186647  0.109237  1
  Zn  Zn7  1  0.186647  0.813353  0.890763  1
  Zn  Zn8  1  0.656125  0.343875  0.481523  1
  Zn  Zn9  1  0.343875  0.656125  0.518477  1
  Zn  Zn10  1  0.656125  0.343875  0.018477  1
  Zn  Zn11  1  0.343875  0.656125  0.981523  1
  Zn  Zn12  1  0.392250  0.607750  0.250000  1
  Zn  Zn13  1  0.607750  0.392250  0.750000  1
  Sn  Sn14  1  0.553801  0.446199  0.250000  1
  Sn  Sn15  1  0.446199  0.553801  0.750000  1
