# generated using pymatgen
data_SrNd7(Si3Pt)4
_symmetry_space_group_name_H-M   'P 1'
_cell_length_a   8.23574992
_cell_length_b   8.23575006
_cell_length_c   8.64094200
_cell_angle_alpha   90.00000000
_cell_angle_beta   90.00000000
_cell_angle_gamma   119.92172876
_symmetry_Int_Tables_number   1
_chemical_formula_structural   SrNd7(Si3Pt)4
_chemical_formula_sum   'Sr1 Nd7 Si12 Pt4'
_cell_volume   507.97229269
_cell_formula_units_Z   1
loop_
 _symmetry_equiv_pos_site_id
 _symmetry_equiv_pos_as_xyz
  1  'x, y, z'
loop_
 _atom_site_type_symbol
 _atom_site_label
 _atom_site_symmetry_multiplicity
 _atom_site_fract_x
 _atom_site_fract_y
 _atom_site_fract_z
 _atom_site_occupancy
  Sr  Sr0  1  0.499765  0.500235  0.750000  1
  Nd  Nd1  1  0.500188  0.499812  0.250000  1
  Nd  Nd2  1  0.000425  0.500197  0.750000  1
  Nd  Nd3  1  0.999601  0.499773  0.250000  1
  Nd  Nd4  1  0.499803  0.999575  0.750000  1
  Nd  Nd5  1  0.500227  0.000399  0.250000  1
  Nd  Nd6  1  0.000019  0.999981  0.750000  1
  Nd  Nd7  1  0.999994  0.000006  0.250000  1
  Si  Si8  1  0.834493  0.165507  0.999550  1
  Si  Si9  1  0.165514  0.834486  0.001138  1
  Si  Si10  1  0.331657  0.165065  0.001558  1
  Si  Si11  1  0.165514  0.834486  0.498862  1
  Si  Si12  1  0.668315  0.834905  0.003094  1
  Si  Si13  1  0.834493  0.165507  0.500450  1
  Si  Si14  1  0.834935  0.668343  0.001558  1
  Si  Si15  1  0.668315  0.834905  0.496906  1
  Si  Si16  1  0.165095  0.331685  0.003094  1
  Si  Si17  1  0.331657  0.165065  0.498442  1
  Si  Si18  1  0.165095  0.331685  0.496906  1
  Si  Si19  1  0.834935  0.668343  0.498442  1
  Pt  Pt20  1  0.667540  0.332460  0.002942  1
  Pt  Pt21  1  0.332440  0.667560  0.003151  1
  Pt  Pt22  1  0.332440  0.667560  0.496849  1
  Pt  Pt23  1  0.667540  0.332460  0.497058  1
