# generated using pymatgen
data_Tb5Y5(Tl2Pt)4
_symmetry_space_group_name_H-M   'P 1'
_cell_length_a   3.64386700
_cell_length_b   8.18683926
_cell_length_c   18.31499000
_cell_angle_alpha   89.96821271
_cell_angle_beta   90.00000000
_cell_angle_gamma   90.00000000
_symmetry_Int_Tables_number   1
_chemical_formula_structural   Tb5Y5(Tl2Pt)4
_chemical_formula_sum   'Tb5 Y5 Tl8 Pt4'
_cell_volume   546.36818137
_cell_formula_units_Z   1
loop_
 _symmetry_equiv_pos_site_id
 _symmetry_equiv_pos_as_xyz
  1  'x, y, z'
loop_
 _atom_site_type_symbol
 _atom_site_label
 _atom_site_symmetry_multiplicity
 _atom_site_fract_x
 _atom_site_fract_y
 _atom_site_fract_z
 _atom_site_occupancy
  Tb  Tb0  1  0.000000  0.616250  0.085585  1
  Tb  Tb1  1  0.000000  0.242926  0.220312  1
  Tb  Tb2  1  0.000000  0.756889  0.779591  1
  Tb  Tb3  1  0.000000  0.256983  0.720435  1
  Tb  Tb4  1  0.000000  0.743428  0.279690  1
  Y  Y5  1  0.000000  0.116535  0.414736  1
  Y  Y6  1  0.000000  0.883493  0.585226  1
  Y  Y7  1  0.000000  0.383618  0.914908  1
  Y  Y8  1  0.000000  0.999202  0.000101  1
  Y  Y9  1  0.000000  0.500120  0.499995  1
  Tl  Tl10  1  0.500000  0.421916  0.352508  1
  Tl  Tl11  1  0.500000  0.578132  0.647471  1
  Tl  Tl12  1  0.500000  0.078062  0.852601  1
  Tl  Tl13  1  0.500000  0.922473  0.147582  1
  Tl  Tl14  1  0.500000  0.292100  0.065593  1
  Tl  Tl15  1  0.500000  0.707503  0.933981  1
  Tl  Tl16  1  0.500000  0.207402  0.565809  1
  Tl  Tl17  1  0.500000  0.792693  0.434161  1
  Pt  Pt18  1  0.500000  0.026120  0.303320  1
  Pt  Pt19  1  0.500000  0.974179  0.696667  1
  Pt  Pt20  1  0.500000  0.473908  0.803306  1
  Pt  Pt21  1  0.500000  0.526065  0.196424  1
