# generated using pymatgen
data_Ho3Er3(RuI3)2
_symmetry_space_group_name_H-M   'P 1'
_cell_length_a   4.20252700
_cell_length_b   8.85463223
_cell_length_c   12.29749307
_cell_angle_alpha   86.59699096
_cell_angle_beta   90.00000000
_cell_angle_gamma   90.00000000
_symmetry_Int_Tables_number   1
_chemical_formula_structural   Ho3Er3(RuI3)2
_chemical_formula_sum   'Ho3 Er3 Ru2 I6'
_cell_volume   456.80533176
_cell_formula_units_Z   1
loop_
 _symmetry_equiv_pos_site_id
 _symmetry_equiv_pos_as_xyz
  1  'x, y, z'
loop_
 _atom_site_type_symbol
 _atom_site_label
 _atom_site_symmetry_multiplicity
 _atom_site_fract_x
 _atom_site_fract_y
 _atom_site_fract_z
 _atom_site_occupancy
  Ho  Ho0  1  0.250000  0.904594  0.313690  1
  Ho  Ho1  1  0.250000  0.255324  0.897989  1
  Ho  Ho2  1  0.750000  0.744524  0.101763  1
  Er  Er3  1  0.750000  0.134799  0.126804  1
  Er  Er4  1  0.250000  0.865372  0.873050  1
  Er  Er5  1  0.750000  0.095456  0.686931  1
  Ru  Ru6  1  0.750000  0.049343  0.908433  1
  Ru  Ru7  1  0.250000  0.950778  0.091221  1
  I  I8  1  0.250000  0.429335  0.133113  1
  I  I9  1  0.750000  0.570623  0.866886  1
  I  I10  1  0.250000  0.349066  0.638363  1
  I  I11  1  0.750000  0.650325  0.361627  1
  I  I12  1  0.750000  0.143918  0.393848  1
  I  I13  1  0.250000  0.856544  0.606280  1
