# generated using pymatgen
data_Tb6Dy10MgCd3Pt4
_symmetry_space_group_name_H-M   'P 1'
_cell_length_a   9.71308591
_cell_length_b   9.71308613
_cell_length_c   9.71308565
_cell_angle_alpha   60.05710802
_cell_angle_beta   60.05711403
_cell_angle_gamma   60.05711228
_symmetry_Int_Tables_number   1
_chemical_formula_structural   Tb6Dy10MgCd3Pt4
_chemical_formula_sum   'Tb6 Dy10 Mg1 Cd3 Pt4'
_cell_volume   648.81140299
_cell_formula_units_Z   1
loop_
 _symmetry_equiv_pos_site_id
 _symmetry_equiv_pos_as_xyz
  1  'x, y, z'
loop_
 _atom_site_type_symbol
 _atom_site_label
 _atom_site_symmetry_multiplicity
 _atom_site_fract_x
 _atom_site_fract_y
 _atom_site_fract_z
 _atom_site_occupancy
  Tb  Tb0  1  0.936138  0.566001  0.566001  1
  Tb  Tb1  1  0.563344  0.936577  0.936577  1
  Tb  Tb2  1  0.566001  0.936138  0.566001  1
  Tb  Tb3  1  0.936577  0.563344  0.936577  1
  Tb  Tb4  1  0.566001  0.566001  0.936138  1
  Tb  Tb5  1  0.936577  0.936577  0.563344  1
  Dy  Dy6  1  0.349734  0.349734  0.349734  1
  Dy  Dy7  1  0.352272  0.352272  0.945294  1
  Dy  Dy8  1  0.352272  0.945294  0.352272  1
  Dy  Dy9  1  0.945294  0.352272  0.352272  1
  Dy  Dy10  1  0.809923  0.191036  0.191036  1
  Dy  Dy11  1  0.188340  0.811754  0.811754  1
  Dy  Dy12  1  0.191036  0.809923  0.191036  1
  Dy  Dy13  1  0.811754  0.188340  0.811754  1
  Dy  Dy14  1  0.191036  0.191036  0.809923  1
  Dy  Dy15  1  0.811754  0.811754  0.188340  1
  Mg  Mg16  1  0.576320  0.576320  0.576320  1
  Cd  Cd17  1  0.581353  0.581353  0.254035  1
  Cd  Cd18  1  0.581353  0.254035  0.581353  1
  Cd  Cd19  1  0.254035  0.581353  0.581353  1
  Pt  Pt20  1  0.143778  0.143778  0.143778  1
  Pt  Pt21  1  0.141798  0.141798  0.571508  1
  Pt  Pt22  1  0.141798  0.571508  0.141798  1
  Pt  Pt23  1  0.571508  0.141798  0.141798  1
