# generated using pymatgen
data_NdEr5Zr2(Co4P3)4
_symmetry_space_group_name_H-M   'P 1'
_cell_length_a   3.72433000
_cell_length_b   10.70172500
_cell_length_c   12.40666500
_cell_angle_alpha   90.00000000
_cell_angle_beta   90.00000000
_cell_angle_gamma   90.00000000
_symmetry_Int_Tables_number   1
_chemical_formula_structural   NdEr5Zr2(Co4P3)4
_chemical_formula_sum   'Nd1 Er5 Zr2 Co16 P12'
_cell_volume   494.48941309
_cell_formula_units_Z   1
loop_
 _symmetry_equiv_pos_site_id
 _symmetry_equiv_pos_as_xyz
  1  'x, y, z'
loop_
 _atom_site_type_symbol
 _atom_site_label
 _atom_site_symmetry_multiplicity
 _atom_site_fract_x
 _atom_site_fract_y
 _atom_site_fract_z
 _atom_site_occupancy
  Nd  Nd0  1  0.750000  0.250000  0.469136  1
  Er  Er1  1  0.250000  0.750000  0.529508  1
  Er  Er2  1  0.250000  0.927623  0.795286  1
  Er  Er3  1  0.250000  0.572377  0.795286  1
  Er  Er4  1  0.750000  0.071667  0.203789  1
  Er  Er5  1  0.750000  0.428333  0.203789  1
  Zr  Zr6  1  0.250000  0.250000  0.843858  1
  Zr  Zr7  1  0.750000  0.750000  0.158381  1
  Co  Co8  1  0.250000  0.250000  0.292910  1
  Co  Co9  1  0.750000  0.750000  0.703996  1
  Co  Co10  1  0.750000  0.250000  0.014040  1
  Co  Co11  1  0.250000  0.750000  0.985804  1
  Co  Co12  1  0.250000  0.418755  0.007114  1
  Co  Co13  1  0.250000  0.081245  0.007114  1
  Co  Co14  1  0.750000  0.582083  0.992943  1
  Co  Co15  1  0.750000  0.917917  0.992943  1
  Co  Co16  1  0.250000  0.458043  0.567536  1
  Co  Co17  1  0.250000  0.041957  0.567536  1
  Co  Co18  1  0.750000  0.547851  0.433304  1
  Co  Co19  1  0.750000  0.952149  0.433304  1
  Co  Co20  1  0.250000  0.871882  0.297675  1
  Co  Co21  1  0.250000  0.628118  0.297675  1
  Co  Co22  1  0.750000  0.126137  0.702985  1
  Co  Co23  1  0.750000  0.373863  0.702985  1
  P  P24  1  0.250000  0.250000  0.115593  1
  P  P25  1  0.750000  0.750000  0.883359  1
  P  P26  1  0.250000  0.250000  0.640090  1
  P  P27  1  0.750000  0.750000  0.364087  1
  P  P28  1  0.250000  0.443475  0.382801  1
  P  P29  1  0.250000  0.056525  0.382801  1
  P  P30  1  0.750000  0.561658  0.616219  1
  P  P31  1  0.750000  0.938342  0.616219  1
  P  P32  1  0.250000  0.911982  0.106688  1
  P  P33  1  0.250000  0.588018  0.106688  1
  P  P34  1  0.750000  0.087045  0.893279  1
  P  P35  1  0.750000  0.412955  0.893279  1
