# generated using pymatgen
data_Nd2Y3Er3(Si3Rh)4
_symmetry_space_group_name_H-M   'P 1'
_cell_length_a   8.18095700
_cell_length_b   8.18095711
_cell_length_c   8.02726500
_cell_angle_alpha   90.00000000
_cell_angle_beta   90.00000000
_cell_angle_gamma   119.99999553
_symmetry_Int_Tables_number   1
_chemical_formula_structural   Nd2Y3Er3(Si3Rh)4
_chemical_formula_sum   'Nd2 Y3 Er3 Si12 Rh4'
_cell_volume   465.27152821
_cell_formula_units_Z   1
loop_
 _symmetry_equiv_pos_site_id
 _symmetry_equiv_pos_as_xyz
  1  'x, y, z'
loop_
 _atom_site_type_symbol
 _atom_site_label
 _atom_site_symmetry_multiplicity
 _atom_site_fract_x
 _atom_site_fract_y
 _atom_site_fract_z
 _atom_site_occupancy
  Nd  Nd0  1  0.000000  0.000000  0.250000  1
  Nd  Nd1  1  0.000000  0.000000  0.750000  1
  Y  Y2  1  0.491730  0.508270  0.250000  1
  Y  Y3  1  0.491730  0.983459  0.250000  1
  Y  Y4  1  0.016541  0.508270  0.250000  1
  Er  Er5  1  0.508045  0.491955  0.750000  1
  Er  Er6  1  0.983910  0.491955  0.750000  1
  Er  Er7  1  0.508045  0.016090  0.750000  1
  Si  Si8  1  0.831552  0.168448  0.503428  1
  Si  Si9  1  0.831552  0.663105  0.503428  1
  Si  Si10  1  0.336895  0.168448  0.503428  1
  Si  Si11  1  0.831552  0.168448  0.996572  1
  Si  Si12  1  0.831552  0.663105  0.996572  1
  Si  Si13  1  0.336895  0.168448  0.996572  1
  Si  Si14  1  0.168572  0.831428  0.000779  1
  Si  Si15  1  0.662858  0.831428  0.000779  1
  Si  Si16  1  0.168572  0.337142  0.000779  1
  Si  Si17  1  0.168572  0.831428  0.499221  1
  Si  Si18  1  0.662858  0.831428  0.499221  1
  Si  Si19  1  0.168572  0.337142  0.499221  1
  Rh  Rh20  1  0.666667  0.333333  0.470908  1
  Rh  Rh21  1  0.666667  0.333333  0.029092  1
  Rh  Rh22  1  0.333333  0.666667  0.960140  1
  Rh  Rh23  1  0.333333  0.666667  0.539860  1
