# generated using pymatgen
data_Ho8Er12CoBi8Os3
_symmetry_space_group_name_H-M   'P 1'
_cell_length_a   7.90953619
_cell_length_b   8.97994700
_cell_length_c   12.42400695
_cell_angle_alpha   90.00000000
_cell_angle_beta   89.70770254
_cell_angle_gamma   90.00000000
_symmetry_Int_Tables_number   1
_chemical_formula_structural   Ho8Er12CoBi8Os3
_chemical_formula_sum   'Ho8 Er12 Co1 Bi8 Os3'
_cell_volume   882.43113971
_cell_formula_units_Z   1
loop_
 _symmetry_equiv_pos_site_id
 _symmetry_equiv_pos_as_xyz
  1  'x, y, z'
loop_
 _atom_site_type_symbol
 _atom_site_label
 _atom_site_symmetry_multiplicity
 _atom_site_fract_x
 _atom_site_fract_y
 _atom_site_fract_z
 _atom_site_occupancy
  Ho  Ho0  1  0.879302  0.750000  0.805814  1
  Ho  Ho1  1  0.120048  0.250000  0.193739  1
  Ho  Ho2  1  0.378543  0.250000  0.692969  1
  Ho  Ho3  1  0.616432  0.750000  0.312735  1
  Ho  Ho4  1  0.056490  0.750000  0.496911  1
  Ho  Ho5  1  0.944570  0.250000  0.503147  1
  Ho  Ho6  1  0.558286  0.250000  0.003613  1
  Ho  Ho7  1  0.442075  0.750000  0.995775  1
  Er  Er8  1  0.344507  0.750000  0.701485  1
  Er  Er9  1  0.658147  0.250000  0.292124  1
  Er  Er10  1  0.842283  0.250000  0.791067  1
  Er  Er11  1  0.156287  0.750000  0.206869  1
  Er  Er12  1  0.673991  0.542495  0.563648  1
  Er  Er13  1  0.326393  0.460608  0.437065  1
  Er  Er14  1  0.173832  0.457361  0.936082  1
  Er  Er15  1  0.326393  0.039392  0.437065  1
  Er  Er16  1  0.825341  0.543542  0.064205  1
  Er  Er17  1  0.673991  0.957505  0.563648  1
  Er  Er18  1  0.825341  0.956458  0.064205  1
  Er  Er19  1  0.173832  0.042639  0.936082  1
  Co  Co20  1  0.429653  0.750000  0.491585  1
  Bi  Bi21  1  0.569860  0.508754  0.827041  1
  Bi  Bi22  1  0.429945  0.492184  0.173228  1
  Bi  Bi23  1  0.071203  0.491921  0.672119  1
  Bi  Bi24  1  0.429945  0.007816  0.173228  1
  Bi  Bi25  1  0.929666  0.509025  0.328239  1
  Bi  Bi26  1  0.569860  0.991246  0.827041  1
  Bi  Bi27  1  0.929666  0.990975  0.328239  1
  Bi  Bi28  1  0.071203  0.008079  0.672119  1
  Os  Os29  1  0.075136  0.750000  0.989618  1
  Os  Os30  1  0.924157  0.250000  0.009722  1
  Os  Os31  1  0.573622  0.250000  0.509574  1
