# generated using pymatgen
data_Ca2SmUN4
_symmetry_space_group_name_H-M   'P 1'
_cell_length_a   6.95665271
_cell_length_b   9.29961300
_cell_length_c   6.17152915
_cell_angle_alpha   29.02134462
_cell_angle_beta   55.69427731
_cell_angle_gamma   41.57753512
_symmetry_Int_Tables_number   1
_chemical_formula_structural   Ca2SmUN4
_chemical_formula_sum   'Ca2 Sm1 U1 N4'
_cell_volume   123.35748973
_cell_formula_units_Z   1
loop_
 _symmetry_equiv_pos_site_id
 _symmetry_equiv_pos_as_xyz
  1  'x, y, z'
loop_
 _atom_site_type_symbol
 _atom_site_label
 _atom_site_symmetry_multiplicity
 _atom_site_fract_x
 _atom_site_fract_y
 _atom_site_fract_z
 _atom_site_occupancy
  Ca  Ca0  1  0.750000  0.500000  0.000000  1
  Ca  Ca1  1  0.500000  0.000000  0.000000  1
  Sm  Sm2  1  0.250000  0.500000  0.000000  1
  U  U3  1  0.000000  0.000000  0.000000  1
  N  N4  1  0.493942  0.500000  0.512116  1
  N  N5  1  0.208172  0.000000  0.583654  1
  N  N6  1  0.006058  0.500000  0.487884  1
  N  N7  1  0.791828  0.000000  0.416346  1
