# generated using pymatgen
data_PrEr3CdPt
_symmetry_space_group_name_H-M   'P 1'
_cell_length_a   9.70937713
_cell_length_b   9.70794172
_cell_length_c   9.70794211
_cell_angle_alpha   60.00978193
_cell_angle_beta   59.99510457
_cell_angle_gamma   59.99510522
_symmetry_Int_Tables_number   1
_chemical_formula_structural   PrEr3CdPt
_chemical_formula_sum   'Pr4 Er12 Cd4 Pt4'
_cell_volume   647.03930673
_cell_formula_units_Z   4
loop_
 _symmetry_equiv_pos_site_id
 _symmetry_equiv_pos_as_xyz
  1  'x, y, z'
loop_
 _atom_site_type_symbol
 _atom_site_label
 _atom_site_symmetry_multiplicity
 _atom_site_fract_x
 _atom_site_fract_y
 _atom_site_fract_z
 _atom_site_occupancy
  Pr  Pr0  1  0.565187  0.934813  0.565187  1
  Pr  Pr1  1  0.934813  0.565187  0.934813  1
  Pr  Pr2  1  0.565187  0.565187  0.934813  1
  Pr  Pr3  1  0.934813  0.934813  0.565187  1
  Er  Er4  1  0.352729  0.350320  0.350320  1
  Er  Er5  1  0.350320  0.352729  0.946631  1
  Er  Er6  1  0.350320  0.946631  0.352729  1
  Er  Er7  1  0.946631  0.350320  0.350320  1
  Er  Er8  1  0.812223  0.187777  0.187777  1
  Er  Er9  1  0.187777  0.812223  0.812223  1
  Er  Er10  1  0.188179  0.811821  0.188179  1
  Er  Er11  1  0.811821  0.188179  0.811821  1
  Er  Er12  1  0.188179  0.188179  0.811821  1
  Er  Er13  1  0.811821  0.811821  0.188179  1
  Er  Er14  1  0.945297  0.554703  0.554703  1
  Er  Er15  1  0.554703  0.945297  0.945297  1
  Cd  Cd16  1  0.584751  0.577632  0.577632  1
  Cd  Cd17  1  0.577632  0.584751  0.259985  1
  Cd  Cd18  1  0.577632  0.259985  0.584751  1
  Cd  Cd19  1  0.259985  0.577632  0.577632  1
  Pt  Pt20  1  0.146772  0.140973  0.140973  1
  Pt  Pt21  1  0.140973  0.146772  0.571282  1
  Pt  Pt22  1  0.140973  0.571282  0.146772  1
  Pt  Pt23  1  0.571282  0.140973  0.140973  1
