# generated using pymatgen
data_Ti8Cr2Si3Ge3C2
_symmetry_space_group_name_H-M   'P 1'
_cell_length_a   7.46155723
_cell_length_b   7.45214610
_cell_length_c   5.11597428
_cell_angle_alpha   89.98735605
_cell_angle_beta   89.91387960
_cell_angle_gamma   120.16288894
_symmetry_Int_Tables_number   1
_chemical_formula_structural   Ti8Cr2Si3Ge3C2
_chemical_formula_sum   'Ti8 Cr2 Si3 Ge3 C2'
_cell_volume   245.95398762
_cell_formula_units_Z   1
loop_
 _symmetry_equiv_pos_site_id
 _symmetry_equiv_pos_as_xyz
  1  'x, y, z'
loop_
 _atom_site_type_symbol
 _atom_site_label
 _atom_site_symmetry_multiplicity
 _atom_site_fract_x
 _atom_site_fract_y
 _atom_site_fract_z
 _atom_site_occupancy
  Ti  Ti0  1  0.666084  0.338779  0.501568  1
  Ti  Ti1  1  0.333938  0.659355  0.501393  1
  Ti  Ti2  1  0.230728  0.003093  0.251217  1
  Ti  Ti3  1  0.770639  0.000154  0.748870  1
  Ti  Ti4  1  0.002719  0.232542  0.252580  1
  Ti  Ti5  1  0.997035  0.767649  0.747656  1
  Ti  Ti6  1  0.767128  0.767256  0.254548  1
  Ti  Ti7  1  0.231372  0.234220  0.745631  1
  Cr  Cr8  1  0.333352  0.659703  0.996869  1
  Cr  Cr9  1  0.666747  0.337650  0.997026  1
  Si  Si10  1  0.998329  0.406741  0.767679  1
  Si  Si11  1  0.410008  0.408601  0.225374  1
  Si  Si12  1  0.591640  0.591932  0.773973  1
  Ge  Ge13  1  0.593219  0.000529  0.239028  1
  Ge  Ge14  1  0.405119  0.998422  0.760592  1
  Ge  Ge15  1  0.002051  0.593360  0.235873  1
  C  C16  1  0.999951  0.999972  0.000273  1
  C  C17  1  0.999943  0.000040  0.499851  1
