# generated using pymatgen
data_Hf5Zn39
_symmetry_space_group_name_H-M   'P 1'
_cell_length_a   8.60263495
_cell_length_b   9.91837242
_cell_length_c   9.92908200
_cell_angle_alpha   78.13050756
_cell_angle_beta   64.32893986
_cell_angle_gamma   64.29920084
_symmetry_Int_Tables_number   1
_chemical_formula_structural   Hf5Zn39
_chemical_formula_sum   'Hf5 Zn39'
_cell_volume   687.86451488
_cell_formula_units_Z   1
loop_
 _symmetry_equiv_pos_site_id
 _symmetry_equiv_pos_as_xyz
  1  'x, y, z'
loop_
 _atom_site_type_symbol
 _atom_site_label
 _atom_site_symmetry_multiplicity
 _atom_site_fract_x
 _atom_site_fract_y
 _atom_site_fract_z
 _atom_site_occupancy
  Hf  Hf0  1  0.571683  0.647213  0.209420  1
  Hf  Hf1  1  0.428317  0.352787  0.790580  1
  Hf  Hf2  1  0.000000  0.000000  0.000000  1
  Hf  Hf3  1  0.771876  0.803150  0.653099  1
  Hf  Hf4  1  0.228124  0.196850  0.346901  1
  Zn  Zn5  1  0.784146  0.339734  0.091974  1
  Zn  Zn6  1  0.215854  0.660266  0.908026  1
  Zn  Zn7  1  0.687572  0.707410  0.443110  1
  Zn  Zn8  1  0.312428  0.292590  0.556890  1
  Zn  Zn9  1  0.838091  0.292590  0.556890  1
  Zn  Zn10  1  0.161909  0.707410  0.443110  1
  Zn  Zn11  1  0.629439  0.160396  0.271160  1
  Zn  Zn12  1  0.370561  0.839604  0.728840  1
  Zn  Zn13  1  0.060996  0.839604  0.728840  1
  Zn  Zn14  1  0.939004  0.160396  0.271160  1
  Zn  Zn15  1  0.219522  0.436688  0.124270  1
  Zn  Zn16  1  0.780478  0.563312  0.875730  1
  Zn  Zn17  1  0.533541  0.196437  0.048697  1
  Zn  Zn18  1  0.466459  0.803563  0.951303  1
  Zn  Zn19  1  0.778674  0.803563  0.951303  1
  Zn  Zn20  1  0.221326  0.196437  0.048697  1
  Zn  Zn21  1  0.000000  0.500000  0.500000  1
  Zn  Zn22  1  0.587028  0.945168  0.199344  1
  Zn  Zn23  1  0.412972  0.054832  0.800656  1
  Zn  Zn24  1  0.731541  0.054832  0.800656  1
  Zn  Zn25  1  0.268459  0.945168  0.199344  1
  Zn  Zn26  1  0.500000  0.500000  0.000000  1
  Zn  Zn27  1  0.000000  0.500000  0.000000  1
  Zn  Zn28  1  0.361094  0.447939  0.297207  1
  Zn  Zn29  1  0.638906  0.552061  0.702793  1
  Zn  Zn30  1  0.106239  0.552061  0.702793  1
  Zn  Zn31  1  0.893761  0.447939  0.297207  1
  Zn  Zn32  1  0.596278  0.388524  0.418920  1
  Zn  Zn33  1  0.403722  0.611476  0.581080  1
  Zn  Zn34  1  0.654072  0.131485  0.560371  1
  Zn  Zn35  1  0.345928  0.868515  0.439629  1
  Zn  Zn36  1  0.500000  0.000000  0.500000  1
  Zn  Zn37  1  0.000000  0.000000  0.500000  1
  Zn  Zn38  1  0.210742  0.722656  0.162258  1
  Zn  Zn39  1  0.789258  0.277344  0.837742  1
  Zn  Zn40  1  0.095655  0.277344  0.837742  1
  Zn  Zn41  1  0.904345  0.722656  0.162258  1
  Zn  Zn42  1  0.878217  0.901563  0.342003  1
  Zn  Zn43  1  0.121783  0.098437  0.657997  1
