# generated using pymatgen
data_Nd7Er3(Sn3Br)2
_symmetry_space_group_name_H-M   'P 1'
_cell_length_a   9.41373200
_cell_length_b   9.41373282
_cell_length_c   6.74042600
_cell_angle_alpha   90.00000000
_cell_angle_beta   90.00000000
_cell_angle_gamma   119.99999713
_symmetry_Int_Tables_number   1
_chemical_formula_structural   Nd7Er3(Sn3Br)2
_chemical_formula_sum   'Nd7 Er3 Sn6 Br2'
_cell_volume   517.29905792
_cell_formula_units_Z   1
loop_
 _symmetry_equiv_pos_site_id
 _symmetry_equiv_pos_as_xyz
  1  'x, y, z'
loop_
 _atom_site_type_symbol
 _atom_site_label
 _atom_site_symmetry_multiplicity
 _atom_site_fract_x
 _atom_site_fract_y
 _atom_site_fract_z
 _atom_site_occupancy
  Nd  Nd0  1  0.267910  0.268237  0.749498  1
  Nd  Nd1  1  0.000327  0.732090  0.749498  1
  Nd  Nd2  1  0.731763  0.999673  0.749498  1
  Nd  Nd3  1  0.000327  0.268237  0.250502  1
  Nd  Nd4  1  0.731763  0.732090  0.250502  1
  Nd  Nd5  1  0.267910  0.999673  0.250502  1
  Nd  Nd6  1  0.666667  0.333333  0.000000  1
  Er  Er7  1  0.333333  0.666667  0.500000  1
  Er  Er8  1  0.666667  0.333333  0.500000  1
  Er  Er9  1  0.333333  0.666667  0.000000  1
  Sn  Sn10  1  0.609244  0.997488  0.251386  1
  Sn  Sn11  1  0.002512  0.390756  0.748614  1
  Sn  Sn12  1  0.388245  0.997488  0.748614  1
  Sn  Sn13  1  0.609244  0.611755  0.748614  1
  Sn  Sn14  1  0.002512  0.611755  0.251386  1
  Sn  Sn15  1  0.388245  0.390756  0.251386  1
  Br  Br16  1  0.000000  0.000000  0.000000  1
  Br  Br17  1  0.000000  0.000000  0.500000  1
