# generated using pymatgen
data_Hf2Zr4Be8Al7Pd8
_symmetry_space_group_name_H-M   'P 1'
_cell_length_a   8.41262123
_cell_length_b   8.41262134
_cell_length_c   8.40671600
_cell_angle_alpha   60.02321798
_cell_angle_beta   60.02321757
_cell_angle_gamma   59.95356643
_symmetry_Int_Tables_number   1
_chemical_formula_structural   Hf2Zr4Be8Al7Pd8
_chemical_formula_sum   'Hf2 Zr4 Be8 Al7 Pd8'
_cell_volume   420.70108687
_cell_formula_units_Z   1
loop_
 _symmetry_equiv_pos_site_id
 _symmetry_equiv_pos_as_xyz
  1  'x, y, z'
loop_
 _atom_site_type_symbol
 _atom_site_label
 _atom_site_symmetry_multiplicity
 _atom_site_fract_x
 _atom_site_fract_y
 _atom_site_fract_z
 _atom_site_occupancy
  Hf  Hf0  1  0.300436  0.300436  0.699564  1
  Hf  Hf1  1  0.699564  0.699564  0.300436  1
  Zr  Zr2  1  0.696698  0.303302  0.303302  1
  Zr  Zr3  1  0.303302  0.696698  0.696698  1
  Zr  Zr4  1  0.303302  0.696698  0.303302  1
  Zr  Zr5  1  0.696698  0.303302  0.696698  1
  Be  Be6  1  0.326408  0.326408  0.326959  1
  Be  Be7  1  0.673592  0.673592  0.673041  1
  Be  Be8  1  0.326408  0.326408  0.020226  1
  Be  Be9  1  0.326959  0.020226  0.326408  1
  Be  Be10  1  0.673592  0.673592  0.979774  1
  Be  Be11  1  0.673041  0.979774  0.673592  1
  Be  Be12  1  0.020226  0.326959  0.326408  1
  Be  Be13  1  0.979774  0.673041  0.673592  1
  Al  Al14  1  0.500000  0.000000  0.000000  1
  Al  Al15  1  0.000000  0.500000  0.500000  1
  Al  Al16  1  0.000000  0.500000  0.000000  1
  Al  Al17  1  0.500000  0.000000  0.500000  1
  Al  Al18  1  0.000000  0.000000  0.500000  1
  Al  Al19  1  0.500000  0.500000  0.000000  1
  Al  Al20  1  0.000000  0.000000  0.000000  1
  Pd  Pd21  1  0.126654  0.126654  0.124721  1
  Pd  Pd22  1  0.873346  0.873346  0.875279  1
  Pd  Pd23  1  0.126654  0.126654  0.621972  1
  Pd  Pd24  1  0.124721  0.621972  0.126654  1
  Pd  Pd25  1  0.873346  0.873346  0.378028  1
  Pd  Pd26  1  0.875279  0.378028  0.873346  1
  Pd  Pd27  1  0.621972  0.124721  0.126654  1
  Pd  Pd28  1  0.378028  0.875279  0.873346  1
