# generated using pymatgen
data_Zn3GeBi4(TeO6)4
_symmetry_space_group_name_H-M   'P 1'
_cell_length_a   5.26917635
_cell_length_b   9.14162401
_cell_length_c   9.94272441
_cell_angle_alpha   90.00549530
_cell_angle_beta   89.91354142
_cell_angle_gamma   89.99644038
_symmetry_Int_Tables_number   1
_chemical_formula_structural   Zn3GeBi4(TeO6)4
_chemical_formula_sum   'Zn3 Ge1 Bi4 Te4 O24'
_cell_volume   478.92884404
_cell_formula_units_Z   1
loop_
 _symmetry_equiv_pos_site_id
 _symmetry_equiv_pos_as_xyz
  1  'x, y, z'
loop_
 _atom_site_type_symbol
 _atom_site_label
 _atom_site_symmetry_multiplicity
 _atom_site_fract_x
 _atom_site_fract_y
 _atom_site_fract_z
 _atom_site_occupancy
  Zn  Zn0  1  0.500028  0.166014  0.249984  1
  Zn  Zn1  1  0.000035  0.332694  0.750005  1
  Zn  Zn2  1  0.999962  0.667127  0.249994  1
  Ge  Ge3  1  0.499987  0.834540  0.750000  1
  Bi  Bi4  1  0.005934  0.003882  0.490883  1
  Bi  Bi5  1  0.494312  0.495896  0.492921  1
  Bi  Bi6  1  0.994087  0.003901  0.009135  1
  Bi  Bi7  1  0.505635  0.495857  0.007111  1
  Te  Te8  1  0.500037  0.165656  0.749983  1
  Te  Te9  1  0.000044  0.668407  0.749965  1
  Te  Te10  1  0.999925  0.334116  0.250013  1
  Te  Te11  1  0.499994  0.832045  0.250023  1
  O  O12  1  0.627494  0.994741  0.643489  1
  O  O13  1  0.131534  0.513104  0.638084  1
  O  O14  1  0.669366  0.309843  0.637441  1
  O  O15  1  0.190168  0.816903  0.644351  1
  O  O16  1  0.195612  0.174223  0.640017  1
  O  O17  1  0.685013  0.691562  0.642596  1
  O  O18  1  0.165933  0.185710  0.139647  1
  O  O19  1  0.668135  0.683982  0.138660  1
  O  O20  1  0.140595  0.491211  0.139301  1
  O  O21  1  0.637984  0.990660  0.139167  1
  O  O22  1  0.693786  0.324240  0.138531  1
  O  O23  1  0.194231  0.823610  0.139807  1
  O  O24  1  0.859287  0.491227  0.360723  1
  O  O25  1  0.361900  0.990715  0.360817  1
  O  O26  1  0.834067  0.185715  0.360407  1
  O  O27  1  0.331900  0.683994  0.361345  1
  O  O28  1  0.306208  0.324309  0.361517  1
  O  O29  1  0.805767  0.823668  0.360223  1
  O  O30  1  0.330507  0.309714  0.862632  1
  O  O31  1  0.809806  0.816894  0.855608  1
  O  O32  1  0.372537  0.994800  0.856527  1
  O  O33  1  0.868782  0.513162  0.861923  1
  O  O34  1  0.804472  0.174208  0.859832  1
  O  O35  1  0.314933  0.691669  0.857340  1
