# generated using pymatgen
data_Ho4Mn(Ga8Ir)2
_symmetry_space_group_name_H-M   'P 1'
_cell_length_a   6.13448600
_cell_length_b   6.13448600
_cell_length_c   11.20957100
_cell_angle_alpha   90.00000000
_cell_angle_beta   90.00000000
_cell_angle_gamma   90.00000000
_symmetry_Int_Tables_number   1
_chemical_formula_structural   Ho4Mn(Ga8Ir)2
_chemical_formula_sum   'Ho4 Mn1 Ga16 Ir2'
_cell_volume   421.83766211
_cell_formula_units_Z   1
loop_
 _symmetry_equiv_pos_site_id
 _symmetry_equiv_pos_as_xyz
  1  'x, y, z'
loop_
 _atom_site_type_symbol
 _atom_site_label
 _atom_site_symmetry_multiplicity
 _atom_site_fract_x
 _atom_site_fract_y
 _atom_site_fract_z
 _atom_site_occupancy
  Ho  Ho0  1  0.000000  0.500000  0.192603  1
  Ho  Ho1  1  0.000000  0.500000  0.807397  1
  Ho  Ho2  1  0.500000  0.000000  0.807397  1
  Ho  Ho3  1  0.500000  0.000000  0.192603  1
  Mn  Mn4  1  0.000000  0.000000  0.000000  1
  Ga  Ga5  1  0.000000  0.000000  0.216673  1
  Ga  Ga6  1  0.000000  0.000000  0.783327  1
  Ga  Ga7  1  0.500000  0.500000  0.194536  1
  Ga  Ga8  1  0.500000  0.500000  0.805464  1
  Ga  Ga9  1  0.282334  0.282334  0.000000  1
  Ga  Ga10  1  0.717666  0.717666  0.000000  1
  Ga  Ga11  1  0.282334  0.717666  0.000000  1
  Ga  Ga12  1  0.717666  0.282334  0.000000  1
  Ga  Ga13  1  0.248641  0.248641  0.378497  1
  Ga  Ga14  1  0.751359  0.751359  0.378497  1
  Ga  Ga15  1  0.248641  0.751359  0.621503  1
  Ga  Ga16  1  0.751359  0.248641  0.621503  1
  Ga  Ga17  1  0.751359  0.751359  0.621503  1
  Ga  Ga18  1  0.248641  0.248641  0.621503  1
  Ga  Ga19  1  0.248641  0.751359  0.378497  1
  Ga  Ga20  1  0.751359  0.248641  0.378497  1
  Ir  Ir21  1  0.000000  0.500000  0.500000  1
  Ir  Ir22  1  0.500000  0.000000  0.500000  1
