# generated using pymatgen
data_CeEr2(SnRh)3
_symmetry_space_group_name_H-M   'P 1'
_cell_length_a   7.53574665
_cell_length_b   7.53574630
_cell_length_c   3.88132700
_cell_angle_alpha   90.00000000
_cell_angle_beta   90.00000000
_cell_angle_gamma   119.51085854
_symmetry_Int_Tables_number   1
_chemical_formula_structural   CeEr2(SnRh)3
_chemical_formula_sum   'Ce1 Er2 Sn3 Rh3'
_cell_volume   191.81518749
_cell_formula_units_Z   1
loop_
 _symmetry_equiv_pos_site_id
 _symmetry_equiv_pos_as_xyz
  1  'x, y, z'
loop_
 _atom_site_type_symbol
 _atom_site_label
 _atom_site_symmetry_multiplicity
 _atom_site_fract_x
 _atom_site_fract_y
 _atom_site_fract_z
 _atom_site_occupancy
  Ce  Ce0  1  0.411733  0.411733  0.000000  1
  Er  Er1  1  0.999484  0.594412  0.000000  1
  Er  Er2  1  0.594412  0.999484  0.000000  1
  Sn  Sn3  1  0.748542  0.748542  0.500000  1
  Sn  Sn4  1  0.991096  0.259739  0.500000  1
  Sn  Sn5  1  0.259739  0.991096  0.500000  1
  Rh  Rh6  1  0.004631  0.004631  0.000000  1
  Rh  Rh7  1  0.655618  0.334745  0.500000  1
  Rh  Rh8  1  0.334745  0.655618  0.500000  1
