# generated using pymatgen
data_Ce4IrRh3Pb2
_symmetry_space_group_name_H-M   'P 1'
_cell_length_a   7.79431123
_cell_length_b   7.79431068
_cell_length_c   3.69903000
_cell_angle_alpha   90.00000000
_cell_angle_beta   90.00000000
_cell_angle_gamma   90.24550848
_symmetry_Int_Tables_number   1
_chemical_formula_structural   Ce4IrRh3Pb2
_chemical_formula_sum   'Ce4 Ir1 Rh3 Pb2'
_cell_volume   224.71875644
_cell_formula_units_Z   1
loop_
 _symmetry_equiv_pos_site_id
 _symmetry_equiv_pos_as_xyz
  1  'x, y, z'
loop_
 _atom_site_type_symbol
 _atom_site_label
 _atom_site_symmetry_multiplicity
 _atom_site_fract_x
 _atom_site_fract_y
 _atom_site_fract_z
 _atom_site_occupancy
  Ce  Ce0  1  0.669895  0.169895  0.500000  1
  Ce  Ce1  1  0.328630  0.828630  0.500000  1
  Ce  Ce2  1  0.171634  0.333373  0.500000  1
  Ce  Ce3  1  0.833373  0.671634  0.500000  1
  Ir  Ir4  1  0.129247  0.629247  0.000000  1
  Rh  Rh5  1  0.863397  0.363397  0.000000  1
  Rh  Rh6  1  0.633763  0.867047  0.000000  1
  Rh  Rh7  1  0.367047  0.133763  0.000000  1
  Pb  Pb8  1  0.000149  0.002865  0.000000  1
  Pb  Pb9  1  0.502865  0.500149  0.000000  1
