# generated using pymatgen
data_Y7Sn23(Os2Pd)2
_symmetry_space_group_name_H-M   'P 1'
_cell_length_a   9.92605100
_cell_length_b   9.92094177
_cell_length_c   10.11787915
_cell_angle_alpha   89.62390821
_cell_angle_beta   90.00000000
_cell_angle_gamma   120.01704736
_symmetry_Int_Tables_number   1
_chemical_formula_structural   Y7Sn23(Os2Pd)2
_chemical_formula_sum   'Y7 Sn23 Os4 Pd2'
_cell_volume   862.70519597
_cell_formula_units_Z   1
loop_
 _symmetry_equiv_pos_site_id
 _symmetry_equiv_pos_as_xyz
  1  'x, y, z'
loop_
 _atom_site_type_symbol
 _atom_site_label
 _atom_site_symmetry_multiplicity
 _atom_site_fract_x
 _atom_site_fract_y
 _atom_site_fract_z
 _atom_site_occupancy
  Y  Y0  1  0.005395  0.010790  0.012372  1
  Y  Y1  1  0.035178  0.516719  0.303557  1
  Y  Y2  1  0.483635  0.967271  0.304272  1
  Y  Y3  1  0.481541  0.516719  0.303557  1
  Y  Y4  1  0.959315  0.475861  0.692670  1
  Y  Y5  1  0.522003  0.044006  0.690512  1
  Y  Y6  1  0.516546  0.475861  0.692670  1
  Sn  Sn7  1  0.999826  0.999652  0.505661  1
  Sn  Sn8  1  0.116473  0.883023  0.280807  1
  Sn  Sn9  1  0.766550  0.883023  0.280807  1
  Sn  Sn10  1  0.118295  0.236591  0.281077  1
  Sn  Sn11  1  0.883273  0.119768  0.717879  1
  Sn  Sn12  1  0.236495  0.119768  0.717879  1
  Sn  Sn13  1  0.879193  0.758386  0.718645  1
  Sn  Sn14  1  0.352909  0.003790  0.001452  1
  Sn  Sn15  1  0.651501  0.646777  0.001268  1
  Sn  Sn16  1  0.001485  0.351094  0.000187  1
  Sn  Sn17  1  0.349609  0.351094  0.000187  1
  Sn  Sn18  1  0.995277  0.646777  0.001268  1
  Sn  Sn19  1  0.650881  0.003790  0.001452  1
  Sn  Sn20  1  0.777274  0.554549  0.456277  1
  Sn  Sn21  1  0.779087  0.221500  0.456537  1
  Sn  Sn22  1  0.442412  0.221500  0.456537  1
  Sn  Sn23  1  0.220424  0.440847  0.541050  1
  Sn  Sn24  1  0.223190  0.776618  0.540512  1
  Sn  Sn25  1  0.553429  0.776618  0.540512  1
  Sn  Sn26  1  0.666767  0.333533  0.174791  1
  Sn  Sn27  1  0.329492  0.658984  0.822841  1
  Sn  Sn28  1  0.667053  0.334106  0.877743  1
  Sn  Sn29  1  0.335377  0.670756  0.120081  1
  Os  Os30  1  0.169198  0.338396  0.800557  1
  Os  Os31  1  0.832749  0.169043  0.200177  1
  Os  Os32  1  0.336294  0.169043  0.200177  1
  Os  Os33  1  0.831560  0.663120  0.201920  1
  Pd  Pd34  1  0.172054  0.830313  0.801056  1
  Pd  Pd35  1  0.658260  0.830313  0.801056  1
