# generated using pymatgen
data_Y7Tm13(In3Ru)2
_symmetry_space_group_name_H-M   'P 1'
_cell_length_a   9.67664100
_cell_length_b   9.67664081
_cell_length_c   9.65677700
_cell_angle_alpha   90.00000000
_cell_angle_beta   90.00000000
_cell_angle_gamma   119.99999723
_symmetry_Int_Tables_number   1
_chemical_formula_structural   Y7Tm13(In3Ru)2
_chemical_formula_sum   'Y7 Tm13 In6 Ru2'
_cell_volume   783.09075398
_cell_formula_units_Z   1
loop_
 _symmetry_equiv_pos_site_id
 _symmetry_equiv_pos_as_xyz
  1  'x, y, z'
loop_
 _atom_site_type_symbol
 _atom_site_label
 _atom_site_symmetry_multiplicity
 _atom_site_fract_x
 _atom_site_fract_y
 _atom_site_fract_z
 _atom_site_occupancy
  Y  Y0  1  0.000000  0.000000  0.000000  1
  Y  Y1  1  0.538770  0.461230  0.250081  1
  Y  Y2  1  0.538770  0.077540  0.250081  1
  Y  Y3  1  0.922460  0.461230  0.250081  1
  Y  Y4  1  0.461230  0.538770  0.749919  1
  Y  Y5  1  0.461230  0.922460  0.749919  1
  Y  Y6  1  0.077540  0.538770  0.749919  1
  Tm  Tm7  1  0.000000  0.000000  0.500000  1
  Tm  Tm8  1  0.210100  0.789900  0.437898  1
  Tm  Tm9  1  0.210100  0.420201  0.437898  1
  Tm  Tm10  1  0.579799  0.789900  0.437898  1
  Tm  Tm11  1  0.789900  0.210100  0.562102  1
  Tm  Tm12  1  0.789900  0.579799  0.562102  1
  Tm  Tm13  1  0.420201  0.210100  0.562102  1
  Tm  Tm14  1  0.789447  0.210553  0.937935  1
  Tm  Tm15  1  0.789447  0.578893  0.937935  1
  Tm  Tm16  1  0.421107  0.210553  0.937935  1
  Tm  Tm17  1  0.210553  0.789447  0.062065  1
  Tm  Tm18  1  0.210553  0.421107  0.062065  1
  Tm  Tm19  1  0.578893  0.789447  0.062065  1
  In  In20  1  0.884540  0.115460  0.250829  1
  In  In21  1  0.884540  0.769082  0.250829  1
  In  In22  1  0.230918  0.115460  0.250829  1
  In  In23  1  0.115460  0.884540  0.749171  1
  In  In24  1  0.115460  0.230918  0.749171  1
  In  In25  1  0.769082  0.884540  0.749171  1
  Ru  Ru26  1  0.333333  0.666667  0.250270  1
  Ru  Ru27  1  0.666667  0.333333  0.749730  1
