# generated using pymatgen
data_TbEr3Ga18(Co2Pd)2
_symmetry_space_group_name_H-M   'P 1'
_cell_length_a   7.45781353
_cell_length_b   7.45841801
_cell_length_c   9.39717900
_cell_angle_alpha   90.00000000
_cell_angle_beta   90.00000000
_cell_angle_gamma   119.62947284
_symmetry_Int_Tables_number   1
_chemical_formula_structural   TbEr3Ga18(Co2Pd)2
_chemical_formula_sum   'Tb1 Er3 Ga18 Co4 Pd2'
_cell_volume   454.35552036
_cell_formula_units_Z   1
loop_
 _symmetry_equiv_pos_site_id
 _symmetry_equiv_pos_as_xyz
  1  'x, y, z'
loop_
 _atom_site_type_symbol
 _atom_site_label
 _atom_site_symmetry_multiplicity
 _atom_site_fract_x
 _atom_site_fract_y
 _atom_site_fract_z
 _atom_site_occupancy
  Tb  Tb0  1  0.503500  0.824770  0.750000  1
  Er  Er1  1  0.496462  0.175324  0.250000  1
  Er  Er2  1  0.175236  0.496442  0.250000  1
  Er  Er3  1  0.824917  0.503562  0.750000  1
  Ga  Ga4  1  0.165272  0.944122  0.750000  1
  Ga  Ga5  1  0.834285  0.056179  0.250000  1
  Ga  Ga6  1  0.056099  0.834194  0.250000  1
  Ga  Ga7  1  0.944686  0.166315  0.750000  1
  Ga  Ga8  1  0.639342  0.639253  0.250000  1
  Ga  Ga9  1  0.360528  0.360083  0.750000  1
  Ga  Ga10  1  0.157431  0.157428  0.064284  1
  Ga  Ga11  1  0.843211  0.842563  0.563738  1
  Ga  Ga12  1  0.843211  0.842563  0.936262  1
  Ga  Ga13  1  0.157431  0.157428  0.435716  1
  Ga  Ga14  1  0.498016  0.844780  0.076186  1
  Ga  Ga15  1  0.502011  0.156019  0.575139  1
  Ga  Ga16  1  0.154529  0.501294  0.924826  1
  Ga  Ga17  1  0.844697  0.497968  0.424341  1
  Ga  Ga18  1  0.502011  0.156019  0.924861  1
  Ga  Ga19  1  0.498016  0.844780  0.423814  1
  Ga  Ga20  1  0.844697  0.497968  0.075659  1
  Ga  Ga21  1  0.154529  0.501294  0.575174  1
  Co  Co22  1  0.170644  0.829317  0.000213  1
  Co  Co23  1  0.829370  0.170727  0.499785  1
  Co  Co24  1  0.829370  0.170727  0.000215  1
  Co  Co25  1  0.170644  0.829317  0.499787  1
  Pd  Pd26  1  0.499927  0.499781  0.499742  1
  Pd  Pd27  1  0.499927  0.499781  0.000258  1
