# generated using pymatgen
data_Mn6VFe5Si4
_symmetry_space_group_name_H-M   'P 1'
_cell_length_a   5.61877721
_cell_length_b   5.61877721
_cell_length_c   5.61220139
_cell_angle_alpha   90.10126038
_cell_angle_beta   90.10126038
_cell_angle_gamma   89.99067589
_symmetry_Int_Tables_number   1
_chemical_formula_structural   Mn6VFe5Si4
_chemical_formula_sum   'Mn6 V1 Fe5 Si4'
_cell_volume   177.18033118
_cell_formula_units_Z   1
loop_
 _symmetry_equiv_pos_site_id
 _symmetry_equiv_pos_as_xyz
  1  'x, y, z'
loop_
 _atom_site_type_symbol
 _atom_site_label
 _atom_site_symmetry_multiplicity
 _atom_site_fract_x
 _atom_site_fract_y
 _atom_site_fract_z
 _atom_site_occupancy
  Mn  Mn0  1  0.248376  0.751356  0.751340  1
  Mn  Mn1  1  0.751356  0.248376  0.751340  1
  Mn  Mn2  1  0.749819  0.749819  0.750278  1
  Mn  Mn3  1  0.501161  0.998138  0.996053  1
  Mn  Mn4  1  0.998379  0.998379  0.501592  1
  Mn  Mn5  1  0.998138  0.501161  0.996053  1
  V  V6  1  0.503401  0.503401  0.507719  1
  Fe  Fe7  1  0.749564  0.749564  0.249297  1
  Fe  Fe8  1  0.748405  0.251498  0.250260  1
  Fe  Fe9  1  0.250817  0.250817  0.748307  1
  Fe  Fe10  1  0.251498  0.748405  0.250260  1
  Fe  Fe11  1  0.250076  0.250076  0.250288  1
  Si  Si12  1  0.001883  0.497915  0.493242  1
  Si  Si13  1  0.497915  0.001883  0.493242  1
  Si  Si14  1  0.497533  0.497533  0.005225  1
  Si  Si15  1  0.001680  0.001680  0.005503  1
