# generated using pymatgen
data_Li2Pr5Nd11(CdIr2)2
_symmetry_space_group_name_H-M   'P 1'
_cell_length_a   10.00505947
_cell_length_b   10.00393796
_cell_length_c   9.99118201
_cell_angle_alpha   60.03690636
_cell_angle_beta   60.04470740
_cell_angle_gamma   60.06108793
_symmetry_Int_Tables_number   1
_chemical_formula_structural   Li2Pr5Nd11(CdIr2)2
_chemical_formula_sum   'Li2 Pr5 Nd11 Cd2 Ir4'
_cell_volume   707.88136037
_cell_formula_units_Z   1
loop_
 _symmetry_equiv_pos_site_id
 _symmetry_equiv_pos_as_xyz
  1  'x, y, z'
loop_
 _atom_site_type_symbol
 _atom_site_label
 _atom_site_symmetry_multiplicity
 _atom_site_fract_x
 _atom_site_fract_y
 _atom_site_fract_z
 _atom_site_occupancy
  Li  Li0  1  0.571911  0.571838  0.576523  1
  Li  Li1  1  0.571840  0.571834  0.279790  1
  Pr  Pr2  1  0.561651  0.938916  0.937543  1
  Pr  Pr3  1  0.561770  0.938763  0.561876  1
  Pr  Pr4  1  0.938922  0.561639  0.937442  1
  Pr  Pr5  1  0.562188  0.562063  0.937830  1
  Pr  Pr6  1  0.938758  0.938628  0.561233  1
  Nd  Nd7  1  0.347268  0.347463  0.348572  1
  Nd  Nd8  1  0.347358  0.347376  0.956747  1
  Nd  Nd9  1  0.346499  0.960814  0.346326  1
  Nd  Nd10  1  0.960755  0.346619  0.346413  1
  Nd  Nd11  1  0.811716  0.188692  0.189440  1
  Nd  Nd12  1  0.188638  0.811737  0.810173  1
  Nd  Nd13  1  0.188582  0.811651  0.189566  1
  Nd  Nd14  1  0.811761  0.188793  0.810096  1
  Nd  Nd15  1  0.191531  0.191761  0.808296  1
  Nd  Nd16  1  0.815179  0.815063  0.184980  1
  Nd  Nd17  1  0.939151  0.561538  0.561779  1
  Cd  Cd18  1  0.582166  0.258599  0.579605  1
  Cd  Cd19  1  0.258484  0.582147  0.579597  1
  Ir  Ir20  1  0.142252  0.142196  0.140376  1
  Ir  Ir21  1  0.142164  0.142380  0.575162  1
  Ir  Ir22  1  0.143327  0.576110  0.140386  1
  Ir  Ir23  1  0.576126  0.143377  0.140247  1
