# generated using pymatgen
data_Rb6Sc(AsBr6)3
_symmetry_space_group_name_H-M   'P 1'
_cell_length_a   7.70594700
_cell_length_b   7.70594737
_cell_length_c   19.67597300
_cell_angle_alpha   90.00000000
_cell_angle_beta   90.00000000
_cell_angle_gamma   120.00000271
_symmetry_Int_Tables_number   1
_chemical_formula_structural   Rb6Sc(AsBr6)3
_chemical_formula_sum   'Rb6 Sc1 As3 Br18'
_cell_volume   1011.85642572
_cell_formula_units_Z   1
loop_
 _symmetry_equiv_pos_site_id
 _symmetry_equiv_pos_as_xyz
  1  'x, y, z'
loop_
 _atom_site_type_symbol
 _atom_site_label
 _atom_site_symmetry_multiplicity
 _atom_site_fract_x
 _atom_site_fract_y
 _atom_site_fract_z
 _atom_site_occupancy
  Rb  Rb0  1  0.333333  0.666667  0.069662  1
  Rb  Rb1  1  0.666667  0.333333  0.928507  1
  Rb  Rb2  1  0.666667  0.333333  0.569803  1
  Rb  Rb3  1  0.333333  0.666667  0.423517  1
  Rb  Rb4  1  0.000000  0.000000  0.250128  1
  Rb  Rb5  1  0.000000  0.000000  0.755972  1
  Sc  Sc6  1  0.333333  0.666667  0.842224  1
  As  As7  1  0.333333  0.666667  0.655256  1
  As  As8  1  0.666667  0.333333  0.342149  1
  As  As9  1  0.666667  0.333333  0.157002  1
  Br  Br10  1  0.172630  0.345260  0.586784  1
  Br  Br11  1  0.827361  0.654720  0.413093  1
  Br  Br12  1  0.654740  0.827370  0.586784  1
  Br  Br13  1  0.826816  0.653631  0.087539  1
  Br  Br14  1  0.345280  0.172639  0.413093  1
  Br  Br15  1  0.169388  0.338777  0.911592  1
  Br  Br16  1  0.172630  0.827370  0.586784  1
  Br  Br17  1  0.346369  0.173184  0.087539  1
  Br  Br18  1  0.827361  0.172639  0.413093  1
  Br  Br19  1  0.661223  0.830612  0.911592  1
  Br  Br20  1  0.826816  0.173184  0.087539  1
  Br  Br21  1  0.169388  0.830612  0.911592  1
  Br  Br22  1  0.502314  0.004630  0.250980  1
  Br  Br23  1  0.493615  0.987230  0.751939  1
  Br  Br24  1  0.995370  0.497686  0.250980  1
  Br  Br25  1  0.012770  0.506385  0.751939  1
  Br  Br26  1  0.502314  0.497686  0.250980  1
  Br  Br27  1  0.493615  0.506385  0.751939  1
