# generated using pymatgen
data_Pa5Ga6BiPt6
_symmetry_space_group_name_H-M   'P 1'
_cell_length_a   7.07350840
_cell_length_b   7.14066549
_cell_length_c   8.34375017
_cell_angle_alpha   89.99984918
_cell_angle_beta   90.00075297
_cell_angle_gamma   120.36183892
_symmetry_Int_Tables_number   1
_chemical_formula_structural   Pa5Ga6BiPt6
_chemical_formula_sum   'Pa5 Ga6 Bi1 Pt6'
_cell_volume   363.63896832
_cell_formula_units_Z   1
loop_
 _symmetry_equiv_pos_site_id
 _symmetry_equiv_pos_as_xyz
  1  'x, y, z'
loop_
 _atom_site_type_symbol
 _atom_site_label
 _atom_site_symmetry_multiplicity
 _atom_site_fract_x
 _atom_site_fract_y
 _atom_site_fract_z
 _atom_site_occupancy
  Pa  Pa0  1  0.416448  0.417277  0.249993  1
  Pa  Pa1  1  0.576522  0.997744  0.749992  1
  Pa  Pa2  1  0.423402  0.421899  0.750002  1
  Pa  Pa3  1  0.999377  0.580154  0.250001  1
  Pa  Pa4  1  0.585078  0.001190  0.249989  1
  Ga  Ga5  1  0.243827  0.999502  0.000937  1
  Ga  Ga6  1  0.243842  0.999510  0.499069  1
  Ga  Ga7  1  0.999402  0.243617  0.499325  1
  Ga  Ga8  1  0.999398  0.243621  0.000685  1
  Ga  Ga9  1  0.756558  0.757592  0.000843  1
  Ga  Ga10  1  0.756563  0.757613  0.499169  1
  Bi  Bi11  1  0.000042  0.596071  0.749990  1
  Pt  Pt12  1  0.657929  0.324716  0.492885  1
  Pt  Pt13  1  0.000686  0.011901  0.750008  1
  Pt  Pt14  1  0.657923  0.324704  0.007121  1
  Pt  Pt15  1  0.340938  0.665413  0.008059  1
  Pt  Pt16  1  0.340932  0.665411  0.491930  1
  Pt  Pt17  1  0.001134  0.992066  0.250002  1
