# generated using pymatgen
data_Ca4Hg3Pd
_symmetry_space_group_name_H-M   'P 1'
_cell_length_a   3.77685800
_cell_length_b   3.77685800
_cell_length_c   14.60353100
_cell_angle_alpha   90.00000000
_cell_angle_beta   90.00000000
_cell_angle_gamma   90.00000000
_symmetry_Int_Tables_number   1
_chemical_formula_structural   Ca4Hg3Pd
_chemical_formula_sum   'Ca4 Hg3 Pd1'
_cell_volume   208.31435124
_cell_formula_units_Z   1
loop_
 _symmetry_equiv_pos_site_id
 _symmetry_equiv_pos_as_xyz
  1  'x, y, z'
loop_
 _atom_site_type_symbol
 _atom_site_label
 _atom_site_symmetry_multiplicity
 _atom_site_fract_x
 _atom_site_fract_y
 _atom_site_fract_z
 _atom_site_occupancy
  Ca  Ca0  1  0.500000  0.500000  0.113714  1
  Ca  Ca1  1  0.500000  0.500000  0.371907  1
  Ca  Ca2  1  0.500000  0.500000  0.628093  1
  Ca  Ca3  1  0.500000  0.500000  0.886286  1
  Hg  Hg4  1  0.000000  0.000000  0.243619  1
  Hg  Hg5  1  0.000000  0.000000  0.500000  1
  Hg  Hg6  1  0.000000  0.000000  0.756381  1
  Pd  Pd7  1  0.000000  0.000000  0.000000  1
