# generated using pymatgen
data_Nd16Cd4CuIr3
_symmetry_space_group_name_H-M   'P 1'
_cell_length_a   9.94143460
_cell_length_b   9.94143486
_cell_length_c   9.94143539
_cell_angle_alpha   60.42648415
_cell_angle_beta   60.42648380
_cell_angle_gamma   60.42648563
_symmetry_Int_Tables_number   1
_chemical_formula_structural   Nd16Cd4CuIr3
_chemical_formula_sum   'Nd16 Cd4 Cu1 Ir3'
_cell_volume   701.45548983
_cell_formula_units_Z   1
loop_
 _symmetry_equiv_pos_site_id
 _symmetry_equiv_pos_as_xyz
  1  'x, y, z'
loop_
 _atom_site_type_symbol
 _atom_site_label
 _atom_site_symmetry_multiplicity
 _atom_site_fract_x
 _atom_site_fract_y
 _atom_site_fract_z
 _atom_site_occupancy
  Nd  Nd0  1  0.346862  0.346862  0.346862  1
  Nd  Nd1  1  0.352510  0.352510  0.948113  1
  Nd  Nd2  1  0.352510  0.948113  0.352510  1
  Nd  Nd3  1  0.948113  0.352510  0.352510  1
  Nd  Nd4  1  0.804982  0.190757  0.190757  1
  Nd  Nd5  1  0.190007  0.809810  0.809810  1
  Nd  Nd6  1  0.190757  0.804982  0.190757  1
  Nd  Nd7  1  0.809810  0.190007  0.809810  1
  Nd  Nd8  1  0.190757  0.190757  0.804982  1
  Nd  Nd9  1  0.809810  0.809810  0.190007  1
  Nd  Nd10  1  0.941232  0.561520  0.561520  1
  Nd  Nd11  1  0.563414  0.938997  0.938997  1
  Nd  Nd12  1  0.561520  0.941232  0.561520  1
  Nd  Nd13  1  0.938997  0.563414  0.938997  1
  Nd  Nd14  1  0.561520  0.561520  0.941232  1
  Nd  Nd15  1  0.938997  0.938997  0.563414  1
  Cd  Cd16  1  0.580436  0.580436  0.580436  1
  Cd  Cd17  1  0.580583  0.580583  0.258939  1
  Cd  Cd18  1  0.580583  0.258939  0.580583  1
  Cd  Cd19  1  0.258939  0.580583  0.580583  1
  Cu  Cu20  1  0.143142  0.143142  0.143142  1
  Ir  Ir21  1  0.141002  0.141002  0.572513  1
  Ir  Ir22  1  0.141002  0.572513  0.141002  1
  Ir  Ir23  1  0.572513  0.141002  0.141002  1
