# generated using pymatgen
data_Y12Co2Ni3Sn
_symmetry_space_group_name_H-M   'P 1'
_cell_length_a   8.32025103
_cell_length_b   8.32018048
_cell_length_c   8.32025010
_cell_angle_alpha   107.94917247
_cell_angle_beta   109.23507520
_cell_angle_gamma   111.24689921
_symmetry_Int_Tables_number   1
_chemical_formula_structural   Y12Co2Ni3Sn
_chemical_formula_sum   'Y12 Co2 Ni3 Sn1'
_cell_volume   443.01142372
_cell_formula_units_Z   1
loop_
 _symmetry_equiv_pos_site_id
 _symmetry_equiv_pos_as_xyz
  1  'x, y, z'
loop_
 _atom_site_type_symbol
 _atom_site_label
 _atom_site_symmetry_multiplicity
 _atom_site_fract_x
 _atom_site_fract_y
 _atom_site_fract_z
 _atom_site_occupancy
  Y  Y0  1  0.476035  0.292758  0.183279  1
  Y  Y1  1  0.109479  0.292758  0.816721  1
  Y  Y2  1  0.890521  0.707242  0.183279  1
  Y  Y3  1  0.523965  0.707242  0.816721  1
  Y  Y4  1  0.306664  0.625254  0.318590  1
  Y  Y5  1  0.306663  0.988074  0.681411  1
  Y  Y6  1  0.693336  0.374746  0.681410  1
  Y  Y7  1  0.693337  0.011926  0.318589  1
  Y  Y8  1  0.192239  0.212413  0.404652  1
  Y  Y9  1  0.807761  0.787587  0.595348  1
  Y  Y10  1  0.192238  0.787587  0.979824  1
  Y  Y11  1  0.807762  0.212413  0.020176  1
  Co  Co12  1  0.499999  0.614328  0.114328  1
  Co  Co13  1  0.500001  0.385672  0.885672  1
  Ni  Ni14  1  0.366065  0.000000  0.366065  1
  Ni  Ni15  1  0.633935  0.000000  0.633935  1
  Ni  Ni16  1  0.000000  0.000000  0.000000  1
  Sn  Sn17  1  0.000000  0.500000  0.500000  1
