# generated using pymatgen
data_Ac19YbSn16
_symmetry_space_group_name_H-M   'P 1'
_cell_length_a   8.79652195
_cell_length_b   8.87658197
_cell_length_c   17.06510000
_cell_angle_alpha   90.00000000
_cell_angle_beta   90.00000000
_cell_angle_gamma   90.05345310
_symmetry_Int_Tables_number   1
_chemical_formula_structural   Ac19YbSn16
_chemical_formula_sum   'Ac19 Yb1 Sn16'
_cell_volume   1332.49444536
_cell_formula_units_Z   1
loop_
 _symmetry_equiv_pos_site_id
 _symmetry_equiv_pos_as_xyz
  1  'x, y, z'
loop_
 _atom_site_type_symbol
 _atom_site_label
 _atom_site_symmetry_multiplicity
 _atom_site_fract_x
 _atom_site_fract_y
 _atom_site_fract_z
 _atom_site_occupancy
  Ac  Ac0  1  0.370702  0.838557  0.882068  1
  Ac  Ac1  1  0.876661  0.657583  0.618394  1
  Ac  Ac2  1  0.628408  0.158322  0.383597  1
  Ac  Ac3  1  0.129250  0.341620  0.116465  1
  Ac  Ac4  1  0.628408  0.158322  0.116403  1
  Ac  Ac5  1  0.129250  0.341620  0.383535  1
  Ac  Ac6  1  0.370702  0.838557  0.617932  1
  Ac  Ac7  1  0.876661  0.657583  0.881606  1
  Ac  Ac8  1  0.515899  0.321667  0.900109  1
  Ac  Ac9  1  0.020937  0.184525  0.599629  1
  Ac  Ac10  1  0.479980  0.680419  0.401482  1
  Ac  Ac11  1  0.980215  0.819905  0.098479  1
  Ac  Ac12  1  0.479980  0.680419  0.098518  1
  Ac  Ac13  1  0.980215  0.819905  0.401521  1
  Ac  Ac14  1  0.515899  0.321667  0.599891  1
  Ac  Ac15  1  0.020937  0.184525  0.900371  1
  Ac  Ac16  1  0.700787  0.000404  0.750000  1
  Ac  Ac17  1  0.798155  0.496443  0.250000  1
  Ac  Ac18  1  0.299777  0.002571  0.250000  1
  Yb  Yb19  1  0.206565  0.501987  0.750000  1
  Sn  Sn20  1  0.285791  0.034558  0.043177  1
  Sn  Sn21  1  0.785716  0.465551  0.456687  1
  Sn  Sn22  1  0.714379  0.964384  0.544477  1
  Sn  Sn23  1  0.213676  0.533901  0.955840  1
  Sn  Sn24  1  0.714379  0.964384  0.955523  1
  Sn  Sn25  1  0.213676  0.533901  0.544160  1
  Sn  Sn26  1  0.285791  0.034558  0.456823  1
  Sn  Sn27  1  0.785716  0.465551  0.043313  1
  Sn  Sn28  1  0.570491  0.605357  0.750000  1
  Sn  Sn29  1  0.076063  0.887444  0.750000  1
  Sn  Sn30  1  0.424530  0.387612  0.250000  1
  Sn  Sn31  1  0.924307  0.111828  0.250000  1
  Sn  Sn32  1  0.315316  0.142229  0.750000  1
  Sn  Sn33  1  0.821107  0.363537  0.750000  1
  Sn  Sn34  1  0.680110  0.858597  0.250000  1
  Sn  Sn35  1  0.179565  0.640008  0.250000  1
