# generated using pymatgen
data_Lu10TlIn7(NiRu)2
_symmetry_space_group_name_H-M   'P 1'
_cell_length_a   3.52716300
_cell_length_b   7.89889032
_cell_length_c   17.95550327
_cell_angle_alpha   89.90466969
_cell_angle_beta   90.00000000
_cell_angle_gamma   90.00000000
_symmetry_Int_Tables_number   1
_chemical_formula_structural   Lu10TlIn7(NiRu)2
_chemical_formula_sum   'Lu10 Tl1 In7 Ni2 Ru2'
_cell_volume   500.25172495
_cell_formula_units_Z   1
loop_
 _symmetry_equiv_pos_site_id
 _symmetry_equiv_pos_as_xyz
  1  'x, y, z'
loop_
 _atom_site_type_symbol
 _atom_site_label
 _atom_site_symmetry_multiplicity
 _atom_site_fract_x
 _atom_site_fract_y
 _atom_site_fract_z
 _atom_site_occupancy
  Lu  Lu0  1  0.000000  0.882623  0.087791  1
  Lu  Lu1  1  0.000000  0.756609  0.279126  1
  Lu  Lu2  1  0.000000  0.746845  0.779176  1
  Lu  Lu3  1  0.000000  0.384050  0.411424  1
  Lu  Lu4  1  0.000000  0.117037  0.911972  1
  Lu  Lu5  1  0.000000  0.243595  0.720885  1
  Lu  Lu6  1  0.000000  0.500242  0.999967  1
  Lu  Lu7  1  0.000000  0.253193  0.220880  1
  Lu  Lu8  1  0.000000  0.615970  0.588595  1
  Lu  Lu9  1  0.000000  0.000013  0.499992  1
  Tl  Tl10  1  0.500000  0.207665  0.067206  1
  In  In11  1  0.500000  0.425696  0.848459  1
  In  In12  1  0.500000  0.574939  0.151636  1
  In  In13  1  0.500000  0.073566  0.349507  1
  In  In14  1  0.500000  0.926350  0.650469  1
  In  In15  1  0.500000  0.792848  0.932284  1
  In  In16  1  0.500000  0.705932  0.432808  1
  In  In17  1  0.500000  0.294106  0.567212  1
  Ni  Ni18  1  0.500000  0.524319  0.695764  1
  Ni  Ni19  1  0.500000  0.475677  0.304228  1
  Ru  Ru20  1  0.500000  0.974125  0.197158  1
  Ru  Ru21  1  0.500000  0.024599  0.803461  1
