# generated using pymatgen
data_Ce2Tm3SiPb3
_symmetry_space_group_name_H-M   'P 1'
_cell_length_a   9.46221200
_cell_length_b   9.46221153
_cell_length_c   6.27479500
_cell_angle_alpha   90.00000000
_cell_angle_beta   90.00000000
_cell_angle_gamma   119.99999466
_symmetry_Int_Tables_number   1
_chemical_formula_structural   Ce2Tm3SiPb3
_chemical_formula_sum   'Ce4 Tm6 Si2 Pb6'
_cell_volume   486.53660853
_cell_formula_units_Z   2
loop_
 _symmetry_equiv_pos_site_id
 _symmetry_equiv_pos_as_xyz
  1  'x, y, z'
loop_
 _atom_site_type_symbol
 _atom_site_label
 _atom_site_symmetry_multiplicity
 _atom_site_fract_x
 _atom_site_fract_y
 _atom_site_fract_z
 _atom_site_occupancy
  Ce  Ce0  1  0.666667  0.333333  0.500000  1
  Ce  Ce1  1  0.333333  0.666667  0.500000  1
  Ce  Ce2  1  0.333333  0.666667  0.000000  1
  Ce  Ce3  1  0.666667  0.333333  0.000000  1
  Tm  Tm4  1  0.750967  0.750967  0.250000  1
  Tm  Tm5  1  0.249033  0.000000  0.250000  1
  Tm  Tm6  1  0.000000  0.249033  0.250000  1
  Tm  Tm7  1  0.249033  0.249033  0.750000  1
  Tm  Tm8  1  0.750967  0.000000  0.750000  1
  Tm  Tm9  1  0.000000  0.750967  0.750000  1
  Si  Si10  1  0.000000  0.000000  0.500000  1
  Si  Si11  1  0.000000  0.000000  0.000000  1
  Pb  Pb12  1  0.385702  0.385702  0.250000  1
  Pb  Pb13  1  0.614298  0.000000  0.250000  1
  Pb  Pb14  1  0.000000  0.614298  0.250000  1
  Pb  Pb15  1  0.614298  0.614298  0.750000  1
  Pb  Pb16  1  0.385702  0.000000  0.750000  1
  Pb  Pb17  1  0.000000  0.385702  0.750000  1
