# generated using pymatgen
data_Sc2SbRh5
_symmetry_space_group_name_H-M   'P 1'
_cell_length_a   4.18064100
_cell_length_b   5.58104000
_cell_length_c   11.01006500
_cell_angle_alpha   90.00000000
_cell_angle_beta   90.00000000
_cell_angle_gamma   90.00000000
_symmetry_Int_Tables_number   1
_chemical_formula_structural   Sc2SbRh5
_chemical_formula_sum   'Sc4 Sb2 Rh10'
_cell_volume   256.89041096
_cell_formula_units_Z   2
loop_
 _symmetry_equiv_pos_site_id
 _symmetry_equiv_pos_as_xyz
  1  'x, y, z'
loop_
 _atom_site_type_symbol
 _atom_site_label
 _atom_site_symmetry_multiplicity
 _atom_site_fract_x
 _atom_site_fract_y
 _atom_site_fract_z
 _atom_site_occupancy
  Sc  Sc0  1  0.500000  0.325685  0.357967  1
  Sc  Sc1  1  0.500000  0.674315  0.642033  1
  Sc  Sc2  1  0.500000  0.174315  0.857967  1
  Sc  Sc3  1  0.500000  0.825685  0.142033  1
  Sb  Sb4  1  0.000000  0.000000  0.500000  1
  Sb  Sb5  1  0.000000  0.500000  0.000000  1
  Rh  Rh6  1  0.500000  0.307030  0.112433  1
  Rh  Rh7  1  0.500000  0.692970  0.887567  1
  Rh  Rh8  1  0.500000  0.807030  0.387567  1
  Rh  Rh9  1  0.500000  0.192970  0.612433  1
  Rh  Rh10  1  0.000000  0.929784  0.746988  1
  Rh  Rh11  1  0.000000  0.070216  0.253012  1
  Rh  Rh12  1  0.000000  0.429784  0.753012  1
  Rh  Rh13  1  0.000000  0.570216  0.246988  1
  Rh  Rh14  1  0.000000  0.500000  0.500000  1
  Rh  Rh15  1  0.000000  0.000000  0.000000  1
