# generated using pymatgen
data_Tb5YbErPtI12
_symmetry_space_group_name_H-M   'P 1'
_cell_length_a   9.81621873
_cell_length_b   9.81836657
_cell_length_c   9.81075950
_cell_angle_alpha   107.01565039
_cell_angle_beta   106.95884115
_cell_angle_gamma   107.06656083
_symmetry_Int_Tables_number   1
_chemical_formula_structural   Tb5YbErPtI12
_chemical_formula_sum   'Tb5 Yb1 Er1 Pt1 I12'
_cell_volume   787.17131751
_cell_formula_units_Z   1
loop_
 _symmetry_equiv_pos_site_id
 _symmetry_equiv_pos_as_xyz
  1  'x, y, z'
loop_
 _atom_site_type_symbol
 _atom_site_label
 _atom_site_symmetry_multiplicity
 _atom_site_fract_x
 _atom_site_fract_y
 _atom_site_fract_z
 _atom_site_occupancy
  Tb  Tb0  1  0.303224  0.099138  0.027580  1
  Tb  Tb1  1  0.027487  0.303171  0.099781  1
  Tb  Tb2  1  0.901061  0.972698  0.696751  1
  Tb  Tb3  1  0.697035  0.900818  0.973294  1
  Tb  Tb4  1  0.972948  0.697169  0.901843  1
  Yb  Yb5  1  0.500063  0.500017  0.500167  1
  Er  Er6  1  0.097707  0.027386  0.299046  1
  Pt  Pt7  1  0.000098  0.000214  0.000170  1
  I  I8  1  0.074042  0.681370  0.226348  1
  I  I9  1  0.223642  0.072966  0.676508  1
  I  I10  1  0.678878  0.224614  0.073503  1
  I  I11  1  0.926582  0.320972  0.775590  1
  I  I12  1  0.778900  0.927661  0.321948  1
  I  I13  1  0.321156  0.775414  0.926588  1
  I  I14  1  0.457878  0.152678  0.383602  1
  I  I15  1  0.383229  0.460703  0.153698  1
  I  I16  1  0.153625  0.380687  0.460777  1
  I  I17  1  0.539371  0.846173  0.616852  1
  I  I18  1  0.616782  0.539297  0.846448  1
  I  I19  1  0.846293  0.616855  0.539507  1
