# generated using pymatgen
data_U8Al13Ga3
_symmetry_space_group_name_H-M   'P 1'
_cell_length_a   5.61772921
_cell_length_b   5.61526199
_cell_length_c   16.78174500
_cell_angle_alpha   90.00000000
_cell_angle_beta   90.00000000
_cell_angle_gamma   119.98306967
_symmetry_Int_Tables_number   1
_chemical_formula_structural   U8Al13Ga3
_chemical_formula_sum   'U8 Al13 Ga3'
_cell_volume   458.53515808
_cell_formula_units_Z   1
loop_
 _symmetry_equiv_pos_site_id
 _symmetry_equiv_pos_as_xyz
  1  'x, y, z'
loop_
 _atom_site_type_symbol
 _atom_site_label
 _atom_site_symmetry_multiplicity
 _atom_site_fract_x
 _atom_site_fract_y
 _atom_site_fract_z
 _atom_site_occupancy
  U  U0  1  0.333809  0.667773  0.826834  1
  U  U1  1  0.999230  0.000087  0.075350  1
  U  U2  1  0.999320  0.999393  0.923762  1
  U  U3  1  0.667587  0.332306  0.172953  1
  U  U4  1  0.999320  0.999393  0.576238  1
  U  U5  1  0.667587  0.332306  0.327047  1
  U  U6  1  0.999230  0.000087  0.424650  1
  U  U7  1  0.333809  0.667773  0.673166  1
  Al  Al8  1  0.499518  0.000158  0.500422  1
  Al  Al9  1  0.499545  0.499459  0.500426  1
  Al  Al10  1  0.843510  0.687103  0.750000  1
  Al  Al11  1  0.666842  0.333756  0.628790  1
  Al  Al12  1  0.499545  0.499459  0.999574  1
  Al  Al13  1  0.000189  0.500168  0.500307  1
  Al  Al14  1  0.158649  0.315133  0.250000  1
  Al  Al15  1  0.333564  0.666469  0.372102  1
  Al  Al16  1  0.684822  0.841238  0.250000  1
  Al  Al17  1  0.666842  0.333756  0.871210  1
  Al  Al18  1  0.499518  0.000158  0.999578  1
  Al  Al19  1  0.333564  0.666469  0.127898  1
  Al  Al20  1  0.000189  0.500168  0.999693  1
  Ga  Ga21  1  0.843523  0.157114  0.750000  1
  Ga  Ga22  1  0.313565  0.157132  0.750000  1
  Ga  Ga23  1  0.156722  0.843142  0.250000  1
