# generated using pymatgen
data_Dy5Ti2P12Rh17
_symmetry_space_group_name_H-M   'P 1'
_cell_length_a   12.77751734
_cell_length_b   12.64996011
_cell_length_c   3.90868600
_cell_angle_alpha   90.00000000
_cell_angle_beta   90.00000000
_cell_angle_gamma   119.67030339
_symmetry_Int_Tables_number   1
_chemical_formula_structural   Dy5Ti2P12Rh17
_chemical_formula_sum   'Dy5 Ti2 P12 Rh17'
_cell_volume   548.94687310
_cell_formula_units_Z   1
loop_
 _symmetry_equiv_pos_site_id
 _symmetry_equiv_pos_as_xyz
  1  'x, y, z'
loop_
 _atom_site_type_symbol
 _atom_site_label
 _atom_site_symmetry_multiplicity
 _atom_site_fract_x
 _atom_site_fract_y
 _atom_site_fract_z
 _atom_site_occupancy
  Dy  Dy0  1  0.661906  0.331033  0.000000  1
  Dy  Dy1  1  0.338094  0.669128  0.000000  1
  Dy  Dy2  1  0.190803  0.188100  0.500000  1
  Dy  Dy3  1  0.809197  0.997297  0.500000  1
  Dy  Dy4  1  0.000000  0.810166  0.500000  1
  Ti  Ti5  1  0.555017  0.554478  0.000000  1
  Ti  Ti6  1  0.444983  0.999463  0.000000  1
  P  P7  1  0.361160  0.363356  0.000000  1
  P  P8  1  0.638840  0.002197  0.000000  1
  P  P9  1  0.000000  0.638382  0.000000  1
  P  P10  1  0.830079  0.313258  0.500000  1
  P  P11  1  0.681739  0.515159  0.500000  1
  P  P12  1  0.481496  0.163874  0.500000  1
  P  P13  1  0.318261  0.833420  0.500000  1
  P  P14  1  0.518504  0.682379  0.500000  1
  P  P15  1  0.169921  0.483180  0.500000  1
  P  P16  1  0.824036  0.824086  0.000000  1
  P  P17  1  0.175964  0.000048  0.000000  1
  P  P18  1  0.000000  0.181095  0.000000  1
  Rh  Rh19  1  0.000000  0.457223  0.000000  1
  Rh  Rh20  1  0.822897  0.201036  0.000000  1
  Rh  Rh21  1  0.804171  0.623474  0.000000  1
  Rh  Rh22  1  0.372160  0.176819  0.000000  1
  Rh  Rh23  1  0.195829  0.819303  0.000000  1
  Rh  Rh24  1  0.627840  0.804659  0.000000  1
  Rh  Rh25  1  0.177103  0.378139  0.000000  1
  Rh  Rh26  1  0.643186  0.127269  0.500000  1
  Rh  Rh27  1  0.864323  0.508023  0.500000  1
  Rh  Rh28  1  0.487172  0.355261  0.500000  1
  Rh  Rh29  1  0.135677  0.643701  0.500000  1
  Rh  Rh30  1  0.512828  0.868089  0.500000  1
  Rh  Rh31  1  0.356814  0.484084  0.500000  1
  Rh  Rh32  1  0.720414  0.718219  0.500000  1
  Rh  Rh33  1  0.279586  0.997804  0.500000  1
  Rh  Rh34  1  0.000000  0.284031  0.500000  1
  Rh  Rh35  1  0.000000  0.002766  0.000000  1
