# generated using pymatgen
data_Dy3Sc5(Co4P3)4
_symmetry_space_group_name_H-M   'P 1'
_cell_length_a   12.17232700
_cell_length_b   12.18539149
_cell_length_c   3.68453800
_cell_angle_alpha   90.00000000
_cell_angle_beta   90.00000000
_cell_angle_gamma   119.96454281
_symmetry_Int_Tables_number   1
_chemical_formula_structural   Dy3Sc5(Co4P3)4
_chemical_formula_sum   'Dy3 Sc5 Co16 P12'
_cell_volume   473.45840154
_cell_formula_units_Z   1
loop_
 _symmetry_equiv_pos_site_id
 _symmetry_equiv_pos_as_xyz
  1  'x, y, z'
loop_
 _atom_site_type_symbol
 _atom_site_label
 _atom_site_symmetry_multiplicity
 _atom_site_fract_x
 _atom_site_fract_y
 _atom_site_fract_z
 _atom_site_occupancy
  Dy  Dy0  1  0.818855  0.000000  0.500000  1
  Dy  Dy1  1  0.333602  0.667331  0.000000  1
  Dy  Dy2  1  0.666272  0.332669  0.000000  1
  Sc  Sc3  1  0.999649  0.813590  0.500000  1
  Sc  Sc4  1  0.186058  0.186410  0.500000  1
  Sc  Sc5  1  0.439369  0.000000  0.000000  1
  Sc  Sc6  1  0.000170  0.442321  0.000000  1
  Sc  Sc7  1  0.557848  0.557679  0.000000  1
  Co  Co8  1  0.274113  0.000000  0.500000  1
  Co  Co9  1  0.002723  0.278127  0.500000  1
  Co  Co10  1  0.724596  0.721873  0.500000  1
  Co  Co11  1  0.627992  0.804969  0.000000  1
  Co  Co12  1  0.191894  0.822673  0.000000  1
  Co  Co13  1  0.178956  0.372078  0.000000  1
  Co  Co14  1  0.369220  0.177327  0.000000  1
  Co  Co15  1  0.806878  0.627922  0.000000  1
  Co  Co16  1  0.823023  0.195031  0.000000  1
  Co  Co17  1  0.520242  0.875731  0.500000  1
  Co  Co18  1  0.123335  0.646508  0.500000  1
  Co  Co19  1  0.354538  0.478366  0.500000  1
  Co  Co20  1  0.476828  0.353492  0.500000  1
  Co  Co21  1  0.876172  0.521634  0.500000  1
  Co  Co22  1  0.644511  0.124269  0.500000  1
  Co  Co23  1  0.002046  0.000000  0.000000  1
  P  P24  1  0.175993  0.000000  0.000000  1
  P  P25  1  0.004641  0.179023  0.000000  1
  P  P26  1  0.825618  0.820977  0.000000  1
  P  P27  1  0.522981  0.692676  0.500000  1
  P  P28  1  0.306246  0.829777  0.500000  1
  P  P29  1  0.170813  0.478878  0.500000  1
  P  P30  1  0.476469  0.170223  0.500000  1
  P  P31  1  0.691935  0.521122  0.500000  1
  P  P32  1  0.830305  0.307324  0.500000  1
  P  P33  1  0.645881  0.000000  0.000000  1
  P  P34  1  0.999805  0.649383  0.000000  1
  P  P35  1  0.350423  0.350617  0.000000  1
