# generated using pymatgen
data_PrNdHg2(Ir2O7)2
_symmetry_space_group_name_H-M   'P 1'
_cell_length_a   7.55537160
_cell_length_b   7.35417621
_cell_length_c   7.35417512
_cell_angle_alpha   59.01855771
_cell_angle_beta   59.09788910
_cell_angle_gamma   59.09787900
_symmetry_Int_Tables_number   1
_chemical_formula_structural   PrNdHg2(Ir2O7)2
_chemical_formula_sum   'Pr1 Nd1 Hg2 Ir4 O14'
_cell_volume   282.82295051
_cell_formula_units_Z   1
loop_
 _symmetry_equiv_pos_site_id
 _symmetry_equiv_pos_as_xyz
  1  'x, y, z'
loop_
 _atom_site_type_symbol
 _atom_site_label
 _atom_site_symmetry_multiplicity
 _atom_site_fract_x
 _atom_site_fract_y
 _atom_site_fract_z
 _atom_site_occupancy
  Pr  Pr0  1  0.125000  0.125000  0.125000  1
  Nd  Nd1  1  0.625000  0.125000  0.125000  1
  Hg  Hg2  1  0.125000  0.125000  0.625000  1
  Hg  Hg3  1  0.125000  0.625000  0.125000  1
  Ir  Ir4  1  0.625000  0.625000  0.625000  1
  Ir  Ir5  1  0.125000  0.625000  0.625000  1
  Ir  Ir6  1  0.625000  0.125000  0.625000  1
  Ir  Ir7  1  0.625000  0.625000  0.125000  1
  O  O8  1  0.944287  0.555587  0.555587  1
  O  O9  1  0.302955  0.299139  0.704299  1
  O  O10  1  0.947045  0.545701  0.950861  1
  O  O11  1  0.708800  0.290112  0.290112  1
  O  O12  1  0.557126  0.544063  0.951204  1
  O  O13  1  0.557126  0.951204  0.544063  1
  O  O14  1  0.541200  0.959888  0.959888  1
  O  O15  1  0.242282  0.259582  0.259582  1
  O  O16  1  0.305713  0.694413  0.694413  1
  O  O17  1  0.692874  0.298796  0.705937  1
  O  O18  1  0.007718  0.990418  0.990418  1
  O  O19  1  0.947045  0.950861  0.545701  1
  O  O20  1  0.302955  0.704299  0.299139  1
  O  O21  1  0.692874  0.705937  0.298796  1
