# generated using pymatgen
data_Pr6SmEr(GeO5)4
_symmetry_space_group_name_H-M   'P 1'
_cell_length_a   8.44561081
_cell_length_b   8.45748914
_cell_length_c   11.01992400
_cell_angle_alpha   61.47145096
_cell_angle_beta   61.30073290
_cell_angle_gamma   49.95366502
_symmetry_Int_Tables_number   1
_chemical_formula_structural   Pr6SmEr(GeO5)4
_chemical_formula_sum   'Pr6 Sm1 Er1 Ge4 O20'
_cell_volume   511.61155981
_cell_formula_units_Z   1
loop_
 _symmetry_equiv_pos_site_id
 _symmetry_equiv_pos_as_xyz
  1  'x, y, z'
loop_
 _atom_site_type_symbol
 _atom_site_label
 _atom_site_symmetry_multiplicity
 _atom_site_fract_x
 _atom_site_fract_y
 _atom_site_fract_z
 _atom_site_occupancy
  Pr  Pr0  1  0.718340  0.212042  0.965147  1
  Pr  Pr1  1  0.788572  0.275944  0.537565  1
  Pr  Pr2  1  0.276576  0.796038  0.035579  1
  Pr  Pr3  1  0.206275  0.720292  0.463785  1
  Pr  Pr4  1  0.987793  0.730005  0.839315  1
  Pr  Pr5  1  0.270838  0.018177  0.656897  1
  Sm  Sm6  1  0.010344  0.262675  0.169121  1
  Er  Er7  1  0.746879  0.976827  0.334157  1
  Ge  Ge8  1  0.776086  0.595330  0.685886  1
  Ge  Ge9  1  0.405551  0.224419  0.812923  1
  Ge  Ge10  1  0.227967  0.406056  0.303208  1
  Ge  Ge11  1  0.591764  0.776507  0.197283  1
  O  O12  1  0.773739  0.628024  0.066002  1
  O  O13  1  0.390273  0.220889  0.425773  1
  O  O14  1  0.220670  0.360386  0.950075  1
  O  O15  1  0.642676  0.782623  0.547681  1
  O  O16  1  0.584985  0.587350  0.364782  1
  O  O17  1  0.400082  0.424916  0.129050  1
  O  O18  1  0.407056  0.417236  0.646706  1
  O  O19  1  0.583953  0.592085  0.852999  1
  O  O20  1  0.953187  0.646473  0.676152  1
  O  O21  1  0.350501  0.049539  0.824242  1
  O  O22  1  0.054725  0.338742  0.326509  1
  O  O23  1  0.656013  0.946961  0.183227  1
  O  O24  1  0.883629  0.073414  0.395407  1
  O  O25  1  0.914574  0.110061  0.112757  1
  O  O26  1  0.108605  0.923053  0.603747  1
  O  O27  1  0.075828  0.896986  0.894015  1
  O  O28  1  0.085203  0.673537  0.319210  1
  O  O29  1  0.324629  0.912982  0.183862  1
  O  O30  1  0.910501  0.330013  0.673173  1
  O  O31  1  0.672179  0.090416  0.823764  1
