# generated using pymatgen
data_Nd4Al15(SiRh2)3
_symmetry_space_group_name_H-M   'P 1'
_cell_length_a   7.59338710
_cell_length_b   7.56161176
_cell_length_c   9.55833852
_cell_angle_alpha   89.99436270
_cell_angle_beta   89.93080079
_cell_angle_gamma   119.64947854
_symmetry_Int_Tables_number   1
_chemical_formula_structural   Nd4Al15(SiRh2)3
_chemical_formula_sum   'Nd4 Al15 Si3 Rh6'
_cell_volume   476.96405802
_cell_formula_units_Z   1
loop_
 _symmetry_equiv_pos_site_id
 _symmetry_equiv_pos_as_xyz
  1  'x, y, z'
loop_
 _atom_site_type_symbol
 _atom_site_label
 _atom_site_symmetry_multiplicity
 _atom_site_fract_x
 _atom_site_fract_y
 _atom_site_fract_z
 _atom_site_occupancy
  Nd  Nd0  1  0.994651  0.664250  0.747563  1
  Nd  Nd1  1  0.005847  0.340346  0.253000  1
  Nd  Nd2  1  0.673635  0.999996  0.747929  1
  Nd  Nd3  1  0.322456  0.994390  0.250212  1
  Al  Al4  1  0.130481  0.128247  0.749995  1
  Al  Al5  1  0.870173  0.869521  0.249349  1
  Al  Al6  1  0.338254  0.004549  0.926046  1
  Al  Al7  1  0.002830  0.330236  0.931768  1
  Al  Al8  1  0.666060  0.000033  0.073078  1
  Al  Al9  1  0.662380  0.995973  0.424499  1
  Al  Al10  1  0.338153  0.005016  0.574558  1
  Al  Al11  1  0.334461  0.333212  0.051567  1
  Al  Al12  1  0.663451  0.666497  0.949504  1
  Al  Al13  1  0.662903  0.665842  0.551837  1
  Al  Al14  1  0.336402  0.333630  0.448821  1
  Al  Al15  1  0.338507  0.547409  0.750234  1
  Al  Al16  1  0.661163  0.452850  0.250364  1
  Al  Al17  1  0.546391  0.342732  0.750242  1
  Al  Al18  1  0.456529  0.658193  0.249706  1
  Si  Si19  1  0.004153  0.328576  0.572601  1
  Si  Si20  1  0.995301  0.671647  0.432412  1
  Si  Si21  1  0.996453  0.666077  0.063402  1
  Rh  Rh22  1  0.687763  0.337897  0.500911  1
  Rh  Rh23  1  0.311916  0.662441  0.498230  1
  Rh  Rh24  1  0.320232  0.669898  0.002210  1
  Rh  Rh25  1  0.679010  0.336890  0.000301  1
  Rh  Rh26  1  0.999823  0.000312  0.499289  1
  Rh  Rh27  1  0.000623  0.993337  0.000370  1
