# generated using pymatgen
data_Th7TcIr2
_symmetry_space_group_name_H-M   'P 1'
_cell_length_a   10.03894674
_cell_length_b   10.07509047
_cell_length_c   6.33613652
_cell_angle_alpha   89.99999945
_cell_angle_beta   89.92933468
_cell_angle_gamma   120.11916050
_symmetry_Int_Tables_number   1
_chemical_formula_structural   Th7TcIr2
_chemical_formula_sum   'Th14 Tc2 Ir4'
_cell_volume   554.33090564
_cell_formula_units_Z   2
loop_
 _symmetry_equiv_pos_site_id
 _symmetry_equiv_pos_as_xyz
  1  'x, y, z'
loop_
 _atom_site_type_symbol
 _atom_site_label
 _atom_site_symmetry_multiplicity
 _atom_site_fract_x
 _atom_site_fract_y
 _atom_site_fract_z
 _atom_site_occupancy
  Th  Th0  1  0.460947  0.542090  0.295516  1
  Th  Th1  1  0.079614  0.539807  0.297306  1
  Th  Th2  1  0.913922  0.456960  0.799353  1
  Th  Th3  1  0.256019  0.128010  0.499628  1
  Th  Th4  1  0.544233  0.084257  0.797514  1
  Th  Th5  1  0.751608  0.875804  0.999604  1
  Th  Th6  1  0.667684  0.333841  0.290727  1
  Th  Th7  1  0.122360  0.870087  0.999670  1
  Th  Th8  1  0.460947  0.918858  0.295516  1
  Th  Th9  1  0.544233  0.459975  0.797514  1
  Th  Th10  1  0.873311  0.127848  0.499348  1
  Th  Th11  1  0.122360  0.252273  0.999670  1
  Th  Th12  1  0.873311  0.745463  0.499348  1
  Th  Th13  1  0.334456  0.667229  0.800893  1
  Tc  Tc14  1  0.811674  0.628229  0.048491  1
  Tc  Tc15  1  0.811674  0.183444  0.048491  1
  Ir  Ir16  1  0.622684  0.811342  0.554732  1
  Ir  Ir17  1  0.370907  0.185453  0.052275  1
  Ir  Ir18  1  0.189029  0.376998  0.554201  1
  Ir  Ir19  1  0.189029  0.812031  0.554201  1
