# generated using pymatgen
data_Rb4Si2Au7
_symmetry_space_group_name_H-M   'P 1'
_cell_length_a   10.09719445
_cell_length_b   10.09719447
_cell_length_c   10.09719507
_cell_angle_alpha   38.28366199
_cell_angle_beta   38.28366136
_cell_angle_gamma   38.28366233
_symmetry_Int_Tables_number   1
_chemical_formula_structural   Rb4Si2Au7
_chemical_formula_sum   'Rb4 Si2 Au7'
_cell_volume   354.89024624
_cell_formula_units_Z   1
loop_
 _symmetry_equiv_pos_site_id
 _symmetry_equiv_pos_as_xyz
  1  'x, y, z'
loop_
 _atom_site_type_symbol
 _atom_site_label
 _atom_site_symmetry_multiplicity
 _atom_site_fract_x
 _atom_site_fract_y
 _atom_site_fract_z
 _atom_site_occupancy
  Rb  Rb0  1  0.683188  0.683188  0.683188  1
  Rb  Rb1  1  0.316812  0.316812  0.316812  1
  Rb  Rb2  1  0.809171  0.809171  0.809171  1
  Rb  Rb3  1  0.190829  0.190829  0.190829  1
  Si  Si4  1  0.544540  0.544540  0.544540  1
  Si  Si5  1  0.455460  0.455460  0.455460  1
  Au  Au6  1  0.000000  0.000000  0.000000  1
  Au  Au7  1  0.228214  0.228214  0.794389  1
  Au  Au8  1  0.794389  0.228214  0.228214  1
  Au  Au9  1  0.228214  0.794389  0.228214  1
  Au  Au10  1  0.771786  0.205611  0.771786  1
  Au  Au11  1  0.771786  0.771786  0.205611  1
  Au  Au12  1  0.205611  0.771786  0.771786  1
