# generated using pymatgen
data_TmLuAlB6
_symmetry_space_group_name_H-M   'P 1'
_cell_length_a   3.55485500
_cell_length_b   9.12790200
_cell_length_c   11.48205900
_cell_angle_alpha   90.00000000
_cell_angle_beta   90.00000000
_cell_angle_gamma   90.00000000
_symmetry_Int_Tables_number   1
_chemical_formula_structural   TmLuAlB6
_chemical_formula_sum   'Tm4 Lu4 Al4 B24'
_cell_volume   372.57407657
_cell_formula_units_Z   4
loop_
 _symmetry_equiv_pos_site_id
 _symmetry_equiv_pos_as_xyz
  1  'x, y, z'
loop_
 _atom_site_type_symbol
 _atom_site_label
 _atom_site_symmetry_multiplicity
 _atom_site_fract_x
 _atom_site_fract_y
 _atom_site_fract_z
 _atom_site_occupancy
  Tm  Tm0  1  0.000000  0.321457  0.413190  1
  Tm  Tm1  1  0.000000  0.678543  0.586810  1
  Tm  Tm2  1  0.000000  0.821457  0.086810  1
  Tm  Tm3  1  0.000000  0.178543  0.913190  1
  Lu  Lu4  1  0.000000  0.943508  0.372121  1
  Lu  Lu5  1  0.000000  0.056492  0.627879  1
  Lu  Lu6  1  0.000000  0.443508  0.127879  1
  Lu  Lu7  1  0.000000  0.556492  0.872121  1
  Al  Al8  1  0.000000  0.639390  0.320392  1
  Al  Al9  1  0.000000  0.360610  0.679608  1
  Al  Al10  1  0.000000  0.139390  0.179608  1
  Al  Al11  1  0.000000  0.860610  0.820392  1
  B  B12  1  0.500000  0.550492  0.436048  1
  B  B13  1  0.500000  0.449508  0.563952  1
  B  B14  1  0.500000  0.050492  0.063952  1
  B  B15  1  0.500000  0.949508  0.936048  1
  B  B16  1  0.500000  0.750911  0.420856  1
  B  B17  1  0.500000  0.249089  0.579144  1
  B  B18  1  0.500000  0.250911  0.079144  1
  B  B19  1  0.500000  0.749089  0.920856  1
  B  B20  1  0.500000  0.796657  0.263019  1
  B  B21  1  0.500000  0.203343  0.736981  1
  B  B22  1  0.500000  0.296657  0.236981  1
  B  B23  1  0.500000  0.703343  0.763019  1
  B  B24  1  0.500000  0.631587  0.182522  1
  B  B25  1  0.500000  0.368413  0.817478  1
  B  B26  1  0.500000  0.131587  0.317478  1
  B  B27  1  0.500000  0.868413  0.682522  1
  B  B28  1  0.500000  0.978625  0.212557  1
  B  B29  1  0.500000  0.021375  0.787443  1
  B  B30  1  0.500000  0.478625  0.287443  1
  B  B31  1  0.500000  0.521375  0.712557  1
  B  B32  1  0.500000  0.603333  0.028749  1
  B  B33  1  0.500000  0.396667  0.971251  1
  B  B34  1  0.500000  0.103333  0.471251  1
  B  B35  1  0.500000  0.896667  0.528749  1
