# generated using pymatgen
data_KEr(PSe3)2
_symmetry_space_group_name_H-M   'P 1'
_cell_length_a   7.62009900
_cell_length_b   6.84716722
_cell_length_c   10.65492802
_cell_angle_alpha   87.43453808
_cell_angle_beta   90.00000000
_cell_angle_gamma   90.00000000
_symmetry_Int_Tables_number   1
_chemical_formula_structural   KEr(PSe3)2
_chemical_formula_sum   'K2 Er2 P4 Se12'
_cell_volume   555.37531339
_cell_formula_units_Z   2
loop_
 _symmetry_equiv_pos_site_id
 _symmetry_equiv_pos_as_xyz
  1  'x, y, z'
loop_
 _atom_site_type_symbol
 _atom_site_label
 _atom_site_symmetry_multiplicity
 _atom_site_fract_x
 _atom_site_fract_y
 _atom_site_fract_z
 _atom_site_occupancy
  K  K0  1  0.044292  0.314732  0.494111  1
  K  K1  1  0.544292  0.685268  0.505889  1
  Er  Er2  1  0.265970  0.218385  0.998033  1
  Er  Er3  1  0.765970  0.781615  0.001967  1
  P  P4  1  0.750984  0.320203  0.830966  1
  P  P5  1  0.250984  0.679797  0.169034  1
  P  P6  1  0.032469  0.802100  0.285960  1
  P  P7  1  0.532469  0.197900  0.714040  1
  Se  Se8  1  0.624595  0.374615  0.017367  1
  Se  Se9  1  0.121673  0.832671  0.475949  1
  Se  Se10  1  0.951626  0.081101  0.838131  1
  Se  Se11  1  0.817366  0.595719  0.261214  1
  Se  Se12  1  0.347510  0.399005  0.248766  1
  Se  Se13  1  0.317366  0.404281  0.738786  1
  Se  Se14  1  0.457015  0.939391  0.840323  1
  Se  Se15  1  0.957015  0.060609  0.159677  1
  Se  Se16  1  0.621673  0.167329  0.524051  1
  Se  Se17  1  0.124595  0.625385  0.982633  1
  Se  Se18  1  0.451626  0.918899  0.161869  1
  Se  Se19  1  0.847510  0.600995  0.751234  1
