# generated using pymatgen
data_Tm3Al12IrOs3
_symmetry_space_group_name_H-M   'P 1'
_cell_length_a   8.82462500
_cell_length_b   8.76555260
_cell_length_c   9.55029300
_cell_angle_alpha   90.00000000
_cell_angle_beta   90.00000000
_cell_angle_gamma   120.22317713
_symmetry_Int_Tables_number   1
_chemical_formula_structural   Tm3Al12IrOs3
_chemical_formula_sum   'Tm6 Al24 Ir2 Os6'
_cell_volume   638.32493678
_cell_formula_units_Z   2
loop_
 _symmetry_equiv_pos_site_id
 _symmetry_equiv_pos_as_xyz
  1  'x, y, z'
loop_
 _atom_site_type_symbol
 _atom_site_label
 _atom_site_symmetry_multiplicity
 _atom_site_fract_x
 _atom_site_fract_y
 _atom_site_fract_z
 _atom_site_occupancy
  Tm  Tm0  1  0.195217  0.390434  0.250000  1
  Tm  Tm1  1  0.804783  0.609566  0.750000  1
  Tm  Tm2  1  0.611634  0.797467  0.250000  1
  Tm  Tm3  1  0.388366  0.202533  0.750000  1
  Tm  Tm4  1  0.185833  0.797467  0.250000  1
  Tm  Tm5  1  0.814167  0.202533  0.750000  1
  Al  Al6  1  0.332952  0.665906  0.024422  1
  Al  Al7  1  0.667048  0.334094  0.975578  1
  Al  Al8  1  0.667048  0.334094  0.524422  1
  Al  Al9  1  0.332952  0.665906  0.475578  1
  Al  Al10  1  0.164308  0.328617  0.575053  1
  Al  Al11  1  0.835692  0.671383  0.424947  1
  Al  Al12  1  0.674196  0.837646  0.576702  1
  Al  Al13  1  0.835692  0.671383  0.075053  1
  Al  Al14  1  0.325804  0.162354  0.423298  1
  Al  Al15  1  0.164308  0.328617  0.924947  1
  Al  Al16  1  0.163450  0.837646  0.576702  1
  Al  Al17  1  0.325804  0.162354  0.076702  1
  Al  Al18  1  0.836550  0.162354  0.423298  1
  Al  Al19  1  0.674196  0.837646  0.923298  1
  Al  Al20  1  0.836550  0.162354  0.076702  1
  Al  Al21  1  0.163450  0.837646  0.923298  1
  Al  Al22  1  0.559211  0.118420  0.250000  1
  Al  Al23  1  0.440789  0.881580  0.750000  1
  Al  Al24  1  0.873068  0.432584  0.250000  1
  Al  Al25  1  0.126932  0.567416  0.750000  1
  Al  Al26  1  0.559516  0.432584  0.250000  1
  Al  Al27  1  0.440484  0.567416  0.750000  1
  Al  Al28  1  0.998997  0.997994  0.250000  1
  Al  Al29  1  0.001003  0.002006  0.750000  1
  Ir  Ir30  1  0.500000  0.000000  0.000000  1
  Ir  Ir31  1  0.500000  0.000000  0.500000  1
  Os  Os32  1  0.000000  0.500000  0.000000  1
  Os  Os33  1  0.500000  0.500000  0.000000  1
  Os  Os34  1  0.000000  0.500000  0.500000  1
  Os  Os35  1  0.500000  0.500000  0.500000  1
  Os  Os36  1  0.000000  0.000000  0.000000  1
  Os  Os37  1  0.000000  0.000000  0.500000  1
