# generated using pymatgen
data_SmCo3(Ni3B2)3
_symmetry_space_group_name_H-M   'P 1'
_cell_length_a   6.00729670
_cell_length_b   6.00729611
_cell_length_c   6.00729609
_cell_angle_alpha   104.42634150
_cell_angle_beta   104.42634621
_cell_angle_gamma   104.42633707
_symmetry_Int_Tables_number   1
_chemical_formula_structural   SmCo3(Ni3B2)3
_chemical_formula_sum   'Sm1 Co3 Ni9 B6'
_cell_volume   191.81452328
_cell_formula_units_Z   1
loop_
 _symmetry_equiv_pos_site_id
 _symmetry_equiv_pos_as_xyz
  1  'x, y, z'
loop_
 _atom_site_type_symbol
 _atom_site_label
 _atom_site_symmetry_multiplicity
 _atom_site_fract_x
 _atom_site_fract_y
 _atom_site_fract_z
 _atom_site_occupancy
  Sm  Sm0  1  0.000000  0.000000  0.000000  1
  Co  Co1  1  0.866503  0.133497  0.500000  1
  Co  Co2  1  0.133497  0.500000  0.866503  1
  Co  Co3  1  0.500000  0.866503  0.133497  1
  Ni  Ni4  1  0.868423  0.500000  0.131577  1
  Ni  Ni5  1  0.500000  0.131577  0.868423  1
  Ni  Ni6  1  0.131577  0.868423  0.500000  1
  Ni  Ni7  1  0.813207  0.546720  0.544743  1
  Ni  Ni8  1  0.546720  0.544743  0.813207  1
  Ni  Ni9  1  0.544743  0.813207  0.546720  1
  Ni  Ni10  1  0.186793  0.455257  0.453280  1
  Ni  Ni11  1  0.455257  0.453280  0.186793  1
  Ni  Ni12  1  0.453280  0.186793  0.455257  1
  B  B13  1  0.330552  0.764485  0.770894  1
  B  B14  1  0.764485  0.770894  0.330552  1
  B  B15  1  0.770894  0.330552  0.764485  1
  B  B16  1  0.669448  0.229106  0.235515  1
  B  B17  1  0.229106  0.235515  0.669448  1
  B  B18  1  0.235515  0.669448  0.229106  1
