# generated using pymatgen
data_Ho9Er(RuRh)2
_symmetry_space_group_name_H-M   'P 1'
_cell_length_a   6.35290135
_cell_length_b   7.22888621
_cell_length_c   8.48215776
_cell_angle_alpha   96.73838550
_cell_angle_beta   111.99255851
_cell_angle_gamma   89.99999581
_symmetry_Int_Tables_number   1
_chemical_formula_structural   Ho9Er(RuRh)2
_chemical_formula_sum   'Ho9 Er1 Ru2 Rh2'
_cell_volume   358.28866202
_cell_formula_units_Z   1
loop_
 _symmetry_equiv_pos_site_id
 _symmetry_equiv_pos_as_xyz
  1  'x, y, z'
loop_
 _atom_site_type_symbol
 _atom_site_label
 _atom_site_symmetry_multiplicity
 _atom_site_fract_x
 _atom_site_fract_y
 _atom_site_fract_z
 _atom_site_occupancy
  Ho  Ho0  1  0.792807  0.582170  0.811925  1
  Ho  Ho1  1  0.980881  0.917830  0.188075  1
  Ho  Ho2  1  0.209028  0.414593  0.185270  1
  Ho  Ho3  1  0.023758  0.085407  0.814730  1
  Ho  Ho4  1  0.207621  0.684041  0.565534  1
  Ho  Ho5  1  0.642087  0.815959  0.434466  1
  Ho  Ho6  1  0.792015  0.312288  0.436651  1
  Ho  Ho7  1  0.355364  0.187712  0.563349  1
  Ho  Ho8  1  0.420145  0.750000  0.000000  1
  Er  Er9  1  0.576991  0.250000  0.000000  1
  Ru  Ru10  1  0.397683  0.074997  0.220356  1
  Ru  Ru11  1  0.177328  0.425003  0.779644  1
  Rh  Rh12  1  0.601464  0.924030  0.778635  1
  Rh  Rh13  1  0.822828  0.575970  0.221365  1
