# generated using pymatgen
data_LiPrThSi4Ag
_symmetry_space_group_name_H-M   'P 1'
_cell_length_a   9.07806649
_cell_length_b   9.07806692
_cell_length_c   4.24600200
_cell_angle_alpha   90.00000000
_cell_angle_beta   90.00000000
_cell_angle_gamma   153.25636091
_symmetry_Int_Tables_number   1
_chemical_formula_structural   LiPrThSi4Ag
_chemical_formula_sum   'Li1 Pr1 Th1 Si4 Ag1'
_cell_volume   157.46309107
_cell_formula_units_Z   1
loop_
 _symmetry_equiv_pos_site_id
 _symmetry_equiv_pos_as_xyz
  1  'x, y, z'
loop_
 _atom_site_type_symbol
 _atom_site_label
 _atom_site_symmetry_multiplicity
 _atom_site_fract_x
 _atom_site_fract_y
 _atom_site_fract_z
 _atom_site_occupancy
  Li  Li0  1  0.251719  0.748281  0.250000  1
  Pr  Pr1  1  0.403554  0.596446  0.750000  1
  Th  Th2  1  0.596006  0.403994  0.250000  1
  Si  Si3  1  0.969553  0.030447  0.250000  1
  Si  Si4  1  0.031389  0.968611  0.750000  1
  Si  Si5  1  0.836637  0.163363  0.250000  1
  Si  Si6  1  0.161726  0.838274  0.750000  1
  Ag  Ag7  1  0.749415  0.250585  0.750000  1
