# generated using pymatgen
data_LaYb8PrIr4
_symmetry_space_group_name_H-M   'P 1'
_cell_length_a   8.58030119
_cell_length_b   8.58030300
_cell_length_c   7.45710846
_cell_angle_alpha   82.97770169
_cell_angle_beta   82.97769303
_cell_angle_gamma   45.30377494
_symmetry_Int_Tables_number   1
_chemical_formula_structural   LaYb8PrIr4
_chemical_formula_sum   'La1 Yb8 Pr1 Ir4'
_cell_volume   386.81772580
_cell_formula_units_Z   1
loop_
 _symmetry_equiv_pos_site_id
 _symmetry_equiv_pos_as_xyz
  1  'x, y, z'
loop_
 _atom_site_type_symbol
 _atom_site_label
 _atom_site_symmetry_multiplicity
 _atom_site_fract_x
 _atom_site_fract_y
 _atom_site_fract_z
 _atom_site_occupancy
  La  La0  1  0.569208  0.430792  0.750000  1
  Yb  Yb1  1  0.018881  0.804551  0.918544  1
  Yb  Yb2  1  0.195449  0.981119  0.581456  1
  Yb  Yb3  1  0.981942  0.194609  0.083601  1
  Yb  Yb4  1  0.805391  0.018058  0.416399  1
  Yb  Yb5  1  0.357401  0.203286  0.821255  1
  Yb  Yb6  1  0.796714  0.642599  0.678745  1
  Yb  Yb7  1  0.642278  0.795824  0.178930  1
  Yb  Yb8  1  0.204176  0.357722  0.321070  1
  Pr  Pr9  1  0.429608  0.570392  0.250000  1
  Ir  Ir10  1  0.179441  0.603112  0.579336  1
  Ir  Ir11  1  0.396888  0.820559  0.920664  1
  Ir  Ir12  1  0.820042  0.397419  0.422836  1
  Ir  Ir13  1  0.602581  0.179958  0.077164  1
