# generated using pymatgen
data_Tb10Sn4BiPb
_symmetry_space_group_name_H-M   'P 1'
_cell_length_a   9.07796417
_cell_length_b   9.07796423
_cell_length_c   6.56513400
_cell_angle_alpha   90.00000000
_cell_angle_beta   90.00000000
_cell_angle_gamma   120.02065163
_symmetry_Int_Tables_number   1
_chemical_formula_structural   Tb10Sn4BiPb
_chemical_formula_sum   'Tb10 Sn4 Bi1 Pb1'
_cell_volume   468.44730391
_cell_formula_units_Z   1
loop_
 _symmetry_equiv_pos_site_id
 _symmetry_equiv_pos_as_xyz
  1  'x, y, z'
loop_
 _atom_site_type_symbol
 _atom_site_label
 _atom_site_symmetry_multiplicity
 _atom_site_fract_x
 _atom_site_fract_y
 _atom_site_fract_z
 _atom_site_occupancy
  Tb  Tb0  1  0.670271  0.331637  0.000920  1
  Tb  Tb1  1  0.331637  0.670271  0.000920  1
  Tb  Tb2  1  0.331637  0.670271  0.499080  1
  Tb  Tb3  1  0.670271  0.331637  0.499080  1
  Tb  Tb4  1  0.764477  0.764477  0.750000  1
  Tb  Tb5  1  0.237991  0.994489  0.750000  1
  Tb  Tb6  1  0.994489  0.237991  0.750000  1
  Tb  Tb7  1  0.237599  0.237599  0.250000  1
  Tb  Tb8  1  0.760752  0.001885  0.250000  1
  Tb  Tb9  1  0.001885  0.760752  0.250000  1
  Sn  Sn10  1  0.604623  0.999485  0.750000  1
  Sn  Sn11  1  0.999485  0.604623  0.750000  1
  Sn  Sn12  1  0.394654  0.001504  0.250000  1
  Sn  Sn13  1  0.001504  0.394654  0.250000  1
  Bi  Bi14  1  0.392667  0.392667  0.750000  1
  Pb  Pb15  1  0.606060  0.606060  0.250000  1
