# generated using pymatgen
data_Ho12Tc3Ir
_symmetry_space_group_name_H-M   'P 1'
_cell_length_a   6.26627900
_cell_length_b   7.36733201
_cell_length_c   9.09864400
_cell_angle_alpha   90.00000000
_cell_angle_beta   90.00000000
_cell_angle_gamma   89.99641289
_symmetry_Int_Tables_number   1
_chemical_formula_structural   Ho12Tc3Ir
_chemical_formula_sum   'Ho12 Tc3 Ir1'
_cell_volume   420.04579497
_cell_formula_units_Z   1
loop_
 _symmetry_equiv_pos_site_id
 _symmetry_equiv_pos_as_xyz
  1  'x, y, z'
loop_
 _atom_site_type_symbol
 _atom_site_label
 _atom_site_symmetry_multiplicity
 _atom_site_fract_x
 _atom_site_fract_y
 _atom_site_fract_z
 _atom_site_occupancy
  Ho  Ho0  1  0.332767  0.675818  0.064408  1
  Ho  Ho1  1  0.163762  0.175562  0.436740  1
  Ho  Ho2  1  0.665423  0.323143  0.561727  1
  Ho  Ho3  1  0.834964  0.825233  0.937954  1
  Ho  Ho4  1  0.665423  0.323143  0.938273  1
  Ho  Ho5  1  0.834964  0.825233  0.562046  1
  Ho  Ho6  1  0.332767  0.675818  0.435592  1
  Ho  Ho7  1  0.163762  0.175562  0.063260  1
  Ho  Ho8  1  0.873566  0.540532  0.250000  1
  Ho  Ho9  1  0.625939  0.038627  0.250000  1
  Ho  Ho10  1  0.131713  0.458476  0.750000  1
  Ho  Ho11  1  0.370535  0.959968  0.750000  1
  Tc  Tc12  1  0.040368  0.883638  0.250000  1
  Tc  Tc13  1  0.461619  0.386155  0.250000  1
  Tc  Tc14  1  0.959688  0.116518  0.750000  1
  Ir  Ir15  1  0.542741  0.616574  0.750000  1
