# generated using pymatgen
data_Li2Ac3Pr(AgAs4)2
_symmetry_space_group_name_H-M   'P 1'
_cell_length_a   4.11352800
_cell_length_b   4.18580213
_cell_length_c   22.13632374
_cell_angle_alpha   89.89060489
_cell_angle_beta   90.00000000
_cell_angle_gamma   90.00000000
_symmetry_Int_Tables_number   1
_chemical_formula_structural   Li2Ac3Pr(AgAs4)2
_chemical_formula_sum   'Li2 Ac3 Pr1 Ag2 As8'
_cell_volume   381.15169727
_cell_formula_units_Z   1
loop_
 _symmetry_equiv_pos_site_id
 _symmetry_equiv_pos_as_xyz
  1  'x, y, z'
loop_
 _atom_site_type_symbol
 _atom_site_label
 _atom_site_symmetry_multiplicity
 _atom_site_fract_x
 _atom_site_fract_y
 _atom_site_fract_z
 _atom_site_occupancy
  Li  Li0  1  0.250000  0.222808  0.245579  1
  Li  Li1  1  0.250000  0.277808  0.751496  1
  Ac  Ac2  1  0.250000  0.779125  0.617747  1
  Ac  Ac3  1  0.750000  0.221820  0.379962  1
  Ac  Ac4  1  0.750000  0.274920  0.886597  1
  Pr  Pr5  1  0.250000  0.724322  0.118164  1
  Ag  Ag6  1  0.750000  0.722850  0.245013  1
  Ag  Ag7  1  0.750000  0.778401  0.751324  1
  As  As8  1  0.250000  0.777436  0.830598  1
  As  As9  1  0.750000  0.222996  0.165813  1
  As  As10  1  0.750000  0.279990  0.673177  1
  As  As11  1  0.250000  0.720469  0.324562  1
  As  As12  1  0.250000  0.305361  0.501047  1
  As  As13  1  0.250000  0.194117  0.008250  1
  As  As14  1  0.750000  0.803732  0.003913  1
  As  As15  1  0.750000  0.693846  0.496759  1
