# generated using pymatgen
data_CaAlGaBr8
_symmetry_space_group_name_H-M   'P 1'
_cell_length_a   7.74369752
_cell_length_b   7.81477951
_cell_length_c   14.30324800
_cell_angle_alpha   87.66365705
_cell_angle_beta   90.02106501
_cell_angle_gamma   89.89098550
_symmetry_Int_Tables_number   1
_chemical_formula_structural   CaAlGaBr8
_chemical_formula_sum   'Ca2 Al2 Ga2 Br16'
_cell_volume   864.84401989
_cell_formula_units_Z   2
loop_
 _symmetry_equiv_pos_site_id
 _symmetry_equiv_pos_as_xyz
  1  'x, y, z'
loop_
 _atom_site_type_symbol
 _atom_site_label
 _atom_site_symmetry_multiplicity
 _atom_site_fract_x
 _atom_site_fract_y
 _atom_site_fract_z
 _atom_site_occupancy
  Ca  Ca0  1  0.742368  0.998521  0.505700  1
  Ca  Ca1  1  0.257706  0.997880  0.004962  1
  Al  Al2  1  0.924354  0.435482  0.540665  1
  Al  Al3  1  0.435946  0.853863  0.240216  1
  Ga  Ga4  1  0.564157  0.852152  0.741202  1
  Ga  Ga5  1  0.075013  0.436232  0.041596  1
  Br  Br6  1  0.926030  0.465601  0.178936  1
  Br  Br7  1  0.070412  0.464501  0.676257  1
  Br  Br8  1  0.635596  0.346120  0.559156  1
  Br  Br9  1  0.368554  0.344137  0.058865  1
  Br  Br10  1  0.929999  0.690929  0.445949  1
  Br  Br11  1  0.069312  0.694020  0.943676  1
  Br  Br12  1  0.431991  0.847098  0.589194  1
  Br  Br13  1  0.567285  0.846156  0.091228  1
  Br  Br14  1  0.044057  0.213381  0.453431  1
  Br  Br15  1  0.955719  0.210693  0.951748  1
  Br  Br16  1  0.153804  0.948522  0.203150  1
  Br  Br17  1  0.849541  0.950690  0.702973  1
  Br  Br18  1  0.439336  0.600485  0.322969  1
  Br  Br19  1  0.561064  0.594644  0.824319  1
  Br  Br20  1  0.578657  0.070529  0.320694  1
  Br  Br21  1  0.419097  0.075563  0.821117  1
