# generated using pymatgen
data_Sc3B4Ru10W3
_symmetry_space_group_name_H-M   'P 1'
_cell_length_a   9.45119894
_cell_length_b   9.45119917
_cell_length_c   3.02711700
_cell_angle_alpha   90.00000000
_cell_angle_beta   90.00000000
_cell_angle_gamma   90.14263328
_symmetry_Int_Tables_number   1
_chemical_formula_structural   Sc3B4Ru10W3
_chemical_formula_sum   'Sc3 B4 Ru10 W3'
_cell_volume   270.39688337
_cell_formula_units_Z   1
loop_
 _symmetry_equiv_pos_site_id
 _symmetry_equiv_pos_as_xyz
  1  'x, y, z'
loop_
 _atom_site_type_symbol
 _atom_site_label
 _atom_site_symmetry_multiplicity
 _atom_site_fract_x
 _atom_site_fract_y
 _atom_site_fract_z
 _atom_site_occupancy
  Sc  Sc0  1  0.176279  0.823721  0.000000  1
  Sc  Sc1  1  0.324072  0.325735  0.000000  1
  Sc  Sc2  1  0.674265  0.675928  0.000000  1
  B  B3  1  0.620267  0.379733  0.000000  1
  B  B4  1  0.380508  0.619492  0.000000  1
  B  B5  1  0.122564  0.121474  0.000000  1
  B  B6  1  0.878526  0.877436  0.000000  1
  Ru  Ru7  1  0.502422  0.497578  0.500000  1
  Ru  Ru8  1  0.994204  0.005796  0.500000  1
  Ru  Ru9  1  0.580617  0.212522  0.500000  1
  Ru  Ru10  1  0.431290  0.783216  0.500000  1
  Ru  Ru11  1  0.060362  0.281779  0.500000  1
  Ru  Ru12  1  0.927967  0.717496  0.500000  1
  Ru  Ru13  1  0.282504  0.072033  0.500000  1
  Ru  Ru14  1  0.718221  0.939638  0.500000  1
  Ru  Ru15  1  0.216784  0.568710  0.500000  1
  Ru  Ru16  1  0.787478  0.419383  0.500000  1
  W  W17  1  0.495567  0.997598  0.000000  1
  W  W18  1  0.002402  0.504433  0.000000  1
  W  W19  1  0.823701  0.176299  0.000000  1
