# generated using pymatgen
data_TbYPu3(SiB4)2
_symmetry_space_group_name_H-M   'P 1'
_cell_length_a   7.23426410
_cell_length_b   7.23426367
_cell_length_c   8.13096600
_cell_angle_alpha   90.00000000
_cell_angle_beta   90.00000000
_cell_angle_gamma   89.91867684
_symmetry_Int_Tables_number   1
_chemical_formula_structural   TbYPu3(SiB4)2
_chemical_formula_sum   'Tb2 Y2 Pu6 Si4 B16'
_cell_volume   425.53021302
_cell_formula_units_Z   2
loop_
 _symmetry_equiv_pos_site_id
 _symmetry_equiv_pos_as_xyz
  1  'x, y, z'
loop_
 _atom_site_type_symbol
 _atom_site_label
 _atom_site_symmetry_multiplicity
 _atom_site_fract_x
 _atom_site_fract_y
 _atom_site_fract_z
 _atom_site_occupancy
  Tb  Tb0  1  0.181467  0.318533  0.777175  1
  Tb  Tb1  1  0.181467  0.318533  0.222825  1
  Y  Y2  1  0.999257  0.998419  0.500000  1
  Y  Y3  1  0.501581  0.500743  0.500000  1
  Pu  Pu4  1  0.683052  0.182636  0.228190  1
  Pu  Pu5  1  0.317364  0.816948  0.771810  1
  Pu  Pu6  1  0.317364  0.816948  0.228190  1
  Pu  Pu7  1  0.816319  0.683681  0.228294  1
  Pu  Pu8  1  0.816319  0.683681  0.771706  1
  Pu  Pu9  1  0.683052  0.182636  0.771810  1
  Si  Si10  1  0.115589  0.614639  0.500000  1
  Si  Si11  1  0.885361  0.384411  0.500000  1
  Si  Si12  1  0.384211  0.115789  0.500000  1
  Si  Si13  1  0.613431  0.886569  0.500000  1
  B  B14  1  0.173306  0.037811  0.000000  1
  B  B15  1  0.826247  0.959660  0.000000  1
  B  B16  1  0.958009  0.171852  0.000000  1
  B  B17  1  0.328148  0.541991  0.000000  1
  B  B18  1  0.040145  0.825724  0.000000  1
  B  B19  1  0.674276  0.459855  0.000000  1
  B  B20  1  0.540340  0.673753  0.000000  1
  B  B21  1  0.462189  0.326694  0.000000  1
  B  B22  1  0.090327  0.589896  0.000000  1
  B  B23  1  0.910104  0.409673  0.000000  1
  B  B24  1  0.409931  0.090069  0.000000  1
  B  B25  1  0.589265  0.910735  0.000000  1
  B  B26  1  0.999395  0.998456  0.160388  1
  B  B27  1  0.999395  0.998456  0.839612  1
  B  B28  1  0.501544  0.500605  0.839612  1
  B  B29  1  0.501544  0.500605  0.160388  1
