# generated using pymatgen
data_IrRu5W2
_symmetry_space_group_name_H-M   'P 1'
_cell_length_a   5.52979700
_cell_length_b   5.52438056
_cell_length_c   4.38432200
_cell_angle_alpha   90.00000000
_cell_angle_beta   90.00000000
_cell_angle_gamma   120.03244470
_symmetry_Int_Tables_number   1
_chemical_formula_structural   IrRu5W2
_chemical_formula_sum   'Ir1 Ru5 W2'
_cell_volume   115.95347609
_cell_formula_units_Z   1
loop_
 _symmetry_equiv_pos_site_id
 _symmetry_equiv_pos_as_xyz
  1  'x, y, z'
loop_
 _atom_site_type_symbol
 _atom_site_label
 _atom_site_symmetry_multiplicity
 _atom_site_fract_x
 _atom_site_fract_y
 _atom_site_fract_z
 _atom_site_occupancy
  Ir  Ir0  1  0.165960  0.331920  0.250000  1
  Ru  Ru1  1  0.666217  0.835799  0.250000  1
  Ru  Ru2  1  0.169583  0.835799  0.250000  1
  Ru  Ru3  1  0.833153  0.666305  0.750000  1
  Ru  Ru4  1  0.333328  0.164516  0.750000  1
  Ru  Ru5  1  0.831188  0.164516  0.750000  1
  W  W6  1  0.334659  0.669320  0.750000  1
  W  W7  1  0.665913  0.331825  0.250000  1
