# generated using pymatgen
data_Y2LuIn3AgHgPt
_symmetry_space_group_name_H-M   'P 1'
_cell_length_a   7.89188400
_cell_length_b   7.88313279
_cell_length_c   3.77494200
_cell_angle_alpha   90.00000000
_cell_angle_beta   90.00000000
_cell_angle_gamma   119.82452099
_symmetry_Int_Tables_number   1
_chemical_formula_structural   Y2LuIn3AgHgPt
_chemical_formula_sum   'Y2 Lu1 In3 Ag1 Hg1 Pt1'
_cell_volume   203.74439761
_cell_formula_units_Z   1
loop_
 _symmetry_equiv_pos_site_id
 _symmetry_equiv_pos_as_xyz
  1  'x, y, z'
loop_
 _atom_site_type_symbol
 _atom_site_label
 _atom_site_symmetry_multiplicity
 _atom_site_fract_x
 _atom_site_fract_y
 _atom_site_fract_z
 _atom_site_occupancy
  Y  Y0  1  0.021411  0.610887  0.500000  1
  Y  Y1  1  0.590118  0.978425  0.500000  1
  Lu  Lu2  1  0.386262  0.412917  0.500000  1
  In  In3  1  0.999521  0.264576  0.000000  1
  In  In4  1  0.265880  0.001558  0.000000  1
  In  In5  1  0.736136  0.734627  0.000000  1
  Ag  Ag6  1  0.002104  0.001993  0.500000  1
  Hg  Hg7  1  0.663630  0.334339  0.000000  1
  Pt  Pt8  1  0.334940  0.660679  0.000000  1
