# generated using pymatgen
data_Tm3Sc5Re2(B12Rh)2
_symmetry_space_group_name_H-M   'P 1'
_cell_length_a   3.54996000
_cell_length_b   8.93798641
_cell_length_c   11.30658449
_cell_angle_alpha   90.19912829
_cell_angle_beta   90.00000000
_cell_angle_gamma   90.00000000
_symmetry_Int_Tables_number   1
_chemical_formula_structural   Tm3Sc5Re2(B12Rh)2
_chemical_formula_sum   'Tm3 Sc5 Re2 B24 Rh2'
_cell_volume   358.75004048
_cell_formula_units_Z   1
loop_
 _symmetry_equiv_pos_site_id
 _symmetry_equiv_pos_as_xyz
  1  'x, y, z'
loop_
 _atom_site_type_symbol
 _atom_site_label
 _atom_site_symmetry_multiplicity
 _atom_site_fract_x
 _atom_site_fract_y
 _atom_site_fract_z
 _atom_site_occupancy
  Tm  Tm0  1  0.000000  0.317013  0.411966  1
  Tm  Tm1  1  0.000000  0.682950  0.588449  1
  Tm  Tm2  1  0.000000  0.823313  0.082963  1
  Sc  Sc3  1  0.000000  0.175797  0.918798  1
  Sc  Sc4  1  0.000000  0.948071  0.372597  1
  Sc  Sc5  1  0.000000  0.052956  0.627790  1
  Sc  Sc6  1  0.000000  0.441922  0.124484  1
  Sc  Sc7  1  0.000000  0.556808  0.874556  1
  Re  Re8  1  0.000000  0.140828  0.180197  1
  Re  Re9  1  0.000000  0.861023  0.818657  1
  B  B10  1  0.500000  0.554874  0.434276  1
  B  B11  1  0.500000  0.444825  0.566269  1
  B  B12  1  0.500000  0.054256  0.065143  1
  B  B13  1  0.500000  0.947560  0.933342  1
  B  B14  1  0.500000  0.753999  0.420171  1
  B  B15  1  0.500000  0.246175  0.580405  1
  B  B16  1  0.500000  0.252289  0.078497  1
  B  B17  1  0.500000  0.747542  0.919435  1
  B  B18  1  0.500000  0.793730  0.264469  1
  B  B19  1  0.500000  0.205884  0.736843  1
  B  B20  1  0.500000  0.295350  0.234653  1
  B  B21  1  0.500000  0.704879  0.764664  1
  B  B22  1  0.500000  0.629156  0.181023  1
  B  B23  1  0.500000  0.369024  0.819843  1
  B  B24  1  0.500000  0.129883  0.316922  1
  B  B25  1  0.500000  0.870925  0.682811  1
  B  B26  1  0.500000  0.980968  0.213303  1
  B  B27  1  0.500000  0.020704  0.787055  1
  B  B28  1  0.500000  0.481596  0.285895  1
  B  B29  1  0.500000  0.517773  0.714283  1
  B  B30  1  0.500000  0.600016  0.027332  1
  B  B31  1  0.500000  0.398036  0.971963  1
  B  B32  1  0.500000  0.100640  0.473302  1
  B  B33  1  0.500000  0.899849  0.526788  1
  Rh  Rh34  1  0.000000  0.639766  0.319327  1
  Rh  Rh35  1  0.000000  0.359619  0.681529  1
