# generated using pymatgen
data_SrZr(TaS2)6
_symmetry_space_group_name_H-M   'P 1'
_cell_length_a   5.79777600
_cell_length_b   5.79777574
_cell_length_c   14.12617700
_cell_angle_alpha   90.00000000
_cell_angle_beta   90.00000000
_cell_angle_gamma   120.00000149
_symmetry_Int_Tables_number   1
_chemical_formula_structural   SrZr(TaS2)6
_chemical_formula_sum   'Sr1 Zr1 Ta6 S12'
_cell_volume   411.22367843
_cell_formula_units_Z   1
loop_
 _symmetry_equiv_pos_site_id
 _symmetry_equiv_pos_as_xyz
  1  'x, y, z'
loop_
 _atom_site_type_symbol
 _atom_site_label
 _atom_site_symmetry_multiplicity
 _atom_site_fract_x
 _atom_site_fract_y
 _atom_site_fract_z
 _atom_site_occupancy
  Sr  Sr0  1  0.333333  0.666667  0.250000  1
  Zr  Zr1  1  0.666667  0.333333  0.750000  1
  Ta  Ta2  1  0.000000  0.000000  0.519311  1
  Ta  Ta3  1  0.000000  0.000000  0.980689  1
  Ta  Ta4  1  0.333333  0.666667  0.980530  1
  Ta  Ta5  1  0.666667  0.333333  0.980971  1
  Ta  Ta6  1  0.666667  0.333333  0.519029  1
  Ta  Ta7  1  0.333333  0.666667  0.519470  1
  S  S8  1  0.332765  0.330344  0.408098  1
  S  S9  1  0.669656  0.002419  0.408098  1
  S  S10  1  0.997581  0.667235  0.408098  1
  S  S11  1  0.329727  0.332711  0.631223  1
  S  S12  1  0.002983  0.670273  0.631223  1
  S  S13  1  0.667289  0.997017  0.631223  1
  S  S14  1  0.667289  0.670273  0.868777  1
  S  S15  1  0.329727  0.997017  0.868777  1
  S  S16  1  0.002983  0.332711  0.868777  1
  S  S17  1  0.669656  0.667235  0.091902  1
  S  S18  1  0.997581  0.330344  0.091902  1
  S  S19  1  0.332765  0.002419  0.091902  1
