# generated using pymatgen
data_NdNi4(AgO4)3
_symmetry_space_group_name_H-M   'P 1'
_cell_length_a   6.52890132
_cell_length_b   6.52890155
_cell_length_c   6.52890200
_cell_angle_alpha   109.47122514
_cell_angle_beta   109.47122584
_cell_angle_gamma   109.47121034
_symmetry_Int_Tables_number   1
_chemical_formula_structural   NdNi4(AgO4)3
_chemical_formula_sum   'Nd1 Ni4 Ag3 O12'
_cell_volume   214.23897733
_cell_formula_units_Z   1
loop_
 _symmetry_equiv_pos_site_id
 _symmetry_equiv_pos_as_xyz
  1  'x, y, z'
loop_
 _atom_site_type_symbol
 _atom_site_label
 _atom_site_symmetry_multiplicity
 _atom_site_fract_x
 _atom_site_fract_y
 _atom_site_fract_z
 _atom_site_occupancy
  Nd  Nd0  1  0.000000  0.000000  0.000000  1
  Ni  Ni1  1  0.000000  0.000000  0.500000  1
  Ni  Ni2  1  0.000000  0.500000  0.000000  1
  Ni  Ni3  1  0.500000  0.000000  0.000000  1
  Ni  Ni4  1  0.500000  0.500000  0.500000  1
  Ag  Ag5  1  0.000000  0.500000  0.500000  1
  Ag  Ag6  1  0.500000  0.000000  0.500000  1
  Ag  Ag7  1  0.500000  0.500000  0.000000  1
  O  O8  1  0.296269  0.117325  0.821055  1
  O  O9  1  0.703731  0.882675  0.178945  1
  O  O10  1  0.703731  0.524786  0.821055  1
  O  O11  1  0.475214  0.178945  0.296269  1
  O  O12  1  0.178945  0.296269  0.475214  1
  O  O13  1  0.821055  0.296269  0.117325  1
  O  O14  1  0.882675  0.178945  0.703731  1
  O  O15  1  0.821055  0.703731  0.524786  1
  O  O16  1  0.296269  0.475214  0.178945  1
  O  O17  1  0.524786  0.821055  0.703731  1
  O  O18  1  0.178945  0.703731  0.882675  1
  O  O19  1  0.117325  0.821055  0.296269  1
