# generated using pymatgen
data_Ba7Sr4In(ReN4)4
_symmetry_space_group_name_H-M   'P 1'
_cell_length_a   11.10254638
_cell_length_b   10.76002237
_cell_length_c   8.28935247
_cell_angle_alpha   70.25316926
_cell_angle_beta   65.54414344
_cell_angle_gamma   44.52864467
_symmetry_Int_Tables_number   1
_chemical_formula_structural   Ba7Sr4In(ReN4)4
_chemical_formula_sum   'Ba7 Sr4 In1 Re4 N16'
_cell_volume   630.72362077
_cell_formula_units_Z   1
loop_
 _symmetry_equiv_pos_site_id
 _symmetry_equiv_pos_as_xyz
  1  'x, y, z'
loop_
 _atom_site_type_symbol
 _atom_site_label
 _atom_site_symmetry_multiplicity
 _atom_site_fract_x
 _atom_site_fract_y
 _atom_site_fract_z
 _atom_site_occupancy
  Ba  Ba0  1  0.935206  0.564794  0.564794  1
  Ba  Ba1  1  0.306192  0.693808  0.693808  1
  Ba  Ba2  1  0.141344  0.103535  0.892907  1
  Ba  Ba3  1  0.143804  0.129345  0.366132  1
  Ba  Ba4  1  0.360720  0.366132  0.129345  1
  Ba  Ba5  1  0.701233  0.298767  0.298767  1
  Ba  Ba6  1  0.862214  0.892907  0.103535  1
  Sr  Sr7  1  0.355259  0.330882  0.655862  1
  Sr  Sr8  1  0.871269  0.920663  0.618246  1
  Sr  Sr9  1  0.657997  0.655862  0.330882  1
  Sr  Sr10  1  0.589821  0.618246  0.920663  1
  In  In11  1  0.528946  0.971054  0.971054  1
  Re  Re12  1  0.486044  0.011050  0.479326  1
  Re  Re13  1  0.023580  0.479326  0.011050  1
  Re  Re14  1  0.765303  0.256432  0.750119  1
  Re  Re15  1  0.228145  0.750119  0.256432  1
  N  N16  1  0.042015  0.623841  0.824784  1
  N  N17  1  0.685261  0.293553  0.988128  1
  N  N18  1  0.645908  0.028510  0.463290  1
  N  N19  1  0.509360  0.824784  0.623841  1
  N  N20  1  0.179902  0.612038  0.404583  1
  N  N21  1  0.803477  0.404583  0.612038  1
  N  N22  1  0.980682  0.023696  0.715896  1
  N  N23  1  0.524257  0.979374  0.250156  1
  N  N24  1  0.421210  0.680710  0.297849  1
  N  N25  1  0.976075  0.548108  0.222561  1
  N  N26  1  0.279728  0.715896  0.023696  1
  N  N27  1  0.862291  0.463290  0.028510  1
  N  N28  1  0.246212  0.250156  0.979374  1
  N  N29  1  0.600232  0.297849  0.680710  1
  N  N30  1  0.253254  0.222561  0.548108  1
  N  N31  1  0.033058  0.988128  0.293553  1
