# generated using pymatgen
data_NaSm6NiBr12
_symmetry_space_group_name_H-M   'P 1'
_cell_length_a   9.43555935
_cell_length_b   9.42764839
_cell_length_c   9.28395434
_cell_angle_alpha   107.09877467
_cell_angle_beta   106.97949685
_cell_angle_gamma   107.12499511
_symmetry_Int_Tables_number   1
_chemical_formula_structural   NaSm6NiBr12
_chemical_formula_sum   'Na1 Sm6 Ni1 Br12'
_cell_volume   686.50413945
_cell_formula_units_Z   1
loop_
 _symmetry_equiv_pos_site_id
 _symmetry_equiv_pos_as_xyz
  1  'x, y, z'
loop_
 _atom_site_type_symbol
 _atom_site_label
 _atom_site_symmetry_multiplicity
 _atom_site_fract_x
 _atom_site_fract_y
 _atom_site_fract_z
 _atom_site_occupancy
  Na  Na0  1  0.500000  0.500000  0.500000  1
  Sm  Sm1  1  0.110928  0.321263  0.030066  1
  Sm  Sm2  1  0.320703  0.031099  0.110579  1
  Sm  Sm3  1  0.028896  0.104614  0.307691  1
  Sm  Sm4  1  0.971105  0.895386  0.692310  1
  Sm  Sm5  1  0.679297  0.968902  0.889421  1
  Sm  Sm6  1  0.889072  0.678737  0.969934  1
  Ni  Ni7  1  0.000000  0.000000  0.000000  1
  Br  Br8  1  0.219436  0.684024  0.073430  1
  Br  Br9  1  0.451968  0.371121  0.149745  1
  Br  Br10  1  0.685007  0.074717  0.222266  1
  Br  Br11  1  0.927385  0.781338  0.318503  1
  Br  Br12  1  0.150828  0.451146  0.372734  1
  Br  Br13  1  0.370683  0.151684  0.454260  1
  Br  Br14  1  0.629317  0.848316  0.545741  1
  Br  Br15  1  0.849173  0.548854  0.627266  1
  Br  Br16  1  0.072616  0.218662  0.681498  1
  Br  Br17  1  0.314994  0.925284  0.777734  1
  Br  Br18  1  0.548032  0.628879  0.850256  1
  Br  Br19  1  0.780564  0.315976  0.926570  1
