# generated using pymatgen
data_K16NdPaSb8
_symmetry_space_group_name_H-M   'P 1'
_cell_length_a   11.75288750
_cell_length_b   11.75288796
_cell_length_c   11.75288800
_cell_angle_alpha   59.99999988
_cell_angle_beta   59.99999860
_cell_angle_gamma   60.00000197
_symmetry_Int_Tables_number   1
_chemical_formula_structural   K16NdPaSb8
_chemical_formula_sum   'K16 Nd1 Pa1 Sb8'
_cell_volume   1147.93890838
_cell_formula_units_Z   1
loop_
 _symmetry_equiv_pos_site_id
 _symmetry_equiv_pos_as_xyz
  1  'x, y, z'
loop_
 _atom_site_type_symbol
 _atom_site_label
 _atom_site_symmetry_multiplicity
 _atom_site_fract_x
 _atom_site_fract_y
 _atom_site_fract_z
 _atom_site_occupancy
  K  K0  1  0.623833  0.128501  0.623833  1
  K  K1  1  0.623833  0.623833  0.128501  1
  K  K2  1  0.128501  0.623833  0.623833  1
  K  K3  1  0.623833  0.623833  0.623833  1
  K  K4  1  0.037351  0.037351  0.462649  1
  K  K5  1  0.774621  0.225379  0.225379  1
  K  K6  1  0.225379  0.774621  0.774621  1
  K  K7  1  0.774621  0.774621  0.225379  1
  K  K8  1  0.774621  0.225379  0.774621  1
  K  K9  1  0.225379  0.774621  0.225379  1
  K  K10  1  0.462649  0.037351  0.462649  1
  K  K11  1  0.462649  0.037351  0.037351  1
  K  K12  1  0.037351  0.462649  0.462649  1
  K  K13  1  0.037351  0.462649  0.037351  1
  K  K14  1  0.225379  0.225379  0.774621  1
  K  K15  1  0.462649  0.462649  0.037351  1
  Nd  Nd16  1  0.500000  0.500000  0.500000  1
  Pa  Pa17  1  0.750000  0.750000  0.750000  1
  Sb  Sb18  1  0.391976  0.824072  0.391976  1
  Sb  Sb19  1  0.853150  0.853150  0.440552  1
  Sb  Sb20  1  0.440552  0.853150  0.853150  1
  Sb  Sb21  1  0.853150  0.853150  0.853150  1
  Sb  Sb22  1  0.824072  0.391976  0.391976  1
  Sb  Sb23  1  0.391976  0.391976  0.391976  1
  Sb  Sb24  1  0.391976  0.391976  0.824072  1
  Sb  Sb25  1  0.853150  0.440552  0.853150  1
