# generated using pymatgen
data_YHo5(B7W)2
_symmetry_space_group_name_H-M   'P 1'
_cell_length_a   8.14558343
_cell_length_b   8.14558137
_cell_length_c   9.48061100
_cell_angle_alpha   90.00000000
_cell_angle_beta   90.00000000
_cell_angle_gamma   155.55162885
_symmetry_Int_Tables_number   1
_chemical_formula_structural   YHo5(B7W)2
_chemical_formula_sum   'Y1 Ho5 B14 W2'
_cell_volume   260.34415096
_cell_formula_units_Z   1
loop_
 _symmetry_equiv_pos_site_id
 _symmetry_equiv_pos_as_xyz
  1  'x, y, z'
loop_
 _atom_site_type_symbol
 _atom_site_label
 _atom_site_symmetry_multiplicity
 _atom_site_fract_x
 _atom_site_fract_y
 _atom_site_fract_z
 _atom_site_occupancy
  Y  Y0  1  0.245858  0.754142  0.750000  1
  Ho  Ho1  1  0.892835  0.107165  0.940414  1
  Ho  Ho2  1  0.107247  0.892753  0.060021  1
  Ho  Ho3  1  0.754781  0.245219  0.250000  1
  Ho  Ho4  1  0.892835  0.107165  0.559586  1
  Ho  Ho5  1  0.107247  0.892753  0.439979  1
  B  B6  1  0.545487  0.454513  0.250000  1
  B  B7  1  0.454525  0.545475  0.750000  1
  B  B8  1  0.519372  0.480628  0.908490  1
  B  B9  1  0.480635  0.519365  0.091591  1
  B  B10  1  0.480635  0.519365  0.408409  1
  B  B11  1  0.519372  0.480628  0.591510  1
  B  B12  1  0.635103  0.364897  0.852980  1
  B  B13  1  0.364671  0.635329  0.147681  1
  B  B14  1  0.727527  0.272473  0.967922  1
  B  B15  1  0.272280  0.727720  0.033665  1
  B  B16  1  0.272280  0.727720  0.466335  1
  B  B17  1  0.727527  0.272473  0.532078  1
  B  B18  1  0.635103  0.364897  0.647020  1
  B  B19  1  0.364671  0.635329  0.352319  1
  W  W20  1  0.053008  0.946992  0.750000  1
  W  W21  1  0.946997  0.053003  0.250000  1
