# generated using pymatgen
data_La2SiAs5Pd21
_symmetry_space_group_name_H-M   'P 1'
_cell_length_a   8.88287080
_cell_length_b   8.85088641
_cell_length_c   8.85088700
_cell_angle_alpha   60.23922284
_cell_angle_beta   59.88039521
_cell_angle_gamma   59.88038628
_symmetry_Int_Tables_number   1
_chemical_formula_structural   La2SiAs5Pd21
_chemical_formula_sum   'La2 Si1 As5 Pd21'
_cell_volume   492.04014877
_cell_formula_units_Z   1
loop_
 _symmetry_equiv_pos_site_id
 _symmetry_equiv_pos_as_xyz
  1  'x, y, z'
loop_
 _atom_site_type_symbol
 _atom_site_label
 _atom_site_symmetry_multiplicity
 _atom_site_fract_x
 _atom_site_fract_y
 _atom_site_fract_z
 _atom_site_occupancy
  La  La0  1  0.750235  0.749765  0.749765  1
  La  La1  1  0.250235  0.249765  0.249765  1
  Si  Si2  1  0.261348  0.738652  0.738652  1
  As  As3  1  0.738578  0.738336  0.261422  1
  As  As4  1  0.261664  0.738336  0.261422  1
  As  As5  1  0.738751  0.261249  0.261249  1
  As  As6  1  0.261664  0.261422  0.738336  1
  As  As7  1  0.738578  0.261422  0.738336  1
  Pd  Pd8  1  0.001150  0.998850  0.998850  1
  Pd  Pd9  1  0.614830  0.615735  0.154606  1
  Pd  Pd10  1  0.614830  0.154606  0.615735  1
  Pd  Pd11  1  0.155593  0.617957  0.617957  1
  Pd  Pd12  1  0.608494  0.617957  0.617957  1
  Pd  Pd13  1  0.382043  0.391506  0.844407  1
  Pd  Pd14  1  0.382043  0.844407  0.391506  1
  Pd  Pd15  1  0.845394  0.385170  0.385170  1
  Pd  Pd16  1  0.384265  0.385170  0.385170  1
  Pd  Pd17  1  0.999534  0.000466  0.348577  1
  Pd  Pd18  1  0.651423  0.000466  0.348577  1
  Pd  Pd19  1  0.001124  0.651690  0.346061  1
  Pd  Pd20  1  0.651423  0.348577  0.000466  1
  Pd  Pd21  1  0.999534  0.348577  0.000466  1
  Pd  Pd22  1  0.001124  0.346061  0.651690  1
  Pd  Pd23  1  0.345953  0.654047  0.994007  1
  Pd  Pd24  1  0.345953  0.994007  0.654047  1
  Pd  Pd25  1  0.348310  0.998876  0.998876  1
  Pd  Pd26  1  0.005993  0.994007  0.654047  1
  Pd  Pd27  1  0.005993  0.654047  0.994007  1
  Pd  Pd28  1  0.653939  0.998876  0.998876  1
