# generated using pymatgen
data_Tb3ZrCo8(PRu)12
_symmetry_space_group_name_H-M   'P 1'
_cell_length_a   3.78457000
_cell_length_b   10.61475246
_cell_length_c   12.08071939
_cell_angle_alpha   89.87338802
_cell_angle_beta   90.00000000
_cell_angle_gamma   90.00000000
_symmetry_Int_Tables_number   1
_chemical_formula_structural   Tb3ZrCo8(PRu)12
_chemical_formula_sum   'Tb3 Zr1 Co8 P12 Ru12'
_cell_volume   485.30878135
_cell_formula_units_Z   1
loop_
 _symmetry_equiv_pos_site_id
 _symmetry_equiv_pos_as_xyz
  1  'x, y, z'
loop_
 _atom_site_type_symbol
 _atom_site_label
 _atom_site_symmetry_multiplicity
 _atom_site_fract_x
 _atom_site_fract_y
 _atom_site_fract_z
 _atom_site_occupancy
  Tb  Tb0  1  0.250000  0.915246  0.206664  1
  Tb  Tb1  1  0.750000  0.415764  0.293839  1
  Tb  Tb2  1  0.750000  0.084622  0.792645  1
  Zr  Zr3  1  0.250000  0.584298  0.705949  1
  Co  Co4  1  0.250000  0.885716  0.696668  1
  Co  Co5  1  0.250000  0.612352  0.195011  1
  Co  Co6  1  0.750000  0.112243  0.304317  1
  Co  Co7  1  0.750000  0.392000  0.801309  1
  Co  Co8  1  0.250000  0.463787  0.932094  1
  Co  Co9  1  0.250000  0.036994  0.435389  1
  Co  Co10  1  0.750000  0.537531  0.063489  1
  Co  Co11  1  0.750000  0.961664  0.565773  1
  P  P12  1  0.250000  0.426091  0.111346  1
  P  P13  1  0.250000  0.074189  0.612809  1
  P  P14  1  0.750000  0.573469  0.884951  1
  P  P15  1  0.750000  0.925492  0.387912  1
  P  P16  1  0.250000  0.271737  0.872068  1
  P  P17  1  0.250000  0.228529  0.372338  1
  P  P18  1  0.750000  0.727589  0.128475  1
  P  P19  1  0.750000  0.770742  0.629779  1
  P  P20  1  0.250000  0.601356  0.385880  1
  P  P21  1  0.250000  0.899210  0.887313  1
  P  P22  1  0.750000  0.400223  0.614226  1
  P  P23  1  0.750000  0.101346  0.112833  1
  Ru  Ru24  1  0.250000  0.706760  0.985932  1
  Ru  Ru25  1  0.250000  0.791519  0.487640  1
  Ru  Ru26  1  0.750000  0.293935  0.012304  1
  Ru  Ru27  1  0.750000  0.207416  0.514106  1
  Ru  Ru28  1  0.250000  0.407658  0.487450  1
  Ru  Ru29  1  0.250000  0.094770  0.986107  1
  Ru  Ru30  1  0.750000  0.595218  0.519983  1
  Ru  Ru31  1  0.750000  0.904989  0.012614  1
  Ru  Ru32  1  0.250000  0.224152  0.180539  1
  Ru  Ru33  1  0.250000  0.277663  0.681259  1
  Ru  Ru34  1  0.750000  0.771491  0.818180  1
  Ru  Ru35  1  0.750000  0.722240  0.320809  1
