# generated using pymatgen
data_Rb6VAs(IrBr9)2
_symmetry_space_group_name_H-M   'P 1'
_cell_length_a   7.60699900
_cell_length_b   7.60699979
_cell_length_c   19.29577000
_cell_angle_alpha   90.00000000
_cell_angle_beta   90.00000000
_cell_angle_gamma   120.00000093
_symmetry_Int_Tables_number   1
_chemical_formula_structural   Rb6VAs(IrBr9)2
_chemical_formula_sum   'Rb6 V1 As1 Ir2 Br18'
_cell_volume   966.98448206
_cell_formula_units_Z   1
loop_
 _symmetry_equiv_pos_site_id
 _symmetry_equiv_pos_as_xyz
  1  'x, y, z'
loop_
 _atom_site_type_symbol
 _atom_site_label
 _atom_site_symmetry_multiplicity
 _atom_site_fract_x
 _atom_site_fract_y
 _atom_site_fract_z
 _atom_site_occupancy
  Rb  Rb0  1  0.666667  0.333333  0.566970  1
  Rb  Rb1  1  0.333333  0.666667  0.071520  1
  Rb  Rb2  1  0.333333  0.666667  0.438471  1
  Rb  Rb3  1  0.666667  0.333333  0.945807  1
  Rb  Rb4  1  0.000000  0.000000  0.251054  1
  Rb  Rb5  1  0.000000  0.000000  0.734606  1
  V  V6  1  0.666667  0.333333  0.170680  1
  As  As7  1  0.333333  0.666667  0.844474  1
  Ir  Ir8  1  0.333333  0.666667  0.663084  1
  Ir  Ir9  1  0.666667  0.333333  0.326731  1
  Br  Br10  1  0.821376  0.642751  0.401546  1
  Br  Br11  1  0.177827  0.822173  0.588691  1
  Br  Br12  1  0.644345  0.822173  0.588691  1
  Br  Br13  1  0.821376  0.178624  0.401546  1
  Br  Br14  1  0.357249  0.178624  0.401546  1
  Br  Br15  1  0.171236  0.342472  0.914754  1
  Br  Br16  1  0.021242  0.510621  0.740720  1
  Br  Br17  1  0.657528  0.828764  0.914754  1
  Br  Br18  1  0.825203  0.650405  0.097478  1
  Br  Br19  1  0.177827  0.355655  0.588691  1
  Br  Br20  1  0.489379  0.978758  0.740720  1
  Br  Br21  1  0.507738  0.492262  0.252347  1
  Br  Br22  1  0.489379  0.510621  0.740720  1
  Br  Br23  1  0.171236  0.828764  0.914754  1
  Br  Br24  1  0.349595  0.174797  0.097478  1
  Br  Br25  1  0.984525  0.492262  0.252347  1
  Br  Br26  1  0.507738  0.015475  0.252347  1
  Br  Br27  1  0.825203  0.174797  0.097478  1
