# generated using pymatgen
data_TlAgCl4
_symmetry_space_group_name_H-M   'P 1'
_cell_length_a   4.01692233
_cell_length_b   7.60310342
_cell_length_c   12.19837027
_cell_angle_alpha   90.20772854
_cell_angle_beta   99.47689379
_cell_angle_gamma   74.68275633
_symmetry_Int_Tables_number   1
_chemical_formula_structural   TlAgCl4
_chemical_formula_sum   'Tl2 Ag2 Cl8'
_cell_volume   354.10225098
_cell_formula_units_Z   2
loop_
 _symmetry_equiv_pos_site_id
 _symmetry_equiv_pos_as_xyz
  1  'x, y, z'
loop_
 _atom_site_type_symbol
 _atom_site_label
 _atom_site_symmetry_multiplicity
 _atom_site_fract_x
 _atom_site_fract_y
 _atom_site_fract_z
 _atom_site_occupancy
  Tl  Tl0  1  0.000000  0.000000  0.000000  1
  Tl  Tl1  1  0.500001  0.500000  0.500000  1
  Ag  Ag2  1  0.733955  0.750000  0.250000  1
  Ag  Ag3  1  0.266045  0.250000  0.750000  1
  Cl  Cl4  1  0.197229  0.686521  0.096358  1
  Cl  Cl5  1  0.520098  0.096287  0.140139  1
  Cl  Cl6  1  0.976248  0.403713  0.359860  1
  Cl  Cl7  1  0.287393  0.813479  0.403642  1
  Cl  Cl8  1  0.712607  0.186521  0.596359  1
  Cl  Cl9  1  0.023751  0.596288  0.640139  1
  Cl  Cl10  1  0.479901  0.903714  0.859861  1
  Cl  Cl11  1  0.802770  0.313479  0.903642  1
