# generated using pymatgen
data_Co4(SiW2)3
_symmetry_space_group_name_H-M   'P 1'
_cell_length_a   9.11433826
_cell_length_b   9.09943369
_cell_length_c   9.11434000
_cell_angle_alpha   30.38289305
_cell_angle_beta   29.86177872
_cell_angle_gamma   30.38289875
_symmetry_Int_Tables_number   1
_chemical_formula_structural   Co4(SiW2)3
_chemical_formula_sum   'Co4 Si3 W6'
_cell_volume   169.53091023
_cell_formula_units_Z   1
loop_
 _symmetry_equiv_pos_site_id
 _symmetry_equiv_pos_as_xyz
  1  'x, y, z'
loop_
 _atom_site_type_symbol
 _atom_site_label
 _atom_site_symmetry_multiplicity
 _atom_site_fract_x
 _atom_site_fract_y
 _atom_site_fract_z
 _atom_site_occupancy
  Co  Co0  1  0.592177  0.096371  0.084477  1
  Co  Co1  1  0.915523  0.903629  0.407823  1
  Co  Co2  1  0.914704  0.403170  0.905931  1
  Co  Co3  1  0.094069  0.596830  0.085296  1
  Si  Si4  1  0.094256  0.101125  0.573268  1
  Si  Si5  1  0.426732  0.898875  0.905744  1
  Si  Si6  1  0.974889  0.000000  0.025111  1
  W  W7  1  0.837397  0.831010  0.833199  1
  W  W8  1  0.638340  0.656975  0.655559  1
  W  W9  1  0.453334  0.449810  0.452662  1
  W  W10  1  0.547338  0.550190  0.546666  1
  W  W11  1  0.166801  0.168990  0.162603  1
  W  W12  1  0.344441  0.343025  0.361660  1
