# generated using pymatgen
data_Y3Er17Cd3Ag3Ru2
_symmetry_space_group_name_H-M   'P 1'
_cell_length_a   9.52657000
_cell_length_b   9.52656945
_cell_length_c   9.62568600
_cell_angle_alpha   90.00000000
_cell_angle_beta   90.00000000
_cell_angle_gamma   120.00000190
_symmetry_Int_Tables_number   1
_chemical_formula_structural   Y3Er17Cd3Ag3Ru2
_chemical_formula_sum   'Y3 Er17 Cd3 Ag3 Ru2'
_cell_volume   756.54613133
_cell_formula_units_Z   1
loop_
 _symmetry_equiv_pos_site_id
 _symmetry_equiv_pos_as_xyz
  1  'x, y, z'
loop_
 _atom_site_type_symbol
 _atom_site_label
 _atom_site_symmetry_multiplicity
 _atom_site_fract_x
 _atom_site_fract_y
 _atom_site_fract_z
 _atom_site_occupancy
  Y  Y0  1  0.459438  0.540562  0.750000  1
  Y  Y1  1  0.459438  0.918876  0.750000  1
  Y  Y2  1  0.081124  0.540562  0.750000  1
  Er  Er3  1  0.000000  0.000000  0.477243  1
  Er  Er4  1  0.000000  0.000000  0.022757  1
  Er  Er5  1  0.210201  0.789799  0.440783  1
  Er  Er6  1  0.210201  0.420404  0.440783  1
  Er  Er7  1  0.579596  0.789799  0.440783  1
  Er  Er8  1  0.790898  0.209102  0.559023  1
  Er  Er9  1  0.790898  0.581796  0.559023  1
  Er  Er10  1  0.418204  0.209102  0.559023  1
  Er  Er11  1  0.790898  0.209102  0.940977  1
  Er  Er12  1  0.790898  0.581796  0.940977  1
  Er  Er13  1  0.418204  0.209102  0.940977  1
  Er  Er14  1  0.210201  0.789799  0.059217  1
  Er  Er15  1  0.210201  0.420404  0.059217  1
  Er  Er16  1  0.579596  0.789799  0.059217  1
  Er  Er17  1  0.540574  0.459426  0.250000  1
  Er  Er18  1  0.540574  0.081148  0.250000  1
  Er  Er19  1  0.918852  0.459426  0.250000  1
  Cd  Cd20  1  0.111179  0.888821  0.750000  1
  Cd  Cd21  1  0.111179  0.222357  0.750000  1
  Cd  Cd22  1  0.777643  0.888821  0.750000  1
  Ag  Ag23  1  0.876397  0.123603  0.250000  1
  Ag  Ag24  1  0.876397  0.752797  0.250000  1
  Ag  Ag25  1  0.247203  0.123603  0.250000  1
  Ru  Ru26  1  0.333333  0.666667  0.250000  1
  Ru  Ru27  1  0.666667  0.333333  0.750000  1
