# generated using pymatgen
data_ScTa3Nb2Re4(Si3W)2
_symmetry_space_group_name_H-M   'P 1'
_cell_length_a   7.68790458
_cell_length_b   7.64509213
_cell_length_c   7.68790300
_cell_angle_alpha   126.24757692
_cell_angle_beta   128.26171918
_cell_angle_gamma   77.97151512
_symmetry_Int_Tables_number   1
_chemical_formula_structural   ScTa3Nb2Re4(Si3W)2
_chemical_formula_sum   'Sc1 Ta3 Nb2 Re4 Si6 W2'
_cell_volume   277.10772540
_cell_formula_units_Z   1
loop_
 _symmetry_equiv_pos_site_id
 _symmetry_equiv_pos_as_xyz
  1  'x, y, z'
loop_
 _atom_site_type_symbol
 _atom_site_label
 _atom_site_symmetry_multiplicity
 _atom_site_fract_x
 _atom_site_fract_y
 _atom_site_fract_z
 _atom_site_occupancy
  Sc  Sc0  1  0.549292  0.091236  0.041943  1
  Ta  Ta1  1  0.448117  0.486763  0.538646  1
  Ta  Ta2  1  0.946064  0.488806  0.042743  1
  Ta  Ta3  1  0.054739  0.096617  0.541880  1
  Nb  Nb4  1  0.748144  0.906311  0.658167  1
  Nb  Nb5  1  0.250249  0.904568  0.154318  1
  Re  Re6  1  0.120029  0.753943  0.615032  1
  Re  Re7  1  0.877928  0.497845  0.634121  1
  Re  Re8  1  0.638912  0.753943  0.133916  1
  Re  Re9  1  0.363724  0.497845  0.119918  1
  Si  Si10  1  0.745893  0.499142  0.253250  1
  Si  Si11  1  0.254347  0.509775  0.755428  1
  Si  Si12  1  0.330768  0.824185  0.491528  1
  Si  Si13  1  0.670702  0.160285  0.495309  1
  Si  Si14  1  0.832656  0.824185  0.993416  1
  Si  Si15  1  0.164976  0.160285  0.989582  1
  W  W16  1  0.499382  0.243231  0.739152  1
  W  W17  1  0.004079  0.243231  0.243850  1
