# generated using pymatgen
data_Li4Yb8Al3InGe8
_symmetry_space_group_name_H-M   'P 1'
_cell_length_a   7.07326714
_cell_length_b   4.35431800
_cell_length_c   16.48424260
_cell_angle_alpha   90.00000000
_cell_angle_beta   89.73997727
_cell_angle_gamma   90.00000000
_symmetry_Int_Tables_number   1
_chemical_formula_structural   Li4Yb8Al3InGe8
_chemical_formula_sum   'Li4 Yb8 Al3 In1 Ge8'
_cell_volume   507.69715366
_cell_formula_units_Z   1
loop_
 _symmetry_equiv_pos_site_id
 _symmetry_equiv_pos_as_xyz
  1  'x, y, z'
loop_
 _atom_site_type_symbol
 _atom_site_label
 _atom_site_symmetry_multiplicity
 _atom_site_fract_x
 _atom_site_fract_y
 _atom_site_fract_z
 _atom_site_occupancy
  Li  Li0  1  0.489837  0.750000  0.070042  1
  Li  Li1  1  0.987145  0.750000  0.432034  1
  Li  Li2  1  0.012479  0.250001  0.566749  1
  Li  Li3  1  0.514952  0.250001  0.933502  1
  Yb  Yb4  1  0.159391  0.250001  0.063658  1
  Yb  Yb5  1  0.505876  0.250001  0.223026  1
  Yb  Yb6  1  0.006267  0.250001  0.277497  1
  Yb  Yb7  1  0.658541  0.250001  0.437508  1
  Yb  Yb8  1  0.342586  0.750000  0.559532  1
  Yb  Yb9  1  0.991201  0.750000  0.720434  1
  Yb  Yb10  1  0.490752  0.750000  0.776584  1
  Yb  Yb11  1  0.840093  0.750000  0.938420  1
  Al  Al12  1  0.842249  0.750000  0.155770  1
  Al  Al13  1  0.341547  0.750000  0.344418  1
  Al  Al14  1  0.657722  0.250001  0.653882  1
  In  In15  1  0.157692  0.250001  0.845863  1
  Ge  Ge16  1  0.737818  0.250001  0.069786  1
  Ge  Ge17  1  0.217462  0.750000  0.189883  1
  Ge  Ge18  1  0.716758  0.750000  0.310974  1
  Ge  Ge19  1  0.237481  0.250001  0.429957  1
  Ge  Ge20  1  0.763494  0.750000  0.569009  1
  Ge  Ge21  1  0.285525  0.250001  0.683408  1
  Ge  Ge22  1  0.769551  0.250001  0.809642  1
  Ge  Ge23  1  0.273578  0.750000  0.938424  1
