# generated using pymatgen
data_Pr3Nd7Bi5PbBr2
_symmetry_space_group_name_H-M   'P 1'
_cell_length_a   9.68217700
_cell_length_b   9.66366799
_cell_length_c   6.75170000
_cell_angle_alpha   90.00000000
_cell_angle_beta   90.00000000
_cell_angle_gamma   120.06082859
_symmetry_Int_Tables_number   1
_chemical_formula_structural   Pr3Nd7Bi5PbBr2
_chemical_formula_sum   'Pr3 Nd7 Bi5 Pb1 Br2'
_cell_volume   546.75436646
_cell_formula_units_Z   1
loop_
 _symmetry_equiv_pos_site_id
 _symmetry_equiv_pos_as_xyz
  1  'x, y, z'
loop_
 _atom_site_type_symbol
 _atom_site_label
 _atom_site_symmetry_multiplicity
 _atom_site_fract_x
 _atom_site_fract_y
 _atom_site_fract_z
 _atom_site_occupancy
  Pr  Pr0  1  0.000419  0.727880  0.250000  1
  Pr  Pr1  1  0.726600  0.728512  0.750000  1
  Pr  Pr2  1  0.272537  0.272190  0.250000  1
  Nd  Nd3  1  0.273327  0.999972  0.750000  1
  Nd  Nd4  1  0.727175  0.000074  0.250000  1
  Nd  Nd5  1  0.998015  0.271371  0.750000  1
  Nd  Nd6  1  0.333578  0.666823  0.499945  1
  Nd  Nd7  1  0.666786  0.333000  0.499975  1
  Nd  Nd8  1  0.666786  0.333000  0.000025  1
  Nd  Nd9  1  0.333578  0.666823  0.000055  1
  Bi  Bi10  1  0.386656  0.000009  0.250000  1
  Bi  Bi11  1  0.999954  0.614855  0.750000  1
  Bi  Bi12  1  0.999210  0.384052  0.250000  1
  Bi  Bi13  1  0.383871  0.384353  0.750000  1
  Bi  Bi14  1  0.615019  0.615830  0.250000  1
  Pb  Pb15  1  0.614876  0.000414  0.750000  1
  Br  Br16  1  0.000805  0.000422  0.500149  1
  Br  Br17  1  0.000805  0.000422  0.999851  1
