# generated using pymatgen
data_Rb3V2F7
_symmetry_space_group_name_H-M   'P 1'
_cell_length_a   4.26867798
_cell_length_b   4.26867391
_cell_length_c   11.67780983
_cell_angle_alpha   100.53804974
_cell_angle_beta   100.53785513
_cell_angle_gamma   89.99152516
_symmetry_Int_Tables_number   1
_chemical_formula_structural   Rb3V2F7
_chemical_formula_sum   'Rb3 V2 F7'
_cell_volume   205.54896413
_cell_formula_units_Z   1
loop_
 _symmetry_equiv_pos_site_id
 _symmetry_equiv_pos_as_xyz
  1  'x, y, z'
loop_
 _atom_site_type_symbol
 _atom_site_label
 _atom_site_symmetry_multiplicity
 _atom_site_fract_x
 _atom_site_fract_y
 _atom_site_fract_z
 _atom_site_occupancy
  Rb  Rb0  1  0.685797  0.685802  0.371525  1
  Rb  Rb1  1  0.314202  0.314200  0.628478  1
  Rb  Rb2  1  0.500001  0.500000  0.000003  1
  V  V3  1  0.904427  0.904405  0.808866  1
  V  V4  1  0.095579  0.095594  0.191132  1
  F  F5  1  0.904831  0.404888  0.809940  1
  F  F6  1  0.404892  0.904831  0.809938  1
  F  F7  1  0.095166  0.595112  0.190062  1
  F  F8  1  0.595107  0.095169  0.190062  1
  F  F9  1  0.810258  0.810260  0.620994  1
  F  F10  1  0.999996  0.999999  0.999996  1
  F  F11  1  0.189740  0.189742  0.379003  1
