# generated using pymatgen
data_Tm4B16IrRhW2
_symmetry_space_group_name_H-M   'P 1'
_cell_length_a   3.57306400
_cell_length_b   5.97306600
_cell_length_c   11.55894712
_cell_angle_alpha   90.33494229
_cell_angle_beta   90.00000000
_cell_angle_gamma   90.00000000
_symmetry_Int_Tables_number   1
_chemical_formula_structural   Tm4B16IrRhW2
_chemical_formula_sum   'Tm4 B16 Ir1 Rh1 W2'
_cell_volume   246.68853442
_cell_formula_units_Z   1
loop_
 _symmetry_equiv_pos_site_id
 _symmetry_equiv_pos_as_xyz
  1  'x, y, z'
loop_
 _atom_site_type_symbol
 _atom_site_label
 _atom_site_symmetry_multiplicity
 _atom_site_fract_x
 _atom_site_fract_y
 _atom_site_fract_z
 _atom_site_occupancy
  Tm  Tm0  1  0.000000  0.128667  0.650297  1
  Tm  Tm1  1  0.000000  0.871398  0.349342  1
  Tm  Tm2  1  0.000000  0.630106  0.852129  1
  Tm  Tm3  1  0.000000  0.370130  0.147829  1
  B  B4  1  0.500000  0.793009  0.688479  1
  B  B5  1  0.500000  0.207030  0.311365  1
  B  B6  1  0.500000  0.290743  0.814344  1
  B  B7  1  0.500000  0.709548  0.185623  1
  B  B8  1  0.500000  0.868290  0.532172  1
  B  B9  1  0.500000  0.131747  0.467733  1
  B  B10  1  0.500000  0.365392  0.969828  1
  B  B11  1  0.500000  0.635047  0.030495  1
  B  B12  1  0.500000  0.022269  0.191703  1
  B  B13  1  0.500000  0.977109  0.808311  1
  B  B14  1  0.500000  0.523292  0.304722  1
  B  B15  1  0.500000  0.477194  0.695234  1
  B  B16  1  0.500000  0.113603  0.047145  1
  B  B17  1  0.500000  0.886860  0.952370  1
  B  B18  1  0.500000  0.615106  0.452736  1
  B  B19  1  0.500000  0.385120  0.547258  1
  Ir  Ir20  1  0.000000  0.143943  0.906103  1
  Rh  Rh21  1  0.000000  0.854343  0.094396  1
  W  W22  1  0.000000  0.630532  0.587088  1
  W  W23  1  0.000000  0.369522  0.413298  1
