# generated using pymatgen
data_Sr6AlFe3(SeO3)12
_symmetry_space_group_name_H-M   'P 1'
_cell_length_a   8.89800473
_cell_length_b   8.89800414
_cell_length_c   14.19792308
_cell_angle_alpha   90.00000073
_cell_angle_beta   108.26158501
_cell_angle_gamma   120.00000826
_symmetry_Int_Tables_number   1
_chemical_formula_structural   Sr6AlFe3(SeO3)12
_chemical_formula_sum   'Sr6 Al1 Fe3 Se12 O36'
_cell_volume   907.54861249
_cell_formula_units_Z   1
loop_
 _symmetry_equiv_pos_site_id
 _symmetry_equiv_pos_as_xyz
  1  'x, y, z'
loop_
 _atom_site_type_symbol
 _atom_site_label
 _atom_site_symmetry_multiplicity
 _atom_site_fract_x
 _atom_site_fract_y
 _atom_site_fract_z
 _atom_site_occupancy
  Sr  Sr0  1  0.499117  0.160996  0.247926  1
  Sr  Sr1  1  0.909807  0.748810  0.247926  1
  Sr  Sr2  1  0.086930  0.338120  0.247926  1
  Sr  Sr3  1  0.913070  0.661880  0.752074  1
  Sr  Sr4  1  0.090194  0.251190  0.752074  1
  Sr  Sr5  1  0.500883  0.839004  0.752074  1
  Al  Al6  1  0.000000  0.000000  0.000000  1
  Fe  Fe7  1  0.498671  0.749337  0.248007  1
  Fe  Fe8  1  0.000000  0.500000  0.500000  1
  Fe  Fe9  1  0.501329  0.250664  0.751993  1
  Se  Se10  1  0.385600  0.404998  0.084059  1
  Se  Se11  1  0.679061  0.980602  0.084059  1
  Se  Se12  1  0.103457  0.698459  0.084059  1
  Se  Se13  1  0.895340  0.088179  0.412052  1
  Se  Se14  1  0.604892  0.516713  0.412052  1
  Se  Se15  1  0.323874  0.807160  0.412052  1
  Se  Se16  1  0.676127  0.192840  0.587948  1
  Se  Se17  1  0.395108  0.483287  0.587948  1
  Se  Se18  1  0.104661  0.911821  0.587948  1
  Se  Se19  1  0.896543  0.301542  0.915941  1
  Se  Se20  1  0.320938  0.019398  0.915941  1
  Se  Se21  1  0.614400  0.595002  0.915941  1
  O  O22  1  0.908856  0.067454  0.089513  1
  O  O23  1  0.248112  0.180658  0.089513  1
  O  O24  1  0.022061  0.841403  0.089513  1
  O  O25  1  0.653071  0.814179  0.156600  1
  O  O26  1  0.317708  0.503530  0.156600  1
  O  O27  1  0.342420  0.838891  0.156600  1
  O  O28  1  0.719743  0.152389  0.161025  1
  O  O29  1  0.593671  0.441282  0.161025  1
  O  O30  1  0.008635  0.567354  0.161025  1
  O  O31  1  0.989353  0.050318  0.335293  1
  O  O32  1  0.396259  0.345940  0.335293  1
  O  O33  1  0.284974  0.939034  0.335293  1
  O  O34  1  0.677359  0.682651  0.339727  1
  O  O35  1  0.345021  0.662370  0.339727  1
  O  O36  1  0.657076  0.994708  0.339727  1
  O  O37  1  0.979924  0.312380  0.406100  1
  O  O38  1  0.738555  0.426176  0.406100  1
  O  O39  1  0.093720  0.667545  0.406100  1
  O  O40  1  0.906280  0.332456  0.593900  1
  O  O41  1  0.261445  0.573825  0.593900  1
  O  O42  1  0.020076  0.687621  0.593900  1
  O  O43  1  0.342924  0.005293  0.660273  1
  O  O44  1  0.654980  0.337631  0.660273  1
  O  O45  1  0.322641  0.317348  0.660273  1
  O  O46  1  0.715025  0.060966  0.664707  1
  O  O47  1  0.603742  0.654060  0.664707  1
  O  O48  1  0.010648  0.949682  0.664707  1
  O  O49  1  0.991365  0.432647  0.838975  1
  O  O50  1  0.406328  0.558718  0.838975  1
  O  O51  1  0.280257  0.847612  0.838975  1
  O  O52  1  0.657579  0.161109  0.843400  1
  O  O53  1  0.682292  0.496471  0.843400  1
  O  O54  1  0.346930  0.185822  0.843400  1
  O  O55  1  0.977940  0.158597  0.910487  1
  O  O56  1  0.751888  0.819343  0.910487  1
  O  O57  1  0.091144  0.932547  0.910487  1
