# generated using pymatgen
data_SrAc3(AsPd)4
_symmetry_space_group_name_H-M   'P 1'
_cell_length_a   4.51886000
_cell_length_b   7.81391158
_cell_length_c   8.42424100
_cell_angle_alpha   90.04656160
_cell_angle_beta   90.00000000
_cell_angle_gamma   90.00000000
_symmetry_Int_Tables_number   1
_chemical_formula_structural   SrAc3(AsPd)4
_chemical_formula_sum   'Sr1 Ac3 As4 Pd4'
_cell_volume   297.45961968
_cell_formula_units_Z   1
loop_
 _symmetry_equiv_pos_site_id
 _symmetry_equiv_pos_as_xyz
  1  'x, y, z'
loop_
 _atom_site_type_symbol
 _atom_site_label
 _atom_site_symmetry_multiplicity
 _atom_site_fract_x
 _atom_site_fract_y
 _atom_site_fract_z
 _atom_site_occupancy
  Sr  Sr0  1  0.250002  0.250379  0.999682  1
  Ac  Ac1  1  0.750000  0.750399  0.500506  1
  Ac  Ac2  1  0.250002  0.249685  0.500394  1
  Ac  Ac3  1  0.750000  0.749483  0.999608  1
  As  As4  1  0.750000  0.083751  0.253362  1
  As  As5  1  0.250002  0.582054  0.252193  1
  As  As6  1  0.750000  0.416000  0.745349  1
  As  As7  1  0.250002  0.917839  0.749025  1
  Pd  Pd8  1  0.250002  0.915266  0.249084  1
  Pd  Pd9  1  0.750000  0.419574  0.250713  1
  Pd  Pd10  1  0.250002  0.584942  0.750147  1
  Pd  Pd11  1  0.750000  0.080627  0.749934  1
