# generated using pymatgen
data_ErLuAsBr2
_symmetry_space_group_name_H-M   'P 1'
_cell_length_a   4.01639700
_cell_length_b   4.01639826
_cell_length_c   10.47236700
_cell_angle_alpha   90.00000000
_cell_angle_beta   90.00000000
_cell_angle_gamma   119.99999786
_symmetry_Int_Tables_number   1
_chemical_formula_structural   ErLuAsBr2
_chemical_formula_sum   'Er1 Lu1 As1 Br2'
_cell_volume   146.30154041
_cell_formula_units_Z   1
loop_
 _symmetry_equiv_pos_site_id
 _symmetry_equiv_pos_as_xyz
  1  'x, y, z'
loop_
 _atom_site_type_symbol
 _atom_site_label
 _atom_site_symmetry_multiplicity
 _atom_site_fract_x
 _atom_site_fract_y
 _atom_site_fract_z
 _atom_site_occupancy
  Er  Er0  1  0.333333  0.666667  0.852874  1
  Lu  Lu1  1  0.666667  0.333333  0.146564  1
  As  As2  1  0.000000  0.000000  0.002902  1
  Br  Br3  1  0.333333  0.666667  0.315274  1
  Br  Br4  1  0.666667  0.333333  0.682387  1
