# generated using pymatgen
data_Nd2DyTl5
_symmetry_space_group_name_H-M   'P 1'
_cell_length_a   6.64127126
_cell_length_b   6.64126914
_cell_length_c   10.67048200
_cell_angle_alpha   90.00000000
_cell_angle_beta   90.00000000
_cell_angle_gamma   103.52912474
_symmetry_Int_Tables_number   1
_chemical_formula_structural   Nd2DyTl5
_chemical_formula_sum   'Nd4 Dy2 Tl10'
_cell_volume   457.57763893
_cell_formula_units_Z   2
loop_
 _symmetry_equiv_pos_site_id
 _symmetry_equiv_pos_as_xyz
  1  'x, y, z'
loop_
 _atom_site_type_symbol
 _atom_site_label
 _atom_site_symmetry_multiplicity
 _atom_site_fract_x
 _atom_site_fract_y
 _atom_site_fract_z
 _atom_site_occupancy
  Nd  Nd0  1  0.204372  0.795628  0.500000  1
  Nd  Nd1  1  0.204372  0.795628  0.000000  1
  Nd  Nd2  1  0.795628  0.204372  0.500000  1
  Nd  Nd3  1  0.795628  0.204372  0.000000  1
  Dy  Dy4  1  0.619270  0.619270  0.250000  1
  Dy  Dy5  1  0.380730  0.380730  0.750000  1
  Tl  Tl6  1  0.004420  0.004420  0.250000  1
  Tl  Tl7  1  0.995580  0.995580  0.750000  1
  Tl  Tl8  1  0.307780  0.307780  0.041177  1
  Tl  Tl9  1  0.692220  0.692220  0.958823  1
  Tl  Tl10  1  0.307780  0.307780  0.458823  1
  Tl  Tl11  1  0.692220  0.692220  0.541177  1
  Tl  Tl12  1  0.507041  0.062267  0.250000  1
  Tl  Tl13  1  0.937733  0.492959  0.750000  1
  Tl  Tl14  1  0.492959  0.937733  0.750000  1
  Tl  Tl15  1  0.062267  0.507041  0.250000  1
