# generated using pymatgen
data_Tb2Pr2Y2CoI10
_symmetry_space_group_name_H-M   'P 1'
_cell_length_a   7.81615471
_cell_length_b   9.83437503
_cell_length_c   9.83147773
_cell_angle_alpha   106.85887914
_cell_angle_beta   96.09331618
_cell_angle_gamma   105.19790776
_symmetry_Int_Tables_number   1
_chemical_formula_structural   Tb2Pr2Y2CoI10
_chemical_formula_sum   'Tb2 Pr2 Y2 Co1 I10'
_cell_volume   684.22925565
_cell_formula_units_Z   1
loop_
 _symmetry_equiv_pos_site_id
 _symmetry_equiv_pos_as_xyz
  1  'x, y, z'
loop_
 _atom_site_type_symbol
 _atom_site_label
 _atom_site_symmetry_multiplicity
 _atom_site_fract_x
 _atom_site_fract_y
 _atom_site_fract_z
 _atom_site_occupancy
  Tb  Tb0  1  0.029676  0.718407  0.915404  1
  Tb  Tb1  1  0.970324  0.281593  0.084596  1
  Pr  Pr2  1  0.886308  0.957757  0.231532  1
  Pr  Pr3  1  0.113692  0.042243  0.768468  1
  Y  Y4  1  0.657862  0.877750  0.838873  1
  Y  Y5  1  0.342138  0.122250  0.161127  1
  Co  Co6  1  0.000000  0.000000  0.000000  1
  I  I7  1  0.652246  0.554019  0.731423  1
  I  I8  1  0.347754  0.445981  0.268577  1
  I  I9  1  0.734018  0.911341  0.544159  1
  I  I10  1  0.265982  0.088659  0.455841  1
  I  I11  1  0.082594  0.377550  0.824013  1
  I  I12  1  0.917406  0.622450  0.175987  1
  I  I13  1  0.447937  0.817346  0.089484  1
  I  I14  1  0.552063  0.182654  0.910516  1
  I  I15  1  0.228361  0.739742  0.659632  1
  I  I16  1  0.771639  0.260258  0.340368  1
