# generated using pymatgen
data_NdY2(Ga2Ni3)3
_symmetry_space_group_name_H-M   'P 1'
_cell_length_a   8.81791300
_cell_length_b   8.81791354
_cell_length_c   4.11133700
_cell_angle_alpha   90.00000000
_cell_angle_beta   90.00000000
_cell_angle_gamma   120.00000173
_symmetry_Int_Tables_number   1
_chemical_formula_structural   NdY2(Ga2Ni3)3
_chemical_formula_sum   'Nd1 Y2 Ga6 Ni9'
_cell_volume   276.85052196
_cell_formula_units_Z   1
loop_
 _symmetry_equiv_pos_site_id
 _symmetry_equiv_pos_as_xyz
  1  'x, y, z'
loop_
 _atom_site_type_symbol
 _atom_site_label
 _atom_site_symmetry_multiplicity
 _atom_site_fract_x
 _atom_site_fract_y
 _atom_site_fract_z
 _atom_site_occupancy
  Nd  Nd0  1  0.666667  0.333333  0.500000  1
  Y  Y1  1  0.333333  0.666667  0.500000  1
  Y  Y2  1  0.000000  0.000000  0.000000  1
  Ga  Ga3  1  0.479541  0.998356  0.000000  1
  Ga  Ga4  1  0.001644  0.481185  0.000000  1
  Ga  Ga5  1  0.518815  0.520459  0.000000  1
  Ga  Ga6  1  0.729735  0.999021  0.500000  1
  Ga  Ga7  1  0.000979  0.730714  0.500000  1
  Ga  Ga8  1  0.269286  0.270265  0.500000  1
  Ni  Ni9  1  0.199818  0.373385  0.000000  1
  Ni  Ni10  1  0.626615  0.826433  0.000000  1
  Ni  Ni11  1  0.173567  0.800182  0.000000  1
  Ni  Ni12  1  0.827739  0.631365  0.000000  1
  Ni  Ni13  1  0.803625  0.172261  0.000000  1
  Ni  Ni14  1  0.368635  0.196375  0.000000  1
  Ni  Ni15  1  0.291379  0.999050  0.500000  1
  Ni  Ni16  1  0.000950  0.292329  0.500000  1
  Ni  Ni17  1  0.707671  0.708621  0.500000  1
