# generated using pymatgen
data_Yb2VClO4
_symmetry_space_group_name_H-M   'P 1'
_cell_length_a   6.27487200
_cell_length_b   7.09604100
_cell_length_c   10.96261400
_cell_angle_alpha   90.00000000
_cell_angle_beta   90.00000000
_cell_angle_gamma   90.00000000
_symmetry_Int_Tables_number   1
_chemical_formula_structural   Yb2VClO4
_chemical_formula_sum   'Yb8 V4 Cl4 O16'
_cell_volume   488.12956176
_cell_formula_units_Z   4
loop_
 _symmetry_equiv_pos_site_id
 _symmetry_equiv_pos_as_xyz
  1  'x, y, z'
loop_
 _atom_site_type_symbol
 _atom_site_label
 _atom_site_symmetry_multiplicity
 _atom_site_fract_x
 _atom_site_fract_y
 _atom_site_fract_z
 _atom_site_occupancy
  Yb  Yb0  1  0.855695  0.972703  0.250000  1
  Yb  Yb1  1  0.144305  0.472703  0.250000  1
  Yb  Yb2  1  0.380117  0.750000  0.000000  1
  Yb  Yb3  1  0.619883  0.250000  0.500000  1
  Yb  Yb4  1  0.855695  0.527297  0.750000  1
  Yb  Yb5  1  0.144305  0.027297  0.750000  1
  Yb  Yb6  1  0.380117  0.750000  0.500000  1
  Yb  Yb7  1  0.619883  0.250000  0.000000  1
  V  V8  1  0.874237  0.750000  0.000000  1
  V  V9  1  0.125763  0.250000  0.000000  1
  V  V10  1  0.874237  0.750000  0.500000  1
  V  V11  1  0.125763  0.250000  0.500000  1
  Cl  Cl12  1  0.510672  0.803599  0.750000  1
  Cl  Cl13  1  0.489328  0.196401  0.250000  1
  Cl  Cl14  1  0.489328  0.303599  0.750000  1
  Cl  Cl15  1  0.510672  0.696401  0.250000  1
  O  O16  1  0.040287  0.732076  0.126443  1
  O  O17  1  0.294285  0.437021  0.031946  1
  O  O18  1  0.040287  0.767924  0.873557  1
  O  O19  1  0.294285  0.062979  0.531946  1
  O  O20  1  0.959713  0.267924  0.873557  1
  O  O21  1  0.705715  0.562979  0.531946  1
  O  O22  1  0.040287  0.732076  0.373557  1
  O  O23  1  0.294285  0.437021  0.468054  1
  O  O24  1  0.705715  0.937021  0.031946  1
  O  O25  1  0.294285  0.062979  0.968054  1
  O  O26  1  0.705715  0.937021  0.468054  1
  O  O27  1  0.959713  0.232076  0.373557  1
  O  O28  1  0.705715  0.562979  0.968054  1
  O  O29  1  0.959713  0.267924  0.626443  1
  O  O30  1  0.959713  0.232076  0.126443  1
  O  O31  1  0.040287  0.767924  0.626443  1
