# generated using pymatgen
data_K7RbTi5Sn3(PO5)8
_symmetry_space_group_name_H-M   'P 1'
_cell_length_a   6.48080522
_cell_length_b   10.70379391
_cell_length_c   13.00580700
_cell_angle_alpha   89.99247925
_cell_angle_beta   89.91445597
_cell_angle_gamma   89.97765671
_symmetry_Int_Tables_number   1
_chemical_formula_structural   K7RbTi5Sn3(PO5)8
_chemical_formula_sum   'K7 Rb1 Ti5 Sn3 P8 O40'
_cell_volume   902.20138995
_cell_formula_units_Z   1
loop_
 _symmetry_equiv_pos_site_id
 _symmetry_equiv_pos_as_xyz
  1  'x, y, z'
loop_
 _atom_site_type_symbol
 _atom_site_label
 _atom_site_symmetry_multiplicity
 _atom_site_fract_x
 _atom_site_fract_y
 _atom_site_fract_z
 _atom_site_occupancy
  K  K0  1  0.198304  0.564917  0.395864  1
  K  K1  1  0.302988  0.567899  0.897011  1
  K  K2  1  0.694215  0.070627  0.105598  1
  K  K3  1  0.724511  0.311694  0.881279  1
  K  K4  1  0.275629  0.809825  0.119135  1
  K  K5  1  0.224044  0.810252  0.619840  1
  K  K6  1  0.777590  0.312445  0.375103  1
  Rb  Rb7  1  0.816570  0.070346  0.601067  1
  Ti  Ti8  1  0.257294  0.258243  0.245956  1
  Ti  Ti9  1  0.003540  0.009251  0.871298  1
  Ti  Ti10  1  0.999142  0.507327  0.131501  1
  Ti  Ti11  1  0.503500  0.509411  0.630190  1
  Ti  Ti12  1  0.492500  0.009513  0.369705  1
  Sn  Sn13  1  0.246830  0.259550  0.747024  1
  Sn  Sn14  1  0.754745  0.758607  0.253221  1
  Sn  Sn15  1  0.744869  0.758958  0.754129  1
  P  P16  1  0.161738  0.261434  0.001801  1
  P  P17  1  0.836127  0.760381  0.001049  1
  P  P18  1  0.663122  0.761420  0.500104  1
  P  P19  1  0.336682  0.262554  0.496849  1
  P  P20  1  0.999544  0.512697  0.679803  1
  P  P21  1  0.001668  0.014441  0.317763  1
  P  P22  1  0.498831  0.012442  0.821352  1
  P  P23  1  0.499722  0.510681  0.180389  1
  O  O24  1  0.303029  0.238785  0.096842  1
  O  O25  1  0.684795  0.736222  0.910085  1
  O  O26  1  0.815061  0.737961  0.409205  1
  O  O27  1  0.186937  0.239213  0.589158  1
  O  O28  1  0.015925  0.148933  0.987784  1
  O  O29  1  0.983145  0.648968  0.015324  1
  O  O30  1  0.515345  0.650190  0.514072  1
  O  O31  1  0.481423  0.149177  0.483523  1
  O  O32  1  0.979660  0.627623  0.752813  1
  O  O33  1  0.035401  0.130868  0.248402  1
  O  O34  1  0.478288  0.127174  0.748212  1
  O  O35  1  0.522545  0.624260  0.255145  1
  O  O36  1  0.026428  0.400436  0.754448  1
  O  O37  1  0.971297  0.903219  0.242228  1
  O  O38  1  0.525325  0.900159  0.746680  1
  O  O39  1  0.464041  0.395952  0.251080  1
  O  O40  1  0.188879  0.533147  0.610022  1
  O  O41  1  0.807513  0.038088  0.383785  1
  O  O42  1  0.688221  0.033555  0.890679  1
  O  O43  1  0.313563  0.536158  0.109524  1
  O  O44  1  0.023788  0.137483  0.778360  1
  O  O45  1  0.978990  0.634010  0.226723  1
  O  O46  1  0.520535  0.636060  0.724818  1
  O  O47  1  0.460410  0.141126  0.277151  1
  O  O48  1  0.030130  0.381623  0.012363  1
  O  O49  1  0.966956  0.880218  0.987336  1
  O  O50  1  0.532448  0.881457  0.485246  1
  O  O51  1  0.470302  0.381176  0.512295  1
  O  O52  1  0.309693  0.281622  0.908116  1
  O  O53  1  0.690606  0.781871  0.095306  1
  O  O54  1  0.806482  0.782561  0.594779  1
  O  O55  1  0.199424  0.284154  0.400347  1
  O  O56  1  0.807167  0.492967  0.612380  1
  O  O57  1  0.188433  0.988658  0.388317  1
  O  O58  1  0.306970  0.991904  0.889255  1
  O  O59  1  0.694626  0.489450  0.114606  1
  O  O60  1  0.965016  0.890067  0.773894  1
  O  O61  1  0.047064  0.384223  0.223387  1
  O  O62  1  0.466192  0.389946  0.727392  1
  O  O63  1  0.534243  0.891818  0.271893  1
