# generated using pymatgen
data_Sr4ErTm3Lu4O16
_symmetry_space_group_name_H-M   'P 1'
_cell_length_a   3.35793400
_cell_length_b   10.03377437
_cell_length_c   11.81669744
_cell_angle_alpha   89.96881744
_cell_angle_beta   90.00000000
_cell_angle_gamma   90.00000000
_symmetry_Int_Tables_number   1
_chemical_formula_structural   Sr4ErTm3Lu4O16
_chemical_formula_sum   'Sr4 Er1 Tm3 Lu4 O16'
_cell_volume   398.13699856
_cell_formula_units_Z   1
loop_
 _symmetry_equiv_pos_site_id
 _symmetry_equiv_pos_as_xyz
  1  'x, y, z'
loop_
 _atom_site_type_symbol
 _atom_site_label
 _atom_site_symmetry_multiplicity
 _atom_site_fract_x
 _atom_site_fract_y
 _atom_site_fract_z
 _atom_site_occupancy
  Sr  Sr0  1  0.750000  0.254037  0.850178  1
  Sr  Sr1  1  0.250000  0.746067  0.150010  1
  Sr  Sr2  1  0.750000  0.753750  0.649626  1
  Sr  Sr3  1  0.250000  0.246132  0.350206  1
  Er  Er4  1  0.750000  0.925044  0.887673  1
  Tm  Tm5  1  0.250000  0.074612  0.112563  1
  Tm  Tm6  1  0.750000  0.425540  0.612431  1
  Tm  Tm7  1  0.250000  0.574464  0.387589  1
  Lu  Lu8  1  0.250000  0.577513  0.891100  1
  Lu  Lu9  1  0.750000  0.422344  0.108880  1
  Lu  Lu10  1  0.250000  0.077741  0.608779  1
  Lu  Lu11  1  0.750000  0.922343  0.391134  1
  O  O12  1  0.250000  0.575045  0.576301  1
  O  O13  1  0.750000  0.424981  0.423690  1
  O  O14  1  0.250000  0.075678  0.923876  1
  O  O15  1  0.750000  0.925019  0.076868  1
  O  O16  1  0.250000  0.482029  0.215357  1
  O  O17  1  0.750000  0.517941  0.784633  1
  O  O18  1  0.250000  0.982056  0.284698  1
  O  O19  1  0.750000  0.018243  0.714971  1
  O  O20  1  0.250000  0.878639  0.519819  1
  O  O21  1  0.750000  0.121411  0.480100  1
  O  O22  1  0.250000  0.378695  0.980207  1
  O  O23  1  0.750000  0.621444  0.019817  1
  O  O24  1  0.750000  0.711461  0.330258  1
  O  O25  1  0.250000  0.288603  0.669737  1
  O  O26  1  0.750000  0.211504  0.169766  1
  O  O27  1  0.250000  0.787663  0.829734  1
