# generated using pymatgen
data_RbTcNiAs2
_symmetry_space_group_name_H-M   'P 1'
_cell_length_a   7.79429598
_cell_length_b   7.79429679
_cell_length_c   7.79429679
_cell_angle_alpha   150.62258561
_cell_angle_beta   150.62258008
_cell_angle_gamma   42.02827861
_symmetry_Int_Tables_number   1
_chemical_formula_structural   RbTcNiAs2
_chemical_formula_sum   'Rb1 Tc1 Ni1 As2'
_cell_volume   113.68100339
_cell_formula_units_Z   1
loop_
 _symmetry_equiv_pos_site_id
 _symmetry_equiv_pos_as_xyz
  1  'x, y, z'
loop_
 _atom_site_type_symbol
 _atom_site_label
 _atom_site_symmetry_multiplicity
 _atom_site_fract_x
 _atom_site_fract_y
 _atom_site_fract_z
 _atom_site_occupancy
  Rb  Rb0  1  0.000000  0.000000  0.000000  1
  Tc  Tc1  1  0.750000  0.250000  0.500000  1
  Ni  Ni2  1  0.250000  0.750000  0.500000  1
  As  As3  1  0.345599  0.345599  0.000000  1
  As  As4  1  0.654401  0.654401  0.000000  1
