# generated using pymatgen
data_Nd6PtRhBr6
_symmetry_space_group_name_H-M   'P 1'
_cell_length_a   10.53065836
_cell_length_b   10.53065844
_cell_length_c   10.43851933
_cell_angle_alpha   109.44395321
_cell_angle_beta   109.44395150
_cell_angle_gamma   109.88028857
_symmetry_Int_Tables_number   1
_chemical_formula_structural   Nd6PtRhBr6
_chemical_formula_sum   'Nd12 Pt2 Rh2 Br12'
_cell_volume   887.17011108
_cell_formula_units_Z   2
loop_
 _symmetry_equiv_pos_site_id
 _symmetry_equiv_pos_as_xyz
  1  'x, y, z'
loop_
 _atom_site_type_symbol
 _atom_site_label
 _atom_site_symmetry_multiplicity
 _atom_site_fract_x
 _atom_site_fract_y
 _atom_site_fract_z
 _atom_site_occupancy
  Nd  Nd0  1  0.470576  0.487637  0.233878  1
  Nd  Nd1  1  0.753759  0.236700  0.266122  1
  Nd  Nd2  1  0.754602  0.016645  0.488214  1
  Nd  Nd3  1  0.233612  0.471568  0.488214  1
  Nd  Nd4  1  0.263300  0.746241  0.233878  1
  Nd  Nd5  1  0.028432  0.266388  0.011786  1
  Nd  Nd6  1  0.012363  0.029424  0.266122  1
  Nd  Nd7  1  0.483355  0.745398  0.011786  1
  Nd  Nd8  1  0.485989  0.235989  0.471976  1
  Nd  Nd9  1  0.015044  0.484956  0.750000  1
  Nd  Nd10  1  0.264011  0.014011  0.028024  1
  Nd  Nd11  1  0.234956  0.265044  0.750000  1
  Pt  Pt12  1  0.249321  0.250679  0.250000  1
  Pt  Pt13  1  0.500679  0.999321  0.250000  1
  Rh  Rh14  1  0.000473  0.250473  0.500946  1
  Rh  Rh15  1  0.249527  0.499527  0.999054  1
  Br  Br16  1  0.250099  0.755930  0.745222  1
  Br  Br17  1  0.510708  0.504877  0.754778  1
  Br  Br18  1  0.990701  0.745465  0.995765  1
  Br  Br19  1  0.744070  0.249901  0.754778  1
  Br  Br20  1  0.995123  0.989292  0.745222  1
  Br  Br21  1  0.249699  0.994935  0.504235  1
  Br  Br22  1  0.754535  0.509299  0.504235  1
  Br  Br23  1  0.505065  0.250301  0.995765  1
  Br  Br24  1  0.754996  0.745004  0.250000  1
  Br  Br25  1  0.744994  0.994994  0.989990  1
  Br  Br26  1  0.995004  0.504996  0.250000  1
  Br  Br27  1  0.505006  0.755006  0.510010  1
