# generated using pymatgen
data_YbSm7(Si4Mo3)4
_symmetry_space_group_name_H-M   'P 1'
_cell_length_a   6.84698942
_cell_length_b   7.02096414
_cell_length_c   13.02961372
_cell_angle_alpha   89.99497467
_cell_angle_beta   89.95822251
_cell_angle_gamma   89.98056665
_symmetry_Int_Tables_number   1
_chemical_formula_structural   YbSm7(Si4Mo3)4
_chemical_formula_sum   'Yb1 Sm7 Si16 Mo12'
_cell_volume   626.36547279
_cell_formula_units_Z   1
loop_
 _symmetry_equiv_pos_site_id
 _symmetry_equiv_pos_as_xyz
  1  'x, y, z'
loop_
 _atom_site_type_symbol
 _atom_site_label
 _atom_site_symmetry_multiplicity
 _atom_site_fract_x
 _atom_site_fract_y
 _atom_site_fract_z
 _atom_site_occupancy
  Yb  Yb0  1  0.996720  0.165049  0.092533  1
  Sm  Sm1  1  0.498220  0.333703  0.094485  1
  Sm  Sm2  1  0.997959  0.165782  0.405550  1
  Sm  Sm3  1  0.503267  0.665523  0.594251  1
  Sm  Sm4  1  0.001832  0.835857  0.907862  1
  Sm  Sm5  1  0.502238  0.665740  0.906800  1
  Sm  Sm6  1  0.002561  0.834686  0.594354  1
  Sm  Sm7  1  0.497294  0.334216  0.404600  1
  Si  Si8  1  0.656839  0.045805  0.547748  1
  Si  Si9  1  0.155517  0.453517  0.952543  1
  Si  Si10  1  0.341319  0.956980  0.048856  1
  Si  Si11  1  0.843178  0.545273  0.451818  1
  Si  Si12  1  0.343074  0.954160  0.451574  1
  Si  Si13  1  0.844831  0.541144  0.049130  1
  Si  Si14  1  0.656365  0.045694  0.953032  1
  Si  Si15  1  0.156999  0.454833  0.547778  1
  Si  Si16  1  0.535328  0.360967  0.750551  1
  Si  Si17  1  0.035617  0.138910  0.750741  1
  Si  Si18  1  0.464621  0.639086  0.249596  1
  Si  Si19  1  0.965088  0.864006  0.248623  1
  Si  Si20  1  0.806366  0.623124  0.750856  1
  Si  Si21  1  0.305046  0.876026  0.750490  1
  Si  Si22  1  0.191790  0.374634  0.247952  1
  Si  Si23  1  0.697539  0.123582  0.247939  1
  Mo  Mo24  1  0.831139  0.335159  0.626334  1
  Mo  Mo25  1  0.330818  0.163999  0.874100  1
  Mo  Mo26  1  0.168615  0.666388  0.126780  1
  Mo  Mo27  1  0.669711  0.836027  0.372970  1
  Mo  Mo28  1  0.168746  0.664703  0.373695  1
  Mo  Mo29  1  0.669654  0.834299  0.125551  1
  Mo  Mo30  1  0.830781  0.334962  0.873771  1
  Mo  Mo31  1  0.330884  0.164277  0.626313  1
  Mo  Mo32  1  0.664866  0.003089  0.750182  1
  Mo  Mo33  1  0.165789  0.497222  0.750336  1
  Mo  Mo34  1  0.334752  0.997110  0.249960  1
  Mo  Mo35  1  0.834639  0.504466  0.250347  1
