# generated using pymatgen
data_BaSrTm2(AsPt)4
_symmetry_space_group_name_H-M   'P 1'
_cell_length_a   4.33430400
_cell_length_b   4.33430331
_cell_length_c   16.47942400
_cell_angle_alpha   90.00000000
_cell_angle_beta   90.00000000
_cell_angle_gamma   120.00002051
_symmetry_Int_Tables_number   1
_chemical_formula_structural   BaSrTm2(AsPt)4
_chemical_formula_sum   'Ba1 Sr1 Tm2 As4 Pt4'
_cell_volume   268.10890453
_cell_formula_units_Z   1
loop_
 _symmetry_equiv_pos_site_id
 _symmetry_equiv_pos_as_xyz
  1  'x, y, z'
loop_
 _atom_site_type_symbol
 _atom_site_label
 _atom_site_symmetry_multiplicity
 _atom_site_fract_x
 _atom_site_fract_y
 _atom_site_fract_z
 _atom_site_occupancy
  Ba  Ba0  1  0.000000  0.000000  0.500000  1
  Sr  Sr1  1  0.000000  0.000000  0.000000  1
  Tm  Tm2  1  0.000000  0.000000  0.243115  1
  Tm  Tm3  1  0.000000  0.000000  0.756885  1
  As  As4  1  0.333333  0.666667  0.876515  1
  As  As5  1  0.666667  0.333333  0.123485  1
  As  As6  1  0.666667  0.333333  0.362474  1
  As  As7  1  0.333333  0.666667  0.637526  1
  Pt  Pt8  1  0.333333  0.666667  0.342666  1
  Pt  Pt9  1  0.666667  0.333333  0.657334  1
  Pt  Pt10  1  0.666667  0.333333  0.858377  1
  Pt  Pt11  1  0.333333  0.666667  0.141623  1
