# generated using pymatgen
data_Ho3Tm(Os3W)2
_symmetry_space_group_name_H-M   'P 1'
_cell_length_a   5.49908401
_cell_length_b   5.49908332
_cell_length_c   8.42983200
_cell_angle_alpha   90.00213180
_cell_angle_beta   89.99787012
_cell_angle_gamma   119.98941893
_symmetry_Int_Tables_number   1
_chemical_formula_structural   Ho3Tm(Os3W)2
_chemical_formula_sum   'Ho3 Tm1 Os6 W2'
_cell_volume   220.78852644
_cell_formula_units_Z   1
loop_
 _symmetry_equiv_pos_site_id
 _symmetry_equiv_pos_as_xyz
  1  'x, y, z'
loop_
 _atom_site_type_symbol
 _atom_site_label
 _atom_site_symmetry_multiplicity
 _atom_site_fract_x
 _atom_site_fract_y
 _atom_site_fract_z
 _atom_site_occupancy
  Ho  Ho0  1  0.666668  0.333332  0.564658  1
  Ho  Ho1  1  0.333335  0.666665  0.435534  1
  Ho  Ho2  1  0.333335  0.666665  0.064291  1
  Tm  Tm3  1  0.666670  0.333330  0.935764  1
  Os  Os4  1  0.172754  0.345507  0.750312  1
  Os  Os5  1  0.172763  0.827237  0.750312  1
  Os  Os6  1  0.654493  0.827246  0.750312  1
  Os  Os7  1  0.827128  0.654243  0.249613  1
  Os  Os8  1  0.827098  0.172902  0.249609  1
  Os  Os9  1  0.345757  0.172872  0.249613  1
  W  W10  1  0.000003  0.999997  0.500038  1
  W  W11  1  0.999997  0.000003  0.999945  1
