# generated using pymatgen
data_Sc3ZnAs2Rh3
_symmetry_space_group_name_H-M   'P 1'
_cell_length_a   6.67174500
_cell_length_b   6.67174555
_cell_length_c   3.87851000
_cell_angle_alpha   90.00000000
_cell_angle_beta   90.00000000
_cell_angle_gamma   120.00000225
_symmetry_Int_Tables_number   1
_chemical_formula_structural   Sc3ZnAs2Rh3
_chemical_formula_sum   'Sc3 Zn1 As2 Rh3'
_cell_volume   149.51144904
_cell_formula_units_Z   1
loop_
 _symmetry_equiv_pos_site_id
 _symmetry_equiv_pos_as_xyz
  1  'x, y, z'
loop_
 _atom_site_type_symbol
 _atom_site_label
 _atom_site_symmetry_multiplicity
 _atom_site_fract_x
 _atom_site_fract_y
 _atom_site_fract_z
 _atom_site_occupancy
  Sc  Sc0  1  0.414458  0.414458  0.500000  1
  Sc  Sc1  1  0.585542  0.000000  0.500000  1
  Sc  Sc2  1  0.000000  0.585542  0.500000  1
  Zn  Zn3  1  0.000000  0.000000  0.500000  1
  As  As4  1  0.666667  0.333333  0.000000  1
  As  As5  1  0.333333  0.666667  0.000000  1
  Rh  Rh6  1  0.753233  0.753233  0.000000  1
  Rh  Rh7  1  0.246767  0.000000  0.000000  1
  Rh  Rh8  1  0.000000  0.246767  0.000000  1
