# generated using pymatgen
data_Tl2CrAg(NO3)8
_symmetry_space_group_name_H-M   'P 1'
_cell_length_a   7.99101078
_cell_length_b   8.45853257
_cell_length_c   8.00659157
_cell_angle_alpha   90.76323807
_cell_angle_beta   86.74592066
_cell_angle_gamma   88.00266596
_symmetry_Int_Tables_number   1
_chemical_formula_structural   Tl2CrAg(NO3)8
_chemical_formula_sum   'Tl2 Cr1 Ag1 N8 O24'
_cell_volume   539.91900620
_cell_formula_units_Z   1
loop_
 _symmetry_equiv_pos_site_id
 _symmetry_equiv_pos_as_xyz
  1  'x, y, z'
loop_
 _atom_site_type_symbol
 _atom_site_label
 _atom_site_symmetry_multiplicity
 _atom_site_fract_x
 _atom_site_fract_y
 _atom_site_fract_z
 _atom_site_occupancy
  Tl  Tl0  1  0.500000  0.500000  0.500000  1
  Tl  Tl1  1  0.500000  0.000000  0.000000  1
  Cr  Cr2  1  0.000000  0.000000  0.500000  1
  Ag  Ag3  1  0.000000  0.500000  0.000000  1
  N  N4  1  0.691827  0.108731  0.310716  1
  N  N5  1  0.684322  0.306153  0.874560  1
  N  N6  1  0.848082  0.827693  0.797519  1
  N  N7  1  0.845723  0.713457  0.366784  1
  N  N8  1  0.151918  0.172307  0.202481  1
  N  N9  1  0.154277  0.286543  0.633216  1
  N  N10  1  0.315678  0.693847  0.125440  1
  N  N11  1  0.308173  0.891269  0.689284  1
  O  O12  1  0.559062  0.212119  0.841819  1
  O  O13  1  0.573770  0.206008  0.298239  1
  O  O14  1  0.695170  0.425447  0.786787  1
  O  O15  1  0.719410  0.995171  0.205737  1
  O  O16  1  0.727505  0.749473  0.469981  1
  O  O17  1  0.731557  0.815643  0.911355  1
  O  O18  1  0.779845  0.271960  0.986522  1
  O  O19  1  0.788804  0.123395  0.432822  1
  O  O20  1  0.848655  0.955721  0.710874  1
  O  O21  1  0.843361  0.598887  0.267077  1
  O  O22  1  0.956087  0.720465  0.772561  1
  O  O23  1  0.979915  0.798701  0.361674  1
  O  O24  1  0.020085  0.201299  0.638326  1
  O  O25  1  0.043913  0.279535  0.227439  1
  O  O26  1  0.156639  0.401113  0.732923  1
  O  O27  1  0.151345  0.044279  0.289126  1
  O  O28  1  0.220155  0.728040  0.013478  1
  O  O29  1  0.211196  0.876605  0.567178  1
  O  O30  1  0.268443  0.184357  0.088645  1
  O  O31  1  0.272495  0.250527  0.530019  1
  O  O32  1  0.304830  0.574553  0.213213  1
  O  O33  1  0.280590  0.004829  0.794263  1
  O  O34  1  0.426230  0.793992  0.701761  1
  O  O35  1  0.440938  0.787881  0.158181  1
