# generated using pymatgen
data_Lu4AlTc3B16
_symmetry_space_group_name_H-M   'P 1'
_cell_length_a   3.55173400
_cell_length_b   5.91951709
_cell_length_c   11.41433998
_cell_angle_alpha   89.86490225
_cell_angle_beta   90.00000000
_cell_angle_gamma   90.00000000
_symmetry_Int_Tables_number   1
_chemical_formula_structural   Lu4AlTc3B16
_chemical_formula_sum   'Lu4 Al1 Tc3 B16'
_cell_volume   239.98069577
_cell_formula_units_Z   1
loop_
 _symmetry_equiv_pos_site_id
 _symmetry_equiv_pos_as_xyz
  1  'x, y, z'
loop_
 _atom_site_type_symbol
 _atom_site_label
 _atom_site_symmetry_multiplicity
 _atom_site_fract_x
 _atom_site_fract_y
 _atom_site_fract_z
 _atom_site_occupancy
  Lu  Lu0  1  0.000000  0.373609  0.649485  1
  Lu  Lu1  1  0.000000  0.627497  0.352854  1
  Lu  Lu2  1  0.000000  0.869368  0.847088  1
  Lu  Lu3  1  0.000000  0.126248  0.149044  1
  Al  Al4  1  0.000000  0.136150  0.412178  1
  Tc  Tc5  1  0.000000  0.364030  0.913943  1
  Tc  Tc6  1  0.000000  0.637632  0.087619  1
  Tc  Tc7  1  0.000000  0.872004  0.585258  1
  B  B8  1  0.500000  0.021695  0.693277  1
  B  B9  1  0.500000  0.978395  0.306007  1
  B  B10  1  0.500000  0.522804  0.806500  1
  B  B11  1  0.500000  0.475988  0.194735  1
  B  B12  1  0.500000  0.114281  0.549866  1
  B  B13  1  0.500000  0.881613  0.452583  1
  B  B14  1  0.500000  0.613490  0.952395  1
  B  B15  1  0.500000  0.385304  0.048514  1
  B  B16  1  0.500000  0.289102  0.314316  1
  B  B17  1  0.500000  0.710225  0.684765  1
  B  B18  1  0.500000  0.790068  0.186679  1
  B  B19  1  0.500000  0.211790  0.813722  1
  B  B20  1  0.500000  0.365681  0.468284  1
  B  B21  1  0.500000  0.633391  0.530868  1
  B  B22  1  0.500000  0.865811  0.031135  1
  B  B23  1  0.500000  0.133824  0.968886  1
