# generated using pymatgen
data_YbPrPd2Pb
_symmetry_space_group_name_H-M   'P 1'
_cell_length_a   7.95370287
_cell_length_b   7.95370287
_cell_length_c   3.79481800
_cell_angle_alpha   90.00000000
_cell_angle_beta   90.00000000
_cell_angle_gamma   90.18050941
_symmetry_Int_Tables_number   1
_chemical_formula_structural   YbPrPd2Pb
_chemical_formula_sum   'Yb2 Pr2 Pd4 Pb2'
_cell_volume   240.06426748
_cell_formula_units_Z   2
loop_
 _symmetry_equiv_pos_site_id
 _symmetry_equiv_pos_as_xyz
  1  'x, y, z'
loop_
 _atom_site_type_symbol
 _atom_site_label
 _atom_site_symmetry_multiplicity
 _atom_site_fract_x
 _atom_site_fract_y
 _atom_site_fract_z
 _atom_site_occupancy
  Yb  Yb0  1  0.328614  0.828614  0.500000  1
  Yb  Yb1  1  0.671386  0.171386  0.500000  1
  Pr  Pr2  1  0.822834  0.677166  0.500000  1
  Pr  Pr3  1  0.177166  0.322834  0.500000  1
  Pd  Pd4  1  0.873180  0.373180  0.000000  1
  Pd  Pd5  1  0.621564  0.878436  0.000000  1
  Pd  Pd6  1  0.378436  0.121564  0.000000  1
  Pd  Pd7  1  0.126820  0.626820  0.000000  1
  Pb  Pb8  1  0.500000  0.500000  0.000000  1
  Pb  Pb9  1  0.000000  0.000000  0.000000  1
