# generated using pymatgen
data_CaPr2Nd4CoCl12
_symmetry_space_group_name_H-M   'P 1'
_cell_length_a   9.18357361
_cell_length_b   9.07283420
_cell_length_c   9.17646900
_cell_angle_alpha   106.98388120
_cell_angle_beta   107.29104103
_cell_angle_gamma   107.14296444
_symmetry_Int_Tables_number   1
_chemical_formula_structural   CaPr2Nd4CoCl12
_chemical_formula_sum   'Ca1 Pr2 Nd4 Co1 Cl12'
_cell_volume   634.32167162
_cell_formula_units_Z   1
loop_
 _symmetry_equiv_pos_site_id
 _symmetry_equiv_pos_as_xyz
  1  'x, y, z'
loop_
 _atom_site_type_symbol
 _atom_site_label
 _atom_site_symmetry_multiplicity
 _atom_site_fract_x
 _atom_site_fract_y
 _atom_site_fract_z
 _atom_site_occupancy
  Ca  Ca0  1  0.500264  0.499628  0.499014  1
  Pr  Pr1  1  0.674256  0.976402  0.885182  1
  Pr  Pr2  1  0.892548  0.688570  0.976364  1
  Nd  Nd3  1  0.108008  0.309959  0.024274  1
  Nd  Nd4  1  0.323528  0.023210  0.114660  1
  Nd  Nd5  1  0.025259  0.115069  0.324039  1
  Nd  Nd6  1  0.974395  0.886426  0.676762  1
  Co  Co7  1  0.000101  0.000298  0.000655  1
  Cl  Cl8  1  0.217334  0.682555  0.071057  1
  Cl  Cl9  1  0.455929  0.373368  0.171134  1
  Cl  Cl10  1  0.686148  0.073509  0.217255  1
  Cl  Cl11  1  0.929015  0.787252  0.316817  1
  Cl  Cl12  1  0.173004  0.458724  0.375705  1
  Cl  Cl13  1  0.375567  0.170083  0.458186  1
  Cl  Cl14  1  0.624074  0.828939  0.539675  1
  Cl  Cl15  1  0.827462  0.541617  0.621712  1
  Cl  Cl16  1  0.072202  0.215249  0.686362  1
  Cl  Cl17  1  0.311953  0.927156  0.785215  1
  Cl  Cl18  1  0.541680  0.622977  0.825678  1
  Cl  Cl19  1  0.787277  0.319010  0.930260  1
