# generated using pymatgen
data_Nd2DyTh(AlRh)4
_symmetry_space_group_name_H-M   'P 1'
_cell_length_a   4.28185500
_cell_length_b   7.02060341
_cell_length_c   8.08216766
_cell_angle_alpha   90.76239458
_cell_angle_beta   90.00000000
_cell_angle_gamma   90.00000000
_symmetry_Int_Tables_number   1
_chemical_formula_structural   Nd2DyTh(AlRh)4
_chemical_formula_sum   'Nd2 Dy1 Th1 Al4 Rh4'
_cell_volume   242.93819669
_cell_formula_units_Z   1
loop_
 _symmetry_equiv_pos_site_id
 _symmetry_equiv_pos_as_xyz
  1  'x, y, z'
loop_
 _atom_site_type_symbol
 _atom_site_label
 _atom_site_symmetry_multiplicity
 _atom_site_fract_x
 _atom_site_fract_y
 _atom_site_fract_z
 _atom_site_occupancy
  Nd  Nd0  1  0.750000  0.959730  0.681528  1
  Nd  Nd1  1  0.250000  0.039786  0.320920  1
  Dy  Dy2  1  0.750000  0.459265  0.813941  1
  Th  Th3  1  0.250000  0.538178  0.175420  1
  Al  Al4  1  0.250000  0.629037  0.564961  1
  Al  Al5  1  0.750000  0.364715  0.443703  1
  Al  Al6  1  0.750000  0.872630  0.060000  1
  Al  Al7  1  0.250000  0.136635  0.935816  1
  Rh  Rh8  1  0.250000  0.760564  0.890698  1
  Rh  Rh9  1  0.750000  0.245994  0.117051  1
  Rh  Rh10  1  0.750000  0.724857  0.373830  1
  Rh  Rh11  1  0.250000  0.268609  0.622132  1
