# generated using pymatgen
data_Nd3ThAl13Ga5Ir6
_symmetry_space_group_name_H-M   'P 1'
_cell_length_a   7.61146596
_cell_length_b   7.61231169
_cell_length_c   9.66871600
_cell_angle_alpha   90.00000000
_cell_angle_beta   90.00000000
_cell_angle_gamma   119.53265284
_symmetry_Int_Tables_number   1
_chemical_formula_structural   Nd3ThAl13Ga5Ir6
_chemical_formula_sum   'Nd3 Th1 Al13 Ga5 Ir6'
_cell_volume   487.42783587
_cell_formula_units_Z   1
loop_
 _symmetry_equiv_pos_site_id
 _symmetry_equiv_pos_as_xyz
  1  'x, y, z'
loop_
 _atom_site_type_symbol
 _atom_site_label
 _atom_site_symmetry_multiplicity
 _atom_site_fract_x
 _atom_site_fract_y
 _atom_site_fract_z
 _atom_site_occupancy
  Nd  Nd0  1  0.999457  0.325947  0.750000  1
  Nd  Nd1  1  0.670857  0.996137  0.250000  1
  Nd  Nd2  1  0.329741  0.006032  0.750000  1
  Th  Th3  1  0.995020  0.670720  0.250000  1
  Al  Al4  1  0.003976  0.332983  0.071288  1
  Al  Al5  1  0.998791  0.664832  0.924010  1
  Al  Al6  1  0.998791  0.664832  0.575990  1
  Al  Al7  1  0.338173  0.005327  0.429047  1
  Al  Al8  1  0.003976  0.332983  0.428712  1
  Al  Al9  1  0.664197  0.997227  0.572964  1
  Al  Al10  1  0.664197  0.997227  0.927036  1
  Al  Al11  1  0.338173  0.005327  0.070953  1
  Al  Al12  1  0.333518  0.334116  0.554446  1
  Al  Al13  1  0.663717  0.665395  0.455121  1
  Al  Al14  1  0.663717  0.665395  0.044879  1
  Al  Al15  1  0.333518  0.334116  0.945554  1
  Al  Al16  1  0.450154  0.660277  0.750000  1
  Ga  Ga17  1  0.132592  0.133822  0.250000  1
  Ga  Ga18  1  0.868186  0.868714  0.750000  1
  Ga  Ga19  1  0.342857  0.546884  0.250000  1
  Ga  Ga20  1  0.658503  0.453885  0.750000  1
  Ga  Ga21  1  0.543569  0.339669  0.250000  1
  Ir  Ir22  1  0.673378  0.330842  0.001833  1
  Ir  Ir23  1  0.328701  0.670721  0.999554  1
  Ir  Ir24  1  0.328701  0.670721  0.500446  1
  Ir  Ir25  1  0.673378  0.330842  0.498167  1
  Ir  Ir26  1  0.000082  0.997514  0.002138  1
  Ir  Ir27  1  0.000082  0.997514  0.497862  1
