# generated using pymatgen
data_Tb4Al18Cu3Re2Pd
_symmetry_space_group_name_H-M   'P 1'
_cell_length_a   7.57709228
_cell_length_b   7.57709010
_cell_length_c   9.48428180
_cell_angle_alpha   89.96401766
_cell_angle_beta   89.96402100
_cell_angle_gamma   118.68577269
_symmetry_Int_Tables_number   1
_chemical_formula_structural   Tb4Al18Cu3Re2Pd
_chemical_formula_sum   'Tb4 Al18 Cu3 Re2 Pd1'
_cell_volume   477.68338969
_cell_formula_units_Z   1
loop_
 _symmetry_equiv_pos_site_id
 _symmetry_equiv_pos_as_xyz
  1  'x, y, z'
loop_
 _atom_site_type_symbol
 _atom_site_label
 _atom_site_symmetry_multiplicity
 _atom_site_fract_x
 _atom_site_fract_y
 _atom_site_fract_z
 _atom_site_occupancy
  Tb  Tb0  1  0.994557  0.677540  0.249335  1
  Tb  Tb1  1  0.006427  0.322910  0.750696  1
  Tb  Tb2  1  0.677090  0.993573  0.249304  1
  Tb  Tb3  1  0.322462  0.005443  0.750665  1
  Al  Al4  1  0.133190  0.133296  0.249858  1
  Al  Al5  1  0.866704  0.866810  0.750142  1
  Al  Al6  1  0.001020  0.336298  0.075888  1
  Al  Al7  1  0.998828  0.663982  0.923823  1
  Al  Al8  1  0.999480  0.664677  0.575678  1
  Al  Al9  1  0.335323  0.000520  0.424322  1
  Al  Al10  1  0.001721  0.335447  0.424068  1
  Al  Al11  1  0.664553  0.998279  0.575932  1
  Al  Al12  1  0.663702  0.998980  0.924112  1
  Al  Al13  1  0.336018  0.001172  0.076177  1
  Al  Al14  1  0.330292  0.331216  0.548927  1
  Al  Al15  1  0.668784  0.669708  0.451073  1
  Al  Al16  1  0.667978  0.668136  0.049661  1
  Al  Al17  1  0.331864  0.332021  0.950339  1
  Al  Al18  1  0.344954  0.554280  0.250140  1
  Al  Al19  1  0.654978  0.446558  0.751252  1
  Al  Al20  1  0.553441  0.345022  0.248748  1
  Al  Al21  1  0.445719  0.655045  0.749860  1
  Cu  Cu22  1  0.671453  0.328547  0.999999  1
  Cu  Cu23  1  0.328632  0.671370  0.000000  1
  Cu  Cu24  1  0.328601  0.671398  0.500001  1
  Re  Re25  1  0.999953  0.000049  0.999999  1
  Re  Re26  1  0.000510  0.999490  0.500000  1
  Pd  Pd27  1  0.671769  0.328231  0.500000  1
