# generated using pymatgen
data_Sc11Tc2IrRh
_symmetry_space_group_name_H-M   'P 1'
_cell_length_a   9.46606586
_cell_length_b   9.45747709
_cell_length_c   9.43321484
_cell_angle_alpha   60.89300084
_cell_angle_beta   60.85158260
_cell_angle_gamma   60.73086837
_symmetry_Int_Tables_number   1
_chemical_formula_structural   Sc11Tc2IrRh
_chemical_formula_sum   'Sc22 Tc4 Ir2 Rh2'
_cell_volume   608.26793396
_cell_formula_units_Z   2
loop_
 _symmetry_equiv_pos_site_id
 _symmetry_equiv_pos_as_xyz
  1  'x, y, z'
loop_
 _atom_site_type_symbol
 _atom_site_label
 _atom_site_symmetry_multiplicity
 _atom_site_fract_x
 _atom_site_fract_y
 _atom_site_fract_z
 _atom_site_occupancy
  Sc  Sc0  1  0.802290  0.802658  0.196761  1
  Sc  Sc1  1  0.198893  0.802047  0.195598  1
  Sc  Sc2  1  0.802569  0.197940  0.195766  1
  Sc  Sc3  1  0.197710  0.197342  0.803239  1
  Sc  Sc4  1  0.801107  0.197953  0.804402  1
  Sc  Sc5  1  0.197431  0.802060  0.804234  1
  Sc  Sc6  1  0.617423  0.612502  0.149056  1
  Sc  Sc7  1  0.615262  0.151764  0.612408  1
  Sc  Sc8  1  0.151302  0.614792  0.618351  1
  Sc  Sc9  1  0.614256  0.619091  0.621286  1
  Sc  Sc10  1  0.382577  0.387498  0.850944  1
  Sc  Sc11  1  0.384738  0.848236  0.387592  1
  Sc  Sc12  1  0.848698  0.385208  0.381649  1
  Sc  Sc13  1  0.385744  0.380909  0.378714  1
  Sc  Sc14  1  0.846173  0.845165  0.468289  1
  Sc  Sc15  1  0.847140  0.468373  0.843187  1
  Sc  Sc16  1  0.468872  0.846807  0.843366  1
  Sc  Sc17  1  0.843309  0.843628  0.841514  1
  Sc  Sc18  1  0.153827  0.154835  0.531711  1
  Sc  Sc19  1  0.152860  0.531627  0.156813  1
  Sc  Sc20  1  0.531128  0.153193  0.156634  1
  Sc  Sc21  1  0.156691  0.156372  0.158486  1
  Tc  Tc22  1  0.000000  0.000000  0.000000  1
  Tc  Tc23  1  0.500000  0.000000  0.500000  1
  Tc  Tc24  1  0.500000  0.500000  0.000000  1
  Tc  Tc25  1  0.000000  0.500000  0.000000  1
  Ir  Ir26  1  0.500000  0.500000  0.500000  1
  Ir  Ir27  1  0.000000  0.000000  0.500000  1
  Rh  Rh28  1  0.000000  0.500000  0.500000  1
  Rh  Rh29  1  0.500000  0.000000  0.000000  1
