# generated using pymatgen
data_BaSrTm2(Ge4N7)2
_symmetry_space_group_name_H-M   'P 1'
_cell_length_a   6.30268500
_cell_length_b   6.30268447
_cell_length_c   10.28282800
_cell_angle_alpha   90.00000000
_cell_angle_beta   90.00000000
_cell_angle_gamma   119.99999753
_symmetry_Int_Tables_number   1
_chemical_formula_structural   BaSrTm2(Ge4N7)2
_chemical_formula_sum   'Ba1 Sr1 Tm2 Ge8 N14'
_cell_volume   353.74831667
_cell_formula_units_Z   1
loop_
 _symmetry_equiv_pos_site_id
 _symmetry_equiv_pos_as_xyz
  1  'x, y, z'
loop_
 _atom_site_type_symbol
 _atom_site_label
 _atom_site_symmetry_multiplicity
 _atom_site_fract_x
 _atom_site_fract_y
 _atom_site_fract_z
 _atom_site_occupancy
  Ba  Ba0  1  0.666667  0.333333  0.578695  1
  Sr  Sr1  1  0.333333  0.666667  0.082326  1
  Tm  Tm2  1  0.666667  0.333333  0.951292  1
  Tm  Tm3  1  0.333333  0.666667  0.449881  1
  Ge  Ge4  1  0.173898  0.347795  0.761595  1
  Ge  Ge5  1  0.826582  0.173418  0.259780  1
  Ge  Ge6  1  0.346833  0.173418  0.259780  1
  Ge  Ge7  1  0.652205  0.826102  0.761595  1
  Ge  Ge8  1  0.173898  0.826102  0.761595  1
  Ge  Ge9  1  0.826582  0.653167  0.259780  1
  Ge  Ge10  1  0.000000  0.000000  0.024911  1
  Ge  Ge11  1  0.000000  0.000000  0.526066  1
  N  N12  1  0.000000  0.000000  0.833139  1
  N  N13  1  0.000000  0.000000  0.333243  1
  N  N14  1  0.840358  0.680716  0.080931  1
  N  N15  1  0.160152  0.839848  0.581895  1
  N  N16  1  0.679697  0.839848  0.581895  1
  N  N17  1  0.319284  0.159642  0.080931  1
  N  N18  1  0.840358  0.159642  0.080931  1
  N  N19  1  0.160152  0.320303  0.581895  1
  N  N20  1  0.494536  0.505464  0.820986  1
  N  N21  1  0.992140  0.496070  0.316843  1
  N  N22  1  0.503930  0.007860  0.316843  1
  N  N23  1  0.494536  0.989074  0.820986  1
  N  N24  1  0.503930  0.496070  0.316843  1
  N  N25  1  0.010926  0.505464  0.820986  1
