# generated using pymatgen
data_Hf2Ta2NbSi4
_symmetry_space_group_name_H-M   'P 1'
_cell_length_a   6.85142098
_cell_length_b   6.85206815
_cell_length_c   12.68683710
_cell_angle_alpha   89.97287341
_cell_angle_beta   89.97462251
_cell_angle_gamma   89.99731475
_symmetry_Int_Tables_number   1
_chemical_formula_structural   Hf2Ta2NbSi4
_chemical_formula_sum   'Hf8 Ta8 Nb4 Si16'
_cell_volume   595.60124786
_cell_formula_units_Z   4
loop_
 _symmetry_equiv_pos_site_id
 _symmetry_equiv_pos_as_xyz
  1  'x, y, z'
loop_
 _atom_site_type_symbol
 _atom_site_label
 _atom_site_symmetry_multiplicity
 _atom_site_fract_x
 _atom_site_fract_y
 _atom_site_fract_z
 _atom_site_occupancy
  Hf  Hf0  1  0.001459  0.339147  0.219207  1
  Hf  Hf1  1  0.999826  0.661182  0.719779  1
  Hf  Hf2  1  0.161111  0.500815  0.469688  1
  Hf  Hf3  1  0.498771  0.839164  0.030173  1
  Hf  Hf4  1  0.839216  0.499873  0.969200  1
  Hf  Hf5  1  0.500670  0.160372  0.530639  1
  Hf  Hf6  1  0.339343  0.999942  0.780202  1
  Hf  Hf7  1  0.660415  0.998716  0.280738  1
  Ta  Ta8  1  0.169254  0.169368  0.999638  1
  Ta  Ta9  1  0.830644  0.830780  0.500188  1
  Ta  Ta10  1  0.330227  0.669448  0.250362  1
  Ta  Ta11  1  0.669220  0.331095  0.750326  1
  Ta  Ta12  1  0.152449  0.995477  0.376284  1
  Ta  Ta13  1  0.847332  0.004304  0.876001  1
  Ta  Ta14  1  0.504171  0.653402  0.626488  1
  Ta  Ta15  1  0.347246  0.495760  0.873591  1
  Nb  Nb16  1  0.496196  0.346928  0.126061  1
  Nb  Nb17  1  0.652319  0.503909  0.373955  1
  Nb  Nb18  1  0.996521  0.153373  0.623781  1
  Nb  Nb19  1  0.003806  0.846840  0.123479  1
  Si  Si20  1  0.300116  0.042947  0.186517  1
  Si  Si21  1  0.700056  0.957069  0.686580  1
  Si  Si22  1  0.456617  0.800152  0.436746  1
  Si  Si23  1  0.199710  0.542915  0.063479  1
  Si  Si24  1  0.543307  0.199488  0.936406  1
  Si  Si25  1  0.800652  0.457235  0.563803  1
  Si  Si26  1  0.043276  0.300671  0.813596  1
  Si  Si27  1  0.956674  0.699153  0.313640  1
  Si  Si28  1  0.364790  0.291444  0.323287  1
  Si  Si29  1  0.635176  0.708704  0.823464  1
  Si  Si30  1  0.208225  0.865079  0.573234  1
  Si  Si31  1  0.135073  0.791661  0.926388  1
  Si  Si32  1  0.791826  0.135342  0.073045  1
  Si  Si33  1  0.864453  0.208246  0.426591  1
  Si  Si34  1  0.292104  0.364722  0.676646  1
  Si  Si35  1  0.707747  0.635275  0.176801  1
