# generated using pymatgen
data_Tb2ThTlIn2Rh3
_symmetry_space_group_name_H-M   'P 1'
_cell_length_a   7.64731000
_cell_length_b   7.81288105
_cell_length_c   3.89150400
_cell_angle_alpha   90.00000000
_cell_angle_beta   90.00000000
_cell_angle_gamma   120.76489078
_symmetry_Int_Tables_number   1
_chemical_formula_structural   Tb2ThTlIn2Rh3
_chemical_formula_sum   'Tb2 Th1 Tl1 In2 Rh3'
_cell_volume   199.78772777
_cell_formula_units_Z   1
loop_
 _symmetry_equiv_pos_site_id
 _symmetry_equiv_pos_as_xyz
  1  'x, y, z'
loop_
 _atom_site_type_symbol
 _atom_site_label
 _atom_site_symmetry_multiplicity
 _atom_site_fract_x
 _atom_site_fract_y
 _atom_site_fract_z
 _atom_site_occupancy
  Tb  Tb0  1  0.403959  0.405412  0.500000  1
  Tb  Tb1  1  0.596138  0.005104  0.500000  1
  Th  Th2  1  0.999898  0.584200  0.500000  1
  Tl  Tl3  1  0.726302  0.741603  0.000000  1
  In  In4  1  0.000866  0.242126  0.000000  1
  In  In5  1  0.272049  0.014653  0.000000  1
  Rh  Rh6  1  0.303956  0.663434  0.000000  1
  Rh  Rh7  1  0.009778  0.997704  0.500000  1
  Rh  Rh8  1  0.687056  0.345766  0.000000  1
