# generated using pymatgen
data_Dy3YLu(In2Ni)2
_symmetry_space_group_name_H-M   'P 1'
_cell_length_a   3.59926500
_cell_length_b   7.99068800
_cell_length_c   17.87936900
_cell_angle_alpha   90.00000000
_cell_angle_beta   90.00000000
_cell_angle_gamma   90.00000000
_symmetry_Int_Tables_number   1
_chemical_formula_structural   Dy3YLu(In2Ni)2
_chemical_formula_sum   'Dy6 Y2 Lu2 In8 Ni4'
_cell_volume   514.22144522
_cell_formula_units_Z   2
loop_
 _symmetry_equiv_pos_site_id
 _symmetry_equiv_pos_as_xyz
  1  'x, y, z'
loop_
 _atom_site_type_symbol
 _atom_site_label
 _atom_site_symmetry_multiplicity
 _atom_site_fract_x
 _atom_site_fract_y
 _atom_site_fract_z
 _atom_site_occupancy
  Dy  Dy0  1  0.500000  0.116610  0.087808  1
  Dy  Dy1  1  0.500000  0.754598  0.721603  1
  Dy  Dy2  1  0.500000  0.254598  0.778397  1
  Dy  Dy3  1  0.500000  0.745708  0.221634  1
  Dy  Dy4  1  0.500000  0.245708  0.278366  1
  Dy  Dy5  1  0.500000  0.616610  0.412192  1
  Y  Y6  1  0.500000  0.500314  0.999692  1
  Y  Y7  1  0.500000  0.000314  0.500308  1
  Lu  Lu8  1  0.500000  0.384348  0.589795  1
  Lu  Lu9  1  0.500000  0.884348  0.910205  1
  In  In10  1  0.000000  0.794613  0.068027  1
  In  In11  1  0.000000  0.927147  0.347971  1
  In  In12  1  0.000000  0.074949  0.651744  1
  In  In13  1  0.000000  0.574949  0.848256  1
  In  In14  1  0.000000  0.702826  0.569073  1
  In  In15  1  0.000000  0.202826  0.930927  1
  In  In16  1  0.000000  0.294613  0.431973  1
  In  In17  1  0.000000  0.427147  0.152029  1
  Ni  Ni18  1  0.000000  0.975625  0.805042  1
  Ni  Ni19  1  0.000000  0.523260  0.304070  1
  Ni  Ni20  1  0.000000  0.475625  0.694958  1
  Ni  Ni21  1  0.000000  0.023260  0.195930  1
