# generated using pymatgen
data_Tm5Mn2O12
_symmetry_space_group_name_H-M   'P 1'
_cell_length_a   6.72266617
_cell_length_b   6.72272414
_cell_length_c   7.11566907
_cell_angle_alpha   74.58771713
_cell_angle_beta   74.58778818
_cell_angle_gamma   50.17968054
_symmetry_Int_Tables_number   1
_chemical_formula_structural   Tm5Mn2O12
_chemical_formula_sum   'Tm5 Mn2 O12'
_cell_volume   236.12493613
_cell_formula_units_Z   1
loop_
 _symmetry_equiv_pos_site_id
 _symmetry_equiv_pos_as_xyz
  1  'x, y, z'
loop_
 _atom_site_type_symbol
 _atom_site_label
 _atom_site_symmetry_multiplicity
 _atom_site_fract_x
 _atom_site_fract_y
 _atom_site_fract_z
 _atom_site_occupancy
  Tm  Tm0  1  0.304490  0.304498  0.356908  1
  Tm  Tm1  1  0.695510  0.695502  0.643092  1
  Tm  Tm2  1  0.307789  0.307778  0.835170  1
  Tm  Tm3  1  0.692211  0.692222  0.164830  1
  Tm  Tm4  1  0.000000  0.000000  0.500000  1
  Mn  Mn5  1  0.754218  0.245787  0.000002  1
  Mn  Mn6  1  0.245782  0.754213  0.999998  1
  O  O7  1  0.902500  0.424239  0.917311  1
  O  O8  1  0.424234  0.902504  0.917310  1
  O  O9  1  0.097500  0.575761  0.082689  1
  O  O10  1  0.575766  0.097496  0.082690  1
  O  O11  1  0.096995  0.598390  0.574055  1
  O  O12  1  0.598396  0.096985  0.574056  1
  O  O13  1  0.903005  0.401610  0.425945  1
  O  O14  1  0.401604  0.903015  0.425944  1
  O  O15  1  0.999845  0.999853  0.818031  1
  O  O16  1  0.000155  0.000147  0.181969  1
  O  O17  1  0.500064  0.500061  0.815506  1
  O  O18  1  0.499936  0.499939  0.184494  1
