# generated using pymatgen
data_Be(GaS2)2
_symmetry_space_group_name_H-M   'P 1'
_cell_length_a   6.32909865
_cell_length_b   6.32909888
_cell_length_c   6.32909892
_cell_angle_alpha   131.86743764
_cell_angle_beta   131.86744213
_cell_angle_gamma   70.43847278
_symmetry_Int_Tables_number   1
_chemical_formula_structural   Be(GaS2)2
_chemical_formula_sum   'Be1 Ga2 S4'
_cell_volume   137.77222892
_cell_formula_units_Z   1
loop_
 _symmetry_equiv_pos_site_id
 _symmetry_equiv_pos_as_xyz
  1  'x, y, z'
loop_
 _atom_site_type_symbol
 _atom_site_label
 _atom_site_symmetry_multiplicity
 _atom_site_fract_x
 _atom_site_fract_y
 _atom_site_fract_z
 _atom_site_occupancy
  Be  Be0  1  0.000000  0.000000  0.000000  1
  Ga  Ga1  1  0.500000  0.500000  0.000000  1
  Ga  Ga2  1  0.250000  0.750000  0.500000  1
  S  S3  1  0.102609  0.631778  0.981343  1
  S  S4  1  0.878733  0.897391  0.529169  1
  S  S5  1  0.368222  0.349565  0.470831  1
  S  S6  1  0.650435  0.121267  0.018657  1
