# generated using pymatgen
data_Nd4P7(IrRh3)2
_symmetry_space_group_name_H-M   'P 1'
_cell_length_a   3.98709800
_cell_length_b   12.85980668
_cell_length_c   13.22729177
_cell_angle_alpha   80.75396013
_cell_angle_beta   90.00000000
_cell_angle_gamma   90.00000000
_symmetry_Int_Tables_number   1
_chemical_formula_structural   Nd4P7(IrRh3)2
_chemical_formula_sum   'Nd8 P14 Ir4 Rh12'
_cell_volume   669.39540272
_cell_formula_units_Z   2
loop_
 _symmetry_equiv_pos_site_id
 _symmetry_equiv_pos_as_xyz
  1  'x, y, z'
loop_
 _atom_site_type_symbol
 _atom_site_label
 _atom_site_symmetry_multiplicity
 _atom_site_fract_x
 _atom_site_fract_y
 _atom_site_fract_z
 _atom_site_occupancy
  Nd  Nd0  1  0.750000  0.790814  0.562032  1
  Nd  Nd1  1  0.250000  0.209186  0.437968  1
  Nd  Nd2  1  0.750000  0.482324  0.706760  1
  Nd  Nd3  1  0.250000  0.517676  0.293240  1
  Nd  Nd4  1  0.750000  0.723840  0.897723  1
  Nd  Nd5  1  0.250000  0.103324  0.787483  1
  Nd  Nd6  1  0.750000  0.896676  0.212517  1
  Nd  Nd7  1  0.250000  0.276160  0.102277  1
  P  P8  1  0.250000  0.909205  0.410142  1
  P  P9  1  0.750000  0.473651  0.128140  1
  P  P10  1  0.250000  0.526349  0.871860  1
  P  P11  1  0.750000  0.090795  0.589858  1
  P  P12  1  0.250000  0.741315  0.079735  1
  P  P13  1  0.750000  0.258685  0.920265  1
  P  P14  1  0.750000  0.156277  0.281155  1
  P  P15  1  0.250000  0.843723  0.718845  1
  P  P16  1  0.250000  0.049180  0.099920  1
  P  P17  1  0.750000  0.950820  0.900080  1
  P  P18  1  0.250000  0.313959  0.689416  1
  P  P19  1  0.750000  0.686041  0.310584  1
  P  P20  1  0.250000  0.608307  0.561835  1
  P  P21  1  0.750000  0.391693  0.438165  1
  Ir  Ir22  1  0.250000  0.728581  0.394297  1
  Ir  Ir23  1  0.750000  0.271419  0.605703  1
  Ir  Ir24  1  0.250000  0.342197  0.859964  1
  Ir  Ir25  1  0.750000  0.657803  0.140036  1
  Rh  Rh26  1  0.250000  0.987792  0.575791  1
  Rh  Rh27  1  0.750000  0.012208  0.424209  1
  Rh  Rh28  1  0.250000  0.662993  0.729647  1
  Rh  Rh29  1  0.750000  0.337007  0.270353  1
  Rh  Rh30  1  0.250000  0.551712  0.046375  1
  Rh  Rh31  1  0.750000  0.448288  0.953625  1
  Rh  Rh32  1  0.250000  0.061121  0.274033  1
  Rh  Rh33  1  0.750000  0.938879  0.725967  1
  Rh  Rh34  1  0.250000  0.424450  0.527993  1
  Rh  Rh35  1  0.750000  0.575550  0.472007  1
  Rh  Rh36  1  0.250000  0.916136  0.997497  1
  Rh  Rh37  1  0.750000  0.083864  0.002503  1
