# generated using pymatgen
data_Y5Zr3As6(P3Pd8)2
_symmetry_space_group_name_H-M   'P 1'
_cell_length_a   13.34535300
_cell_length_b   13.34535176
_cell_length_c   4.05392500
_cell_angle_alpha   90.00000000
_cell_angle_beta   90.00000000
_cell_angle_gamma   120.00000555
_symmetry_Int_Tables_number   1
_chemical_formula_structural   Y5Zr3As6(P3Pd8)2
_chemical_formula_sum   'Y5 Zr3 As6 P6 Pd16'
_cell_volume   625.26829601
_cell_formula_units_Z   1
loop_
 _symmetry_equiv_pos_site_id
 _symmetry_equiv_pos_as_xyz
  1  'x, y, z'
loop_
 _atom_site_type_symbol
 _atom_site_label
 _atom_site_symmetry_multiplicity
 _atom_site_fract_x
 _atom_site_fract_y
 _atom_site_fract_z
 _atom_site_occupancy
  Y  Y0  1  0.186701  0.186701  0.500000  1
  Y  Y1  1  0.813299  0.000000  0.500000  1
  Y  Y2  1  0.000000  0.813299  0.500000  1
  Y  Y3  1  0.333333  0.666667  0.000000  1
  Y  Y4  1  0.666667  0.333333  0.000000  1
  Zr  Zr5  1  0.553932  0.553932  0.000000  1
  Zr  Zr6  1  0.446068  0.000000  0.000000  1
  Zr  Zr7  1  0.000000  0.446068  0.000000  1
  As  As8  1  0.165981  0.483487  0.500000  1
  As  As9  1  0.516513  0.682494  0.500000  1
  As  As10  1  0.317506  0.834019  0.500000  1
  As  As11  1  0.682494  0.516513  0.500000  1
  As  As12  1  0.834019  0.317506  0.500000  1
  As  As13  1  0.483487  0.165981  0.500000  1
  P  P14  1  0.828511  0.828511  0.000000  1
  P  P15  1  0.171489  0.000000  0.000000  1
  P  P16  1  0.000000  0.171489  0.000000  1
  P  P17  1  0.357625  0.357625  0.000000  1
  P  P18  1  0.642375  0.000000  0.000000  1
  P  P19  1  0.000000  0.642375  0.000000  1
  Pd  Pd20  1  0.732036  0.732036  0.500000  1
  Pd  Pd21  1  0.267964  0.000000  0.500000  1
  Pd  Pd22  1  0.000000  0.267964  0.500000  1
  Pd  Pd23  1  0.180649  0.362669  0.000000  1
  Pd  Pd24  1  0.637331  0.817980  0.000000  1
  Pd  Pd25  1  0.182020  0.819351  0.000000  1
  Pd  Pd26  1  0.817980  0.637331  0.000000  1
  Pd  Pd27  1  0.819351  0.182020  0.000000  1
  Pd  Pd28  1  0.362669  0.180649  0.000000  1
  Pd  Pd29  1  0.354407  0.477740  0.500000  1
  Pd  Pd30  1  0.522260  0.876667  0.500000  1
  Pd  Pd31  1  0.123333  0.645593  0.500000  1
  Pd  Pd32  1  0.876667  0.522260  0.500000  1
  Pd  Pd33  1  0.645593  0.123333  0.500000  1
  Pd  Pd34  1  0.477740  0.354407  0.500000  1
  Pd  Pd35  1  0.000000  0.000000  0.000000  1
