# generated using pymatgen
data_CaLu(TcB4)2
_symmetry_space_group_name_H-M   'P 1'
_cell_length_a   3.56865400
_cell_length_b   5.95982913
_cell_length_c   11.52204804
_cell_angle_alpha   89.88259184
_cell_angle_beta   90.00000000
_cell_angle_gamma   90.00000000
_symmetry_Int_Tables_number   1
_chemical_formula_structural   CaLu(TcB4)2
_chemical_formula_sum   'Ca2 Lu2 Tc4 B16'
_cell_volume   245.05694856
_cell_formula_units_Z   2
loop_
 _symmetry_equiv_pos_site_id
 _symmetry_equiv_pos_as_xyz
  1  'x, y, z'
loop_
 _atom_site_type_symbol
 _atom_site_label
 _atom_site_symmetry_multiplicity
 _atom_site_fract_x
 _atom_site_fract_y
 _atom_site_fract_z
 _atom_site_occupancy
  Ca  Ca0  1  0.500000  0.372426  0.149774  1
  Ca  Ca1  1  0.500000  0.627574  0.850226  1
  Lu  Lu2  1  0.500000  0.128307  0.651040  1
  Lu  Lu3  1  0.500000  0.871693  0.348960  1
  Tc  Tc4  1  0.500000  0.366504  0.415306  1
  Tc  Tc5  1  0.500000  0.633496  0.584694  1
  Tc  Tc6  1  0.500000  0.130138  0.915115  1
  Tc  Tc7  1  0.500000  0.869862  0.084885  1
  B  B8  1  0.000000  0.113406  0.047330  1
  B  B9  1  0.000000  0.886594  0.952670  1
  B  B10  1  0.000000  0.385975  0.547931  1
  B  B11  1  0.000000  0.614025  0.452069  1
  B  B12  1  0.000000  0.134375  0.468860  1
  B  B13  1  0.000000  0.865625  0.531140  1
  B  B14  1  0.000000  0.365207  0.967534  1
  B  B15  1  0.000000  0.634793  0.032466  1
  B  B16  1  0.000000  0.020607  0.193817  1
  B  B17  1  0.000000  0.979393  0.806183  1
  B  B18  1  0.000000  0.476350  0.692399  1
  B  B19  1  0.000000  0.523650  0.307601  1
  B  B20  1  0.000000  0.211933  0.315323  1
  B  B21  1  0.000000  0.788067  0.684677  1
  B  B22  1  0.000000  0.286390  0.814270  1
  B  B23  1  0.000000  0.713610  0.185730  1
