# generated using pymatgen
data_Pr2Tm3Si4
_symmetry_space_group_name_H-M   'P 1'
_cell_length_a   7.47135600
_cell_length_b   7.76991300
_cell_length_c   14.72668000
_cell_angle_alpha   90.00000000
_cell_angle_beta   90.00000000
_cell_angle_gamma   90.00000000
_symmetry_Int_Tables_number   1
_chemical_formula_structural   Pr2Tm3Si4
_chemical_formula_sum   'Pr8 Tm12 Si16'
_cell_volume   854.91007750
_cell_formula_units_Z   4
loop_
 _symmetry_equiv_pos_site_id
 _symmetry_equiv_pos_as_xyz
  1  'x, y, z'
loop_
 _atom_site_type_symbol
 _atom_site_label
 _atom_site_symmetry_multiplicity
 _atom_site_fract_x
 _atom_site_fract_y
 _atom_site_fract_z
 _atom_site_occupancy
  Pr  Pr0  1  0.019482  0.176981  0.402366  1
  Pr  Pr1  1  0.519482  0.323019  0.402366  1
  Pr  Pr2  1  0.480518  0.676981  0.902366  1
  Pr  Pr3  1  0.480518  0.676981  0.597634  1
  Pr  Pr4  1  0.980518  0.823019  0.597634  1
  Pr  Pr5  1  0.980518  0.823019  0.902366  1
  Pr  Pr6  1  0.519482  0.323019  0.097634  1
  Pr  Pr7  1  0.019482  0.176981  0.097634  1
  Tm  Tm8  1  0.323708  0.178138  0.623538  1
  Tm  Tm9  1  0.676292  0.821862  0.376462  1
  Tm  Tm10  1  0.655137  0.990354  0.750000  1
  Tm  Tm11  1  0.176292  0.678138  0.376462  1
  Tm  Tm12  1  0.823708  0.321862  0.876462  1
  Tm  Tm13  1  0.823708  0.321862  0.623538  1
  Tm  Tm14  1  0.844863  0.490354  0.250000  1
  Tm  Tm15  1  0.344863  0.009646  0.250000  1
  Tm  Tm16  1  0.323708  0.178138  0.876462  1
  Tm  Tm17  1  0.176292  0.678138  0.123538  1
  Tm  Tm18  1  0.676292  0.821862  0.123538  1
  Tm  Tm19  1  0.155137  0.509646  0.750000  1
  Si  Si20  1  0.275597  0.880093  0.750000  1
  Si  Si21  1  0.470765  0.615671  0.250000  1
  Si  Si22  1  0.029235  0.115671  0.750000  1
  Si  Si23  1  0.529235  0.384329  0.750000  1
  Si  Si24  1  0.147483  0.467852  0.539667  1
  Si  Si25  1  0.970765  0.884329  0.250000  1
  Si  Si26  1  0.724403  0.119907  0.250000  1
  Si  Si27  1  0.852517  0.532148  0.039667  1
  Si  Si28  1  0.352517  0.967852  0.039667  1
  Si  Si29  1  0.147483  0.467852  0.960333  1
  Si  Si30  1  0.647483  0.032148  0.539667  1
  Si  Si31  1  0.352517  0.967852  0.460333  1
  Si  Si32  1  0.852517  0.532148  0.460333  1
  Si  Si33  1  0.775597  0.619907  0.750000  1
  Si  Si34  1  0.224403  0.380093  0.250000  1
  Si  Si35  1  0.647483  0.032148  0.960333  1
