# generated using pymatgen
data_La2Pr3Ru2
_symmetry_space_group_name_H-M   'P 1'
_cell_length_a   9.13283545
_cell_length_b   9.13283534
_cell_length_c   7.39973267
_cell_angle_alpha   84.62455260
_cell_angle_beta   84.62455452
_cell_angle_gamma   42.82033296
_symmetry_Int_Tables_number   1
_chemical_formula_structural   La2Pr3Ru2
_chemical_formula_sum   'La4 Pr6 Ru4'
_cell_volume   417.38387962
_cell_formula_units_Z   2
loop_
 _symmetry_equiv_pos_site_id
 _symmetry_equiv_pos_as_xyz
  1  'x, y, z'
loop_
 _atom_site_type_symbol
 _atom_site_label
 _atom_site_symmetry_multiplicity
 _atom_site_fract_x
 _atom_site_fract_y
 _atom_site_fract_z
 _atom_site_occupancy
  La  La0  1  0.014838  0.797497  0.903956  1
  La  La1  1  0.202503  0.985162  0.596044  1
  La  La2  1  0.985162  0.202503  0.096044  1
  La  La3  1  0.797497  0.014838  0.403956  1
  Pr  Pr4  1  0.361019  0.208722  0.816792  1
  Pr  Pr5  1  0.791278  0.638981  0.683208  1
  Pr  Pr6  1  0.638981  0.791278  0.183208  1
  Pr  Pr7  1  0.208722  0.361019  0.316792  1
  Pr  Pr8  1  0.574697  0.425303  0.750000  1
  Pr  Pr9  1  0.425303  0.574697  0.250000  1
  Ru  Ru10  1  0.162848  0.614945  0.587059  1
  Ru  Ru11  1  0.385055  0.837152  0.912941  1
  Ru  Ru12  1  0.837152  0.385055  0.412941  1
  Ru  Ru13  1  0.614945  0.162848  0.087059  1
