# generated using pymatgen
data_KSr4Sb2P
_symmetry_space_group_name_H-M   'P 1'
_cell_length_a   8.43317700
_cell_length_b   9.90781400
_cell_length_c   13.58394000
_cell_angle_alpha   90.00000000
_cell_angle_beta   90.00000000
_cell_angle_gamma   90.00000000
_symmetry_Int_Tables_number   1
_chemical_formula_structural   KSr4Sb2P
_chemical_formula_sum   'K4 Sr16 Sb8 P4'
_cell_volume   1134.99726553
_cell_formula_units_Z   4
loop_
 _symmetry_equiv_pos_site_id
 _symmetry_equiv_pos_as_xyz
  1  'x, y, z'
loop_
 _atom_site_type_symbol
 _atom_site_label
 _atom_site_symmetry_multiplicity
 _atom_site_fract_x
 _atom_site_fract_y
 _atom_site_fract_z
 _atom_site_occupancy
  K  K0  1  0.010105  0.750000  0.499500  1
  K  K1  1  0.989895  0.250000  0.500500  1
  K  K2  1  0.510105  0.250000  0.000500  1
  K  K3  1  0.489895  0.750000  0.999500  1
  Sr  Sr4  1  0.846548  0.750000  0.801150  1
  Sr  Sr5  1  0.153452  0.250000  0.198850  1
  Sr  Sr6  1  0.346548  0.250000  0.698850  1
  Sr  Sr7  1  0.653452  0.750000  0.301150  1
  Sr  Sr8  1  0.686678  0.503312  0.576153  1
  Sr  Sr9  1  0.313322  0.496688  0.423847  1
  Sr  Sr10  1  0.186678  0.496688  0.923847  1
  Sr  Sr11  1  0.313322  0.003312  0.423847  1
  Sr  Sr12  1  0.813322  0.503312  0.076153  1
  Sr  Sr13  1  0.686678  0.996688  0.576153  1
  Sr  Sr14  1  0.813322  0.996688  0.076153  1
  Sr  Sr15  1  0.186678  0.003312  0.923847  1
  Sr  Sr16  1  0.343516  0.750000  0.701064  1
  Sr  Sr17  1  0.656484  0.250000  0.298936  1
  Sr  Sr18  1  0.843516  0.250000  0.798936  1
  Sr  Sr19  1  0.156484  0.750000  0.201064  1
  Sb  Sb20  1  0.560572  0.500569  0.820352  1
  Sb  Sb21  1  0.439428  0.499431  0.179648  1
  Sb  Sb22  1  0.060572  0.499431  0.679648  1
  Sb  Sb23  1  0.439428  0.000569  0.179648  1
  Sb  Sb24  1  0.939428  0.500569  0.320352  1
  Sb  Sb25  1  0.560572  0.999431  0.820352  1
  Sb  Sb26  1  0.939428  0.999431  0.320352  1
  Sb  Sb27  1  0.060572  0.000569  0.679648  1
  P  P28  1  0.006074  0.750000  0.999130  1
  P  P29  1  0.993926  0.250000  0.000870  1
  P  P30  1  0.506074  0.250000  0.500870  1
  P  P31  1  0.493926  0.750000  0.499130  1
