# generated using pymatgen
data_Tb5CdIn4Co
_symmetry_space_group_name_H-M   'P 1'
_cell_length_a   3.61222500
_cell_length_b   8.27911081
_cell_length_c   18.49821507
_cell_angle_alpha   90.40793096
_cell_angle_beta   90.00000000
_cell_angle_gamma   90.00000000
_symmetry_Int_Tables_number   1
_chemical_formula_structural   Tb5CdIn4Co
_chemical_formula_sum   'Tb10 Cd2 In8 Co2'
_cell_volume   553.19380332
_cell_formula_units_Z   2
loop_
 _symmetry_equiv_pos_site_id
 _symmetry_equiv_pos_as_xyz
  1  'x, y, z'
loop_
 _atom_site_type_symbol
 _atom_site_label
 _atom_site_symmetry_multiplicity
 _atom_site_fract_x
 _atom_site_fract_y
 _atom_site_fract_z
 _atom_site_occupancy
  Tb  Tb0  1  0.000000  0.115081  0.414595  1
  Tb  Tb1  1  0.000000  0.884919  0.585405  1
  Tb  Tb2  1  0.000000  0.374191  0.926185  1
  Tb  Tb3  1  0.000000  0.625809  0.073815  1
  Tb  Tb4  1  0.000000  0.201758  0.228012  1
  Tb  Tb5  1  0.000000  0.798242  0.771988  1
  Tb  Tb6  1  0.000000  0.224957  0.713034  1
  Tb  Tb7  1  0.000000  0.775043  0.286966  1
  Tb  Tb8  1  0.000000  0.000000  0.000000  1
  Tb  Tb9  1  0.000000  0.500000  0.500000  1
  Cd  Cd10  1  0.500000  0.479832  0.798706  1
  Cd  Cd11  1  0.500000  0.520168  0.201294  1
  In  In12  1  0.500000  0.418967  0.353159  1
  In  In13  1  0.500000  0.581033  0.646841  1
  In  In14  1  0.500000  0.082288  0.849643  1
  In  In15  1  0.500000  0.917712  0.150357  1
  In  In16  1  0.500000  0.288004  0.074481  1
  In  In17  1  0.500000  0.711996  0.925519  1
  In  In18  1  0.500000  0.204006  0.566689  1
  In  In19  1  0.500000  0.795994  0.433311  1
  Co  Co20  1  0.500000  0.018868  0.308505  1
  Co  Co21  1  0.500000  0.981132  0.691495  1
