# generated using pymatgen
data_Hf17Ta(CoP2)4
_symmetry_space_group_name_H-M   'P 1'
_cell_length_a   11.94414600
_cell_length_b   11.94414600
_cell_length_c   3.60148600
_cell_angle_alpha   90.00000000
_cell_angle_beta   90.00000000
_cell_angle_gamma   90.00000000
_symmetry_Int_Tables_number   1
_chemical_formula_structural   Hf17Ta(CoP2)4
_chemical_formula_sum   'Hf17 Ta1 Co4 P8'
_cell_volume   513.79744187
_cell_formula_units_Z   1
loop_
 _symmetry_equiv_pos_site_id
 _symmetry_equiv_pos_as_xyz
  1  'x, y, z'
loop_
 _atom_site_type_symbol
 _atom_site_label
 _atom_site_symmetry_multiplicity
 _atom_site_fract_x
 _atom_site_fract_y
 _atom_site_fract_z
 _atom_site_occupancy
  Hf  Hf0  1  0.178409  0.101326  0.500000  1
  Hf  Hf1  1  0.821591  0.898674  0.500000  1
  Hf  Hf2  1  0.101326  0.821591  0.500000  1
  Hf  Hf3  1  0.683045  0.393969  0.500000  1
  Hf  Hf4  1  0.898674  0.178409  0.500000  1
  Hf  Hf5  1  0.316955  0.606031  0.500000  1
  Hf  Hf6  1  0.606031  0.683045  0.500000  1
  Hf  Hf7  1  0.393969  0.316955  0.500000  1
  Hf  Hf8  1  0.622508  0.120230  0.500000  1
  Hf  Hf9  1  0.377492  0.879770  0.500000  1
  Hf  Hf10  1  0.120230  0.377492  0.500000  1
  Hf  Hf11  1  0.879770  0.622508  0.500000  1
  Hf  Hf12  1  0.500000  0.500000  0.000000  1
  Hf  Hf13  1  0.094781  0.595778  0.000000  1
  Hf  Hf14  1  0.905219  0.404222  0.000000  1
  Hf  Hf15  1  0.595778  0.905219  0.000000  1
  Hf  Hf16  1  0.404222  0.094781  0.000000  1
  Ta  Ta17  1  0.000000  0.000000  0.000000  1
  Co  Co18  1  0.749986  0.249792  0.000000  1
  Co  Co19  1  0.250014  0.750208  0.000000  1
  Co  Co20  1  0.249792  0.250014  0.000000  1
  Co  Co21  1  0.750208  0.749986  0.000000  1
  P  P22  1  0.057043  0.221451  0.000000  1
  P  P23  1  0.942957  0.778549  0.000000  1
  P  P24  1  0.221451  0.942957  0.000000  1
  P  P25  1  0.556463  0.275891  0.000000  1
  P  P26  1  0.778549  0.057043  0.000000  1
  P  P27  1  0.443537  0.724109  0.000000  1
  P  P28  1  0.724109  0.556463  0.000000  1
  P  P29  1  0.275891  0.443537  0.000000  1
