# generated using pymatgen
data_GdDySi4CN6
_symmetry_space_group_name_H-M   'P 1'
_cell_length_a   5.88225067
_cell_length_b   9.84797300
_cell_length_c   11.80188000
_cell_angle_alpha   90.00000000
_cell_angle_beta   119.74434729
_cell_angle_gamma   90.00000000
_symmetry_Int_Tables_number   1
_chemical_formula_structural   GdDySi4CN6
_chemical_formula_sum   'Gd4 Dy4 Si16 C4 N24'
_cell_volume   593.58818205
_cell_formula_units_Z   4
loop_
 _symmetry_equiv_pos_site_id
 _symmetry_equiv_pos_as_xyz
  1  'x, y, z'
loop_
 _atom_site_type_symbol
 _atom_site_label
 _atom_site_symmetry_multiplicity
 _atom_site_fract_x
 _atom_site_fract_y
 _atom_site_fract_z
 _atom_site_occupancy
  Gd  Gd0  1  0.335562  0.588109  0.574871  1
  Gd  Gd1  1  0.335168  0.940750  0.600535  1
  Gd  Gd2  1  0.664833  0.440751  0.899465  1
  Gd  Gd3  1  0.664438  0.088110  0.925129  1
  Dy  Dy4  1  0.335521  0.911960  0.076483  1
  Dy  Dy5  1  0.332654  0.563477  0.099766  1
  Dy  Dy6  1  0.667346  0.063478  0.400233  1
  Dy  Dy7  1  0.664479  0.411961  0.423517  1
  Si  Si8  1  0.836986  0.706677  0.079293  1
  Si  Si9  1  0.674218  0.231303  0.161298  1
  Si  Si10  1  0.194311  0.211429  0.175690  1
  Si  Si11  1  0.989918  0.978559  0.246183  1
  Si  Si12  1  0.010082  0.478558  0.253817  1
  Si  Si13  1  0.805687  0.711428  0.324309  1
  Si  Si14  1  0.325782  0.731302  0.338702  1
  Si  Si15  1  0.163014  0.206678  0.420707  1
  Si  Si16  1  0.835044  0.793853  0.578570  1
  Si  Si17  1  0.674293  0.268301  0.659969  1
  Si  Si18  1  0.191670  0.287859  0.674226  1
  Si  Si19  1  0.990350  0.521095  0.745604  1
  Si  Si20  1  0.009650  0.021094  0.754396  1
  Si  Si21  1  0.808331  0.787858  0.825774  1
  Si  Si22  1  0.325708  0.768300  0.840031  1
  Si  Si23  1  0.164955  0.293854  0.921429  1
  C  C24  1  0.977107  0.791232  0.243037  1
  C  C25  1  0.022893  0.291232  0.256963  1
  C  C26  1  0.976576  0.708449  0.742640  1
  C  C27  1  0.023424  0.208449  0.757360  1
  N  N28  1  0.505820  0.295184  0.003657  1
  N  N29  1  0.030688  0.229478  0.009721  1
  N  N30  1  0.938320  0.537847  0.102486  1
  N  N31  1  0.689973  0.055269  0.140419  1
  N  N32  1  0.225744  0.037629  0.210956  1
  N  N33  1  0.513488  0.268781  0.247180  1
  N  N34  1  0.486512  0.768781  0.252819  1
  N  N35  1  0.774257  0.537628  0.289045  1
  N  N36  1  0.310027  0.555268  0.359581  1
  N  N37  1  0.061680  0.037847  0.397514  1
  N  N38  1  0.969312  0.729477  0.490279  1
  N  N39  1  0.494180  0.795184  0.496343  1
  N  N40  1  0.504147  0.205198  0.501940  1
  N  N41  1  0.024358  0.268988  0.508236  1
  N  N42  1  0.933000  0.963329  0.601536  1
  N  N43  1  0.693024  0.443368  0.638418  1
  N  N44  1  0.222454  0.461399  0.708864  1
  N  N45  1  0.510471  0.230482  0.744080  1
  N  N46  1  0.489527  0.730482  0.755920  1
  N  N47  1  0.777547  0.961398  0.791136  1
  N  N48  1  0.306975  0.943367  0.861582  1
  N  N49  1  0.067000  0.463329  0.898464  1
  N  N50  1  0.975642  0.768987  0.991764  1
  N  N51  1  0.495853  0.705198  0.998060  1
