# generated using pymatgen
data_Tb4Tm4Sc12Si15Bi
_symmetry_space_group_name_H-M   'P 1'
_cell_length_a   7.16793601
_cell_length_b   7.40393564
_cell_length_c   14.04947939
_cell_angle_alpha   90.09509818
_cell_angle_beta   88.66793546
_cell_angle_gamma   90.25616922
_symmetry_Int_Tables_number   1
_chemical_formula_structural   Tb4Tm4Sc12Si15Bi
_chemical_formula_sum   'Tb4 Tm4 Sc12 Si15 Bi1'
_cell_volume   745.40918253
_cell_formula_units_Z   1
loop_
 _symmetry_equiv_pos_site_id
 _symmetry_equiv_pos_as_xyz
  1  'x, y, z'
loop_
 _atom_site_type_symbol
 _atom_site_label
 _atom_site_symmetry_multiplicity
 _atom_site_fract_x
 _atom_site_fract_y
 _atom_site_fract_z
 _atom_site_occupancy
  Tb  Tb0  1  0.011692  0.176986  0.097115  1
  Tb  Tb1  1  0.987931  0.824860  0.904128  1
  Tb  Tb2  1  0.489420  0.674981  0.905128  1
  Tb  Tb3  1  0.993378  0.830717  0.597466  1
  Tm  Tm4  1  0.511650  0.323537  0.098823  1
  Tm  Tm5  1  0.998339  0.170951  0.397892  1
  Tm  Tm6  1  0.511014  0.315834  0.397229  1
  Tm  Tm7  1  0.513644  0.687287  0.600852  1
  Sc  Sc8  1  0.165293  0.500568  0.755482  1
  Sc  Sc9  1  0.833673  0.498419  0.252122  1
  Sc  Sc10  1  0.334127  0.002022  0.250752  1
  Sc  Sc11  1  0.667888  0.999083  0.750948  1
  Sc  Sc12  1  0.350387  0.155937  0.631426  1
  Sc  Sc13  1  0.657478  0.827042  0.372355  1
  Sc  Sc14  1  0.153371  0.682601  0.368995  1
  Sc  Sc15  1  0.666756  0.822873  0.124825  1
  Sc  Sc16  1  0.828023  0.326856  0.625000  1
  Sc  Sc17  1  0.331831  0.176064  0.875386  1
  Sc  Sc18  1  0.830899  0.324234  0.875675  1
  Sc  Sc19  1  0.168829  0.675265  0.125467  1
  Si  Si20  1  0.037790  0.120878  0.750872  1
  Si  Si21  1  0.960322  0.884911  0.246514  1
  Si  Si22  1  0.460654  0.614605  0.247897  1
  Si  Si23  1  0.536970  0.384636  0.752250  1
  Si  Si24  1  0.291356  0.867489  0.752328  1
  Si  Si25  1  0.709193  0.127773  0.247275  1
  Si  Si26  1  0.209732  0.372160  0.249655  1
  Si  Si27  1  0.792981  0.627643  0.750889  1
  Si  Si28  1  0.809284  0.539489  0.456043  1
  Si  Si29  1  0.328783  0.964709  0.459108  1
  Si  Si30  1  0.841864  0.534019  0.040379  1
  Si  Si31  1  0.671653  0.039498  0.537452  1
  Si  Si32  1  0.154146  0.465245  0.961622  1
  Si  Si33  1  0.654433  0.036674  0.961378  1
  Si  Si34  1  0.344813  0.967507  0.041078  1
  Bi  Bi35  1  0.190394  0.456647  0.538197  1
