# generated using pymatgen
data_ThSiTc2C
_symmetry_space_group_name_H-M   'P 1'
_cell_length_a   5.93846383
_cell_length_b   5.93846428
_cell_length_c   7.35581200
_cell_angle_alpha   90.00000000
_cell_angle_beta   90.00000000
_cell_angle_gamma   141.00226282
_symmetry_Int_Tables_number   1
_chemical_formula_structural   ThSiTc2C
_chemical_formula_sum   'Th2 Si2 Tc4 C2'
_cell_volume   163.24109805
_cell_formula_units_Z   2
loop_
 _symmetry_equiv_pos_site_id
 _symmetry_equiv_pos_as_xyz
  1  'x, y, z'
loop_
 _atom_site_type_symbol
 _atom_site_label
 _atom_site_symmetry_multiplicity
 _atom_site_fract_x
 _atom_site_fract_y
 _atom_site_fract_z
 _atom_site_occupancy
  Th  Th0  1  0.546259  0.453741  0.250000  1
  Th  Th1  1  0.453741  0.546259  0.750000  1
  Si  Si2  1  0.267403  0.732597  0.250000  1
  Si  Si3  1  0.732597  0.267403  0.750000  1
  Tc  Tc4  1  0.829823  0.170177  0.060662  1
  Tc  Tc5  1  0.170177  0.829823  0.939338  1
  Tc  Tc6  1  0.170177  0.829823  0.560662  1
  Tc  Tc7  1  0.829823  0.170177  0.439338  1
  C  C8  1  0.000000  0.000000  0.000000  1
  C  C9  1  0.000000  0.000000  0.500000  1
