# generated using pymatgen
data_La7Pr5(GaIr)8
_symmetry_space_group_name_H-M   'P 1'
_cell_length_a   5.79985216
_cell_length_b   8.27709624
_cell_length_c   13.76908015
_cell_angle_alpha   89.98710717
_cell_angle_beta   90.01115942
_cell_angle_gamma   90.02429113
_symmetry_Int_Tables_number   1
_chemical_formula_structural   La7Pr5(GaIr)8
_chemical_formula_sum   'La7 Pr5 Ga8 Ir8'
_cell_volume   660.99747096
_cell_formula_units_Z   1
loop_
 _symmetry_equiv_pos_site_id
 _symmetry_equiv_pos_as_xyz
  1  'x, y, z'
loop_
 _atom_site_type_symbol
 _atom_site_label
 _atom_site_symmetry_multiplicity
 _atom_site_fract_x
 _atom_site_fract_y
 _atom_site_fract_z
 _atom_site_occupancy
  La  La0  1  0.147456  0.896575  0.596905  1
  La  La1  1  0.852627  0.103877  0.096858  1
  La  La2  1  0.147538  0.603668  0.402801  1
  La  La3  1  0.852717  0.397399  0.903445  1
  La  La4  1  0.852575  0.103748  0.402791  1
  La  La5  1  0.147590  0.895668  0.903430  1
  La  La6  1  0.852638  0.396133  0.596916  1
  Pr  Pr7  1  0.145496  0.604751  0.099126  1
  Pr  Pr8  1  0.371471  0.252363  0.749946  1
  Pr  Pr9  1  0.628242  0.747155  0.249700  1
  Pr  Pr10  1  0.371243  0.248070  0.249571  1
  Pr  Pr11  1  0.628443  0.752240  0.750140  1
  Ga  Ga12  1  0.864070  0.102260  0.750090  1
  Ga  Ga13  1  0.135829  0.897218  0.249707  1
  Ga  Ga14  1  0.865052  0.398220  0.249445  1
  Ga  Ga15  1  0.136445  0.602147  0.749958  1
  Ga  Ga16  1  0.379486  0.249906  0.499949  1
  Ga  Ga17  1  0.619800  0.749418  0.000330  1
  Ga  Ga18  1  0.620529  0.750053  0.499954  1
  Ga  Ga19  1  0.379259  0.250574  0.000279  1
  Ir  Ir20  1  0.644306  0.029802  0.591410  1
  Ir  Ir21  1  0.355338  0.970564  0.091328  1
  Ir  Ir22  1  0.644601  0.470462  0.408533  1
  Ir  Ir23  1  0.356469  0.529531  0.907690  1
  Ir  Ir24  1  0.355816  0.969806  0.408482  1
  Ir  Ir25  1  0.644263  0.029460  0.908629  1
  Ir  Ir26  1  0.355590  0.529491  0.591307  1
  Ir  Ir27  1  0.645107  0.469441  0.091281  1
