# generated using pymatgen
data_LiAc2Cu3As4
_symmetry_space_group_name_H-M   'P 1'
_cell_length_a   4.47752300
_cell_length_b   4.47752300
_cell_length_c   10.01775300
_cell_angle_alpha   90.00000000
_cell_angle_beta   90.00000000
_cell_angle_gamma   90.00000000
_symmetry_Int_Tables_number   1
_chemical_formula_structural   LiAc2Cu3As4
_chemical_formula_sum   'Li1 Ac2 Cu3 As4'
_cell_volume   200.83803807
_cell_formula_units_Z   1
loop_
 _symmetry_equiv_pos_site_id
 _symmetry_equiv_pos_as_xyz
  1  'x, y, z'
loop_
 _atom_site_type_symbol
 _atom_site_label
 _atom_site_symmetry_multiplicity
 _atom_site_fract_x
 _atom_site_fract_y
 _atom_site_fract_z
 _atom_site_occupancy
  Li  Li0  1  0.000000  0.000000  0.500000  1
  Ac  Ac1  1  0.000000  0.500000  0.243073  1
  Ac  Ac2  1  0.500000  0.000000  0.756927  1
  Cu  Cu3  1  0.500000  0.500000  0.500000  1
  Cu  Cu4  1  0.000000  0.500000  0.883237  1
  Cu  Cu5  1  0.500000  0.000000  0.116763  1
  As  As6  1  0.000000  0.000000  0.000000  1
  As  As7  1  0.500000  0.500000  0.000000  1
  As  As8  1  0.000000  0.500000  0.636162  1
  As  As9  1  0.500000  0.000000  0.363838  1
