# generated using pymatgen
data_SmHo7(Sc3Sn4)4
_symmetry_space_group_name_H-M   'P 1'
_cell_length_a   7.67834809
_cell_length_b   7.95316003
_cell_length_c   14.82557500
_cell_angle_alpha   90.00327069
_cell_angle_beta   89.99136647
_cell_angle_gamma   90.00410686
_symmetry_Int_Tables_number   1
_chemical_formula_structural   SmHo7(Sc3Sn4)4
_chemical_formula_sum   'Sm1 Ho7 Sc12 Sn16'
_cell_volume   905.35531851
_cell_formula_units_Z   1
loop_
 _symmetry_equiv_pos_site_id
 _symmetry_equiv_pos_as_xyz
  1  'x, y, z'
loop_
 _atom_site_type_symbol
 _atom_site_label
 _atom_site_symmetry_multiplicity
 _atom_site_fract_x
 _atom_site_fract_y
 _atom_site_fract_z
 _atom_site_occupancy
  Sm  Sm0  1  0.995191  0.176671  0.093825  1
  Ho  Ho1  1  0.005001  0.822623  0.905637  1
  Ho  Ho2  1  0.505362  0.677219  0.905647  1
  Ho  Ho3  1  0.005224  0.822717  0.594145  1
  Ho  Ho4  1  0.494759  0.322956  0.094087  1
  Ho  Ho5  1  0.994669  0.177247  0.405651  1
  Ho  Ho6  1  0.494856  0.322782  0.406185  1
  Ho  Ho7  1  0.505125  0.677326  0.594131  1
  Sc  Sc8  1  0.164818  0.496491  0.749937  1
  Sc  Sc9  1  0.835077  0.503624  0.250159  1
  Sc  Sc10  1  0.335254  0.996281  0.250144  1
  Sc  Sc11  1  0.664763  0.003500  0.749953  1
  Sc  Sc12  1  0.336265  0.161579  0.627328  1
  Sc  Sc13  1  0.663671  0.838380  0.372812  1
  Sc  Sc14  1  0.163753  0.661704  0.372896  1
  Sc  Sc15  1  0.663610  0.838089  0.127396  1
  Sc  Sc16  1  0.836237  0.338303  0.627336  1
  Sc  Sc17  1  0.336236  0.161664  0.872535  1
  Sc  Sc18  1  0.835949  0.338604  0.872579  1
  Sc  Sc19  1  0.163820  0.661655  0.127271  1
  Sn  Sn20  1  0.027552  0.123905  0.749971  1
  Sn  Sn21  1  0.972355  0.875169  0.250240  1
  Sn  Sn22  1  0.472492  0.623881  0.250028  1
  Sn  Sn23  1  0.527421  0.376195  0.749884  1
  Sn  Sn24  1  0.307427  0.849206  0.749979  1
  Sn  Sn25  1  0.691446  0.150594  0.250611  1
  Sn  Sn26  1  0.193865  0.350458  0.250937  1
  Sn  Sn27  1  0.807478  0.650841  0.749992  1
  Sn  Sn28  1  0.181299  0.457794  0.542407  1
  Sn  Sn29  1  0.818764  0.542034  0.457660  1
  Sn  Sn30  1  0.318478  0.958016  0.457624  1
  Sn  Sn31  1  0.818161  0.543230  0.042086  1
  Sn  Sn32  1  0.681264  0.042049  0.542442  1
  Sn  Sn33  1  0.181668  0.458801  0.957325  1
  Sn  Sn34  1  0.679654  0.041574  0.957116  1
  Sn  Sn35  1  0.321036  0.956834  0.042045  1
