# generated using pymatgen
data_Er2ThP4Pd7
_symmetry_space_group_name_H-M   'P 1'
_cell_length_a   7.97195339
_cell_length_b   7.97195335
_cell_length_c   9.50294800
_cell_angle_alpha   55.60116473
_cell_angle_beta   55.60116519
_cell_angle_gamma   29.14583276
_symmetry_Int_Tables_number   1
_chemical_formula_structural   Er2ThP4Pd7
_chemical_formula_sum   'Er2 Th1 P4 Pd7'
_cell_volume   238.82263163
_cell_formula_units_Z   1
loop_
 _symmetry_equiv_pos_site_id
 _symmetry_equiv_pos_as_xyz
  1  'x, y, z'
loop_
 _atom_site_type_symbol
 _atom_site_label
 _atom_site_symmetry_multiplicity
 _atom_site_fract_x
 _atom_site_fract_y
 _atom_site_fract_z
 _atom_site_occupancy
  Er  Er0  1  0.820913  0.820913  0.175534  1
  Er  Er1  1  0.179087  0.179087  0.824466  1
  Th  Th2  1  0.500000  0.500000  0.500000  1
  P  P3  1  0.392784  0.392784  0.318098  1
  P  P4  1  0.607216  0.607216  0.681902  1
  P  P5  1  0.838861  0.838861  0.754231  1
  P  P6  1  0.161139  0.161139  0.245769  1
  Pd  Pd7  1  0.668207  0.668207  0.075363  1
  Pd  Pd8  1  0.009591  0.009591  0.212997  1
  Pd  Pd9  1  0.990409  0.990409  0.787003  1
  Pd  Pd10  1  0.500000  0.500000  0.000000  1
  Pd  Pd11  1  0.194653  0.194653  0.470993  1
  Pd  Pd12  1  0.805347  0.805347  0.529007  1
  Pd  Pd13  1  0.331793  0.331793  0.924637  1
