# generated using pymatgen
data_Hf3Sn3IrRh2
_symmetry_space_group_name_H-M   'P 1'
_cell_length_a   7.40089200
_cell_length_b   7.40089158
_cell_length_c   7.23086900
_cell_angle_alpha   90.00000000
_cell_angle_beta   90.00000000
_cell_angle_gamma   120.00000187
_symmetry_Int_Tables_number   1
_chemical_formula_structural   Hf3Sn3IrRh2
_chemical_formula_sum   'Hf6 Sn6 Ir2 Rh4'
_cell_volume   342.99613471
_cell_formula_units_Z   2
loop_
 _symmetry_equiv_pos_site_id
 _symmetry_equiv_pos_as_xyz
  1  'x, y, z'
loop_
 _atom_site_type_symbol
 _atom_site_label
 _atom_site_symmetry_multiplicity
 _atom_site_fract_x
 _atom_site_fract_y
 _atom_site_fract_z
 _atom_site_occupancy
  Hf  Hf0  1  0.019525  0.407197  0.748549  1
  Hf  Hf1  1  0.592803  0.612328  0.748549  1
  Hf  Hf2  1  0.387672  0.980475  0.748549  1
  Hf  Hf3  1  0.980475  0.387672  0.251451  1
  Hf  Hf4  1  0.612328  0.592803  0.251451  1
  Hf  Hf5  1  0.407197  0.019525  0.251451  1
  Sn  Sn6  1  0.268956  0.268956  0.500000  1
  Sn  Sn7  1  0.000000  0.731044  0.500000  1
  Sn  Sn8  1  0.000000  0.728649  0.000000  1
  Sn  Sn9  1  0.731044  0.000000  0.500000  1
  Sn  Sn10  1  0.728649  0.000000  0.000000  1
  Sn  Sn11  1  0.271351  0.271351  0.000000  1
  Ir  Ir12  1  0.333333  0.666667  0.465273  1
  Ir  Ir13  1  0.666667  0.333333  0.534727  1
  Rh  Rh14  1  0.333333  0.666667  0.041439  1
  Rh  Rh15  1  0.000000  0.000000  0.750159  1
  Rh  Rh16  1  0.000000  0.000000  0.249841  1
  Rh  Rh17  1  0.666667  0.333333  0.958561  1
