# generated using pymatgen
data_Er8GaSiI12
_symmetry_space_group_name_H-M   'P 1'
_cell_length_a   4.21810000
_cell_length_b   13.91864797
_cell_length_c   14.68359603
_cell_angle_alpha   90.04289109
_cell_angle_beta   90.00000000
_cell_angle_gamma   90.00000000
_symmetry_Int_Tables_number   1
_chemical_formula_structural   Er8GaSiI12
_chemical_formula_sum   'Er8 Ga1 Si1 I12'
_cell_volume   862.07733785
_cell_formula_units_Z   1
loop_
 _symmetry_equiv_pos_site_id
 _symmetry_equiv_pos_as_xyz
  1  'x, y, z'
loop_
 _atom_site_type_symbol
 _atom_site_label
 _atom_site_symmetry_multiplicity
 _atom_site_fract_x
 _atom_site_fract_y
 _atom_site_fract_z
 _atom_site_occupancy
  Er  Er0  1  0.500000  0.114921  0.346824  1
  Er  Er1  1  0.500000  0.885079  0.653176  1
  Er  Er2  1  0.500000  0.614123  0.152446  1
  Er  Er3  1  0.500000  0.385877  0.847554  1
  Er  Er4  1  0.000000  0.110740  0.574860  1
  Er  Er5  1  0.000000  0.889260  0.425140  1
  Er  Er6  1  0.000000  0.609644  0.926073  1
  Er  Er7  1  0.000000  0.390356  0.073927  1
  Ga  Ga8  1  0.500000  0.000000  0.500000  1
  Si  Si9  1  0.500000  0.500000  0.000000  1
  I  I10  1  0.500000  0.249549  0.163253  1
  I  I11  1  0.500000  0.750451  0.836747  1
  I  I12  1  0.500000  0.747593  0.334673  1
  I  I13  1  0.500000  0.252407  0.665327  1
  I  I14  1  0.000000  0.259692  0.415050  1
  I  I15  1  0.000000  0.740308  0.584950  1
  I  I16  1  0.000000  0.757490  0.084889  1
  I  I17  1  0.000000  0.242510  0.915111  1
  I  I18  1  0.000000  0.000329  0.238747  1
  I  I19  1  0.000000  0.999671  0.761253  1
  I  I20  1  0.000000  0.500145  0.258683  1
  I  I21  1  0.000000  0.499855  0.741317  1
