# generated using pymatgen
data_NdHo(PdO2)4
_symmetry_space_group_name_H-M   'P 1'
_cell_length_a   6.56400652
_cell_length_b   6.56400640
_cell_length_c   6.56400738
_cell_angle_alpha   126.89108885
_cell_angle_beta   126.89107991
_cell_angle_gamma   78.42845015
_symmetry_Int_Tables_number   1
_chemical_formula_structural   NdHo(PdO2)4
_chemical_formula_sum   'Nd1 Ho1 Pd4 O8'
_cell_volume   175.16947186
_cell_formula_units_Z   1
loop_
 _symmetry_equiv_pos_site_id
 _symmetry_equiv_pos_as_xyz
  1  'x, y, z'
loop_
 _atom_site_type_symbol
 _atom_site_label
 _atom_site_symmetry_multiplicity
 _atom_site_fract_x
 _atom_site_fract_y
 _atom_site_fract_z
 _atom_site_occupancy
  Nd  Nd0  1  0.250000  0.750000  0.500000  1
  Ho  Ho1  1  0.500000  0.500000  0.000000  1
  Pd  Pd2  1  0.872823  0.127823  0.751260  1
  Pd  Pd3  1  0.872177  0.623437  0.745000  1
  Pd  Pd4  1  0.878437  0.127177  0.255000  1
  Pd  Pd5  1  0.376563  0.121563  0.248740  1
  O  O6  1  0.496541  0.449431  0.339333  1
  O  O7  1  0.214552  0.356193  0.470007  1
  O  O8  1  0.886186  0.744544  0.529993  1
  O  O9  1  0.110098  0.157209  0.660667  1
  O  O10  1  0.255456  0.785448  0.141641  1
  O  O11  1  0.550569  0.889902  0.047110  1
  O  O12  1  0.643807  0.113814  0.858359  1
  O  O13  1  0.842791  0.503459  0.952890  1
