# generated using pymatgen
data_Nd5Al2OsRu2
_symmetry_space_group_name_H-M   'P 1'
_cell_length_a   8.58055152
_cell_length_b   8.58055133
_cell_length_c   8.58055153
_cell_angle_alpha   109.43641826
_cell_angle_beta   109.89850804
_cell_angle_gamma   109.07978142
_symmetry_Int_Tables_number   1
_chemical_formula_structural   Nd5Al2OsRu2
_chemical_formula_sum   'Nd10 Al4 Os2 Ru4'
_cell_volume   486.29676153
_cell_formula_units_Z   2
loop_
 _symmetry_equiv_pos_site_id
 _symmetry_equiv_pos_as_xyz
  1  'x, y, z'
loop_
 _atom_site_type_symbol
 _atom_site_label
 _atom_site_symmetry_multiplicity
 _atom_site_fract_x
 _atom_site_fract_y
 _atom_site_fract_z
 _atom_site_occupancy
  Nd  Nd0  1  0.250000  0.683920  0.433921  1
  Nd  Nd1  1  0.750000  0.816080  0.066080  1
  Nd  Nd2  1  0.433795  0.250000  0.683794  1
  Nd  Nd3  1  0.681652  0.431653  0.250000  1
  Nd  Nd4  1  0.066206  0.750000  0.816206  1
  Nd  Nd5  1  0.818348  0.068348  0.750000  1
  Nd  Nd6  1  0.212601  0.213605  0.213442  1
  Nd  Nd7  1  0.500163  0.999158  0.286558  1
  Nd  Nd8  1  0.287399  0.500843  0.001005  1
  Nd  Nd9  1  0.999838  0.286395  0.498996  1
  Al  Al10  1  0.499299  0.999643  0.911783  1
  Al  Al11  1  0.587861  0.587516  0.588217  1
  Al  Al12  1  0.912139  0.500358  0.999655  1
  Al  Al13  1  0.000702  0.912484  0.500346  1
  Os  Os14  1  0.250001  0.118654  0.868654  1
  Os  Os15  1  0.750000  0.381345  0.631345  1
  Ru  Ru16  1  0.867000  0.250001  0.117000  1
  Ru  Ru17  1  0.117555  0.867555  0.250001  1
  Ru  Ru18  1  0.632999  0.750000  0.382999  1
  Ru  Ru19  1  0.382444  0.632444  0.750000  1
