# generated using pymatgen
data_Y6Zn20Cu3S
_symmetry_space_group_name_H-M   'P 1'
_cell_length_a   8.90870480
_cell_length_b   8.90867714
_cell_length_c   8.94917400
_cell_angle_alpha   59.84947544
_cell_angle_beta   59.84922176
_cell_angle_gamma   60.30061538
_symmetry_Int_Tables_number   1
_chemical_formula_structural   Y6Zn20Cu3S
_chemical_formula_sum   'Y6 Zn20 Cu3 S1'
_cell_volume   502.19856894
_cell_formula_units_Z   1
loop_
 _symmetry_equiv_pos_site_id
 _symmetry_equiv_pos_as_xyz
  1  'x, y, z'
loop_
 _atom_site_type_symbol
 _atom_site_label
 _atom_site_symmetry_multiplicity
 _atom_site_fract_x
 _atom_site_fract_y
 _atom_site_fract_z
 _atom_site_occupancy
  Y  Y0  1  0.711256  0.288739  0.288718  1
  Y  Y1  1  0.288735  0.711261  0.711297  1
  Y  Y2  1  0.288733  0.711265  0.288711  1
  Y  Y3  1  0.711256  0.288738  0.711301  1
  Y  Y4  1  0.285868  0.285876  0.714128  1
  Y  Y5  1  0.714116  0.714128  0.285875  1
  Zn  Zn6  1  0.118489  0.118502  0.127311  1
  Zn  Zn7  1  0.881491  0.881490  0.872734  1
  Zn  Zn8  1  0.118503  0.118505  0.635708  1
  Zn  Zn9  1  0.127288  0.635727  0.118497  1
  Zn  Zn10  1  0.881499  0.881510  0.364288  1
  Zn  Zn11  1  0.872694  0.364298  0.881513  1
  Zn  Zn12  1  0.635712  0.127294  0.118508  1
  Zn  Zn13  1  0.364285  0.872697  0.881512  1
  Zn  Zn14  1  0.499992  0.999998  0.000012  1
  Zn  Zn15  1  0.000001  0.500009  0.500001  1
  Zn  Zn16  1  0.999993  0.500000  0.000012  1
  Zn  Zn17  1  0.500000  0.000007  0.500004  1
  Zn  Zn18  1  0.330793  0.330797  0.324933  1
  Zn  Zn19  1  0.669216  0.669226  0.675052  1
  Zn  Zn20  1  0.330758  0.330769  0.013483  1
  Zn  Zn21  1  0.324920  0.013494  0.330803  1
  Zn  Zn22  1  0.669180  0.669182  0.986531  1
  Zn  Zn23  1  0.675019  0.986514  0.669236  1
  Zn  Zn24  1  0.013485  0.324935  0.330797  1
  Zn  Zn25  1  0.986509  0.675031  0.669235  1
  Cu  Cu26  1  0.000394  0.999995  0.499510  1
  Cu  Cu27  1  0.499928  0.500195  0.999796  1
  Cu  Cu28  1  0.999896  0.999820  0.000481  1
  S  S29  1  0.499992  0.499998  0.500013  1
