# generated using pymatgen
data_Ba4GeRh3I2
_symmetry_space_group_name_H-M   'P 1'
_cell_length_a   4.49729100
_cell_length_b   4.49729053
_cell_length_c   19.27287100
_cell_angle_alpha   90.00000000
_cell_angle_beta   90.00000000
_cell_angle_gamma   119.99999610
_symmetry_Int_Tables_number   1
_chemical_formula_structural   Ba4GeRh3I2
_chemical_formula_sum   'Ba4 Ge1 Rh3 I2'
_cell_volume   337.58177893
_cell_formula_units_Z   1
loop_
 _symmetry_equiv_pos_site_id
 _symmetry_equiv_pos_as_xyz
  1  'x, y, z'
loop_
 _atom_site_type_symbol
 _atom_site_label
 _atom_site_symmetry_multiplicity
 _atom_site_fract_x
 _atom_site_fract_y
 _atom_site_fract_z
 _atom_site_occupancy
  Ba  Ba0  1  0.000000  0.000000  0.109300  1
  Ba  Ba1  1  0.000000  0.000000  0.890546  1
  Ba  Ba2  1  0.000000  0.000000  0.614027  1
  Ba  Ba3  1  0.000000  0.000000  0.386398  1
  Ge  Ge4  1  0.333333  0.666667  0.500644  1
  Rh  Rh5  1  0.666667  0.333333  0.499342  1
  Rh  Rh6  1  0.666667  0.333333  0.000427  1
  Rh  Rh7  1  0.333333  0.666667  0.999453  1
  I  I8  1  0.333333  0.666667  0.250955  1
  I  I9  1  0.666667  0.333333  0.748907  1
