# generated using pymatgen
data_Lu4B16Ir3Ru
_symmetry_space_group_name_H-M   'P 1'
_cell_length_a   3.53251900
_cell_length_b   5.91888449
_cell_length_c   11.47845786
_cell_angle_alpha   89.91889643
_cell_angle_beta   90.00000000
_cell_angle_gamma   90.00000000
_symmetry_Int_Tables_number   1
_chemical_formula_structural   Lu4B16Ir3Ru
_chemical_formula_sum   'Lu4 B16 Ir3 Ru1'
_cell_volume   239.99792126
_cell_formula_units_Z   1
loop_
 _symmetry_equiv_pos_site_id
 _symmetry_equiv_pos_as_xyz
  1  'x, y, z'
loop_
 _atom_site_type_symbol
 _atom_site_label
 _atom_site_symmetry_multiplicity
 _atom_site_fract_x
 _atom_site_fract_y
 _atom_site_fract_z
 _atom_site_occupancy
  Lu  Lu0  1  0.000000  0.632459  0.353408  1
  Lu  Lu1  1  0.000000  0.369409  0.648554  1
  Lu  Lu2  1  0.000000  0.132174  0.148489  1
  Lu  Lu3  1  0.000000  0.867225  0.848601  1
  B  B4  1  0.500000  0.794226  0.188111  1
  B  B5  1  0.500000  0.206684  0.811768  1
  B  B6  1  0.500000  0.294179  0.312352  1
  B  B7  1  0.500000  0.707678  0.686599  1
  B  B8  1  0.500000  0.864572  0.029497  1
  B  B9  1  0.500000  0.135287  0.970658  1
  B  B10  1  0.500000  0.364209  0.470827  1
  B  B11  1  0.500000  0.634436  0.530565  1
  B  B12  1  0.500000  0.885689  0.453966  1
  B  B13  1  0.500000  0.111899  0.548458  1
  B  B14  1  0.500000  0.386941  0.047660  1
  B  B15  1  0.500000  0.613212  0.951933  1
  B  B16  1  0.500000  0.973070  0.307663  1
  B  B17  1  0.500000  0.023468  0.693160  1
  B  B18  1  0.500000  0.475129  0.193559  1
  B  B19  1  0.500000  0.524492  0.806473  1
  Ir  Ir20  1  0.000000  0.645719  0.097926  1
  Ir  Ir21  1  0.000000  0.354321  0.903341  1
  Ir  Ir22  1  0.000000  0.144923  0.402001  1
  Ru  Ru23  1  0.000000  0.858600  0.594431  1
