# generated using pymatgen
data_Mn3Nb4Fe5
_symmetry_space_group_name_H-M   'P 1'
_cell_length_a   4.76255900
_cell_length_b   4.76255955
_cell_length_c   7.90215100
_cell_angle_alpha   90.00000000
_cell_angle_beta   90.00000000
_cell_angle_gamma   119.99998926
_symmetry_Int_Tables_number   1
_chemical_formula_structural   Mn3Nb4Fe5
_chemical_formula_sum   'Mn3 Nb4 Fe5'
_cell_volume   155.22325650
_cell_formula_units_Z   1
loop_
 _symmetry_equiv_pos_site_id
 _symmetry_equiv_pos_as_xyz
  1  'x, y, z'
loop_
 _atom_site_type_symbol
 _atom_site_label
 _atom_site_symmetry_multiplicity
 _atom_site_fract_x
 _atom_site_fract_y
 _atom_site_fract_z
 _atom_site_occupancy
  Mn  Mn0  1  0.172100  0.827900  0.750000  1
  Mn  Mn1  1  0.172100  0.344199  0.750000  1
  Mn  Mn2  1  0.655801  0.827900  0.750000  1
  Nb  Nb3  1  0.333333  0.666667  0.431755  1
  Nb  Nb4  1  0.666667  0.333333  0.562146  1
  Nb  Nb5  1  0.666667  0.333333  0.937854  1
  Nb  Nb6  1  0.333333  0.666667  0.068245  1
  Fe  Fe7  1  0.000000  0.000000  0.495417  1
  Fe  Fe8  1  0.000000  0.000000  0.004583  1
  Fe  Fe9  1  0.829880  0.170120  0.250000  1
  Fe  Fe10  1  0.829880  0.659760  0.250000  1
  Fe  Fe11  1  0.340240  0.170120  0.250000  1
