# generated using pymatgen
data_CaPr19Ir11Ru
_symmetry_space_group_name_H-M   'P 1'
_cell_length_a   11.32920043
_cell_length_b   11.33424242
_cell_length_c   6.60675000
_cell_angle_alpha   90.00000000
_cell_angle_beta   90.00000000
_cell_angle_gamma   89.94253595
_symmetry_Int_Tables_number   1
_chemical_formula_structural   CaPr19Ir11Ru
_chemical_formula_sum   'Ca1 Pr19 Ir11 Ru1'
_cell_volume   848.35849370
_cell_formula_units_Z   1
loop_
 _symmetry_equiv_pos_site_id
 _symmetry_equiv_pos_as_xyz
  1  'x, y, z'
loop_
 _atom_site_type_symbol
 _atom_site_label
 _atom_site_symmetry_multiplicity
 _atom_site_fract_x
 _atom_site_fract_y
 _atom_site_fract_z
 _atom_site_occupancy
  Ca  Ca0  1  0.000000  0.000000  0.497911  1
  Pr  Pr1  1  0.289052  0.087904  0.383561  1
  Pr  Pr2  1  0.291534  0.911712  0.885943  1
  Pr  Pr3  1  0.708466  0.088288  0.885943  1
  Pr  Pr4  1  0.710948  0.912096  0.383561  1
  Pr  Pr5  1  0.589069  0.792541  0.885930  1
  Pr  Pr6  1  0.588420  0.206933  0.382430  1
  Pr  Pr7  1  0.411580  0.793067  0.382430  1
  Pr  Pr8  1  0.410931  0.207459  0.885930  1
  Pr  Pr9  1  0.208288  0.410058  0.618764  1
  Pr  Pr10  1  0.208857  0.589544  0.117241  1
  Pr  Pr11  1  0.791143  0.410456  0.117241  1
  Pr  Pr12  1  0.791712  0.589942  0.618764  1
  Pr  Pr13  1  0.910495  0.709748  0.116952  1
  Pr  Pr14  1  0.910921  0.288226  0.616815  1
  Pr  Pr15  1  0.089079  0.711774  0.616815  1
  Pr  Pr16  1  0.089505  0.290252  0.116952  1
  Pr  Pr17  1  0.000000  0.000000  0.997849  1
  Pr  Pr18  1  0.500000  0.500000  0.997940  1
  Pr  Pr19  1  0.500000  0.500000  0.498185  1
  Ir  Ir20  1  0.845204  0.156321  0.245918  1
  Ir  Ir21  1  0.844975  0.844460  0.752862  1
  Ir  Ir22  1  0.155025  0.155540  0.752862  1
  Ir  Ir23  1  0.154796  0.843679  0.245918  1
  Ir  Ir24  1  0.653986  0.346831  0.748374  1
  Ir  Ir25  1  0.654362  0.653563  0.250990  1
  Ir  Ir26  1  0.345638  0.346437  0.250990  1
  Ir  Ir27  1  0.346014  0.653169  0.748374  1
  Ir  Ir28  1  0.500000  0.000000  0.616704  1
  Ir  Ir29  1  0.000000  0.500000  0.881640  1
  Ir  Ir30  1  0.000000  0.500000  0.383788  1
  Ru  Ru31  1  0.500000  0.000000  0.114424  1
