# generated using pymatgen
data_Lu12Fe(TcAg)2
_symmetry_space_group_name_H-M   'P 1'
_cell_length_a   8.15554435
_cell_length_b   8.15554510
_cell_length_c   8.15554502
_cell_angle_alpha   108.75269916
_cell_angle_beta   108.75270198
_cell_angle_gamma   110.91801374
_symmetry_Int_Tables_number   1
_chemical_formula_structural   Lu12Fe(TcAg)2
_chemical_formula_sum   'Lu12 Fe1 Tc2 Ag2'
_cell_volume   417.37722565
_cell_formula_units_Z   1
loop_
 _symmetry_equiv_pos_site_id
 _symmetry_equiv_pos_as_xyz
  1  'x, y, z'
loop_
 _atom_site_type_symbol
 _atom_site_label
 _atom_site_symmetry_multiplicity
 _atom_site_fract_x
 _atom_site_fract_y
 _atom_site_fract_z
 _atom_site_occupancy
  Lu  Lu0  1  0.306588  0.306588  0.615200  1
  Lu  Lu1  1  0.691387  0.691387  0.384800  1
  Lu  Lu2  1  0.691387  0.306588  0.000000  1
  Lu  Lu3  1  0.306588  0.691387  0.000000  1
  Lu  Lu4  1  0.188959  0.434180  0.245221  1
  Lu  Lu5  1  0.808115  0.566584  0.758468  1
  Lu  Lu6  1  0.188959  0.943737  0.754779  1
  Lu  Lu7  1  0.943737  0.188959  0.754779  1
  Lu  Lu8  1  0.808115  0.049648  0.241532  1
  Lu  Lu9  1  0.049648  0.808115  0.241532  1
  Lu  Lu10  1  0.434180  0.188959  0.245221  1
  Lu  Lu11  1  0.566584  0.808115  0.758468  1
  Fe  Fe12  1  0.636200  0.636200  0.000000  1
  Tc  Tc13  1  0.382952  0.382952  0.000000  1
  Tc  Tc14  1  0.001149  0.001149  0.000000  1
  Ag  Ag15  1  0.997725  0.497725  0.500000  1
  Ag  Ag16  1  0.497725  0.997725  0.500000  1
