# generated using pymatgen
data_DyLuFeB6
_symmetry_space_group_name_H-M   'P 1'
_cell_length_a   3.51477800
_cell_length_b   9.01953900
_cell_length_c   11.39367100
_cell_angle_alpha   90.00000000
_cell_angle_beta   90.00000000
_cell_angle_gamma   90.00000000
_symmetry_Int_Tables_number   1
_chemical_formula_structural   DyLuFeB6
_chemical_formula_sum   'Dy4 Lu4 Fe4 B24'
_cell_volume   361.19848070
_cell_formula_units_Z   4
loop_
 _symmetry_equiv_pos_site_id
 _symmetry_equiv_pos_as_xyz
  1  'x, y, z'
loop_
 _atom_site_type_symbol
 _atom_site_label
 _atom_site_symmetry_multiplicity
 _atom_site_fract_x
 _atom_site_fract_y
 _atom_site_fract_z
 _atom_site_occupancy
  Dy  Dy0  1  0.000000  0.823405  0.085628  1
  Dy  Dy1  1  0.000000  0.176595  0.914372  1
  Dy  Dy2  1  0.000000  0.323405  0.414372  1
  Dy  Dy3  1  0.000000  0.676595  0.585628  1
  Lu  Lu4  1  0.000000  0.443472  0.129219  1
  Lu  Lu5  1  0.000000  0.556528  0.870781  1
  Lu  Lu6  1  0.000000  0.943472  0.370781  1
  Lu  Lu7  1  0.000000  0.056528  0.629219  1
  Fe  Fe8  1  0.000000  0.139374  0.180342  1
  Fe  Fe9  1  0.000000  0.860626  0.819658  1
  Fe  Fe10  1  0.000000  0.639374  0.319658  1
  Fe  Fe11  1  0.000000  0.360626  0.680342  1
  B  B12  1  0.500000  0.054939  0.068544  1
  B  B13  1  0.500000  0.945061  0.931456  1
  B  B14  1  0.500000  0.554939  0.431456  1
  B  B15  1  0.500000  0.445061  0.568544  1
  B  B16  1  0.500000  0.248150  0.081973  1
  B  B17  1  0.500000  0.751850  0.918027  1
  B  B18  1  0.500000  0.748150  0.418027  1
  B  B19  1  0.500000  0.251850  0.581973  1
  B  B20  1  0.500000  0.290169  0.233593  1
  B  B21  1  0.500000  0.709831  0.766407  1
  B  B22  1  0.500000  0.790169  0.266407  1
  B  B23  1  0.500000  0.209831  0.733593  1
  B  B24  1  0.500000  0.131265  0.314543  1
  B  B25  1  0.500000  0.868735  0.685457  1
  B  B26  1  0.500000  0.631265  0.185457  1
  B  B27  1  0.500000  0.368735  0.814543  1
  B  B28  1  0.500000  0.485636  0.287565  1
  B  B29  1  0.500000  0.514364  0.712435  1
  B  B30  1  0.500000  0.985636  0.212435  1
  B  B31  1  0.500000  0.014364  0.787565  1
  B  B32  1  0.500000  0.105620  0.471109  1
  B  B33  1  0.500000  0.894380  0.528891  1
  B  B34  1  0.500000  0.605620  0.028891  1
  B  B35  1  0.500000  0.394380  0.971109  1
