# generated using pymatgen
data_Tb2Y2Al17GaIr6
_symmetry_space_group_name_H-M   'P 1'
_cell_length_a   7.55349900
_cell_length_b   7.55349576
_cell_length_c   9.51322200
_cell_angle_alpha   90.00000000
_cell_angle_beta   90.00000000
_cell_angle_gamma   119.41058516
_symmetry_Int_Tables_number   1
_chemical_formula_structural   Tb2Y2Al17GaIr6
_chemical_formula_sum   'Tb2 Y2 Al17 Ga1 Ir6'
_cell_volume   472.82815557
_cell_formula_units_Z   1
loop_
 _symmetry_equiv_pos_site_id
 _symmetry_equiv_pos_as_xyz
  1  'x, y, z'
loop_
 _atom_site_type_symbol
 _atom_site_label
 _atom_site_symmetry_multiplicity
 _atom_site_fract_x
 _atom_site_fract_y
 _atom_site_fract_z
 _atom_site_occupancy
  Tb  Tb0  1  0.993668  0.674329  0.250000  1
  Tb  Tb1  1  0.674329  0.993667  0.250000  1
  Y  Y2  1  0.005238  0.328237  0.750000  1
  Y  Y3  1  0.328237  0.005237  0.750000  1
  Al  Al4  1  0.869722  0.869722  0.750000  1
  Al  Al5  1  0.001296  0.335596  0.072888  1
  Al  Al6  1  0.998553  0.664337  0.926290  1
  Al  Al7  1  0.998553  0.664337  0.573710  1
  Al  Al8  1  0.335595  0.001295  0.427112  1
  Al  Al9  1  0.001296  0.335596  0.427112  1
  Al  Al10  1  0.664338  0.998553  0.573710  1
  Al  Al11  1  0.664338  0.998553  0.926290  1
  Al  Al12  1  0.335595  0.001295  0.072888  1
  Al  Al13  1  0.333372  0.333372  0.553069  1
  Al  Al14  1  0.665729  0.665729  0.449675  1
  Al  Al15  1  0.665729  0.665729  0.050325  1
  Al  Al16  1  0.333372  0.333372  0.946931  1
  Al  Al17  1  0.338444  0.549116  0.250000  1
  Al  Al18  1  0.660803  0.451542  0.750000  1
  Al  Al19  1  0.549116  0.338444  0.250000  1
  Al  Al20  1  0.451542  0.660803  0.750000  1
  Ga  Ga21  1  0.134735  0.134735  0.250000  1
  Ir  Ir22  1  0.671094  0.327698  0.000094  1
  Ir  Ir23  1  0.327698  0.671094  0.000095  1
  Ir  Ir24  1  0.327698  0.671094  0.499905  1
  Ir  Ir25  1  0.671094  0.327698  0.499906  1
  Ir  Ir26  1  0.999411  0.999411  0.997772  1
  Ir  Ir27  1  0.999411  0.999411  0.502228  1
