# generated using pymatgen
data_Y6Ti2MnCrC12
_symmetry_space_group_name_H-M   'P 1'
_cell_length_a   8.25967800
_cell_length_b   8.25967739
_cell_length_c   5.03708300
_cell_angle_alpha   90.00000000
_cell_angle_beta   90.00000000
_cell_angle_gamma   119.99998536
_symmetry_Int_Tables_number   1
_chemical_formula_structural   Y6Ti2MnCrC12
_chemical_formula_sum   'Y6 Ti2 Mn1 Cr1 C12'
_cell_volume   297.60210890
_cell_formula_units_Z   1
loop_
 _symmetry_equiv_pos_site_id
 _symmetry_equiv_pos_as_xyz
  1  'x, y, z'
loop_
 _atom_site_type_symbol
 _atom_site_label
 _atom_site_symmetry_multiplicity
 _atom_site_fract_x
 _atom_site_fract_y
 _atom_site_fract_z
 _atom_site_occupancy
  Y  Y0  1  0.619974  0.680519  0.750000  1
  Y  Y1  1  0.934852  0.615663  0.250000  1
  Y  Y2  1  0.680812  0.065148  0.250000  1
  Y  Y3  1  0.319481  0.939457  0.750000  1
  Y  Y4  1  0.060543  0.380026  0.750000  1
  Y  Y5  1  0.384337  0.319188  0.250000  1
  Ti  Ti6  1  0.000000  0.000000  0.502198  1
  Ti  Ti7  1  0.000000  0.000000  0.997802  1
  Mn  Mn8  1  0.333333  0.666667  0.250000  1
  Cr  Cr9  1  0.666667  0.333333  0.750000  1
  C  C10  1  0.963681  0.764821  0.750000  1
  C  C11  1  0.202376  0.962538  0.250000  1
  C  C12  1  0.760162  0.797624  0.250000  1
  C  C13  1  0.235179  0.198860  0.750000  1
  C  C14  1  0.801140  0.036319  0.750000  1
  C  C15  1  0.037462  0.239838  0.250000  1
  C  C16  1  0.864301  0.572938  0.750000  1
  C  C17  1  0.289666  0.859735  0.250000  1
  C  C18  1  0.570068  0.710334  0.250000  1
  C  C19  1  0.427062  0.291361  0.750000  1
  C  C20  1  0.140265  0.429932  0.250000  1
  C  C21  1  0.708639  0.135699  0.750000  1
