# generated using pymatgen
data_Pr3Nd7OsRu3
_symmetry_space_group_name_H-M   'P 1'
_cell_length_a   8.85134517
_cell_length_b   8.86110108
_cell_length_c   7.43573776
_cell_angle_alpha   83.70996004
_cell_angle_beta   83.79420878
_cell_angle_gamma   43.98413206
_symmetry_Int_Tables_number   1
_chemical_formula_structural   Pr3Nd7OsRu3
_chemical_formula_sum   'Pr3 Nd7 Os1 Ru3'
_cell_volume   402.21167332
_cell_formula_units_Z   1
loop_
 _symmetry_equiv_pos_site_id
 _symmetry_equiv_pos_as_xyz
  1  'x, y, z'
loop_
 _atom_site_type_symbol
 _atom_site_label
 _atom_site_symmetry_multiplicity
 _atom_site_fract_x
 _atom_site_fract_y
 _atom_site_fract_z
 _atom_site_occupancy
  Pr  Pr0  1  0.018904  0.795724  0.915427  1
  Pr  Pr1  1  0.204075  0.979275  0.586179  1
  Pr  Pr2  1  0.980355  0.204460  0.085969  1
  Nd  Nd3  1  0.795090  0.019509  0.414391  1
  Nd  Nd4  1  0.359186  0.208721  0.814032  1
  Nd  Nd5  1  0.794592  0.640158  0.683966  1
  Nd  Nd6  1  0.639382  0.793106  0.185218  1
  Nd  Nd7  1  0.207738  0.358810  0.314768  1
  Nd  Nd8  1  0.574679  0.424964  0.749464  1
  Nd  Nd9  1  0.424276  0.575184  0.251228  1
  Os  Os10  1  0.177191  0.601607  0.574631  1
  Ru  Ru11  1  0.398173  0.824488  0.925254  1
  Ru  Ru12  1  0.825197  0.397493  0.424146  1
  Ru  Ru13  1  0.601160  0.176502  0.075325  1
