# generated using pymatgen
data_Al3Ga4RhSe12
_symmetry_space_group_name_H-M   'P 1'
_cell_length_a   10.42721593
_cell_length_b   3.79943400
_cell_length_c   12.73975629
_cell_angle_alpha   90.00000000
_cell_angle_beta   90.55403418
_cell_angle_gamma   90.00000000
_symmetry_Int_Tables_number   1
_chemical_formula_structural   Al3Ga4RhSe12
_chemical_formula_sum   'Al3 Ga4 Rh1 Se12'
_cell_volume   504.69393732
_cell_formula_units_Z   1
loop_
 _symmetry_equiv_pos_site_id
 _symmetry_equiv_pos_as_xyz
  1  'x, y, z'
loop_
 _atom_site_type_symbol
 _atom_site_label
 _atom_site_symmetry_multiplicity
 _atom_site_fract_x
 _atom_site_fract_y
 _atom_site_fract_z
 _atom_site_occupancy
  Al  Al0  1  0.894648  0.249999  0.110643  1
  Al  Al1  1  0.397514  0.249999  0.387704  1
  Al  Al2  1  0.607060  0.749999  0.609578  1
  Ga  Ga3  1  0.259582  0.749999  0.206958  1
  Ga  Ga4  1  0.760489  0.749999  0.289195  1
  Ga  Ga5  1  0.241279  0.249999  0.708210  1
  Ga  Ga6  1  0.745421  0.249999  0.790578  1
  Rh  Rh7  1  0.092634  0.749999  0.895062  1
  Se  Se8  1  0.067968  0.749999  0.093612  1
  Se  Se9  1  0.730195  0.749999  0.099621  1
  Se  Se10  1  0.403944  0.249999  0.183549  1
  Se  Se11  1  0.905947  0.249999  0.314089  1
  Se  Se12  1  0.234053  0.749999  0.396598  1
  Se  Se13  1  0.572669  0.749999  0.402311  1
  Se  Se14  1  0.431591  0.249999  0.594170  1
  Se  Se15  1  0.771018  0.249999  0.601108  1
  Se  Se16  1  0.094318  0.749999  0.695988  1
  Se  Se17  1  0.600161  0.749999  0.814607  1
  Se  Se18  1  0.255025  0.249999  0.898906  1
  Se  Se19  1  0.934484  0.249999  0.907514  1
