# generated using pymatgen
data_La4InTc
_symmetry_space_group_name_H-M   'P 1'
_cell_length_a   10.11020302
_cell_length_b   10.10945566
_cell_length_c   10.11518701
_cell_angle_alpha   59.65178676
_cell_angle_beta   59.67374780
_cell_angle_gamma   59.68498701
_symmetry_Int_Tables_number   1
_chemical_formula_structural   La4InTc
_chemical_formula_sum   'La16 In4 Tc4'
_cell_volume   725.57100656
_cell_formula_units_Z   4
loop_
 _symmetry_equiv_pos_site_id
 _symmetry_equiv_pos_as_xyz
  1  'x, y, z'
loop_
 _atom_site_type_symbol
 _atom_site_label
 _atom_site_symmetry_multiplicity
 _atom_site_fract_x
 _atom_site_fract_y
 _atom_site_fract_z
 _atom_site_occupancy
  La  La0  1  0.943206  0.943055  0.556101  1
  La  La1  1  0.554427  0.946864  0.554466  1
  La  La2  1  0.556338  0.942756  0.942879  1
  La  La3  1  0.689458  0.689371  0.310807  1
  La  La4  1  0.154170  0.154234  0.538912  1
  La  La5  1  0.310971  0.689333  0.689438  1
  La  La6  1  0.154323  0.154034  0.153962  1
  La  La7  1  0.538680  0.154332  0.154278  1
  La  La8  1  0.308335  0.691136  0.308667  1
  La  La9  1  0.308576  0.308370  0.691267  1
  La  La10  1  0.689371  0.310748  0.689298  1
  La  La11  1  0.946528  0.554645  0.554720  1
  La  La12  1  0.554627  0.554446  0.946792  1
  La  La13  1  0.154170  0.538982  0.154145  1
  La  La14  1  0.691829  0.308415  0.308273  1
  La  La15  1  0.943152  0.556092  0.943204  1
  In  In16  1  0.238038  0.921106  0.921037  1
  In  In17  1  0.919929  0.920269  0.920083  1
  In  In18  1  0.921105  0.921225  0.237780  1
  In  In19  1  0.921054  0.237786  0.921244  1
  Tc  Tc20  1  0.900093  0.368055  0.368160  1
  Tc  Tc21  1  0.367953  0.368152  0.900140  1
  Tc  Tc22  1  0.367790  0.900193  0.368120  1
  Tc  Tc23  1  0.365878  0.366402  0.366223  1
