# generated using pymatgen
data_LaPr3Zr4F28
_symmetry_space_group_name_H-M   'P 1'
_cell_length_a   5.93679785
_cell_length_b   9.43372004
_cell_length_c   12.65028646
_cell_angle_alpha   62.00626077
_cell_angle_beta   89.99093907
_cell_angle_gamma   89.98887317
_symmetry_Int_Tables_number   1
_chemical_formula_structural   LaPr3Zr4F28
_chemical_formula_sum   'La1 Pr3 Zr4 F28'
_cell_volume   625.59857719
_cell_formula_units_Z   1
loop_
 _symmetry_equiv_pos_site_id
 _symmetry_equiv_pos_as_xyz
  1  'x, y, z'
loop_
 _atom_site_type_symbol
 _atom_site_label
 _atom_site_symmetry_multiplicity
 _atom_site_fract_x
 _atom_site_fract_y
 _atom_site_fract_z
 _atom_site_occupancy
  La  La0  1  0.757092  0.813044  0.766794  1
  Pr  Pr1  1  0.743241  0.812171  0.266674  1
  Pr  Pr2  1  0.243017  0.187514  0.233249  1
  Pr  Pr3  1  0.256167  0.189234  0.733140  1
  Zr  Zr4  1  0.745117  0.273878  0.455258  1
  Zr  Zr5  1  0.245440  0.726058  0.044734  1
  Zr  Zr6  1  0.255717  0.726329  0.544305  1
  Zr  Zr7  1  0.754998  0.273622  0.955605  1
  F  F8  1  0.458854  0.710792  0.924882  1
  F  F9  1  0.960615  0.287408  0.575941  1
  F  F10  1  0.539003  0.288478  0.075473  1
  F  F11  1  0.037766  0.712711  0.424673  1
  F  F12  1  0.463672  0.282568  0.546709  1
  F  F13  1  0.965090  0.715643  0.954496  1
  F  F14  1  0.537762  0.717058  0.453555  1
  F  F15  1  0.036984  0.283735  0.046072  1
  F  F16  1  0.765218  0.517128  0.860785  1
  F  F17  1  0.265666  0.481706  0.640204  1
  F  F18  1  0.233844  0.481265  0.138774  1
  F  F19  1  0.734381  0.518497  0.361051  1
  F  F20  1  0.760598  0.030068  0.056565  1
  F  F21  1  0.260566  0.970039  0.444274  1
  F  F22  1  0.239700  0.969806  0.943537  1
  F  F23  1  0.739784  0.030883  0.554575  1
  F  F24  1  0.993256  0.732360  0.645743  1
  F  F25  1  0.491157  0.266871  0.854289  1
  F  F26  1  0.010852  0.266435  0.355216  1
  F  F27  1  0.511020  0.733199  0.144919  1
  F  F28  1  0.037622  0.744896  0.167740  1
  F  F29  1  0.539673  0.254637  0.331699  1
  F  F30  1  0.960306  0.256008  0.831220  1
  F  F31  1  0.458883  0.744378  0.668361  1
  F  F32  1  0.423050  0.970263  0.233909  1
  F  F33  1  0.923213  0.029237  0.265972  1
  F  F34  1  0.573340  0.029734  0.765658  1
  F  F35  1  0.077334  0.972346  0.733946  1
