# generated using pymatgen
data_Na6Np2SnBr18
_symmetry_space_group_name_H-M   'P 1'
_cell_length_a   12.56397500
_cell_length_b   12.56397516
_cell_length_c   6.67110000
_cell_angle_alpha   90.00000000
_cell_angle_beta   90.00000000
_cell_angle_gamma   119.99999694
_symmetry_Int_Tables_number   1
_chemical_formula_structural   Na6Np2SnBr18
_chemical_formula_sum   'Na6 Np2 Sn1 Br18'
_cell_volume   911.97352063
_cell_formula_units_Z   1
loop_
 _symmetry_equiv_pos_site_id
 _symmetry_equiv_pos_as_xyz
  1  'x, y, z'
loop_
 _atom_site_type_symbol
 _atom_site_label
 _atom_site_symmetry_multiplicity
 _atom_site_fract_x
 _atom_site_fract_y
 _atom_site_fract_z
 _atom_site_occupancy
  Na  Na0  1  0.000000  0.336071  0.000000  1
  Na  Na1  1  0.663929  0.663929  0.000000  1
  Na  Na2  1  0.336071  0.000000  0.000000  1
  Na  Na3  1  0.000000  0.663929  0.000000  1
  Na  Na4  1  0.336071  0.336071  0.000000  1
  Na  Na5  1  0.663929  0.000000  0.000000  1
  Np  Np6  1  0.333333  0.666667  0.494211  1
  Np  Np7  1  0.666667  0.333333  0.505789  1
  Sn  Sn8  1  0.000000  0.000000  0.000000  1
  Br  Br9  1  0.437836  0.562164  0.252805  1
  Br  Br10  1  0.771901  0.228099  0.271319  1
  Br  Br11  1  0.228099  0.771901  0.728681  1
  Br  Br12  1  0.771901  0.543800  0.271319  1
  Br  Br13  1  0.200691  0.100346  0.770928  1
  Br  Br14  1  0.456200  0.228099  0.271319  1
  Br  Br15  1  0.543800  0.771901  0.728681  1
  Br  Br16  1  0.899654  0.799309  0.770928  1
  Br  Br17  1  0.562164  0.437836  0.747195  1
  Br  Br18  1  0.562164  0.124329  0.747195  1
  Br  Br19  1  0.875671  0.437836  0.747195  1
  Br  Br20  1  0.124329  0.562164  0.252805  1
  Br  Br21  1  0.437836  0.875671  0.252805  1
  Br  Br22  1  0.228099  0.456200  0.728681  1
  Br  Br23  1  0.100346  0.200691  0.229072  1
  Br  Br24  1  0.100346  0.899654  0.229072  1
  Br  Br25  1  0.799309  0.899654  0.229072  1
  Br  Br26  1  0.899654  0.100346  0.770928  1
