# generated using pymatgen
data_Sm3Dy(B4Ru)4
_symmetry_space_group_name_H-M   'P 1'
_cell_length_a   3.59512600
_cell_length_b   6.00954075
_cell_length_c   11.62264309
_cell_angle_alpha   89.93658192
_cell_angle_beta   90.00000000
_cell_angle_gamma   90.00000000
_symmetry_Int_Tables_number   1
_chemical_formula_structural   Sm3Dy(B4Ru)4
_chemical_formula_sum   'Sm3 Dy1 B16 Ru4'
_cell_volume   251.10770320
_cell_formula_units_Z   1
loop_
 _symmetry_equiv_pos_site_id
 _symmetry_equiv_pos_as_xyz
  1  'x, y, z'
loop_
 _atom_site_type_symbol
 _atom_site_label
 _atom_site_symmetry_multiplicity
 _atom_site_fract_x
 _atom_site_fract_y
 _atom_site_fract_z
 _atom_site_occupancy
  Sm  Sm0  1  0.000000  0.627838  0.349707  1
  Sm  Sm1  1  0.000000  0.372070  0.650788  1
  Sm  Sm2  1  0.000000  0.128083  0.149762  1
  Dy  Dy3  1  0.000000  0.872215  0.849937  1
  B  B4  1  0.500000  0.786074  0.183928  1
  B  B5  1  0.500000  0.211134  0.815516  1
  B  B6  1  0.500000  0.285916  0.315423  1
  B  B7  1  0.500000  0.713951  0.686185  1
  B  B8  1  0.500000  0.863100  0.029105  1
  B  B9  1  0.500000  0.137113  0.968132  1
  B  B10  1  0.500000  0.361780  0.469864  1
  B  B11  1  0.500000  0.638054  0.531686  1
  B  B12  1  0.500000  0.888701  0.454705  1
  B  B13  1  0.500000  0.110486  0.547010  1
  B  B14  1  0.500000  0.389486  0.044812  1
  B  B15  1  0.500000  0.613122  0.952665  1
  B  B16  1  0.500000  0.975615  0.309677  1
  B  B17  1  0.500000  0.023094  0.692319  1
  B  B18  1  0.500000  0.475905  0.189635  1
  B  B19  1  0.500000  0.525783  0.809310  1
  Ru  Ru20  1  0.000000  0.639507  0.090226  1
  Ru  Ru21  1  0.000000  0.361250  0.907648  1
  Ru  Ru22  1  0.000000  0.138022  0.408806  1
  Ru  Ru23  1  0.000000  0.861701  0.593154  1
