# generated using pymatgen
data_TbDy2CdSn3Ir2
_symmetry_space_group_name_H-M   'P 1'
_cell_length_a   7.64439526
_cell_length_b   7.62317627
_cell_length_c   4.04481300
_cell_angle_alpha   90.00000000
_cell_angle_beta   90.00000000
_cell_angle_gamma   120.02617661
_symmetry_Int_Tables_number   1
_chemical_formula_structural   TbDy2CdSn3Ir2
_chemical_formula_sum   'Tb1 Dy2 Cd1 Sn3 Ir2'
_cell_volume   204.07676485
_cell_formula_units_Z   1
loop_
 _symmetry_equiv_pos_site_id
 _symmetry_equiv_pos_as_xyz
  1  'x, y, z'
loop_
 _atom_site_type_symbol
 _atom_site_label
 _atom_site_symmetry_multiplicity
 _atom_site_fract_x
 _atom_site_fract_y
 _atom_site_fract_z
 _atom_site_occupancy
  Tb  Tb0  1  0.411413  0.386756  0.000000  1
  Dy  Dy1  1  0.614968  0.026245  0.000000  1
  Dy  Dy2  1  0.974045  0.588243  0.000000  1
  Cd  Cd3  1  0.333388  0.667275  0.500000  1
  Sn  Sn4  1  0.252707  0.003009  0.500000  1
  Sn  Sn5  1  0.996528  0.249653  0.500000  1
  Sn  Sn6  1  0.749972  0.747099  0.500000  1
  Ir  Ir7  1  0.667459  0.332443  0.500000  1
  Ir  Ir8  1  0.999520  0.999275  0.000000  1
