# generated using pymatgen
data_Tb3Y(Er3Pt4)2
_symmetry_space_group_name_H-M   'P 1'
_cell_length_a   7.46655500
_cell_length_b   7.54174201
_cell_length_c   14.68964603
_cell_angle_alpha   90.00673920
_cell_angle_beta   90.00000000
_cell_angle_gamma   90.00000000
_symmetry_Int_Tables_number   1
_chemical_formula_structural   Tb3Y(Er3Pt4)2
_chemical_formula_sum   'Tb6 Y2 Er12 Pt16'
_cell_volume   827.18617694
_cell_formula_units_Z   2
loop_
 _symmetry_equiv_pos_site_id
 _symmetry_equiv_pos_as_xyz
  1  'x, y, z'
loop_
 _atom_site_type_symbol
 _atom_site_label
 _atom_site_symmetry_multiplicity
 _atom_site_fract_x
 _atom_site_fract_y
 _atom_site_fract_z
 _atom_site_occupancy
  Tb  Tb0  1  0.998213  0.820198  0.406872  1
  Tb  Tb1  1  0.498213  0.679802  0.093128  1
  Tb  Tb2  1  0.501891  0.320359  0.593019  1
  Tb  Tb3  1  0.001891  0.179641  0.906981  1
  Tb  Tb4  1  0.001796  0.179719  0.593097  1
  Tb  Tb5  1  0.501796  0.320281  0.906903  1
  Y  Y6  1  0.498230  0.679687  0.406919  1
  Y  Y7  1  0.998230  0.820313  0.093081  1
  Er  Er8  1  0.680961  0.989045  0.249970  1
  Er  Er9  1  0.180961  0.510955  0.250030  1
  Er  Er10  1  0.819101  0.489210  0.749957  1
  Er  Er11  1  0.319101  0.010790  0.750043  1
  Er  Er12  1  0.656082  0.832228  0.622442  1
  Er  Er13  1  0.156082  0.667772  0.877558  1
  Er  Er14  1  0.843657  0.332473  0.377510  1
  Er  Er15  1  0.343657  0.167527  0.122490  1
  Er  Er16  1  0.343865  0.167639  0.377478  1
  Er  Er17  1  0.843865  0.332361  0.122522  1
  Er  Er18  1  0.156369  0.667654  0.622477  1
  Er  Er19  1  0.656369  0.832346  0.877523  1
  Pt  Pt20  1  0.816205  0.641802  0.250122  1
  Pt  Pt21  1  0.316205  0.858198  0.249878  1
  Pt  Pt22  1  0.683604  0.141913  0.749993  1
  Pt  Pt23  1  0.183604  0.358087  0.750007  1
  Pt  Pt24  1  0.546424  0.385293  0.249970  1
  Pt  Pt25  1  0.046424  0.114707  0.250030  1
  Pt  Pt26  1  0.953645  0.885250  0.750002  1
  Pt  Pt27  1  0.453645  0.614750  0.749998  1
  Pt  Pt28  1  0.817510  0.533376  0.542080  1
  Pt  Pt29  1  0.317510  0.966624  0.957920  1
  Pt  Pt30  1  0.682661  0.033377  0.457905  1
  Pt  Pt31  1  0.182661  0.466623  0.042095  1
  Pt  Pt32  1  0.182380  0.466583  0.457967  1
  Pt  Pt33  1  0.682380  0.033417  0.042033  1
  Pt  Pt34  1  0.317406  0.966785  0.542200  1
  Pt  Pt35  1  0.817406  0.533215  0.957800  1
