# generated using pymatgen
data_Dy6YPa(ReB6)4
_symmetry_space_group_name_H-M   'P 1'
_cell_length_a   3.69783300
_cell_length_b   9.18314627
_cell_length_c   11.55477102
_cell_angle_alpha   90.17016469
_cell_angle_beta   90.00000000
_cell_angle_gamma   90.00000000
_symmetry_Int_Tables_number   1
_chemical_formula_structural   Dy6YPa(ReB6)4
_chemical_formula_sum   'Dy6 Y1 Pa1 Re4 B24'
_cell_volume   392.37219500
_cell_formula_units_Z   1
loop_
 _symmetry_equiv_pos_site_id
 _symmetry_equiv_pos_as_xyz
  1  'x, y, z'
loop_
 _atom_site_type_symbol
 _atom_site_label
 _atom_site_symmetry_multiplicity
 _atom_site_fract_x
 _atom_site_fract_y
 _atom_site_fract_z
 _atom_site_occupancy
  Dy  Dy0  1  0.000000  0.823705  0.085524  1
  Dy  Dy1  1  0.000000  0.175562  0.913470  1
  Dy  Dy2  1  0.000000  0.942611  0.371718  1
  Dy  Dy3  1  0.000000  0.055327  0.629106  1
  Dy  Dy4  1  0.000000  0.443380  0.127720  1
  Dy  Dy5  1  0.000000  0.557165  0.870117  1
  Y  Y6  1  0.000000  0.678995  0.586880  1
  Pa  Pa7  1  0.000000  0.323526  0.414045  1
  Re  Re8  1  0.000000  0.635294  0.322104  1
  Re  Re9  1  0.000000  0.362166  0.675914  1
  Re  Re10  1  0.000000  0.140873  0.181737  1
  Re  Re11  1  0.000000  0.861959  0.821329  1
  B  B12  1  0.500000  0.552427  0.431955  1
  B  B13  1  0.500000  0.445565  0.566909  1
  B  B14  1  0.500000  0.053883  0.067720  1
  B  B15  1  0.500000  0.947073  0.933517  1
  B  B16  1  0.500000  0.748107  0.418495  1
  B  B17  1  0.500000  0.251432  0.580841  1
  B  B18  1  0.500000  0.248268  0.080894  1
  B  B19  1  0.500000  0.751620  0.918941  1
  B  B20  1  0.500000  0.791167  0.266266  1
  B  B21  1  0.500000  0.208375  0.734214  1
  B  B22  1  0.500000  0.291668  0.234505  1
  B  B23  1  0.500000  0.708512  0.766018  1
  B  B24  1  0.500000  0.631300  0.185310  1
  B  B25  1  0.500000  0.369209  0.813591  1
  B  B26  1  0.500000  0.132411  0.314723  1
  B  B27  1  0.500000  0.868570  0.686374  1
  B  B28  1  0.500000  0.983124  0.212439  1
  B  B29  1  0.500000  0.017252  0.788131  1
  B  B30  1  0.500000  0.482927  0.287598  1
  B  B31  1  0.500000  0.517177  0.712608  1
  B  B32  1  0.500000  0.602548  0.028116  1
  B  B33  1  0.500000  0.397510  0.970605  1
  B  B34  1  0.500000  0.106470  0.470573  1
  B  B35  1  0.500000  0.892840  0.529995  1
