# generated using pymatgen
data_NdYTh2(Zn5Sn)2
_symmetry_space_group_name_H-M   'P 1'
_cell_length_a   8.55173501
_cell_length_b   8.55173448
_cell_length_c   9.09270269
_cell_angle_alpha   90.62282931
_cell_angle_beta   89.37717053
_cell_angle_gamma   149.64846405
_symmetry_Int_Tables_number   1
_chemical_formula_structural   NdYTh2(Zn5Sn)2
_chemical_formula_sum   'Nd1 Y1 Th2 Zn10 Sn2'
_cell_volume   335.99022273
_cell_formula_units_Z   1
loop_
 _symmetry_equiv_pos_site_id
 _symmetry_equiv_pos_as_xyz
  1  'x, y, z'
loop_
 _atom_site_type_symbol
 _atom_site_label
 _atom_site_symmetry_multiplicity
 _atom_site_fract_x
 _atom_site_fract_y
 _atom_site_fract_z
 _atom_site_occupancy
  Nd  Nd0  1  0.000000  0.000000  0.000000  1
  Y  Y1  1  0.000000  0.000000  0.500000  1
  Th  Th2  1  0.204029  0.795971  0.250705  1
  Th  Th3  1  0.795971  0.204029  0.749295  1
  Zn  Zn4  1  0.816022  0.183978  0.391298  1
  Zn  Zn5  1  0.183978  0.816022  0.608702  1
  Zn  Zn6  1  0.814061  0.185939  0.107843  1
  Zn  Zn7  1  0.185939  0.814061  0.892157  1
  Zn  Zn8  1  0.656408  0.343592  0.483766  1
  Zn  Zn9  1  0.343592  0.656408  0.516234  1
  Zn  Zn10  1  0.657013  0.342987  0.018397  1
  Zn  Zn11  1  0.342987  0.657013  0.981603  1
  Zn  Zn12  1  0.393736  0.606264  0.248330  1
  Zn  Zn13  1  0.606264  0.393736  0.751670  1
  Sn  Sn14  1  0.553453  0.446547  0.253685  1
  Sn  Sn15  1  0.446547  0.553453  0.746315  1
