# generated using pymatgen
data_Y2VRu3
_symmetry_space_group_name_H-M   'P 1'
_cell_length_a   5.14278795
_cell_length_b   5.14278872
_cell_length_c   5.14278953
_cell_angle_alpha   65.59539922
_cell_angle_beta   65.59538959
_cell_angle_gamma   65.59539939
_symmetry_Int_Tables_number   1
_chemical_formula_structural   Y2VRu3
_chemical_formula_sum   'Y2 V1 Ru3'
_cell_volume   107.86867775
_cell_formula_units_Z   1
loop_
 _symmetry_equiv_pos_site_id
 _symmetry_equiv_pos_as_xyz
  1  'x, y, z'
loop_
 _atom_site_type_symbol
 _atom_site_label
 _atom_site_symmetry_multiplicity
 _atom_site_fract_x
 _atom_site_fract_y
 _atom_site_fract_z
 _atom_site_occupancy
  Y  Y0  1  0.127533  0.127533  0.127533  1
  Y  Y1  1  0.872467  0.872467  0.872467  1
  V  V2  1  0.500000  0.500000  0.500000  1
  Ru  Ru3  1  0.500000  0.000000  0.500000  1
  Ru  Ru4  1  0.000000  0.500000  0.500000  1
  Ru  Ru5  1  0.500000  0.500000  0.000000  1
