# generated using pymatgen
data_Ho3Sc2Sn3Se
_symmetry_space_group_name_H-M   'P 1'
_cell_length_a   8.95209600
_cell_length_b   8.95209689
_cell_length_c   6.47627300
_cell_angle_alpha   90.00000000
_cell_angle_beta   90.00000000
_cell_angle_gamma   120.00000411
_symmetry_Int_Tables_number   1
_chemical_formula_structural   Ho3Sc2Sn3Se
_chemical_formula_sum   'Ho6 Sc4 Sn6 Se2'
_cell_volume   449.47471531
_cell_formula_units_Z   2
loop_
 _symmetry_equiv_pos_site_id
 _symmetry_equiv_pos_as_xyz
  1  'x, y, z'
loop_
 _atom_site_type_symbol
 _atom_site_label
 _atom_site_symmetry_multiplicity
 _atom_site_fract_x
 _atom_site_fract_y
 _atom_site_fract_z
 _atom_site_occupancy
  Ho  Ho0  1  0.744870  0.744870  0.750000  1
  Ho  Ho1  1  0.255130  0.000000  0.750000  1
  Ho  Ho2  1  0.000000  0.255130  0.750000  1
  Ho  Ho3  1  0.255130  0.255130  0.250000  1
  Ho  Ho4  1  0.744870  0.000000  0.250000  1
  Ho  Ho5  1  0.000000  0.744870  0.250000  1
  Sc  Sc6  1  0.666667  0.333333  0.000000  1
  Sc  Sc7  1  0.333333  0.666667  0.000000  1
  Sc  Sc8  1  0.333333  0.666667  0.500000  1
  Sc  Sc9  1  0.666667  0.333333  0.500000  1
  Sn  Sn10  1  0.400161  0.400161  0.750000  1
  Sn  Sn11  1  0.599839  0.000000  0.750000  1
  Sn  Sn12  1  0.000000  0.599839  0.750000  1
  Sn  Sn13  1  0.599839  0.599839  0.250000  1
  Sn  Sn14  1  0.400161  0.000000  0.250000  1
  Sn  Sn15  1  0.000000  0.400161  0.250000  1
  Se  Se16  1  0.000000  0.000000  0.000000  1
  Se  Se17  1  0.000000  0.000000  0.500000  1
