# generated using pymatgen
data_YHoCI
_symmetry_space_group_name_H-M   'P 1'
_cell_length_a   3.75826500
_cell_length_b   3.75826528
_cell_length_c   14.75587200
_cell_angle_alpha   90.00000000
_cell_angle_beta   90.00000000
_cell_angle_gamma   120.00000633
_symmetry_Int_Tables_number   1
_chemical_formula_structural   YHoCI
_chemical_formula_sum   'Y2 Ho2 C2 I2'
_cell_volume   180.49713580
_cell_formula_units_Z   2
loop_
 _symmetry_equiv_pos_site_id
 _symmetry_equiv_pos_as_xyz
  1  'x, y, z'
loop_
 _atom_site_type_symbol
 _atom_site_label
 _atom_site_symmetry_multiplicity
 _atom_site_fract_x
 _atom_site_fract_y
 _atom_site_fract_z
 _atom_site_occupancy
  Y  Y0  1  0.666667  0.333333  0.585446  1
  Y  Y1  1  0.333333  0.666667  0.085446  1
  Ho  Ho2  1  0.333333  0.666667  0.414894  1
  Ho  Ho3  1  0.666667  0.333333  0.914894  1
  C  C4  1  0.000000  0.000000  0.498131  1
  C  C5  1  0.000000  0.000000  0.998131  1
  I  I6  1  0.666667  0.333333  0.251530  1
  I  I7  1  0.333333  0.666667  0.751530  1
