# generated using pymatgen
data_InRhBr18
_symmetry_space_group_name_H-M   'P 1'
_cell_length_a   9.17353849
_cell_length_b   9.15610299
_cell_length_c   9.18898549
_cell_angle_alpha   89.06142996
_cell_angle_beta   89.10278403
_cell_angle_gamma   89.22040031
_symmetry_Int_Tables_number   1
_chemical_formula_structural   InRhBr18
_chemical_formula_sum   'In1 Rh1 Br18'
_cell_volume   771.55142594
_cell_formula_units_Z   1
loop_
 _symmetry_equiv_pos_site_id
 _symmetry_equiv_pos_as_xyz
  1  'x, y, z'
loop_
 _atom_site_type_symbol
 _atom_site_label
 _atom_site_symmetry_multiplicity
 _atom_site_fract_x
 _atom_site_fract_y
 _atom_site_fract_z
 _atom_site_occupancy
  In  In0  1  0.000000  0.000000  0.000000  1
  Rh  Rh1  1  0.500000  0.500000  0.500000  1
  Br  Br2  1  0.771834  0.470432  0.514251  1
  Br  Br3  1  0.515239  0.772363  0.469669  1
  Br  Br4  1  0.470983  0.515415  0.771577  1
  Br  Br5  1  0.228166  0.529568  0.485749  1
  Br  Br6  1  0.484761  0.227637  0.530331  1
  Br  Br7  1  0.529017  0.484585  0.228423  1
  Br  Br8  1  0.882674  0.379154  0.752653  1
  Br  Br9  1  0.754111  0.883545  0.378449  1
  Br  Br10  1  0.378928  0.753834  0.882122  1
  Br  Br11  1  0.117326  0.620846  0.247347  1
  Br  Br12  1  0.245889  0.116455  0.621551  1
  Br  Br13  1  0.621072  0.246166  0.117878  1
  Br  Br14  1  0.021156  0.967343  0.705258  1
  Br  Br15  1  0.704582  0.021519  0.969161  1
  Br  Br16  1  0.968439  0.704000  0.022987  1
  Br  Br17  1  0.978844  0.032657  0.294742  1
  Br  Br18  1  0.295418  0.978481  0.030839  1
  Br  Br19  1  0.031561  0.296000  0.977013  1
