# generated using pymatgen
data_Hf3Nb3Si7Ni16
_symmetry_space_group_name_H-M   'P 1'
_cell_length_a   7.98963910
_cell_length_b   8.01240489
_cell_length_c   8.00780017
_cell_angle_alpha   59.81240472
_cell_angle_beta   60.19535084
_cell_angle_gamma   60.02488173
_symmetry_Int_Tables_number   1
_chemical_formula_structural   Hf3Nb3Si7Ni16
_chemical_formula_sum   'Hf3 Nb3 Si7 Ni16'
_cell_volume   362.56480804
_cell_formula_units_Z   1
loop_
 _symmetry_equiv_pos_site_id
 _symmetry_equiv_pos_as_xyz
  1  'x, y, z'
loop_
 _atom_site_type_symbol
 _atom_site_label
 _atom_site_symmetry_multiplicity
 _atom_site_fract_x
 _atom_site_fract_y
 _atom_site_fract_z
 _atom_site_occupancy
  Hf  Hf0  1  0.793733  0.793699  0.206263  1
  Hf  Hf1  1  0.797539  0.204338  0.795686  1
  Hf  Hf2  1  0.204318  0.797546  0.202436  1
  Nb  Nb3  1  0.795916  0.206560  0.204043  1
  Nb  Nb4  1  0.206563  0.795922  0.793441  1
  Nb  Nb5  1  0.203562  0.203611  0.796420  1
  Si  Si6  1  0.501609  0.501735  0.498334  1
  Si  Si7  1  0.498193  0.002451  0.502007  1
  Si  Si8  1  0.002434  0.498149  0.997389  1
  Si  Si9  1  0.999363  0.999389  0.500646  1
  Si  Si10  1  0.497834  0.002696  0.997159  1
  Si  Si11  1  0.002657  0.497837  0.502325  1
  Si  Si12  1  0.499552  0.499553  0.000428  1
  Ni  Ni13  1  0.166922  0.168556  0.495432  1
  Ni  Ni14  1  0.496267  0.167326  0.167518  1
  Ni  Ni15  1  0.168622  0.166911  0.169003  1
  Ni  Ni16  1  0.504929  0.830860  0.832877  1
  Ni  Ni17  1  0.830954  0.832336  0.832593  1
  Ni  Ni18  1  0.832385  0.830995  0.504066  1
  Ni  Ni19  1  0.167462  0.496003  0.168937  1
  Ni  Ni20  1  0.615687  0.149414  0.616106  1
  Ni  Ni21  1  0.381225  0.383942  0.850500  1
  Ni  Ni22  1  0.852581  0.381537  0.381275  1
  Ni  Ni23  1  0.383860  0.381212  0.384420  1
  Ni  Ni24  1  0.149286  0.615803  0.618810  1
  Ni  Ni25  1  0.615517  0.618715  0.618721  1
  Ni  Ni26  1  0.618700  0.615410  0.147062  1
  Ni  Ni27  1  0.381522  0.852564  0.384656  1
  Ni  Ni28  1  0.830804  0.504931  0.831450  1
