# generated using pymatgen
data_Lu3In3Rh2Au
_symmetry_space_group_name_H-M   'P 1'
_cell_length_a   7.70032600
_cell_length_b   7.70032692
_cell_length_c   3.73651700
_cell_angle_alpha   90.00000000
_cell_angle_beta   90.00000000
_cell_angle_gamma   119.99999603
_symmetry_Int_Tables_number   1
_chemical_formula_structural   Lu3In3Rh2Au
_chemical_formula_sum   'Lu3 In3 Rh2 Au1'
_cell_volume   191.87389302
_cell_formula_units_Z   1
loop_
 _symmetry_equiv_pos_site_id
 _symmetry_equiv_pos_as_xyz
  1  'x, y, z'
loop_
 _atom_site_type_symbol
 _atom_site_label
 _atom_site_symmetry_multiplicity
 _atom_site_fract_x
 _atom_site_fract_y
 _atom_site_fract_z
 _atom_site_occupancy
  Lu  Lu0  1  0.390025  0.978648  0.500000  1
  Lu  Lu1  1  0.021352  0.411377  0.500000  1
  Lu  Lu2  1  0.588623  0.609975  0.500000  1
  In  In3  1  0.737942  0.997181  0.000000  1
  In  In4  1  0.002819  0.740761  0.000000  1
  In  In5  1  0.259239  0.262058  0.000000  1
  Rh  Rh6  1  0.333333  0.666667  0.000000  1
  Rh  Rh7  1  0.000000  0.000000  0.500000  1
  Au  Au8  1  0.666667  0.333333  0.000000  1
