# generated using pymatgen
data_DyU(GeRu)2
_symmetry_space_group_name_H-M   'P 1'
_cell_length_a   4.53031200
_cell_length_b   7.03422964
_cell_length_c   7.21974629
_cell_angle_alpha   84.94700301
_cell_angle_beta   90.00000000
_cell_angle_gamma   90.00000000
_symmetry_Int_Tables_number   1
_chemical_formula_structural   DyU(GeRu)2
_chemical_formula_sum   'Dy2 U2 Ge4 Ru4'
_cell_volume   229.17935081
_cell_formula_units_Z   2
loop_
 _symmetry_equiv_pos_site_id
 _symmetry_equiv_pos_as_xyz
  1  'x, y, z'
loop_
 _atom_site_type_symbol
 _atom_site_label
 _atom_site_symmetry_multiplicity
 _atom_site_fract_x
 _atom_site_fract_y
 _atom_site_fract_z
 _atom_site_occupancy
  Dy  Dy0  1  0.250000  0.482256  0.718893  1
  Dy  Dy1  1  0.750000  0.517744  0.281107  1
  U  U2  1  0.250000  0.991392  0.802303  1
  U  U3  1  0.750000  0.008608  0.197697  1
  Ge  Ge4  1  0.250000  0.312065  0.110064  1
  Ge  Ge5  1  0.750000  0.687935  0.889936  1
  Ge  Ge6  1  0.250000  0.782885  0.405515  1
  Ge  Ge7  1  0.750000  0.217115  0.594485  1
  Ru  Ru8  1  0.750000  0.856186  0.538445  1
  Ru  Ru9  1  0.250000  0.143814  0.461555  1
  Ru  Ru10  1  0.750000  0.247392  0.948875  1
  Ru  Ru11  1  0.250000  0.752608  0.051125  1
