# generated using pymatgen
data_Ho5FeCoO12
_symmetry_space_group_name_H-M   'P 1'
_cell_length_a   6.73263848
_cell_length_b   6.73263779
_cell_length_c   7.14709484
_cell_angle_alpha   74.53269359
_cell_angle_beta   74.53269099
_cell_angle_gamma   50.66964943
_symmetry_Int_Tables_number   1
_chemical_formula_structural   Ho5FeCoO12
_chemical_formula_sum   'Ho5 Fe1 Co1 O12'
_cell_volume   239.43243561
_cell_formula_units_Z   1
loop_
 _symmetry_equiv_pos_site_id
 _symmetry_equiv_pos_as_xyz
  1  'x, y, z'
loop_
 _atom_site_type_symbol
 _atom_site_label
 _atom_site_symmetry_multiplicity
 _atom_site_fract_x
 _atom_site_fract_y
 _atom_site_fract_z
 _atom_site_occupancy
  Ho  Ho0  1  0.300559  0.306613  0.357226  1
  Ho  Ho1  1  0.693387  0.699441  0.642774  1
  Ho  Ho2  1  0.305733  0.306663  0.835782  1
  Ho  Ho3  1  0.693337  0.694267  0.164218  1
  Ho  Ho4  1  0.998377  0.001623  0.500000  1
  Fe  Fe5  1  0.761350  0.238650  0.000000  1
  Co  Co6  1  0.247954  0.752046  0.000000  1
  O  O7  1  0.900397  0.420147  0.919846  1
  O  O8  1  0.418689  0.901462  0.920515  1
  O  O9  1  0.098538  0.581311  0.079485  1
  O  O10  1  0.579853  0.099603  0.080154  1
  O  O11  1  0.096510  0.598618  0.576132  1
  O  O12  1  0.596755  0.099137  0.575140  1
  O  O13  1  0.900863  0.403245  0.424860  1
  O  O14  1  0.401382  0.903490  0.423868  1
  O  O15  1  0.001809  0.998988  0.823593  1
  O  O16  1  0.001012  0.998191  0.176407  1
  O  O17  1  0.501911  0.498417  0.822456  1
  O  O18  1  0.501583  0.498089  0.177544  1
