# generated using pymatgen
data_Sc8Cr11Si16Tc
_symmetry_space_group_name_H-M   'P 1'
_cell_length_a   6.52993149
_cell_length_b   6.52993152
_cell_length_c   12.07198866
_cell_angle_alpha   90.00563204
_cell_angle_beta   89.99437053
_cell_angle_gamma   89.71143005
_symmetry_Int_Tables_number   1
_chemical_formula_structural   Sc8Cr11Si16Tc
_chemical_formula_sum   'Sc8 Cr11 Si16 Tc1'
_cell_volume   514.74312862
_cell_formula_units_Z   1
loop_
 _symmetry_equiv_pos_site_id
 _symmetry_equiv_pos_as_xyz
  1  'x, y, z'
loop_
 _atom_site_type_symbol
 _atom_site_label
 _atom_site_symmetry_multiplicity
 _atom_site_fract_x
 _atom_site_fract_y
 _atom_site_fract_z
 _atom_site_occupancy
  Sc  Sc0  1  0.001483  0.661725  0.028518  1
  Sc  Sc1  1  0.836961  0.500621  0.279311  1
  Sc  Sc2  1  0.162179  0.497571  0.779139  1
  Sc  Sc3  1  0.500621  0.836961  0.720689  1
  Sc  Sc4  1  0.497571  0.162179  0.220861  1
  Sc  Sc5  1  0.998569  0.338196  0.528742  1
  Sc  Sc6  1  0.661725  0.001483  0.971482  1
  Sc  Sc7  1  0.338196  0.998569  0.471258  1
  Cr  Cr8  1  0.168684  0.832994  0.249679  1
  Cr  Cr9  1  0.832994  0.168684  0.750321  1
  Cr  Cr10  1  0.667823  0.667823  0.500000  1
  Cr  Cr11  1  0.992004  0.163634  0.128382  1
  Cr  Cr12  1  0.334615  0.497096  0.376096  1
  Cr  Cr13  1  0.671615  0.505365  0.874851  1
  Cr  Cr14  1  0.497096  0.334615  0.623904  1
  Cr  Cr15  1  0.505365  0.671615  0.125149  1
  Cr  Cr16  1  0.002850  0.834437  0.625998  1
  Cr  Cr17  1  0.163634  0.992004  0.871618  1
  Cr  Cr18  1  0.834437  0.002850  0.374002  1
  Si  Si19  1  0.284732  0.965364  0.065142  1
  Si  Si20  1  0.533942  0.787853  0.316105  1
  Si  Si21  1  0.467264  0.212084  0.814650  1
  Si  Si22  1  0.787853  0.533942  0.683895  1
  Si  Si23  1  0.212084  0.467264  0.185350  1
  Si  Si24  1  0.712798  0.034139  0.565730  1
  Si  Si25  1  0.965364  0.284732  0.934858  1
  Si  Si26  1  0.034139  0.712798  0.434270  1
  Si  Si27  1  0.698289  0.377877  0.067354  1
  Si  Si28  1  0.124378  0.197429  0.317027  1
  Si  Si29  1  0.875683  0.801111  0.816059  1
  Si  Si30  1  0.197429  0.124378  0.682973  1
  Si  Si31  1  0.801111  0.875683  0.183941  1
  Si  Si32  1  0.302266  0.624196  0.566514  1
  Si  Si33  1  0.377877  0.698289  0.932646  1
  Si  Si34  1  0.624196  0.302266  0.433486  1
  Tc  Tc35  1  0.332175  0.332175  0.000000  1
