# generated using pymatgen
data_RbLuBi2Se5
_symmetry_space_group_name_H-M   'P 1'
_cell_length_a   4.14109100
_cell_length_b   12.33589300
_cell_length_c   22.33570800
_cell_angle_alpha   90.00000000
_cell_angle_beta   90.00000000
_cell_angle_gamma   90.00000000
_symmetry_Int_Tables_number   1
_chemical_formula_structural   RbLuBi2Se5
_chemical_formula_sum   'Rb4 Lu4 Bi8 Se20'
_cell_volume   1140.99854664
_cell_formula_units_Z   4
loop_
 _symmetry_equiv_pos_site_id
 _symmetry_equiv_pos_as_xyz
  1  'x, y, z'
loop_
 _atom_site_type_symbol
 _atom_site_label
 _atom_site_symmetry_multiplicity
 _atom_site_fract_x
 _atom_site_fract_y
 _atom_site_fract_z
 _atom_site_occupancy
  Rb  Rb0  1  0.250000  0.489293  0.210229  1
  Rb  Rb1  1  0.750000  0.510707  0.789771  1
  Rb  Rb2  1  0.750000  0.989293  0.289771  1
  Rb  Rb3  1  0.250000  0.010707  0.710229  1
  Lu  Lu4  1  0.250000  0.364826  0.023737  1
  Lu  Lu5  1  0.750000  0.635174  0.976263  1
  Lu  Lu6  1  0.750000  0.864826  0.476263  1
  Lu  Lu7  1  0.250000  0.135174  0.523737  1
  Bi  Bi8  1  0.250000  0.801587  0.126231  1
  Bi  Bi9  1  0.750000  0.198413  0.873769  1
  Bi  Bi10  1  0.750000  0.301587  0.373769  1
  Bi  Bi11  1  0.250000  0.698413  0.626231  1
  Bi  Bi12  1  0.250000  0.596425  0.423783  1
  Bi  Bi13  1  0.750000  0.403575  0.576217  1
  Bi  Bi14  1  0.750000  0.096425  0.076217  1
  Bi  Bi15  1  0.250000  0.903575  0.923783  1
  Se  Se16  1  0.250000  0.814529  0.391964  1
  Se  Se17  1  0.750000  0.185471  0.608036  1
  Se  Se18  1  0.750000  0.314529  0.108036  1
  Se  Se19  1  0.250000  0.685471  0.891964  1
  Se  Se20  1  0.250000  0.246481  0.294594  1
  Se  Se21  1  0.750000  0.753519  0.705406  1
  Se  Se22  1  0.750000  0.746481  0.205406  1
  Se  Se23  1  0.250000  0.253519  0.794594  1
  Se  Se24  1  0.250000  0.352320  0.481325  1
  Se  Se25  1  0.750000  0.647680  0.518675  1
  Se  Se26  1  0.750000  0.852320  0.018675  1
  Se  Se27  1  0.250000  0.147680  0.981325  1
  Se  Se28  1  0.250000  0.027049  0.159669  1
  Se  Se29  1  0.750000  0.972951  0.840331  1
  Se  Se30  1  0.750000  0.527049  0.340331  1
  Se  Se31  1  0.250000  0.472951  0.659669  1
  Se  Se32  1  0.250000  0.582570  0.058056  1
  Se  Se33  1  0.750000  0.417430  0.941944  1
  Se  Se34  1  0.750000  0.082570  0.441944  1
  Se  Se35  1  0.250000  0.917430  0.558056  1
