# generated using pymatgen
data_Nd4Re3TcBr2
_symmetry_space_group_name_H-M   'P 1'
_cell_length_a   4.17523200
_cell_length_b   4.17523238
_cell_length_c   17.63380200
_cell_angle_alpha   90.00000000
_cell_angle_beta   90.00000000
_cell_angle_gamma   119.99998111
_symmetry_Int_Tables_number   1
_chemical_formula_structural   Nd4Re3TcBr2
_chemical_formula_sum   'Nd4 Re3 Tc1 Br2'
_cell_volume   266.21832046
_cell_formula_units_Z   1
loop_
 _symmetry_equiv_pos_site_id
 _symmetry_equiv_pos_as_xyz
  1  'x, y, z'
loop_
 _atom_site_type_symbol
 _atom_site_label
 _atom_site_symmetry_multiplicity
 _atom_site_fract_x
 _atom_site_fract_y
 _atom_site_fract_z
 _atom_site_occupancy
  Nd  Nd0  1  0.000000  0.000000  0.118417  1
  Nd  Nd1  1  0.000000  0.000000  0.381391  1
  Nd  Nd2  1  0.000000  0.000000  0.618663  1
  Nd  Nd3  1  0.000000  0.000000  0.881512  1
  Re  Re4  1  0.333334  0.666667  0.983908  1
  Re  Re5  1  0.666666  0.333332  0.483636  1
  Re  Re6  1  0.333334  0.666667  0.516374  1
  Tc  Tc7  1  0.666666  0.333332  0.016111  1
  Br  Br8  1  0.333334  0.666667  0.249983  1
  Br  Br9  1  0.666666  0.333332  0.750006  1
