# generated using pymatgen
data_Sc2TaCo5B2
_symmetry_space_group_name_H-M   'P 1'
_cell_length_a   8.77814000
_cell_length_b   8.77814000
_cell_length_c   3.07565700
_cell_angle_alpha   90.00000000
_cell_angle_beta   90.00000000
_cell_angle_gamma   90.00000000
_symmetry_Int_Tables_number   1
_chemical_formula_structural   Sc2TaCo5B2
_chemical_formula_sum   'Sc4 Ta2 Co10 B4'
_cell_volume   236.99703184
_cell_formula_units_Z   2
loop_
 _symmetry_equiv_pos_site_id
 _symmetry_equiv_pos_as_xyz
  1  'x, y, z'
loop_
 _atom_site_type_symbol
 _atom_site_label
 _atom_site_symmetry_multiplicity
 _atom_site_fract_x
 _atom_site_fract_y
 _atom_site_fract_z
 _atom_site_occupancy
  Sc  Sc0  1  0.825569  0.325569  0.000000  1
  Sc  Sc1  1  0.174431  0.674431  0.000000  1
  Sc  Sc2  1  0.325569  0.174431  0.000000  1
  Sc  Sc3  1  0.674431  0.825569  0.000000  1
  Ta  Ta4  1  0.500000  0.500000  0.000000  1
  Ta  Ta5  1  0.000000  0.000000  0.000000  1
  Co  Co6  1  0.500000  0.000000  0.500000  1
  Co  Co7  1  0.000000  0.500000  0.500000  1
  Co  Co8  1  0.724248  0.570333  0.500000  1
  Co  Co9  1  0.275752  0.429667  0.500000  1
  Co  Co10  1  0.224248  0.929667  0.500000  1
  Co  Co11  1  0.775752  0.070333  0.500000  1
  Co  Co12  1  0.429667  0.724248  0.500000  1
  Co  Co13  1  0.570333  0.275752  0.500000  1
  Co  Co14  1  0.070333  0.224248  0.500000  1
  Co  Co15  1  0.929667  0.775752  0.500000  1
  B  B16  1  0.618692  0.118692  0.000000  1
  B  B17  1  0.381308  0.881308  0.000000  1
  B  B18  1  0.118692  0.381308  0.000000  1
  B  B19  1  0.881308  0.618692  0.000000  1
