# generated using pymatgen
data_HoMgTl(Si3Pd10)2
_symmetry_space_group_name_H-M   'P 1'
_cell_length_a   8.66809261
_cell_length_b   8.66809385
_cell_length_c   8.66809300
_cell_angle_alpha   59.99999942
_cell_angle_beta   59.99999469
_cell_angle_gamma   59.99999899
_symmetry_Int_Tables_number   1
_chemical_formula_structural   HoMgTl(Si3Pd10)2
_chemical_formula_sum   'Ho1 Mg1 Tl1 Si6 Pd20'
_cell_volume   460.52762753
_cell_formula_units_Z   1
loop_
 _symmetry_equiv_pos_site_id
 _symmetry_equiv_pos_as_xyz
  1  'x, y, z'
loop_
 _atom_site_type_symbol
 _atom_site_label
 _atom_site_symmetry_multiplicity
 _atom_site_fract_x
 _atom_site_fract_y
 _atom_site_fract_z
 _atom_site_occupancy
  Ho  Ho0  1  0.750000  0.750000  0.750000  1
  Mg  Mg1  1  0.000000  0.000000  0.000000  1
  Tl  Tl2  1  0.250000  0.250000  0.250000  1
  Si  Si3  1  0.730393  0.269607  0.269607  1
  Si  Si4  1  0.269607  0.730393  0.730393  1
  Si  Si5  1  0.269607  0.730393  0.269607  1
  Si  Si6  1  0.730393  0.269607  0.730393  1
  Si  Si7  1  0.269607  0.269607  0.730393  1
  Si  Si8  1  0.730393  0.730393  0.269607  1
  Pd  Pd9  1  0.380528  0.380528  0.380528  1
  Pd  Pd10  1  0.615856  0.615856  0.615856  1
  Pd  Pd11  1  0.380528  0.380528  0.858415  1
  Pd  Pd12  1  0.380528  0.858415  0.380528  1
  Pd  Pd13  1  0.615856  0.615856  0.152431  1
  Pd  Pd14  1  0.615856  0.152431  0.615856  1
  Pd  Pd15  1  0.858415  0.380528  0.380528  1
  Pd  Pd16  1  0.152431  0.615856  0.615856  1
  Pd  Pd17  1  0.344889  0.996418  0.996418  1
  Pd  Pd18  1  0.662275  0.996418  0.996418  1
  Pd  Pd19  1  0.996418  0.344889  0.662275  1
  Pd  Pd20  1  0.996418  0.662275  0.344889  1
  Pd  Pd21  1  0.996418  0.344889  0.996418  1
  Pd  Pd22  1  0.662275  0.996418  0.344889  1
  Pd  Pd23  1  0.996418  0.662275  0.996418  1
  Pd  Pd24  1  0.344889  0.996418  0.662275  1
  Pd  Pd25  1  0.996418  0.996418  0.344889  1
  Pd  Pd26  1  0.996418  0.996418  0.662275  1
  Pd  Pd27  1  0.662275  0.344889  0.996418  1
  Pd  Pd28  1  0.344889  0.662275  0.996418  1
