# generated using pymatgen
data_Rb3TmBi2
_symmetry_space_group_name_H-M   'P 1'
_cell_length_a   10.35146235
_cell_length_b   10.35146242
_cell_length_c   10.35146332
_cell_angle_alpha   128.28042319
_cell_angle_beta   70.30668663
_cell_angle_gamma   135.84635111
_symmetry_Int_Tables_number   1
_chemical_formula_structural   Rb3TmBi2
_chemical_formula_sum   'Rb6 Tm2 Bi4'
_cell_volume   594.68030860
_cell_formula_units_Z   2
loop_
 _symmetry_equiv_pos_site_id
 _symmetry_equiv_pos_as_xyz
  1  'x, y, z'
loop_
 _atom_site_type_symbol
 _atom_site_label
 _atom_site_symmetry_multiplicity
 _atom_site_fract_x
 _atom_site_fract_y
 _atom_site_fract_z
 _atom_site_occupancy
  Rb  Rb0  1  0.315632  0.700707  0.016338  1
  Rb  Rb1  1  0.184368  0.200707  0.385075  1
  Rb  Rb2  1  0.750000  0.250000  0.500000  1
  Rb  Rb3  1  0.250000  0.749999  0.499999  1
  Rb  Rb4  1  0.815632  0.799294  0.614926  1
  Rb  Rb5  1  0.684368  0.299294  0.983663  1
  Tm  Tm6  1  0.250000  0.250000  0.000000  1
  Tm  Tm7  1  0.750000  0.750000  0.000000  1
  Bi  Bi8  1  0.901376  0.193414  0.094789  1
  Bi  Bi9  1  0.598625  0.693415  0.292039  1
  Bi  Bi10  1  0.401375  0.306585  0.707960  1
  Bi  Bi11  1  0.098625  0.806585  0.905210  1
