# generated using pymatgen
data_Tm2LuCd3Ga2Ag
_symmetry_space_group_name_H-M   'P 1'
_cell_length_a   7.29387704
_cell_length_b   7.29387726
_cell_length_c   4.30698800
_cell_angle_alpha   90.00000000
_cell_angle_beta   90.00000000
_cell_angle_gamma   119.94307578
_symmetry_Int_Tables_number   1
_chemical_formula_structural   Tm2LuCd3Ga2Ag
_chemical_formula_sum   'Tm2 Lu1 Cd3 Ga2 Ag1'
_cell_volume   198.55005432
_cell_formula_units_Z   1
loop_
 _symmetry_equiv_pos_site_id
 _symmetry_equiv_pos_as_xyz
  1  'x, y, z'
loop_
 _atom_site_type_symbol
 _atom_site_label
 _atom_site_symmetry_multiplicity
 _atom_site_fract_x
 _atom_site_fract_y
 _atom_site_fract_z
 _atom_site_occupancy
  Tm  Tm0  1  0.577732  0.999525  0.500000  1
  Tm  Tm1  1  0.999525  0.577732  0.500000  1
  Lu  Lu2  1  0.421457  0.421457  0.500000  1
  Cd  Cd3  1  0.747579  0.747579  0.000000  1
  Cd  Cd4  1  0.252729  0.999517  0.000000  1
  Cd  Cd5  1  0.999517  0.252729  0.000000  1
  Ga  Ga6  1  0.665570  0.333842  0.000000  1
  Ga  Ga7  1  0.333842  0.665570  0.000000  1
  Ag  Ag8  1  0.002049  0.002049  0.500000  1
