# generated using pymatgen
data_Li4CaAc2YbSi8
_symmetry_space_group_name_H-M   'P 1'
_cell_length_a   3.90354500
_cell_length_b   8.02472800
_cell_length_c   10.84058603
_cell_angle_alpha   90.00641574
_cell_angle_beta   90.00000000
_cell_angle_gamma   90.00000000
_symmetry_Int_Tables_number   1
_chemical_formula_structural   Li4CaAc2YbSi8
_chemical_formula_sum   'Li4 Ca1 Ac2 Yb1 Si8'
_cell_volume   339.58012908
_cell_formula_units_Z   1
loop_
 _symmetry_equiv_pos_site_id
 _symmetry_equiv_pos_as_xyz
  1  'x, y, z'
loop_
 _atom_site_type_symbol
 _atom_site_label
 _atom_site_symmetry_multiplicity
 _atom_site_fract_x
 _atom_site_fract_y
 _atom_site_fract_z
 _atom_site_occupancy
  Li  Li0  1  0.250000  0.998345  0.387393  1
  Li  Li1  1  0.750000  0.006193  0.604914  1
  Li  Li2  1  0.250000  0.496045  0.112746  1
  Li  Li3  1  0.750000  0.505029  0.895784  1
  Ca  Ca4  1  0.750000  0.366798  0.364839  1
  Ac  Ac5  1  0.250000  0.134832  0.868575  1
  Ac  Ac6  1  0.250000  0.636103  0.631244  1
  Yb  Yb7  1  0.750000  0.866296  0.134220  1
  Si  Si8  1  0.750000  0.269734  0.079917  1
  Si  Si9  1  0.250000  0.731179  0.937069  1
  Si  Si10  1  0.750000  0.772795  0.419529  1
  Si  Si11  1  0.250000  0.232103  0.564336  1
  Si  Si12  1  0.750000  0.828496  0.827770  1
  Si  Si13  1  0.250000  0.160440  0.179278  1
  Si  Si14  1  0.750000  0.329815  0.673588  1
  Si  Si15  1  0.250000  0.665797  0.318795  1
