# generated using pymatgen
data_DyY4Ho7Co5Sn
_symmetry_space_group_name_H-M   'P 1'
_cell_length_a   8.26566169
_cell_length_b   8.26566051
_cell_length_c   8.26678776
_cell_angle_alpha   107.02606289
_cell_angle_beta   110.70515667
_cell_angle_gamma   110.70437338
_symmetry_Int_Tables_number   1
_chemical_formula_structural   DyY4Ho7Co5Sn
_chemical_formula_sum   'Dy1 Y4 Ho7 Co5 Sn1'
_cell_volume   434.21939065
_cell_formula_units_Z   1
loop_
 _symmetry_equiv_pos_site_id
 _symmetry_equiv_pos_as_xyz
  1  'x, y, z'
loop_
 _atom_site_type_symbol
 _atom_site_label
 _atom_site_symmetry_multiplicity
 _atom_site_fract_x
 _atom_site_fract_y
 _atom_site_fract_z
 _atom_site_occupancy
  Dy  Dy0  1  0.807395  0.207941  0.015337  1
  Y  Y1  1  0.478545  0.291422  0.187305  1
  Y  Y2  1  0.104412  0.291827  0.812418  1
  Y  Y3  1  0.895884  0.708760  0.187305  1
  Y  Y4  1  0.520591  0.708007  0.812418  1
  Ho  Ho5  1  0.306983  0.620248  0.313622  1
  Ho  Ho6  1  0.306323  0.993167  0.686514  1
  Ho  Ho7  1  0.693349  0.380191  0.686514  1
  Ho  Ho8  1  0.693374  0.006638  0.313622  1
  Ho  Ho9  1  0.193130  0.208305  0.401435  1
  Ho  Ho10  1  0.807336  0.791803  0.599139  1
  Ho  Ho11  1  0.192917  0.791789  0.984705  1
  Co  Co12  1  0.500143  0.612680  0.112823  1
  Co  Co13  1  0.499451  0.387416  0.886868  1
  Co  Co14  1  0.377770  0.000132  0.377902  1
  Co  Co15  1  0.621626  0.999897  0.621523  1
  Co  Co16  1  0.000740  0.999603  0.000343  1
  Sn  Sn17  1  0.000033  0.500173  0.500206  1
