# generated using pymatgen
data_Pr2MnN3
_symmetry_space_group_name_H-M   'P 1'
_cell_length_a   6.15831831
_cell_length_b   6.15831862
_cell_length_c   11.98167000
_cell_angle_alpha   90.00000000
_cell_angle_beta   90.00000000
_cell_angle_gamma   127.80473500
_symmetry_Int_Tables_number   1
_chemical_formula_structural   Pr2MnN3
_chemical_formula_sum   'Pr8 Mn4 N12'
_cell_volume   359.02616448
_cell_formula_units_Z   4
loop_
 _symmetry_equiv_pos_site_id
 _symmetry_equiv_pos_as_xyz
  1  'x, y, z'
loop_
 _atom_site_type_symbol
 _atom_site_label
 _atom_site_symmetry_multiplicity
 _atom_site_fract_x
 _atom_site_fract_y
 _atom_site_fract_z
 _atom_site_occupancy
  Pr  Pr0  1  0.441135  0.558865  0.356268  1
  Pr  Pr1  1  0.558865  0.441135  0.643732  1
  Pr  Pr2  1  0.058865  0.941135  0.856268  1
  Pr  Pr3  1  0.941135  0.058865  0.143732  1
  Pr  Pr4  1  0.142190  0.857810  0.428403  1
  Pr  Pr5  1  0.857810  0.142190  0.571597  1
  Pr  Pr6  1  0.357810  0.642190  0.928403  1
  Pr  Pr7  1  0.642190  0.357810  0.071597  1
  Mn  Mn8  1  0.260574  0.739426  0.161130  1
  Mn  Mn9  1  0.739426  0.260574  0.838870  1
  Mn  Mn10  1  0.239426  0.760574  0.661130  1
  Mn  Mn11  1  0.760574  0.239426  0.338870  1
  N  N12  1  0.151308  0.848692  0.040588  1
  N  N13  1  0.848692  0.151308  0.959412  1
  N  N14  1  0.348692  0.651308  0.540588  1
  N  N15  1  0.651308  0.348692  0.459412  1
  N  N16  1  0.434288  0.565712  0.132211  1
  N  N17  1  0.565712  0.434288  0.867789  1
  N  N18  1  0.065712  0.934288  0.632211  1
  N  N19  1  0.934288  0.065712  0.367789  1
  N  N20  1  0.996447  0.503553  0.250000  1
  N  N21  1  0.503553  0.996447  0.750000  1
  N  N22  1  0.003553  0.496447  0.750000  1
  N  N23  1  0.496447  0.003553  0.250000  1
