# generated using pymatgen
data_Ho3Er7(GePb3)2
_symmetry_space_group_name_H-M   'P 1'
_cell_length_a   9.26590726
_cell_length_b   9.26387446
_cell_length_c   6.51595800
_cell_angle_alpha   90.00000000
_cell_angle_beta   90.00000000
_cell_angle_gamma   120.03418809
_symmetry_Int_Tables_number   1
_chemical_formula_structural   Ho3Er7(GePb3)2
_chemical_formula_sum   'Ho3 Er7 Ge2 Pb6'
_cell_volume   484.21673995
_cell_formula_units_Z   1
loop_
 _symmetry_equiv_pos_site_id
 _symmetry_equiv_pos_as_xyz
  1  'x, y, z'
loop_
 _atom_site_type_symbol
 _atom_site_label
 _atom_site_symmetry_multiplicity
 _atom_site_fract_x
 _atom_site_fract_y
 _atom_site_fract_z
 _atom_site_occupancy
  Ho  Ho0  1  0.252063  0.000138  0.250000  1
  Ho  Ho1  1  0.747832  0.999907  0.750000  1
  Ho  Ho2  1  0.000165  0.252235  0.250000  1
  Er  Er3  1  0.999803  0.748473  0.750000  1
  Er  Er4  1  0.748719  0.748654  0.250000  1
  Er  Er5  1  0.251513  0.251637  0.750000  1
  Er  Er6  1  0.333311  0.666524  0.000061  1
  Er  Er7  1  0.666689  0.333495  0.000076  1
  Er  Er8  1  0.666689  0.333495  0.499924  1
  Er  Er9  1  0.333311  0.666524  0.499939  1
  Ge  Ge10  1  0.999916  0.999427  0.999624  1
  Ge  Ge11  1  0.999916  0.999427  0.500376  1
  Pb  Pb12  1  0.606638  0.999784  0.250000  1
  Pb  Pb13  1  0.393066  0.000004  0.750000  1
  Pb  Pb14  1  0.999793  0.606550  0.250000  1
  Pb  Pb15  1  0.000237  0.393624  0.750000  1
  Pb  Pb16  1  0.393796  0.393782  0.250000  1
  Pb  Pb17  1  0.606543  0.606320  0.750000  1
