# generated using pymatgen
data_Ce9ErSn8
_symmetry_space_group_name_H-M   'P 1'
_cell_length_a   9.57909800
_cell_length_b   9.57909645
_cell_length_c   6.57156700
_cell_angle_alpha   90.00000000
_cell_angle_beta   90.00000000
_cell_angle_gamma   119.99999845
_symmetry_Int_Tables_number   1
_chemical_formula_structural   Ce9ErSn8
_chemical_formula_sum   'Ce9 Er1 Sn8'
_cell_volume   522.21427704
_cell_formula_units_Z   1
loop_
 _symmetry_equiv_pos_site_id
 _symmetry_equiv_pos_as_xyz
  1  'x, y, z'
loop_
 _atom_site_type_symbol
 _atom_site_label
 _atom_site_symmetry_multiplicity
 _atom_site_fract_x
 _atom_site_fract_y
 _atom_site_fract_z
 _atom_site_occupancy
  Ce  Ce0  1  0.333333  0.666667  0.000000  1
  Ce  Ce1  1  0.666667  0.333333  0.500000  1
  Ce  Ce2  1  0.666667  0.333333  0.000000  1
  Ce  Ce3  1  0.281683  0.005235  0.247534  1
  Ce  Ce4  1  0.281683  0.276447  0.752466  1
  Ce  Ce5  1  0.994765  0.718317  0.752466  1
  Ce  Ce6  1  0.994765  0.276447  0.247534  1
  Ce  Ce7  1  0.723553  0.718317  0.247534  1
  Ce  Ce8  1  0.723553  0.005235  0.752466  1
  Er  Er9  1  0.333333  0.666667  0.500000  1
  Sn  Sn10  1  0.000000  0.000000  0.000000  1
  Sn  Sn11  1  0.000000  0.000000  0.500000  1
  Sn  Sn12  1  0.617390  0.991880  0.255007  1
  Sn  Sn13  1  0.617390  0.625510  0.744993  1
  Sn  Sn14  1  0.008120  0.382610  0.744993  1
  Sn  Sn15  1  0.008120  0.625510  0.255007  1
  Sn  Sn16  1  0.374490  0.382610  0.255007  1
  Sn  Sn17  1  0.374490  0.991880  0.744993  1
