# generated using pymatgen
data_K6ScInAs4
_symmetry_space_group_name_H-M   'P 1'
_cell_length_a   9.26479892
_cell_length_b   9.26479912
_cell_length_c   9.26479786
_cell_angle_alpha   137.05531736
_cell_angle_beta   129.10526275
_cell_angle_gamma   68.73027249
_symmetry_Int_Tables_number   1
_chemical_formula_structural   K6ScInAs4
_chemical_formula_sum   'K6 Sc1 In1 As4'
_cell_volume   413.00210076
_cell_formula_units_Z   1
loop_
 _symmetry_equiv_pos_site_id
 _symmetry_equiv_pos_as_xyz
  1  'x, y, z'
loop_
 _atom_site_type_symbol
 _atom_site_label
 _atom_site_symmetry_multiplicity
 _atom_site_fract_x
 _atom_site_fract_y
 _atom_site_fract_z
 _atom_site_occupancy
  K  K0  1  0.007809  0.803369  0.187381  1
  K  K1  1  0.500000  0.750000  0.250000  1
  K  K2  1  0.615988  0.320428  0.312619  1
  K  K3  1  0.384012  0.696631  0.704441  1
  K  K4  1  0.500000  0.250000  0.750000  1
  K  K5  1  0.992191  0.179572  0.795559  1
  Sc  Sc6  1  0.000000  0.250000  0.250000  1
  In  In7  1  0.000000  0.750000  0.750000  1
  As  As8  1  0.091099  0.396050  0.685502  1
  As  As9  1  0.908901  0.594402  0.304950  1
  As  As10  1  0.289452  0.103950  0.195050  1
  As  As11  1  0.710548  0.905598  0.814498  1
