# generated using pymatgen
data_NaGe2(AsRh3)2
_symmetry_space_group_name_H-M   'P 1'
_cell_length_a   7.32224500
_cell_length_b   7.25258340
_cell_length_c   3.78038200
_cell_angle_alpha   90.00000000
_cell_angle_beta   90.00000000
_cell_angle_gamma   120.31824065
_symmetry_Int_Tables_number   1
_chemical_formula_structural   NaGe2(AsRh3)2
_chemical_formula_sum   'Na1 Ge2 As2 Rh6'
_cell_volume   173.30123486
_cell_formula_units_Z   1
loop_
 _symmetry_equiv_pos_site_id
 _symmetry_equiv_pos_as_xyz
  1  'x, y, z'
loop_
 _atom_site_type_symbol
 _atom_site_label
 _atom_site_symmetry_multiplicity
 _atom_site_fract_x
 _atom_site_fract_y
 _atom_site_fract_z
 _atom_site_occupancy
  Na  Na0  1  0.998784  0.997566  0.000000  1
  Ge  Ge1  1  0.807912  0.615823  0.500000  1
  Ge  Ge2  1  0.333362  0.666726  0.000000  1
  As  As3  1  0.383099  0.192465  0.500000  1
  As  As4  1  0.809367  0.192465  0.500000  1
  Rh  Rh5  1  0.535581  0.071162  0.000000  1
  Rh  Rh6  1  0.602812  0.802844  0.500000  1
  Rh  Rh7  1  0.197314  0.394629  0.500000  1
  Rh  Rh8  1  0.534916  0.465071  0.000000  1
  Rh  Rh9  1  0.200032  0.802844  0.500000  1
  Rh  Rh10  1  0.930153  0.465071  0.000000  1
