# generated using pymatgen
data_La4Pr8Si3GeI12
_symmetry_space_group_name_H-M   'P 1'
_cell_length_a   10.96931858
_cell_length_b   10.96931877
_cell_length_c   10.97168417
_cell_angle_alpha   109.43654454
_cell_angle_beta   109.43654662
_cell_angle_gamma   109.76573596
_symmetry_Int_Tables_number   1
_chemical_formula_structural   La4Pr8Si3GeI12
_chemical_formula_sum   'La4 Pr8 Si3 Ge1 I12'
_cell_volume   1013.43150101
_cell_formula_units_Z   1
loop_
 _symmetry_equiv_pos_site_id
 _symmetry_equiv_pos_as_xyz
  1  'x, y, z'
loop_
 _atom_site_type_symbol
 _atom_site_label
 _atom_site_symmetry_multiplicity
 _atom_site_fract_x
 _atom_site_fract_y
 _atom_site_fract_z
 _atom_site_occupancy
  La  La0  1  0.486703  0.233299  0.469777  1
  La  La1  1  0.016038  0.483962  0.750000  1
  La  La2  1  0.266701  0.013297  0.030223  1
  La  La3  1  0.233808  0.266192  0.750000  1
  Pr  Pr4  1  0.466460  0.486722  0.232674  1
  Pr  Pr5  1  0.750505  0.231194  0.266734  1
  Pr  Pr6  1  0.749473  0.016042  0.480783  1
  Pr  Pr7  1  0.230336  0.466233  0.483304  1
  Pr  Pr8  1  0.268806  0.749495  0.233266  1
  Pr  Pr9  1  0.033767  0.269664  0.016696  1
  Pr  Pr10  1  0.013278  0.033540  0.267326  1
  Pr  Pr11  1  0.483958  0.750527  0.019217  1
  Si  Si12  1  0.500035  0.999965  0.250000  1
  Si  Si13  1  0.999904  0.249899  0.499709  1
  Si  Si14  1  0.250101  0.500096  0.000291  1
  Ge  Ge15  1  0.249962  0.250038  0.250000  1
  I  I16  1  0.254099  0.758037  0.742872  1
  I  I17  1  0.514908  0.511007  0.756821  1
  I  I18  1  0.985065  0.742155  0.996090  1
  I  I19  1  0.741963  0.245901  0.757128  1
  I  I20  1  0.988993  0.985092  0.743179  1
  I  I21  1  0.245959  0.988981  0.503824  1
  I  I22  1  0.757845  0.514935  0.503910  1
  I  I23  1  0.511019  0.254041  0.996176  1
  I  I24  1  0.756934  0.743066  0.250000  1
  I  I25  1  0.743350  0.993200  0.986450  1
  I  I26  1  0.993228  0.506772  0.250000  1
  I  I27  1  0.506800  0.756650  0.513550  1
