# generated using pymatgen
data_Ho8B24Ir2RuW
_symmetry_space_group_name_H-M   'P 1'
_cell_length_a   3.65037700
_cell_length_b   9.16672392
_cell_length_c   11.54671417
_cell_angle_alpha   90.23857537
_cell_angle_beta   90.00000000
_cell_angle_gamma   90.00000000
_symmetry_Int_Tables_number   1
_chemical_formula_structural   Ho8B24Ir2RuW
_chemical_formula_sum   'Ho8 B24 Ir2 Ru1 W1'
_cell_volume   386.37277877
_cell_formula_units_Z   1
loop_
 _symmetry_equiv_pos_site_id
 _symmetry_equiv_pos_as_xyz
  1  'x, y, z'
loop_
 _atom_site_type_symbol
 _atom_site_label
 _atom_site_symmetry_multiplicity
 _atom_site_fract_x
 _atom_site_fract_y
 _atom_site_fract_z
 _atom_site_occupancy
  Ho  Ho0  1  0.000000  0.317737  0.408871  1
  Ho  Ho1  1  0.000000  0.679861  0.586864  1
  Ho  Ho2  1  0.000000  0.824965  0.085166  1
  Ho  Ho3  1  0.000000  0.175711  0.917018  1
  Ho  Ho4  1  0.000000  0.945791  0.374660  1
  Ho  Ho5  1  0.000000  0.054214  0.628745  1
  Ho  Ho6  1  0.000000  0.444115  0.124476  1
  Ho  Ho7  1  0.000000  0.559056  0.873506  1
  B  B8  1  0.500000  0.552911  0.433922  1
  B  B9  1  0.500000  0.445948  0.566063  1
  B  B10  1  0.500000  0.050909  0.064531  1
  B  B11  1  0.500000  0.945863  0.932018  1
  B  B12  1  0.500000  0.748541  0.421758  1
  B  B13  1  0.500000  0.250690  0.579096  1
  B  B14  1  0.500000  0.249605  0.077999  1
  B  B15  1  0.500000  0.753150  0.919528  1
  B  B16  1  0.500000  0.791538  0.267043  1
  B  B17  1  0.500000  0.208793  0.734608  1
  B  B18  1  0.500000  0.294961  0.235147  1
  B  B19  1  0.500000  0.708162  0.765590  1
  B  B20  1  0.500000  0.632863  0.184614  1
  B  B21  1  0.500000  0.368393  0.815687  1
  B  B22  1  0.500000  0.132309  0.316515  1
  B  B23  1  0.500000  0.867070  0.685172  1
  B  B24  1  0.500000  0.979724  0.213950  1
  B  B25  1  0.500000  0.016157  0.786768  1
  B  B26  1  0.500000  0.482444  0.287289  1
  B  B27  1  0.500000  0.517749  0.712697  1
  B  B28  1  0.500000  0.610562  0.029875  1
  B  B29  1  0.500000  0.392367  0.968171  1
  B  B30  1  0.500000  0.109243  0.471884  1
  B  B31  1  0.500000  0.889646  0.531039  1
  Ir  Ir32  1  0.000000  0.637389  0.322469  1
  Ir  Ir33  1  0.000000  0.363014  0.678179  1
  Ru  Ru34  1  0.000000  0.860832  0.819766  1
  W  W35  1  0.000000  0.137720  0.179314  1
