# generated using pymatgen
data_Hf3Pa2FeSb3
_symmetry_space_group_name_H-M   'P 1'
_cell_length_a   8.92525921
_cell_length_b   8.92525926
_cell_length_c   5.89295600
_cell_angle_alpha   90.00000000
_cell_angle_beta   90.00000000
_cell_angle_gamma   121.63298605
_symmetry_Int_Tables_number   1
_chemical_formula_structural   Hf3Pa2FeSb3
_chemical_formula_sum   'Hf6 Pa4 Fe2 Sb6'
_cell_volume   399.68821127
_cell_formula_units_Z   2
loop_
 _symmetry_equiv_pos_site_id
 _symmetry_equiv_pos_as_xyz
  1  'x, y, z'
loop_
 _atom_site_type_symbol
 _atom_site_label
 _atom_site_symmetry_multiplicity
 _atom_site_fract_x
 _atom_site_fract_y
 _atom_site_fract_z
 _atom_site_occupancy
  Hf  Hf0  1  0.742243  0.009508  0.250000  1
  Hf  Hf1  1  0.009508  0.742243  0.250000  1
  Hf  Hf2  1  0.665032  0.335760  0.999904  1
  Hf  Hf3  1  0.335760  0.665032  0.999904  1
  Hf  Hf4  1  0.335760  0.665032  0.500096  1
  Hf  Hf5  1  0.665032  0.335760  0.500096  1
  Pa  Pa6  1  0.770103  0.770103  0.750000  1
  Pa  Pa7  1  0.247638  0.002014  0.750000  1
  Pa  Pa8  1  0.002014  0.247638  0.750000  1
  Pa  Pa9  1  0.226248  0.226248  0.250000  1
  Fe  Fe10  1  0.994681  0.994681  0.014613  1
  Fe  Fe11  1  0.994681  0.994681  0.485387  1
  Sb  Sb12  1  0.405127  0.405127  0.750000  1
  Sb  Sb13  1  0.600367  0.001171  0.750000  1
  Sb  Sb14  1  0.001171  0.600367  0.750000  1
  Sb  Sb15  1  0.613633  0.613633  0.250000  1
  Sb  Sb16  1  0.396703  0.994296  0.250000  1
  Sb  Sb17  1  0.994296  0.396703  0.250000  1
