# generated using pymatgen
data_Pr4ErTm3(Si3Rh)4
_symmetry_space_group_name_H-M   'P 1'
_cell_length_a   8.23867100
_cell_length_b   8.24110880
_cell_length_c   8.10665300
_cell_angle_alpha   90.00000000
_cell_angle_beta   90.00000000
_cell_angle_gamma   119.99000889
_symmetry_Int_Tables_number   1
_chemical_formula_structural   Pr4ErTm3(Si3Rh)4
_chemical_formula_sum   'Pr4 Er1 Tm3 Si12 Rh4'
_cell_volume   476.71491298
_cell_formula_units_Z   1
loop_
 _symmetry_equiv_pos_site_id
 _symmetry_equiv_pos_as_xyz
  1  'x, y, z'
loop_
 _atom_site_type_symbol
 _atom_site_label
 _atom_site_symmetry_multiplicity
 _atom_site_fract_x
 _atom_site_fract_y
 _atom_site_fract_z
 _atom_site_occupancy
  Pr  Pr0  1  0.000032  0.000048  0.250000  1
  Pr  Pr1  1  0.498835  0.501145  0.250000  1
  Pr  Pr2  1  0.499051  0.998065  0.250000  1
  Pr  Pr3  1  0.002290  0.501155  0.250000  1
  Er  Er4  1  0.502880  0.005772  0.750000  1
  Tm  Tm5  1  0.999987  0.999976  0.750000  1
  Tm  Tm6  1  0.503013  0.497031  0.750000  1
  Tm  Tm7  1  0.994010  0.497025  0.750000  1
  Si  Si8  1  0.834111  0.165950  0.509789  1
  Si  Si9  1  0.834100  0.668219  0.509953  1
  Si  Si10  1  0.331820  0.165953  0.509793  1
  Si  Si11  1  0.834111  0.165950  0.990211  1
  Si  Si12  1  0.834100  0.668219  0.990047  1
  Si  Si13  1  0.331820  0.165953  0.990207  1
  Si  Si14  1  0.166974  0.832938  0.988012  1
  Si  Si15  1  0.665988  0.832935  0.988016  1
  Si  Si16  1  0.166976  0.333935  0.987831  1
  Si  Si17  1  0.166974  0.832938  0.511988  1
  Si  Si18  1  0.665988  0.832935  0.511984  1
  Si  Si19  1  0.166976  0.333935  0.512169  1
  Rh  Rh20  1  0.666902  0.333793  0.528226  1
  Rh  Rh21  1  0.666902  0.333793  0.971774  1
  Rh  Rh22  1  0.333079  0.666168  0.956715  1
  Rh  Rh23  1  0.333079  0.666168  0.543285  1
