# generated using pymatgen
data_K9Ac(PS4)4
_symmetry_space_group_name_H-M   'P 1'
_cell_length_a   9.09294000
_cell_length_b   9.79623500
_cell_length_c   18.60766700
_cell_angle_alpha   90.00000000
_cell_angle_beta   90.00000000
_cell_angle_gamma   90.00000000
_symmetry_Int_Tables_number   1
_chemical_formula_structural   K9Ac(PS4)4
_chemical_formula_sum   'K18 Ac2 P8 S32'
_cell_volume   1657.50728382
_cell_formula_units_Z   2
loop_
 _symmetry_equiv_pos_site_id
 _symmetry_equiv_pos_as_xyz
  1  'x, y, z'
loop_
 _atom_site_type_symbol
 _atom_site_label
 _atom_site_symmetry_multiplicity
 _atom_site_fract_x
 _atom_site_fract_y
 _atom_site_fract_z
 _atom_site_occupancy
  K  K0  1  0.129216  0.993515  0.579578  1
  K  K1  1  0.129143  0.480257  0.416052  1
  K  K2  1  0.478753  0.245437  0.733039  1
  K  K3  1  0.503630  0.749439  0.251057  1
  K  K4  1  0.500000  0.243228  0.500000  1
  K  K5  1  0.629143  0.519743  0.083948  1
  K  K6  1  0.370784  0.006485  0.079578  1
  K  K7  1  0.870784  0.993515  0.420422  1
  K  K8  1  0.003630  0.250561  0.248943  1
  K  K9  1  0.996370  0.250561  0.751057  1
  K  K10  1  0.496370  0.749439  0.748943  1
  K  K11  1  0.370857  0.519743  0.916052  1
  K  K12  1  0.000000  0.756772  0.000000  1
  K  K13  1  0.629216  0.006485  0.920422  1
  K  K14  1  0.021247  0.754563  0.233039  1
  K  K15  1  0.978753  0.754563  0.766961  1
  K  K16  1  0.521247  0.245437  0.266961  1
  K  K17  1  0.870857  0.480257  0.583948  1
  Ac  Ac18  1  0.500000  0.742663  0.500000  1
  Ac  Ac19  1  0.000000  0.257337  0.000000  1
  P  P20  1  0.784744  0.497699  0.874034  1
  P  P21  1  0.707546  0.987511  0.632015  1
  P  P22  1  0.715256  0.502301  0.374034  1
  P  P23  1  0.284744  0.502301  0.625966  1
  P  P24  1  0.207546  0.012489  0.867985  1
  P  P25  1  0.292454  0.987511  0.367985  1
  P  P26  1  0.792454  0.012489  0.132015  1
  P  P27  1  0.215256  0.497699  0.125966  1
  S  S28  1  0.762414  0.003697  0.240623  1
  S  S29  1  0.308045  0.850050  0.916184  1
  S  S30  1  0.798304  0.661703  0.434836  1
  S  S31  1  0.705826  0.187223  0.086592  1
  S  S32  1  0.794174  0.812777  0.586592  1
  S  S33  1  0.511522  0.509149  0.611468  1
  S  S34  1  0.701696  0.338297  0.934836  1
  S  S35  1  0.988478  0.490851  0.111468  1
  S  S36  1  0.695817  0.673074  0.914264  1
  S  S37  1  0.691955  0.850050  0.083816  1
  S  S38  1  0.765292  0.520078  0.267668  1
  S  S39  1  0.205826  0.812777  0.413408  1
  S  S40  1  0.011522  0.490851  0.888532  1
  S  S41  1  0.265292  0.479922  0.232332  1
  S  S42  1  0.488478  0.509149  0.388532  1
  S  S43  1  0.983611  0.019545  0.890935  1
  S  S44  1  0.262414  0.996303  0.259377  1
  S  S45  1  0.737586  0.996303  0.740623  1
  S  S46  1  0.016389  0.019545  0.109065  1
  S  S47  1  0.804183  0.326926  0.414264  1
  S  S48  1  0.234708  0.520078  0.732332  1
  S  S49  1  0.201696  0.661703  0.565164  1
  S  S50  1  0.294174  0.187223  0.913408  1
  S  S51  1  0.298304  0.338297  0.065164  1
  S  S52  1  0.191955  0.149950  0.416184  1
  S  S53  1  0.304183  0.673074  0.085736  1
  S  S54  1  0.195817  0.326926  0.585736  1
  S  S55  1  0.237586  0.003697  0.759377  1
  S  S56  1  0.734708  0.479922  0.767668  1
  S  S57  1  0.483611  0.980455  0.609065  1
  S  S58  1  0.808045  0.149950  0.583816  1
  S  S59  1  0.516389  0.980455  0.390935  1
