# generated using pymatgen
data_Cs10Ti3Be3Se14
_symmetry_space_group_name_H-M   'P 1'
_cell_length_a   11.22482772
_cell_length_b   11.22482053
_cell_length_c   9.40866756
_cell_angle_alpha   78.92786996
_cell_angle_beta   78.92805521
_cell_angle_gamma   73.22718025
_symmetry_Int_Tables_number   1
_chemical_formula_structural   Cs10Ti3Be3Se14
_chemical_formula_sum   'Cs10 Ti3 Be3 Se14'
_cell_volume   1102.06276007
_cell_formula_units_Z   1
loop_
 _symmetry_equiv_pos_site_id
 _symmetry_equiv_pos_as_xyz
  1  'x, y, z'
loop_
 _atom_site_type_symbol
 _atom_site_label
 _atom_site_symmetry_multiplicity
 _atom_site_fract_x
 _atom_site_fract_y
 _atom_site_fract_z
 _atom_site_occupancy
  Cs  Cs0  1  0.041694  0.418243  0.738256  1
  Cs  Cs1  1  0.418243  0.041693  0.738256  1
  Cs  Cs2  1  0.969406  0.556598  0.262602  1
  Cs  Cs3  1  0.556598  0.969407  0.262602  1
  Cs  Cs4  1  0.285750  0.720542  0.004701  1
  Cs  Cs5  1  0.720542  0.285750  0.004701  1
  Cs  Cs6  1  0.855607  0.152474  0.490025  1
  Cs  Cs7  1  0.152474  0.855607  0.490025  1
  Cs  Cs8  1  0.430591  0.430588  0.695757  1
  Cs  Cs9  1  0.570594  0.570597  0.307898  1
  Ti  Ti10  1  0.930352  0.930352  0.939997  1
  Ti  Ti11  1  0.334213  0.334213  0.322266  1
  Ti  Ti12  1  0.667470  0.667470  0.678895  1
  Be  Be13  1  0.200054  0.200053  0.180568  1
  Be  Be14  1  0.795689  0.795690  0.815091  1
  Be  Be15  1  0.071659  0.071659  0.064019  1
  Se  Se16  1  0.005067  0.267979  0.120616  1
  Se  Se17  1  0.267979  0.005067  0.120616  1
  Se  Se18  1  0.996342  0.720837  0.874155  1
  Se  Se19  1  0.720837  0.996342  0.874155  1
  Se  Se20  1  0.199919  0.199919  0.430499  1
  Se  Se21  1  0.801614  0.801614  0.569929  1
  Se  Se22  1  0.062415  0.062415  0.816933  1
  Se  Se23  1  0.940129  0.940129  0.187722  1
  Se  Se24  1  0.333269  0.333270  0.067013  1
  Se  Se25  1  0.668506  0.668505  0.935256  1
  Se  Se26  1  0.252389  0.541157  0.392866  1
  Se  Se27  1  0.541157  0.252389  0.392866  1
  Se  Se28  1  0.749182  0.460261  0.610857  1
  Se  Se29  1  0.460261  0.749182  0.610857  1
