# generated using pymatgen
data_Cs3KPbI6
_symmetry_space_group_name_H-M   'P 1'
_cell_length_a   10.50623542
_cell_length_b   10.50623566
_cell_length_c   10.50623580
_cell_angle_alpha   91.25276251
_cell_angle_beta   91.25276161
_cell_angle_gamma   91.25276878
_symmetry_Int_Tables_number   1
_chemical_formula_structural   Cs3KPbI6
_chemical_formula_sum   'Cs6 K2 Pb2 I12'
_cell_volume   1158.84474286
_cell_formula_units_Z   2
loop_
 _symmetry_equiv_pos_site_id
 _symmetry_equiv_pos_as_xyz
  1  'x, y, z'
loop_
 _atom_site_type_symbol
 _atom_site_label
 _atom_site_symmetry_multiplicity
 _atom_site_fract_x
 _atom_site_fract_y
 _atom_site_fract_z
 _atom_site_occupancy
  Cs  Cs0  1  0.250000  0.628892  0.871108  1
  Cs  Cs1  1  0.871108  0.250000  0.628892  1
  Cs  Cs2  1  0.628892  0.871108  0.250000  1
  Cs  Cs3  1  0.750000  0.371108  0.128892  1
  Cs  Cs4  1  0.128892  0.750000  0.371108  1
  Cs  Cs5  1  0.371108  0.128892  0.750000  1
  K  K6  1  0.250000  0.250000  0.250000  1
  K  K7  1  0.750000  0.750000  0.750000  1
  Pb  Pb8  1  0.000000  0.000000  0.000000  1
  Pb  Pb9  1  0.500000  0.500000  0.500000  1
  I  I10  1  0.548517  0.202394  0.418812  1
  I  I11  1  0.418812  0.548517  0.202394  1
  I  I12  1  0.202394  0.418812  0.548517  1
  I  I13  1  0.951483  0.081188  0.297606  1
  I  I14  1  0.297606  0.951483  0.081188  1
  I  I15  1  0.081188  0.297606  0.951483  1
  I  I16  1  0.451483  0.797606  0.581188  1
  I  I17  1  0.581188  0.451483  0.797606  1
  I  I18  1  0.797606  0.581188  0.451483  1
  I  I19  1  0.048517  0.918812  0.702394  1
  I  I20  1  0.918812  0.702394  0.048517  1
  I  I21  1  0.702394  0.048517  0.918812  1
