# generated using pymatgen
data_Mg2Nb3P7Rh9
_symmetry_space_group_name_H-M   'P 1'
_cell_length_a   3.85456700
_cell_length_b   9.64865345
_cell_length_c   9.64865300
_cell_angle_alpha   119.99998816
_cell_angle_beta   90.00000000
_cell_angle_gamma   90.00000000
_symmetry_Int_Tables_number   1
_chemical_formula_structural   Mg2Nb3P7Rh9
_chemical_formula_sum   'Mg2 Nb3 P7 Rh9'
_cell_volume   310.77042284
_cell_formula_units_Z   1
loop_
 _symmetry_equiv_pos_site_id
 _symmetry_equiv_pos_as_xyz
  1  'x, y, z'
loop_
 _atom_site_type_symbol
 _atom_site_label
 _atom_site_symmetry_multiplicity
 _atom_site_fract_x
 _atom_site_fract_y
 _atom_site_fract_z
 _atom_site_occupancy
  Mg  Mg0  1  0.000000  0.666667  0.333333  1
  Mg  Mg1  1  0.500000  0.333333  0.666667  1
  Nb  Nb2  1  0.500000  0.776072  0.903974  1
  Nb  Nb3  1  0.500000  0.127902  0.223928  1
  Nb  Nb4  1  0.500000  0.096026  0.872098  1
  P  P5  1  0.500000  0.711964  0.126466  1
  P  P6  1  0.500000  0.414502  0.288036  1
  P  P7  1  0.500000  0.873534  0.585498  1
  P  P8  1  0.000000  0.000000  0.000000  1
  P  P9  1  0.000000  0.583859  0.700242  1
  P  P10  1  0.000000  0.116383  0.416141  1
  P  P11  1  0.000000  0.299758  0.883617  1
  Rh  Rh12  1  0.000000  0.556145  0.922962  1
  Rh  Rh13  1  0.000000  0.366817  0.443855  1
  Rh  Rh14  1  0.000000  0.077038  0.633183  1
  Rh  Rh15  1  0.500000  0.941759  0.388705  1
  Rh  Rh16  1  0.500000  0.446945  0.058241  1
  Rh  Rh17  1  0.500000  0.611295  0.553055  1
  Rh  Rh18  1  0.000000  0.882168  0.158799  1
  Rh  Rh19  1  0.000000  0.276631  0.117832  1
  Rh  Rh20  1  0.000000  0.841201  0.723369  1
