# generated using pymatgen
data_Tb3Pa(Pt2Pb)2
_symmetry_space_group_name_H-M   'P 1'
_cell_length_a   8.00510648
_cell_length_b   8.00510566
_cell_length_c   7.21541000
_cell_angle_alpha   90.00000000
_cell_angle_beta   90.00000000
_cell_angle_gamma   91.71390011
_symmetry_Int_Tables_number   1
_chemical_formula_structural   Tb3Pa(Pt2Pb)2
_chemical_formula_sum   'Tb6 Pa2 Pt8 Pb4'
_cell_volume   462.16905456
_cell_formula_units_Z   2
loop_
 _symmetry_equiv_pos_site_id
 _symmetry_equiv_pos_as_xyz
  1  'x, y, z'
loop_
 _atom_site_type_symbol
 _atom_site_label
 _atom_site_symmetry_multiplicity
 _atom_site_fract_x
 _atom_site_fract_y
 _atom_site_fract_z
 _atom_site_occupancy
  Tb  Tb0  1  0.665573  0.665573  0.000000  1
  Tb  Tb1  1  0.834329  0.165671  0.500000  1
  Tb  Tb2  1  0.334427  0.334427  0.000000  1
  Tb  Tb3  1  0.165671  0.834329  0.500000  1
  Tb  Tb4  1  0.831826  0.168174  0.000000  1
  Tb  Tb5  1  0.168174  0.831826  0.000000  1
  Pa  Pa6  1  0.328619  0.328619  0.500000  1
  Pa  Pa7  1  0.671381  0.671381  0.500000  1
  Pt  Pt8  1  0.868570  0.868570  0.744787  1
  Pt  Pt9  1  0.131430  0.131430  0.744787  1
  Pt  Pt10  1  0.624608  0.375392  0.734090  1
  Pt  Pt11  1  0.624608  0.375392  0.265910  1
  Pt  Pt12  1  0.375392  0.624608  0.265910  1
  Pt  Pt13  1  0.131430  0.131430  0.255213  1
  Pt  Pt14  1  0.868570  0.868570  0.255213  1
  Pt  Pt15  1  0.375392  0.624608  0.734090  1
  Pb  Pb16  1  0.500000  0.000000  0.755041  1
  Pb  Pb17  1  0.500000  0.000000  0.244959  1
  Pb  Pb18  1  0.000000  0.500000  0.755041  1
  Pb  Pb19  1  0.000000  0.500000  0.244959  1
