# generated using pymatgen
data_Y18Th2Si15Pd
_symmetry_space_group_name_H-M   'P 1'
_cell_length_a   7.44609044
_cell_length_b   7.76699771
_cell_length_c   14.69350251
_cell_angle_alpha   89.67448473
_cell_angle_beta   89.87847578
_cell_angle_gamma   89.84464294
_symmetry_Int_Tables_number   1
_chemical_formula_structural   Y18Th2Si15Pd
_chemical_formula_sum   'Y18 Th2 Si15 Pd1'
_cell_volume   849.76188369
_cell_formula_units_Z   1
loop_
 _symmetry_equiv_pos_site_id
 _symmetry_equiv_pos_as_xyz
  1  'x, y, z'
loop_
 _atom_site_type_symbol
 _atom_site_label
 _atom_site_symmetry_multiplicity
 _atom_site_fract_x
 _atom_site_fract_y
 _atom_site_fract_z
 _atom_site_occupancy
  Y  Y0  1  0.812430  0.575322  0.874252  1
  Y  Y1  1  0.316449  0.423054  0.126457  1
  Y  Y2  1  0.182792  0.928262  0.373380  1
  Y  Y3  1  0.683260  0.069855  0.627104  1
  Y  Y4  1  0.181128  0.928381  0.627838  1
  Y  Y5  1  0.681351  0.071607  0.371772  1
  Y  Y6  1  0.815131  0.572223  0.126899  1
  Y  Y7  1  0.318056  0.426518  0.872411  1
  Y  Y8  1  0.643487  0.231396  0.998844  1
  Y  Y9  1  0.154533  0.759445  0.000998  1
  Y  Y10  1  0.351980  0.261559  0.499755  1
  Y  Y11  1  0.850562  0.737950  0.500249  1
  Y  Y12  1  0.474642  0.934241  0.844636  1
  Y  Y13  1  0.972902  0.066130  0.152863  1
  Y  Y14  1  0.475216  0.933064  0.156055  1
  Y  Y15  1  0.974284  0.069532  0.846453  1
  Y  Y16  1  0.526591  0.565224  0.651880  1
  Y  Y17  1  0.027373  0.434594  0.348147  1
  Th  Th18  1  0.523912  0.568462  0.344718  1
  Th  Th19  1  0.024005  0.429754  0.654201  1
  Si  Si20  1  0.019173  0.350948  0.000664  1
  Si  Si21  1  0.478081  0.854856  0.499781  1
  Si  Si22  1  0.978177  0.145238  0.500156  1
  Si  Si23  1  0.652916  0.278201  0.789601  1
  Si  Si24  1  0.153902  0.720202  0.210385  1
  Si  Si25  1  0.352017  0.221205  0.290294  1
  Si  Si26  1  0.852375  0.778813  0.710972  1
  Si  Si27  1  0.356753  0.221890  0.709038  1
  Si  Si28  1  0.857001  0.778617  0.289552  1
  Si  Si29  1  0.645555  0.273414  0.207587  1
  Si  Si30  1  0.147015  0.724650  0.792151  1
  Si  Si31  1  0.773389  0.881045  0.001248  1
  Si  Si32  1  0.259274  0.124478  0.999357  1
  Si  Si33  1  0.232594  0.622955  0.502146  1
  Si  Si34  1  0.732154  0.378159  0.498022  1
  Pd  Pd35  1  0.519540  0.658754  0.000132  1
