# generated using pymatgen
data_Li2LaThAs4
_symmetry_space_group_name_H-M   'P 1'
_cell_length_a   4.06910600
_cell_length_b   4.06910600
_cell_length_c   10.48096800
_cell_angle_alpha   90.00000000
_cell_angle_beta   90.00000000
_cell_angle_gamma   90.00000000
_symmetry_Int_Tables_number   1
_chemical_formula_structural   Li2LaThAs4
_chemical_formula_sum   'Li2 La1 Th1 As4'
_cell_volume   173.53992352
_cell_formula_units_Z   1
loop_
 _symmetry_equiv_pos_site_id
 _symmetry_equiv_pos_as_xyz
  1  'x, y, z'
loop_
 _atom_site_type_symbol
 _atom_site_label
 _atom_site_symmetry_multiplicity
 _atom_site_fract_x
 _atom_site_fract_y
 _atom_site_fract_z
 _atom_site_occupancy
  Li  Li0  1  0.000000  0.000000  0.999315  1
  Li  Li1  1  0.500000  0.500000  0.999315  1
  La  La2  1  0.500000  0.000000  0.726602  1
  Th  Th3  1  0.000000  0.500000  0.275129  1
  As  As4  1  0.000000  0.500000  0.847020  1
  As  As5  1  0.500000  0.000000  0.165385  1
  As  As6  1  0.000000  0.000000  0.493617  1
  As  As7  1  0.500000  0.500000  0.493617  1
