# generated using pymatgen
data_Y3Tm(In2Cl5)4
_symmetry_space_group_name_H-M   'P 1'
_cell_length_a   8.20802147
_cell_length_b   8.62511400
_cell_length_c   12.97051300
_cell_angle_alpha   90.00000000
_cell_angle_beta   90.20487001
_cell_angle_gamma   90.00000000
_symmetry_Int_Tables_number   1
_chemical_formula_structural   Y3Tm(In2Cl5)4
_chemical_formula_sum   'Y3 Tm1 In8 Cl20'
_cell_volume   918.24316595
_cell_formula_units_Z   1
loop_
 _symmetry_equiv_pos_site_id
 _symmetry_equiv_pos_as_xyz
  1  'x, y, z'
loop_
 _atom_site_type_symbol
 _atom_site_label
 _atom_site_symmetry_multiplicity
 _atom_site_fract_x
 _atom_site_fract_y
 _atom_site_fract_z
 _atom_site_occupancy
  Y  Y0  1  0.928541  0.750000  0.504195  1
  Y  Y1  1  0.571734  0.750000  0.004255  1
  Y  Y2  1  0.071933  0.250000  0.495865  1
  Tm  Tm3  1  0.427910  0.250000  0.995876  1
  In  In4  1  0.941023  0.007506  0.828806  1
  In  In5  1  0.058644  0.992662  0.171129  1
  In  In6  1  0.558332  0.492922  0.329670  1
  In  In7  1  0.058644  0.507338  0.171129  1
  In  In8  1  0.941023  0.492494  0.828806  1
  In  In9  1  0.441703  0.506983  0.670341  1
  In  In10  1  0.558332  0.007078  0.329670  1
  In  In11  1  0.441703  0.993017  0.670341  1
  Cl  Cl12  1  0.594449  0.750000  0.508533  1
  Cl  Cl13  1  0.163563  0.955115  0.433241  1
  Cl  Cl14  1  0.836947  0.044915  0.566610  1
  Cl  Cl15  1  0.338095  0.541026  0.932825  1
  Cl  Cl16  1  0.163563  0.544885  0.433241  1
  Cl  Cl17  1  0.349716  0.250000  0.193546  1
  Cl  Cl18  1  0.338095  0.958974  0.932825  1
  Cl  Cl19  1  0.836947  0.455085  0.566610  1
  Cl  Cl20  1  0.401681  0.750000  0.180472  1
  Cl  Cl21  1  0.660267  0.046824  0.066913  1
  Cl  Cl22  1  0.152235  0.250000  0.696911  1
  Cl  Cl23  1  0.596154  0.250000  0.822513  1
  Cl  Cl24  1  0.406102  0.250000  0.491789  1
  Cl  Cl25  1  0.098939  0.750000  0.680986  1
  Cl  Cl26  1  0.660267  0.453176  0.066913  1
  Cl  Cl27  1  0.097195  0.250000  0.991844  1
  Cl  Cl28  1  0.905969  0.750000  0.008517  1
  Cl  Cl29  1  0.847556  0.750000  0.303160  1
  Cl  Cl30  1  0.651384  0.750000  0.803353  1
  Cl  Cl31  1  0.901366  0.250000  0.319112  1
