# generated using pymatgen
data_NaPr5NdCoBr12
_symmetry_space_group_name_H-M   'P 1'
_cell_length_a   9.49711432
_cell_length_b   9.63298196
_cell_length_c   9.48741870
_cell_angle_alpha   107.35847509
_cell_angle_beta   106.96779188
_cell_angle_gamma   107.11709826
_symmetry_Int_Tables_number   1
_chemical_formula_structural   NaPr5NdCoBr12
_chemical_formula_sum   'Na1 Pr5 Nd1 Co1 Br12'
_cell_volume   719.90605418
_cell_formula_units_Z   1
loop_
 _symmetry_equiv_pos_site_id
 _symmetry_equiv_pos_as_xyz
  1  'x, y, z'
loop_
 _atom_site_type_symbol
 _atom_site_label
 _atom_site_symmetry_multiplicity
 _atom_site_fract_x
 _atom_site_fract_y
 _atom_site_fract_z
 _atom_site_occupancy
  Na  Na0  1  0.499970  0.500078  0.499929  1
  Pr  Pr1  1  0.311245  0.030063  0.107294  1
  Pr  Pr2  1  0.030199  0.107575  0.312653  1
  Pr  Pr3  1  0.970097  0.893293  0.687655  1
  Pr  Pr4  1  0.688866  0.970032  0.892723  1
  Pr  Pr5  1  0.886408  0.673354  0.968280  1
  Nd  Nd6  1  0.113175  0.325056  0.031760  1
  Co  Co7  1  0.000193  0.000331  0.000244  1
  Br  Br8  1  0.222023  0.684891  0.073540  1
  Br  Br9  1  0.451752  0.371612  0.152855  1
  Br  Br10  1  0.684079  0.073740  0.222226  1
  Br  Br11  1  0.926955  0.780844  0.316436  1
  Br  Br12  1  0.153338  0.452258  0.372152  1
  Br  Br13  1  0.374961  0.155764  0.456464  1
  Br  Br14  1  0.625065  0.844349  0.543623  1
  Br  Br15  1  0.846396  0.547607  0.625544  1
  Br  Br16  1  0.073644  0.220516  0.685862  1
  Br  Br17  1  0.315976  0.926374  0.777836  1
  Br  Br18  1  0.545760  0.628465  0.846134  1
  Br  Br19  1  0.779902  0.313802  0.926793  1
