# generated using pymatgen
data_Ba8Li4Si11P
_symmetry_space_group_name_H-M   'P 1'
_cell_length_a   12.37189849
_cell_length_b   10.69266648
_cell_length_c   8.72336040
_cell_angle_alpha   78.42658884
_cell_angle_beta   57.84492720
_cell_angle_gamma   43.95153095
_symmetry_Int_Tables_number   1
_chemical_formula_structural   Ba8Li4Si11P
_chemical_formula_sum   'Ba8 Li4 Si11 P1'
_cell_volume   644.53230580
_cell_formula_units_Z   1
loop_
 _symmetry_equiv_pos_site_id
 _symmetry_equiv_pos_as_xyz
  1  'x, y, z'
loop_
 _atom_site_type_symbol
 _atom_site_label
 _atom_site_symmetry_multiplicity
 _atom_site_fract_x
 _atom_site_fract_y
 _atom_site_fract_z
 _atom_site_occupancy
  Ba  Ba0  1  0.874084  0.876600  0.126059  1
  Ba  Ba1  1  0.124358  0.124840  0.876287  1
  Ba  Ba2  1  0.373125  0.373641  0.128080  1
  Ba  Ba3  1  0.127539  0.126767  0.372494  1
  Ba  Ba4  1  0.626408  0.624541  0.372528  1
  Ba  Ba5  1  0.376080  0.373168  0.622110  1
  Ba  Ba6  1  0.624941  0.625938  0.875590  1
  Ba  Ba7  1  0.874583  0.874217  0.625340  1
  Li  Li8  1  0.167835  0.832082  0.166584  1
  Li  Li9  1  0.831842  0.168220  0.834279  1
  Li  Li10  1  0.082245  0.417053  0.082727  1
  Li  Li11  1  0.417130  0.082237  0.418054  1
  Si  Si12  1  0.821209  0.185982  0.335871  1
  Si  Si13  1  0.188824  0.817603  0.655136  1
  Si  Si14  1  0.338053  0.655711  0.819535  1
  Si  Si15  1  0.591758  0.908545  0.590511  1
  Si  Si16  1  0.908714  0.591877  0.908841  1
  Si  Si17  1  0.656232  0.343225  0.658071  1
  Si  Si18  1  0.341636  0.657698  0.340308  1
  Si  Si19  1  0.912462  0.594354  0.429496  1
  Si  Si20  1  0.063344  0.429426  0.594399  1
  Si  Si21  1  0.429674  0.063376  0.912330  1
  Si  Si22  1  0.594673  0.912784  0.063317  1
  P  P23  1  0.653251  0.340114  0.192054  1
