# generated using pymatgen
data_SrLa6CoI12
_symmetry_space_group_name_H-M   'P 1'
_cell_length_a   10.17002683
_cell_length_b   10.17002768
_cell_length_c   10.17002791
_cell_angle_alpha   106.44783552
_cell_angle_beta   106.44783470
_cell_angle_gamma   106.44783866
_symmetry_Int_Tables_number   1
_chemical_formula_structural   SrLa6CoI12
_chemical_formula_sum   'Sr1 La6 Co1 I12'
_cell_volume   888.88101103
_cell_formula_units_Z   1
loop_
 _symmetry_equiv_pos_site_id
 _symmetry_equiv_pos_as_xyz
  1  'x, y, z'
loop_
 _atom_site_type_symbol
 _atom_site_label
 _atom_site_symmetry_multiplicity
 _atom_site_fract_x
 _atom_site_fract_y
 _atom_site_fract_z
 _atom_site_occupancy
  Sr  Sr0  1  0.996016  0.996016  0.996016  1
  La  La1  1  0.520120  0.595504  0.797412  1
  La  La2  1  0.797412  0.520120  0.595504  1
  La  La3  1  0.595504  0.797412  0.520120  1
  La  La4  1  0.478340  0.402751  0.201343  1
  La  La5  1  0.201343  0.478340  0.402751  1
  La  La6  1  0.402751  0.201343  0.478340  1
  Co  Co7  1  0.499450  0.499450  0.499450  1
  I  I8  1  0.275430  0.822043  0.426192  1
  I  I9  1  0.426192  0.275430  0.822043  1
  I  I10  1  0.822043  0.426192  0.275430  1
  I  I11  1  0.723163  0.176740  0.572383  1
  I  I12  1  0.572383  0.723163  0.176740  1
  I  I13  1  0.176740  0.572383  0.723163  1
  I  I14  1  0.044724  0.124319  0.349444  1
  I  I15  1  0.349444  0.044724  0.124319  1
  I  I16  1  0.124319  0.349444  0.044724  1
  I  I17  1  0.953064  0.872970  0.643958  1
  I  I18  1  0.643958  0.953064  0.872970  1
  I  I19  1  0.872970  0.643958  0.953064  1
