# generated using pymatgen
data_La2Co10P7W2
_symmetry_space_group_name_H-M   'P 1'
_cell_length_a   9.14773785
_cell_length_b   9.16250340
_cell_length_c   3.74872900
_cell_angle_alpha   90.00000000
_cell_angle_beta   90.00000000
_cell_angle_gamma   119.83541069
_symmetry_Int_Tables_number   1
_chemical_formula_structural   La2Co10P7W2
_chemical_formula_sum   'La2 Co10 P7 W2'
_cell_volume   272.55894074
_cell_formula_units_Z   1
loop_
 _symmetry_equiv_pos_site_id
 _symmetry_equiv_pos_as_xyz
  1  'x, y, z'
loop_
 _atom_site_type_symbol
 _atom_site_label
 _atom_site_symmetry_multiplicity
 _atom_site_fract_x
 _atom_site_fract_y
 _atom_site_fract_z
 _atom_site_occupancy
  La  La0  1  0.667826  0.335532  0.500000  1
  La  La1  1  0.336496  0.666666  0.000000  1
  Co  Co2  1  0.727015  0.878041  0.000000  1
  Co  Co3  1  0.938981  0.368178  0.000000  1
  Co  Co4  1  0.154596  0.277353  0.000000  1
  Co  Co5  1  0.383196  0.434207  0.500000  1
  Co  Co6  1  0.119099  0.844312  0.000000  1
  Co  Co7  1  0.429040  0.059773  0.000000  1
  Co  Co8  1  0.047131  0.618577  0.500000  1
  Co  Co9  1  0.568406  0.948134  0.500000  1
  Co  Co10  1  0.630462  0.570322  0.000000  1
  Co  Co11  1  0.877610  0.782494  0.500000  1
  P  P12  1  0.406660  0.302648  0.000000  1
  P  P13  1  0.292076  0.889187  0.500000  1
  P  P14  1  0.695034  0.102757  0.000000  1
  P  P15  1  0.603904  0.707289  0.500000  1
  P  P16  1  0.896220  0.595162  0.000000  1
  P  P17  1  0.108832  0.405845  0.500000  1
  P  P18  1  0.999858  0.996422  0.000000  1
  W  W19  1  0.215029  0.099658  0.500000  1
  W  W20  1  0.902529  0.117440  0.500000  1
