# generated using pymatgen
data_V4SbWO12
_symmetry_space_group_name_H-M   'P 1'
_cell_length_a   4.65883743
_cell_length_b   4.65883107
_cell_length_c   9.27583101
_cell_angle_alpha   90.00385916
_cell_angle_beta   89.99604711
_cell_angle_gamma   89.37973187
_symmetry_Int_Tables_number   1
_chemical_formula_structural   V4SbWO12
_chemical_formula_sum   'V4 Sb1 W1 O12'
_cell_volume   201.31767040
_cell_formula_units_Z   1
loop_
 _symmetry_equiv_pos_site_id
 _symmetry_equiv_pos_as_xyz
  1  'x, y, z'
loop_
 _atom_site_type_symbol
 _atom_site_label
 _atom_site_symmetry_multiplicity
 _atom_site_fract_x
 _atom_site_fract_y
 _atom_site_fract_z
 _atom_site_occupancy
  V  V0  1  0.500010  0.499989  0.165354  1
  V  V1  1  0.000014  0.999985  0.333700  1
  V  V2  1  0.999999  0.000001  0.665785  1
  V  V3  1  0.499995  0.500005  0.834200  1
  Sb  Sb4  1  0.999990  0.000009  0.999933  1
  W  W5  1  0.499988  0.500011  0.497981  1
  O  O6  1  0.306364  0.306361  0.993448  1
  O  O7  1  0.204019  0.795979  0.501977  1
  O  O8  1  0.795998  0.204000  0.501958  1
  O  O9  1  0.693638  0.693635  0.993448  1
  O  O10  1  0.691778  0.691777  0.663162  1
  O  O11  1  0.308223  0.308220  0.663161  1
  O  O12  1  0.696403  0.696409  0.344311  1
  O  O13  1  0.196368  0.803630  0.165488  1
  O  O14  1  0.803605  0.196397  0.165473  1
  O  O15  1  0.797612  0.202388  0.833152  1
  O  O16  1  0.202398  0.797601  0.833157  1
  O  O17  1  0.303592  0.303595  0.344310  1
