# generated using pymatgen
data_Ca6Ni11Sn8Rh5
_symmetry_space_group_name_H-M   'P 1'
_cell_length_a   9.04967285
_cell_length_b   9.04967218
_cell_length_c   7.60364132
_cell_angle_alpha   89.77235784
_cell_angle_beta   90.22764060
_cell_angle_gamma   119.71854388
_symmetry_Int_Tables_number   1
_chemical_formula_structural   Ca6Ni11Sn8Rh5
_chemical_formula_sum   'Ca6 Ni11 Sn8 Rh5'
_cell_volume   540.80181835
_cell_formula_units_Z   1
loop_
 _symmetry_equiv_pos_site_id
 _symmetry_equiv_pos_as_xyz
  1  'x, y, z'
loop_
 _atom_site_type_symbol
 _atom_site_label
 _atom_site_symmetry_multiplicity
 _atom_site_fract_x
 _atom_site_fract_y
 _atom_site_fract_z
 _atom_site_occupancy
  Ca  Ca0  1  0.473730  0.945282  0.504349  1
  Ca  Ca1  1  0.054718  0.526270  0.504349  1
  Ca  Ca2  1  0.471450  0.528550  0.500270  1
  Ca  Ca3  1  0.527811  0.056606  0.001016  1
  Ca  Ca4  1  0.943394  0.472189  0.001016  1
  Ca  Ca5  1  0.525776  0.474224  0.004732  1
  Ni  Ni6  1  0.159966  0.840034  0.171265  1
  Ni  Ni7  1  0.905175  0.802203  0.983845  1
  Ni  Ni8  1  0.197797  0.094825  0.983845  1
  Ni  Ni9  1  0.901569  0.098431  0.980278  1
  Ni  Ni10  1  0.099169  0.196803  0.481187  1
  Ni  Ni11  1  0.803197  0.900831  0.481187  1
  Ni  Ni12  1  0.101423  0.898577  0.479820  1
  Ni  Ni13  1  0.666762  0.333238  0.322811  1
  Ni  Ni14  1  0.335683  0.664317  0.826895  1
  Ni  Ni15  1  0.001047  0.998953  0.230147  1
  Ni  Ni16  1  0.001211  0.998789  0.729467  1
  Sn  Sn17  1  0.831673  0.663537  0.297982  1
  Sn  Sn18  1  0.336463  0.168327  0.297982  1
  Sn  Sn19  1  0.831965  0.168035  0.297065  1
  Sn  Sn20  1  0.169099  0.335605  0.799018  1
  Sn  Sn21  1  0.664395  0.830901  0.799018  1
  Sn  Sn22  1  0.170410  0.829590  0.803065  1
  Sn  Sn23  1  0.665950  0.334050  0.674351  1
  Sn  Sn24  1  0.326741  0.673259  0.175488  1
  Rh  Rh25  1  0.837291  0.668880  0.667820  1
  Rh  Rh26  1  0.331120  0.162709  0.667820  1
  Rh  Rh27  1  0.834222  0.165778  0.666083  1
  Rh  Rh28  1  0.166025  0.335233  0.166634  1
  Rh  Rh29  1  0.664767  0.833975  0.166634  1
