# generated using pymatgen
data_Tm3LuZn4Si3Ge
_symmetry_space_group_name_H-M   'P 1'
_cell_length_a   4.16372100
_cell_length_b   4.16372025
_cell_length_c   15.17475300
_cell_angle_alpha   90.00000000
_cell_angle_beta   90.00000000
_cell_angle_gamma   120.00001394
_symmetry_Int_Tables_number   1
_chemical_formula_structural   Tm3LuZn4Si3Ge
_chemical_formula_sum   'Tm3 Lu1 Zn4 Si3 Ge1'
_cell_volume   227.83233675
_cell_formula_units_Z   1
loop_
 _symmetry_equiv_pos_site_id
 _symmetry_equiv_pos_as_xyz
  1  'x, y, z'
loop_
 _atom_site_type_symbol
 _atom_site_label
 _atom_site_symmetry_multiplicity
 _atom_site_fract_x
 _atom_site_fract_y
 _atom_site_fract_z
 _atom_site_occupancy
  Tm  Tm0  1  0.000000  0.000000  0.747605  1
  Tm  Tm1  1  0.000000  0.000000  0.003303  1
  Tm  Tm2  1  0.000000  0.000000  0.498127  1
  Lu  Lu3  1  0.000000  0.000000  0.250362  1
  Zn  Zn4  1  0.333333  0.666667  0.145561  1
  Zn  Zn5  1  0.666667  0.333333  0.853748  1
  Zn  Zn6  1  0.666667  0.333333  0.639491  1
  Zn  Zn7  1  0.333333  0.666667  0.355915  1
  Si  Si8  1  0.333333  0.666667  0.616334  1
  Si  Si9  1  0.666667  0.333333  0.382330  1
  Si  Si10  1  0.666667  0.333333  0.118887  1
  Ge  Ge11  1  0.333333  0.666667  0.888336  1
