# generated using pymatgen
data_La12Tc(PdI4)3
_symmetry_space_group_name_H-M   'P 1'
_cell_length_a   11.15451310
_cell_length_b   11.01057614
_cell_length_c   11.00969671
_cell_angle_alpha   109.15107308
_cell_angle_beta   109.75633465
_cell_angle_gamma   109.77399985
_symmetry_Int_Tables_number   1
_chemical_formula_structural   La12Tc(PdI4)3
_chemical_formula_sum   'La12 Tc1 Pd3 I12'
_cell_volume   1037.42875597
_cell_formula_units_Z   1
loop_
 _symmetry_equiv_pos_site_id
 _symmetry_equiv_pos_as_xyz
  1  'x, y, z'
loop_
 _atom_site_type_symbol
 _atom_site_label
 _atom_site_symmetry_multiplicity
 _atom_site_fract_x
 _atom_site_fract_y
 _atom_site_fract_z
 _atom_site_occupancy
  La  La0  1  0.460473  0.487522  0.224860  1
  La  La1  1  0.749525  0.231433  0.267817  1
  La  La2  1  0.750248  0.019158  0.480727  1
  La  La3  1  0.230358  0.461700  0.480890  1
  La  La4  1  0.264591  0.737598  0.224909  1
  La  La5  1  0.039466  0.275572  0.012279  1
  La  La6  1  0.018484  0.036347  0.267784  1
  La  La7  1  0.472832  0.736652  0.012403  1
  La  La8  1  0.481808  0.232027  0.463968  1
  La  La9  1  0.027223  0.487728  0.763329  1
  La  La10  1  0.269359  0.019260  0.038396  1
  La  La11  1  0.235758  0.275317  0.762911  1
  Tc  Tc12  1  0.250025  0.500000  0.999989  1
  Pd  Pd13  1  0.250099  0.249687  0.250748  1
  Pd  Pd14  1  0.500742  0.001499  0.250827  1
  Pd  Pd15  1  0.999093  0.249181  0.498395  1
  I  I16  1  0.250410  0.760520  0.739968  1
  I  I17  1  0.519019  0.508380  0.758245  1
  I  I18  1  0.980875  0.741327  0.991846  1
  I  I19  1  0.739065  0.249703  0.758073  1
  I  I20  1  0.989523  0.979266  0.739853  1
  I  I21  1  0.249544  0.991865  0.507869  1
  I  I22  1  0.758165  0.515586  0.507776  1
  I  I23  1  0.511015  0.250609  0.991844  1
  I  I24  1  0.760741  0.741640  0.249777  1
  I  I25  1  0.742171  0.992005  0.984274  1
  I  I26  1  0.989152  0.508142  0.249615  1
  I  I27  1  0.510236  0.760279  0.520630  1
