# generated using pymatgen
data_Th8GeSe17
_symmetry_space_group_name_H-M   'P 1'
_cell_length_a   8.51247277
_cell_length_b   8.51247229
_cell_length_c   11.39097589
_cell_angle_alpha   79.87305806
_cell_angle_beta   79.87305927
_cell_angle_gamma   64.45722445
_symmetry_Int_Tables_number   1
_chemical_formula_structural   Th8GeSe17
_chemical_formula_sum   'Th8 Ge1 Se17'
_cell_volume   728.47663831
_cell_formula_units_Z   1
loop_
 _symmetry_equiv_pos_site_id
 _symmetry_equiv_pos_as_xyz
  1  'x, y, z'
loop_
 _atom_site_type_symbol
 _atom_site_label
 _atom_site_symmetry_multiplicity
 _atom_site_fract_x
 _atom_site_fract_y
 _atom_site_fract_z
 _atom_site_occupancy
  Th  Th0  1  0.184663  0.697137  0.702689  1
  Th  Th1  1  0.697137  0.184663  0.702689  1
  Th  Th2  1  0.815337  0.302863  0.297311  1
  Th  Th3  1  0.302863  0.815337  0.297311  1
  Th  Th4  1  0.796142  0.796142  0.457042  1
  Th  Th5  1  0.203858  0.203858  0.542958  1
  Th  Th6  1  0.317139  0.317139  0.020178  1
  Th  Th7  1  0.682861  0.682861  0.979822  1
  Ge  Ge8  1  0.000000  0.000000  0.000000  1
  Se  Se9  1  0.177968  0.568320  0.468806  1
  Se  Se10  1  0.568320  0.177968  0.468806  1
  Se  Se11  1  0.822032  0.431680  0.531194  1
  Se  Se12  1  0.431680  0.822032  0.531194  1
  Se  Se13  1  0.055691  0.670488  0.963235  1
  Se  Se14  1  0.670488  0.055691  0.963235  1
  Se  Se15  1  0.944309  0.329512  0.036765  1
  Se  Se16  1  0.329512  0.944309  0.036765  1
  Se  Se17  1  0.789489  0.789489  0.720557  1
  Se  Se18  1  0.210511  0.210511  0.279443  1
  Se  Se19  1  0.941300  0.941300  0.234150  1
  Se  Se20  1  0.058700  0.058700  0.765850  1
  Se  Se21  1  0.697475  0.697475  0.246820  1
  Se  Se22  1  0.302525  0.302525  0.753180  1
  Se  Se23  1  0.480629  0.480629  0.168561  1
  Se  Se24  1  0.519371  0.519371  0.831439  1
  Se  Se25  1  0.000000  0.000000  0.500000  1
