# generated using pymatgen
data_Sc12Os(PdI8)2
_symmetry_space_group_name_H-M   'P 1'
_cell_length_a   9.09068971
_cell_length_b   11.97524827
_cell_length_c   12.64406400
_cell_angle_alpha   117.47044344
_cell_angle_beta   100.98049874
_cell_angle_gamma   100.63294833
_symmetry_Int_Tables_number   1
_chemical_formula_structural   Sc12Os(PdI8)2
_chemical_formula_sum   'Sc12 Os1 Pd2 I16'
_cell_volume   1138.78485276
_cell_formula_units_Z   1
loop_
 _symmetry_equiv_pos_site_id
 _symmetry_equiv_pos_as_xyz
  1  'x, y, z'
loop_
 _atom_site_type_symbol
 _atom_site_label
 _atom_site_symmetry_multiplicity
 _atom_site_fract_x
 _atom_site_fract_y
 _atom_site_fract_z
 _atom_site_occupancy
  Sc  Sc0  1  0.092807  0.272058  0.360015  1
  Sc  Sc1  1  0.911899  0.733801  0.643633  1
  Sc  Sc2  1  0.778519  0.535887  0.327228  1
  Sc  Sc3  1  0.223282  0.464917  0.668827  1
  Sc  Sc4  1  0.279387  0.728813  0.640530  1
  Sc  Sc5  1  0.720640  0.265402  0.355964  1
  Sc  Sc6  1  0.148996  0.535440  0.332010  1
  Sc  Sc7  1  0.854530  0.463806  0.672112  1
  Sc  Sc8  1  0.401493  0.361411  0.278316  1
  Sc  Sc9  1  0.586561  0.638520  0.721530  1
  Sc  Sc10  1  0.453445  0.311211  0.520056  1
  Sc  Sc11  1  0.535045  0.688739  0.479832  1
  Os  Os12  1  0.339903  0.500186  0.499829  1
  Pd  Pd13  1  0.996995  0.500091  0.500170  1
  Pd  Pd14  1  0.662819  0.499825  0.500155  1
  I  I15  1  0.392202  0.742130  0.886632  1
  I  I16  1  0.608050  0.259666  0.116380  1
  I  I17  1  0.189030  0.966855  0.784888  1
  I  I18  1  0.811066  0.033153  0.215111  1
  I  I19  1  0.341695  0.095020  0.251113  1
  I  I20  1  0.667399  0.905021  0.748949  1
  I  I21  1  0.564023  0.437390  0.798582  1
  I  I22  1  0.444835  0.562391  0.201360  1
  I  I23  1  0.303538  0.829273  0.463224  1
  I  I24  1  0.696124  0.173144  0.536203  1
  I  I25  1  0.161044  0.170402  0.534483  1
  I  I26  1  0.837139  0.827158  0.465779  1
  I  I27  1  0.926332  0.575341  0.158934  1
  I  I28  1  0.073662  0.424767  0.841152  1
  I  I29  1  0.927159  0.738984  0.883253  1
  I  I30  1  0.070383  0.259197  0.113751  1
