# generated using pymatgen
data_Dy6Sc8Al8Ir7
_symmetry_space_group_name_H-M   'P 1'
_cell_length_a   9.26192136
_cell_length_b   9.26192131
_cell_length_c   9.26192100
_cell_angle_alpha   59.99999752
_cell_angle_beta   59.99999771
_cell_angle_gamma   60.00000034
_symmetry_Int_Tables_number   1
_chemical_formula_structural   Dy6Sc8Al8Ir7
_chemical_formula_sum   'Dy6 Sc8 Al8 Ir7'
_cell_volume   561.80840964
_cell_formula_units_Z   1
loop_
 _symmetry_equiv_pos_site_id
 _symmetry_equiv_pos_as_xyz
  1  'x, y, z'
loop_
 _atom_site_type_symbol
 _atom_site_label
 _atom_site_symmetry_multiplicity
 _atom_site_fract_x
 _atom_site_fract_y
 _atom_site_fract_z
 _atom_site_occupancy
  Dy  Dy0  1  0.691024  0.691024  0.308976  1
  Dy  Dy1  1  0.308976  0.691024  0.308976  1
  Dy  Dy2  1  0.691024  0.308976  0.308976  1
  Dy  Dy3  1  0.308976  0.308976  0.691024  1
  Dy  Dy4  1  0.691024  0.308976  0.691024  1
  Dy  Dy5  1  0.308976  0.691024  0.691024  1
  Sc  Sc6  1  0.878494  0.878494  0.364520  1
  Sc  Sc7  1  0.878494  0.364520  0.878494  1
  Sc  Sc8  1  0.364520  0.878494  0.878494  1
  Sc  Sc9  1  0.878494  0.878494  0.878494  1
  Sc  Sc10  1  0.121506  0.121506  0.635480  1
  Sc  Sc11  1  0.121506  0.635480  0.121506  1
  Sc  Sc12  1  0.635480  0.121506  0.121506  1
  Sc  Sc13  1  0.121506  0.121506  0.121506  1
  Al  Al14  1  0.667947  0.667947  0.996159  1
  Al  Al15  1  0.667947  0.996159  0.667947  1
  Al  Al16  1  0.996159  0.667947  0.667947  1
  Al  Al17  1  0.667947  0.667947  0.667947  1
  Al  Al18  1  0.332053  0.332053  0.003841  1
  Al  Al19  1  0.332053  0.003841  0.332053  1
  Al  Al20  1  0.003841  0.332053  0.332053  1
  Al  Al21  1  0.332053  0.332053  0.332053  1
  Ir  Ir22  1  0.000000  0.000000  0.000000  1
  Ir  Ir23  1  0.000000  0.000000  0.500000  1
  Ir  Ir24  1  0.500000  0.000000  0.500000  1
  Ir  Ir25  1  0.000000  0.500000  0.500000  1
  Ir  Ir26  1  0.500000  0.500000  0.000000  1
  Ir  Ir27  1  0.000000  0.500000  0.000000  1
  Ir  Ir28  1  0.500000  0.000000  0.000000  1
