# generated using pymatgen
data_Ba2(RuO3)3
_symmetry_space_group_name_H-M   'P 1'
_cell_length_a   8.15386755
_cell_length_b   8.15386761
_cell_length_c   8.15386700
_cell_angle_alpha   109.47122161
_cell_angle_beta   109.47122175
_cell_angle_gamma   109.47121939
_symmetry_Int_Tables_number   1
_chemical_formula_structural   Ba2(RuO3)3
_chemical_formula_sum   'Ba4 Ru6 O18'
_cell_volume   417.31984404
_cell_formula_units_Z   2
loop_
 _symmetry_equiv_pos_site_id
 _symmetry_equiv_pos_as_xyz
  1  'x, y, z'
loop_
 _atom_site_type_symbol
 _atom_site_label
 _atom_site_symmetry_multiplicity
 _atom_site_fract_x
 _atom_site_fract_y
 _atom_site_fract_z
 _atom_site_occupancy
  Ba  Ba0  1  0.000000  0.000000  0.384382  1
  Ba  Ba1  1  0.000000  0.384382  0.000000  1
  Ba  Ba2  1  0.615618  0.615618  0.615618  1
  Ba  Ba3  1  0.384382  0.000000  0.000000  1
  Ru  Ru4  1  0.364825  0.500000  0.864825  1
  Ru  Ru5  1  0.864825  0.364825  0.500000  1
  Ru  Ru6  1  0.500000  0.135175  0.635175  1
  Ru  Ru7  1  0.135175  0.635175  0.500000  1
  Ru  Ru8  1  0.500000  0.864825  0.364825  1
  Ru  Ru9  1  0.635175  0.500000  0.135175  1
  O  O10  1  0.337018  0.000000  0.337018  1
  O  O11  1  0.337018  0.337018  0.000000  1
  O  O12  1  0.000000  0.662982  0.662982  1
  O  O13  1  0.662982  0.662982  0.000000  1
  O  O14  1  0.000000  0.337018  0.337018  1
  O  O15  1  0.662982  0.000000  0.662982  1
  O  O16  1  0.370308  0.302789  0.646730  1
  O  O17  1  0.067519  0.343942  0.697211  1
  O  O18  1  0.723577  0.353270  0.656058  1
  O  O19  1  0.353270  0.656058  0.723577  1
  O  O20  1  0.276423  0.932481  0.629692  1
  O  O21  1  0.646730  0.370308  0.302789  1
  O  O22  1  0.302789  0.646730  0.370308  1
  O  O23  1  0.697211  0.067519  0.343942  1
  O  O24  1  0.932481  0.629692  0.276423  1
  O  O25  1  0.656058  0.723577  0.353270  1
  O  O26  1  0.629692  0.276423  0.932481  1
  O  O27  1  0.343942  0.697211  0.067519  1
