# generated using pymatgen
data_Ba4Fe2O7
_symmetry_space_group_name_H-M   'P 1'
_cell_length_a   5.87019700
_cell_length_b   7.23681919
_cell_length_c   11.59473458
_cell_angle_alpha   66.27940485
_cell_angle_beta   90.00000000
_cell_angle_gamma   90.00000000
_symmetry_Int_Tables_number   1
_chemical_formula_structural   Ba4Fe2O7
_chemical_formula_sum   'Ba8 Fe4 O14'
_cell_volume   450.94972062
_cell_formula_units_Z   2
loop_
 _symmetry_equiv_pos_site_id
 _symmetry_equiv_pos_as_xyz
  1  'x, y, z'
loop_
 _atom_site_type_symbol
 _atom_site_label
 _atom_site_symmetry_multiplicity
 _atom_site_fract_x
 _atom_site_fract_y
 _atom_site_fract_z
 _atom_site_occupancy
  Ba  Ba0  1  0.751455  0.293653  0.552549  1
  Ba  Ba1  1  0.742564  0.706970  0.199553  1
  Ba  Ba2  1  0.748545  0.293653  0.052549  1
  Ba  Ba3  1  0.242564  0.293030  0.300447  1
  Ba  Ba4  1  0.248545  0.706347  0.447451  1
  Ba  Ba5  1  0.757436  0.706970  0.699553  1
  Ba  Ba6  1  0.257436  0.293030  0.800447  1
  Ba  Ba7  1  0.251455  0.706347  0.947451  1
  Fe  Fe8  1  0.776373  0.999658  0.365185  1
  Fe  Fe9  1  0.223627  0.000342  0.634815  1
  Fe  Fe10  1  0.723627  0.999658  0.865185  1
  Fe  Fe11  1  0.276373  0.000342  0.134815  1
  O  O12  1  0.717084  0.297048  0.316031  1
  O  O13  1  0.725437  0.701679  0.464336  1
  O  O14  1  0.490892  0.997524  0.261645  1
  O  O15  1  0.000000  0.000000  0.500000  1
  O  O16  1  0.500000  0.000000  0.000000  1
  O  O17  1  0.990892  0.002476  0.238355  1
  O  O18  1  0.274563  0.298321  0.535664  1
  O  O19  1  0.509108  0.002476  0.738355  1
  O  O20  1  0.217084  0.702952  0.183969  1
  O  O21  1  0.774563  0.701679  0.964336  1
  O  O22  1  0.782916  0.297048  0.816031  1
  O  O23  1  0.225437  0.298321  0.035664  1
  O  O24  1  0.282916  0.702952  0.683969  1
  O  O25  1  0.009108  0.997524  0.761645  1
