# generated using pymatgen
data_Gd6Ho10Cd4Ru3Pt
_symmetry_space_group_name_H-M   'P 1'
_cell_length_a   9.62792790
_cell_length_b   9.67829428
_cell_length_c   9.67829419
_cell_angle_alpha   59.84534995
_cell_angle_beta   59.68569263
_cell_angle_gamma   59.68569572
_symmetry_Int_Tables_number   1
_chemical_formula_structural   Gd6Ho10Cd4Ru3Pt
_chemical_formula_sum   'Gd6 Ho10 Cd4 Ru3 Pt1'
_cell_volume   633.91429544
_cell_formula_units_Z   1
loop_
 _symmetry_equiv_pos_site_id
 _symmetry_equiv_pos_as_xyz
  1  'x, y, z'
loop_
 _atom_site_type_symbol
 _atom_site_label
 _atom_site_symmetry_multiplicity
 _atom_site_fract_x
 _atom_site_fract_y
 _atom_site_fract_z
 _atom_site_occupancy
  Gd  Gd0  1  0.936950  0.561326  0.561326  1
  Gd  Gd1  1  0.557835  0.938860  0.938860  1
  Gd  Gd2  1  0.557056  0.938979  0.564706  1
  Gd  Gd3  1  0.937498  0.561267  0.939827  1
  Gd  Gd4  1  0.557056  0.564706  0.938979  1
  Gd  Gd5  1  0.937498  0.939827  0.561267  1
  Ho  Ho6  1  0.345683  0.350865  0.350865  1
  Ho  Ho7  1  0.345838  0.350519  0.954017  1
  Ho  Ho8  1  0.345838  0.954017  0.350519  1
  Ho  Ho9  1  0.963127  0.345773  0.345773  1
  Ho  Ho10  1  0.814984  0.189305  0.189305  1
  Ho  Ho11  1  0.186801  0.811511  0.811511  1
  Ho  Ho12  1  0.187701  0.811769  0.188579  1
  Ho  Ho13  1  0.814625  0.189105  0.806089  1
  Ho  Ho14  1  0.187701  0.188579  0.811769  1
  Ho  Ho15  1  0.814625  0.806089  0.189105  1
  Cd  Cd16  1  0.579523  0.579465  0.579465  1
  Cd  Cd17  1  0.580637  0.578946  0.260418  1
  Cd  Cd18  1  0.580637  0.260418  0.578946  1
  Cd  Cd19  1  0.258018  0.580736  0.580736  1
  Ru  Ru20  1  0.144528  0.138321  0.138321  1
  Ru  Ru21  1  0.145140  0.138613  0.578771  1
  Ru  Ru22  1  0.145140  0.578771  0.138613  1
  Pt  Pt23  1  0.575570  0.142229  0.142229  1
