# generated using pymatgen
data_Tb2YbY(Pt2O7)2
_symmetry_space_group_name_H-M   'P 1'
_cell_length_a   7.28355819
_cell_length_b   7.27827569
_cell_length_c   7.29087600
_cell_angle_alpha   59.94271510
_cell_angle_beta   59.96675914
_cell_angle_gamma   59.91515261
_symmetry_Int_Tables_number   1
_chemical_formula_structural   Tb2YbY(Pt2O7)2
_chemical_formula_sum   'Tb2 Yb1 Y1 Pt4 O14'
_cell_volume   272.93575590
_cell_formula_units_Z   1
loop_
 _symmetry_equiv_pos_site_id
 _symmetry_equiv_pos_as_xyz
  1  'x, y, z'
loop_
 _atom_site_type_symbol
 _atom_site_label
 _atom_site_symmetry_multiplicity
 _atom_site_fract_x
 _atom_site_fract_y
 _atom_site_fract_z
 _atom_site_occupancy
  Tb  Tb0  1  0.125000  0.125000  0.625000  1
  Tb  Tb1  1  0.125000  0.125000  0.125000  1
  Yb  Yb2  1  0.125000  0.625000  0.125000  1
  Y  Y3  1  0.625000  0.125000  0.125000  1
  Pt  Pt4  1  0.625000  0.625000  0.625000  1
  Pt  Pt5  1  0.125000  0.625000  0.625000  1
  Pt  Pt6  1  0.625000  0.625000  0.125000  1
  Pt  Pt7  1  0.625000  0.125000  0.625000  1
  O  O8  1  0.288688  0.714868  0.707822  1
  O  O9  1  0.536114  0.964299  0.963660  1
  O  O10  1  0.707788  0.715040  0.288586  1
  O  O11  1  0.286464  0.285773  0.713882  1
  O  O12  1  0.997296  0.005533  0.998585  1
  O  O13  1  0.288688  0.714868  0.288622  1
  O  O14  1  0.713886  0.285701  0.714073  1
  O  O15  1  0.961312  0.535132  0.961378  1
  O  O16  1  0.542212  0.534960  0.961414  1
  O  O17  1  0.963536  0.964227  0.536118  1
  O  O18  1  0.252704  0.244467  0.251415  1
  O  O19  1  0.536114  0.964299  0.535927  1
  O  O20  1  0.713886  0.285701  0.286340  1
  O  O21  1  0.961312  0.535132  0.542178  1
