# generated using pymatgen
data_TbHo3Al24CuPd8
_symmetry_space_group_name_H-M   'P 1'
_cell_length_a   7.54410243
_cell_length_b   7.56413740
_cell_length_c   13.12490700
_cell_angle_alpha   84.59057073
_cell_angle_beta   79.01729659
_cell_angle_gamma   59.91673178
_symmetry_Int_Tables_number   1
_chemical_formula_structural   TbHo3Al24CuPd8
_chemical_formula_sum   'Tb1 Ho3 Al24 Cu1 Pd8'
_cell_volume   636.20990742
_cell_formula_units_Z   1
loop_
 _symmetry_equiv_pos_site_id
 _symmetry_equiv_pos_as_xyz
  1  'x, y, z'
loop_
 _atom_site_type_symbol
 _atom_site_label
 _atom_site_symmetry_multiplicity
 _atom_site_fract_x
 _atom_site_fract_y
 _atom_site_fract_z
 _atom_site_occupancy
  Tb  Tb0  1  0.392516  0.169186  0.807759  1
  Ho  Ho1  1  0.606525  0.831666  0.191885  1
  Ho  Ho2  1  0.734580  0.498305  0.807543  1
  Ho  Ho3  1  0.266758  0.501503  0.191963  1
  Al  Al4  1  0.684202  0.833358  0.944475  1
  Al  Al5  1  0.315899  0.166117  0.055469  1
  Al  Al6  1  0.145352  0.834848  0.562163  1
  Al  Al7  1  0.854966  0.166625  0.436518  1
  Al  Al8  1  0.479333  0.167716  0.560093  1
  Al  Al9  1  0.520472  0.833579  0.439756  1
  Al  Al10  1  0.217873  0.165352  0.329193  1
  Al  Al11  1  0.785057  0.831857  0.671064  1
  Al  Al12  1  0.433381  0.506889  0.671395  1
  Al  Al13  1  0.563572  0.493482  0.328531  1
  Al  Al14  1  0.109179  0.162927  0.669726  1
  Al  Al15  1  0.890676  0.840159  0.330100  1
  Al  Al16  1  0.353177  0.498975  0.944244  1
  Al  Al17  1  0.647216  0.500577  0.055562  1
  Al  Al18  1  0.015075  0.167487  0.954633  1
  Al  Al19  1  0.984588  0.831968  0.046024  1
  Al  Al20  1  0.186387  0.500604  0.442035  1
  Al  Al21  1  0.813711  0.500143  0.559947  1
  Al  Al22  1  0.733247  0.163928  0.184168  1
  Al  Al23  1  0.266135  0.835692  0.816079  1
  Al  Al24  1  0.062145  0.628508  0.813123  1
  Al  Al25  1  0.938689  0.369698  0.185337  1
  Al  Al26  1  0.855017  0.041497  0.815761  1
  Al  Al27  1  0.144918  0.957566  0.184150  1
  Cu  Cu28  1  0.119222  0.491881  0.639263  1
  Pd  Pd29  1  0.880271  0.508038  0.362691  1
  Pd  Pd30  1  0.657044  0.171346  0.999614  1
  Pd  Pd31  1  0.343286  0.828023  0.999688  1
  Pd  Pd32  1  0.536638  0.167783  0.362803  1
  Pd  Pd33  1  0.462275  0.833249  0.637836  1
  Pd  Pd34  1  0.778611  0.175362  0.637162  1
  Pd  Pd35  1  0.221610  0.824255  0.362883  1
  Pd  Pd36  1  0.000398  0.499851  0.999360  1
