# generated using pymatgen
data_Tb8Hf8Zr4Si15Sn
_symmetry_space_group_name_H-M   'P 1'
_cell_length_a   7.33855536
_cell_length_b   7.36459014
_cell_length_c   13.49893837
_cell_angle_alpha   89.76847357
_cell_angle_beta   90.03147604
_cell_angle_gamma   89.85383580
_symmetry_Int_Tables_number   1
_chemical_formula_structural   Tb8Hf8Zr4Si15Sn
_chemical_formula_sum   'Tb8 Hf8 Zr4 Si15 Sn1'
_cell_volume   729.54778754
_cell_formula_units_Z   1
loop_
 _symmetry_equiv_pos_site_id
 _symmetry_equiv_pos_as_xyz
  1  'x, y, z'
loop_
 _atom_site_type_symbol
 _atom_site_label
 _atom_site_symmetry_multiplicity
 _atom_site_fract_x
 _atom_site_fract_y
 _atom_site_fract_z
 _atom_site_occupancy
  Tb  Tb0  1  0.989612  0.344822  0.212159  1
  Tb  Tb1  1  0.003781  0.655903  0.715981  1
  Tb  Tb2  1  0.148697  0.505686  0.470315  1
  Tb  Tb3  1  0.505023  0.842378  0.033046  1
  Tb  Tb4  1  0.844547  0.503234  0.963866  1
  Tb  Tb5  1  0.498812  0.153656  0.539345  1
  Tb  Tb6  1  0.344263  0.996443  0.785038  1
  Tb  Tb7  1  0.661754  0.996973  0.283573  1
  Hf  Hf8  1  0.141688  0.986982  0.374091  1
  Hf  Hf9  1  0.852427  0.004375  0.874192  1
  Hf  Hf10  1  0.504387  0.649869  0.624921  1
  Hf  Hf11  1  0.351529  0.494479  0.875577  1
  Hf  Hf12  1  0.495578  0.351643  0.118668  1
  Hf  Hf13  1  0.659816  0.515710  0.379493  1
  Hf  Hf14  1  0.993792  0.148743  0.626547  1
  Hf  Hf15  1  0.003458  0.849582  0.123529  1
  Zr  Zr16  1  0.174597  0.174778  0.998969  1
  Zr  Zr17  1  0.825603  0.826680  0.501217  1
  Zr  Zr18  1  0.326064  0.680920  0.248307  1
  Zr  Zr19  1  0.675165  0.324996  0.750344  1
  Si  Si20  1  0.636564  0.706307  0.817016  1
  Si  Si21  1  0.206357  0.865202  0.568309  1
  Si  Si22  1  0.137385  0.793185  0.932073  1
  Si  Si23  1  0.793910  0.135952  0.065441  1
  Si  Si24  1  0.862307  0.206114  0.433547  1
  Si  Si25  1  0.293732  0.363976  0.683483  1
  Si  Si26  1  0.704832  0.635851  0.182425  1
  Si  Si27  1  0.294314  0.043429  0.181825  1
  Si  Si28  1  0.705864  0.948488  0.687745  1
  Si  Si29  1  0.448952  0.796999  0.436824  1
  Si  Si30  1  0.204542  0.550136  0.063264  1
  Si  Si31  1  0.550345  0.203641  0.934882  1
  Si  Si32  1  0.793293  0.449558  0.565729  1
  Si  Si33  1  0.050533  0.294485  0.813390  1
  Si  Si34  1  0.951780  0.702641  0.311784  1
  Sn  Sn35  1  0.364697  0.296182  0.323087  1
