# generated using pymatgen
data_Lu12Fe3SbRh
_symmetry_space_group_name_H-M   'P 1'
_cell_length_a   8.05812174
_cell_length_b   8.05812066
_cell_length_c   8.05812200
_cell_angle_alpha   111.04284580
_cell_angle_beta   106.67794593
_cell_angle_gamma   110.72862653
_symmetry_Int_Tables_number   1
_chemical_formula_structural   Lu12Fe3SbRh
_chemical_formula_sum   'Lu12 Fe3 Sb1 Rh1'
_cell_volume   402.07404701
_cell_formula_units_Z   1
loop_
 _symmetry_equiv_pos_site_id
 _symmetry_equiv_pos_as_xyz
  1  'x, y, z'
loop_
 _atom_site_type_symbol
 _atom_site_label
 _atom_site_symmetry_multiplicity
 _atom_site_fract_x
 _atom_site_fract_y
 _atom_site_fract_z
 _atom_site_occupancy
  Lu  Lu0  1  0.305723  0.312138  0.617857  1
  Lu  Lu1  1  0.694277  0.687862  0.382143  1
  Lu  Lu2  1  0.694281  0.312138  0.006417  1
  Lu  Lu3  1  0.305719  0.687862  0.993583  1
  Lu  Lu4  1  0.188596  0.460727  0.272130  1
  Lu  Lu5  1  0.811404  0.539273  0.727870  1
  Lu  Lu6  1  0.188595  0.916463  0.727869  1
  Lu  Lu7  1  0.973305  0.190724  0.782580  1
  Lu  Lu8  1  0.811405  0.083537  0.272131  1
  Lu  Lu9  1  0.026695  0.809276  0.217420  1
  Lu  Lu10  1  0.408144  0.190724  0.217418  1
  Lu  Lu11  1  0.591856  0.809276  0.782582  1
  Fe  Fe12  1  0.381393  0.381395  0.000002  1
  Fe  Fe13  1  0.618607  0.618605  0.999998  1
  Fe  Fe14  1  0.000000  0.000000  0.000000  1
  Sb  Sb15  1  0.500000  0.000000  0.500000  1
  Rh  Rh16  1  0.000000  0.500000  0.500000  1
