# generated using pymatgen
data_Yb4Al5Ag3
_symmetry_space_group_name_H-M   'P 1'
_cell_length_a   5.69982693
_cell_length_b   5.60369904
_cell_length_c   9.16715200
_cell_angle_alpha   90.00000000
_cell_angle_beta   90.00000000
_cell_angle_gamma   119.44366314
_symmetry_Int_Tables_number   1
_chemical_formula_structural   Yb4Al5Ag3
_chemical_formula_sum   'Yb4 Al5 Ag3'
_cell_volume   254.98169429
_cell_formula_units_Z   1
loop_
 _symmetry_equiv_pos_site_id
 _symmetry_equiv_pos_as_xyz
  1  'x, y, z'
loop_
 _atom_site_type_symbol
 _atom_site_label
 _atom_site_symmetry_multiplicity
 _atom_site_fract_x
 _atom_site_fract_y
 _atom_site_fract_z
 _atom_site_occupancy
  Yb  Yb0  1  0.335842  0.667922  0.439420  1
  Yb  Yb1  1  0.666216  0.333107  0.564651  1
  Yb  Yb2  1  0.666216  0.333107  0.935349  1
  Yb  Yb3  1  0.335842  0.667922  0.060580  1
  Al  Al4  1  0.833289  0.169362  0.250000  1
  Al  Al5  1  0.833289  0.663926  0.250000  1
  Al  Al6  1  0.343356  0.171678  0.250000  1
  Al  Al7  1  0.153564  0.828610  0.750000  1
  Al  Al8  1  0.153564  0.324954  0.750000  1
  Ag  Ag9  1  0.016222  0.008111  0.493138  1
  Ag  Ag10  1  0.016222  0.008111  0.006862  1
  Ag  Ag11  1  0.646378  0.823189  0.750000  1
