# generated using pymatgen
data_Ce8Si8Ir7Pd
_symmetry_space_group_name_H-M   'P 1'
_cell_length_a   5.76920516
_cell_length_b   7.73281615
_cell_length_c   10.68859804
_cell_angle_alpha   88.08351162
_cell_angle_beta   90.03491289
_cell_angle_gamma   89.90830474
_symmetry_Int_Tables_number   1
_chemical_formula_structural   Ce8Si8Ir7Pd
_chemical_formula_sum   'Ce8 Si8 Ir7 Pd1'
_cell_volume   476.57445890
_cell_formula_units_Z   1
loop_
 _symmetry_equiv_pos_site_id
 _symmetry_equiv_pos_as_xyz
  1  'x, y, z'
loop_
 _atom_site_type_symbol
 _atom_site_label
 _atom_site_symmetry_multiplicity
 _atom_site_fract_x
 _atom_site_fract_y
 _atom_site_fract_z
 _atom_site_occupancy
  Ce  Ce0  1  0.352488  0.963899  0.140250  1
  Ce  Ce1  1  0.645566  0.029350  0.862702  1
  Ce  Ce2  1  0.855454  0.540266  0.861429  1
  Ce  Ce3  1  0.147938  0.463059  0.141069  1
  Ce  Ce4  1  0.871240  0.825752  0.368193  1
  Ce  Ce5  1  0.125216  0.169113  0.630724  1
  Ce  Ce6  1  0.368343  0.680938  0.630853  1
  Ce  Ce7  1  0.629485  0.325371  0.365208  1
  Si  Si8  1  0.868171  0.537679  0.577596  1
  Si  Si9  1  0.138341  0.464007  0.423526  1
  Si  Si10  1  0.365141  0.964973  0.420624  1
  Si  Si11  1  0.630749  0.031598  0.578673  1
  Si  Si12  1  0.640845  0.622765  0.142894  1
  Si  Si13  1  0.355900  0.377439  0.858662  1
  Si  Si14  1  0.142557  0.878699  0.857733  1
  Si  Si15  1  0.858742  0.122606  0.142792  1
  Ir  Ir16  1  0.906093  0.835473  0.054873  1
  Ir  Ir17  1  0.091519  0.164548  0.944996  1
  Ir  Ir18  1  0.407040  0.664438  0.945568  1
  Ir  Ir19  1  0.597902  0.337120  0.052518  1
  Ir  Ir20  1  0.899130  0.822341  0.671081  1
  Ir  Ir21  1  0.099361  0.178578  0.330622  1
  Ir  Ir22  1  0.401230  0.677281  0.330677  1
  Pd  Pd23  1  0.601547  0.322710  0.666738  1
