# generated using pymatgen
data_Ho5Er3Ti4O20
_symmetry_space_group_name_H-M   'P 1'
_cell_length_a   3.68312300
_cell_length_b   10.37165348
_cell_length_c   11.27536850
_cell_angle_alpha   90.03441055
_cell_angle_beta   90.00000000
_cell_angle_gamma   90.00000000
_symmetry_Int_Tables_number   1
_chemical_formula_structural   Ho5Er3Ti4O20
_chemical_formula_sum   'Ho5 Er3 Ti4 O20'
_cell_volume   430.71984990
_cell_formula_units_Z   1
loop_
 _symmetry_equiv_pos_site_id
 _symmetry_equiv_pos_as_xyz
  1  'x, y, z'
loop_
 _atom_site_type_symbol
 _atom_site_label
 _atom_site_symmetry_multiplicity
 _atom_site_fract_x
 _atom_site_fract_y
 _atom_site_fract_z
 _atom_site_occupancy
  Ho  Ho0  1  0.250000  0.115964  0.276182  1
  Ho  Ho1  1  0.250000  0.135047  0.943830  1
  Ho  Ho2  1  0.750000  0.364551  0.444406  1
  Ho  Ho3  1  0.750000  0.384114  0.776143  1
  Ho  Ho4  1  0.250000  0.616633  0.223633  1
  Er  Er5  1  0.250000  0.636444  0.555691  1
  Er  Er6  1  0.750000  0.863820  0.055245  1
  Er  Er7  1  0.750000  0.883056  0.723797  1
  Ti  Ti8  1  0.250000  0.173491  0.619338  1
  Ti  Ti9  1  0.750000  0.325929  0.119064  1
  Ti  Ti10  1  0.250000  0.674120  0.880507  1
  Ti  Ti11  1  0.750000  0.826291  0.381021  1
  O  O12  1  0.750000  0.005453  0.894704  1
  O  O13  1  0.250000  0.005628  0.655568  1
  O  O14  1  0.250000  0.223906  0.456621  1
  O  O15  1  0.750000  0.243894  0.271370  1
  O  O16  1  0.750000  0.238748  0.616524  1
  O  O17  1  0.250000  0.260857  0.116344  1
  O  O18  1  0.250000  0.256175  0.771367  1
  O  O19  1  0.750000  0.275524  0.956281  1
  O  O20  1  0.750000  0.493908  0.154524  1
  O  O21  1  0.250000  0.494125  0.395471  1
  O  O22  1  0.750000  0.507818  0.605107  1
  O  O23  1  0.250000  0.505982  0.845780  1
  O  O24  1  0.250000  0.724628  0.043118  1
  O  O25  1  0.750000  0.744865  0.228156  1
  O  O26  1  0.750000  0.738878  0.883196  1
  O  O27  1  0.250000  0.761308  0.383930  1
  O  O28  1  0.250000  0.756240  0.728155  1
  O  O29  1  0.750000  0.776012  0.543892  1
  O  O30  1  0.750000  0.994215  0.346262  1
  O  O31  1  0.250000  0.992378  0.104775  1
