# generated using pymatgen
data_TbNdLuTe4
_symmetry_space_group_name_H-M   'P 1'
_cell_length_a   4.35614600
_cell_length_b   7.47475663
_cell_length_c   7.63454704
_cell_angle_alpha   71.71162968
_cell_angle_beta   90.00000000
_cell_angle_gamma   90.00000000
_symmetry_Int_Tables_number   1
_chemical_formula_structural   TbNdLuTe4
_chemical_formula_sum   'Tb1 Nd1 Lu1 Te4'
_cell_volume   236.03303156
_cell_formula_units_Z   1
loop_
 _symmetry_equiv_pos_site_id
 _symmetry_equiv_pos_as_xyz
  1  'x, y, z'
loop_
 _atom_site_type_symbol
 _atom_site_label
 _atom_site_symmetry_multiplicity
 _atom_site_fract_x
 _atom_site_fract_y
 _atom_site_fract_z
 _atom_site_occupancy
  Tb  Tb0  1  0.500000  0.500000  0.000000  1
  Nd  Nd1  1  0.000000  0.500000  0.500000  1
  Lu  Lu2  1  0.000000  0.000000  0.000000  1
  Te  Te3  1  0.500000  0.768266  0.245632  1
  Te  Te4  1  0.000000  0.243887  0.244323  1
  Te  Te5  1  0.500000  0.231734  0.754368  1
  Te  Te6  1  0.000000  0.756113  0.755677  1
