# generated using pymatgen
data_Ba4SrEu(ErBi6)2
_symmetry_space_group_name_H-M   'P 1'
_cell_length_a   6.71888541
_cell_length_b   6.97480828
_cell_length_c   15.52363100
_cell_angle_alpha   90.00000000
_cell_angle_beta   90.00000000
_cell_angle_gamma   87.37168159
_symmetry_Int_Tables_number   1
_chemical_formula_structural   Ba4SrEu(ErBi6)2
_chemical_formula_sum   'Ba4 Sr1 Eu1 Er2 Bi12'
_cell_volume   726.71765924
_cell_formula_units_Z   1
loop_
 _symmetry_equiv_pos_site_id
 _symmetry_equiv_pos_as_xyz
  1  'x, y, z'
loop_
 _atom_site_type_symbol
 _atom_site_label
 _atom_site_symmetry_multiplicity
 _atom_site_fract_x
 _atom_site_fract_y
 _atom_site_fract_z
 _atom_site_occupancy
  Ba  Ba0  1  0.547075  0.505570  0.250355  1
  Ba  Ba1  1  0.450654  0.496010  0.749987  1
  Ba  Ba2  1  0.952925  0.994430  0.250355  1
  Ba  Ba3  1  0.049346  0.003990  0.749987  1
  Sr  Sr4  1  0.250000  0.750000  0.499089  1
  Eu  Eu5  1  0.750000  0.250000  0.500819  1
  Er  Er6  1  0.750000  0.750000  0.999511  1
  Er  Er7  1  0.250000  0.250000  0.000168  1
  Bi  Bi8  1  0.750000  0.750000  0.446068  1
  Bi  Bi9  1  0.250000  0.250000  0.553872  1
  Bi  Bi10  1  0.750000  0.250000  0.051554  1
  Bi  Bi11  1  0.250000  0.750000  0.948717  1
  Bi  Bi12  1  0.078418  0.562781  0.136424  1
  Bi  Bi13  1  0.919885  0.435729  0.863257  1
  Bi  Bi14  1  0.067800  0.438753  0.350466  1
  Bi  Bi15  1  0.432200  0.061247  0.350466  1
  Bi  Bi16  1  0.927073  0.555913  0.649613  1
  Bi  Bi17  1  0.572927  0.944087  0.649613  1
  Bi  Bi18  1  0.421582  0.937219  0.136424  1
  Bi  Bi19  1  0.580115  0.064271  0.863257  1
