# generated using pymatgen
data_YbTi(SbPt)2
_symmetry_space_group_name_H-M   'P 1'
_cell_length_a   6.39688921
_cell_length_b   6.39688849
_cell_length_c   7.87246509
_cell_angle_alpha   66.02848422
_cell_angle_beta   66.02848869
_cell_angle_gamma   90.00000149
_symmetry_Int_Tables_number   1
_chemical_formula_structural   YbTi(SbPt)2
_chemical_formula_sum   'Yb2 Ti2 Sb4 Pt4'
_cell_volume   263.65946421
_cell_formula_units_Z   2
loop_
 _symmetry_equiv_pos_site_id
 _symmetry_equiv_pos_as_xyz
  1  'x, y, z'
loop_
 _atom_site_type_symbol
 _atom_site_label
 _atom_site_symmetry_multiplicity
 _atom_site_fract_x
 _atom_site_fract_y
 _atom_site_fract_z
 _atom_site_occupancy
  Yb  Yb0  1  0.000000  0.000000  0.000000  1
  Yb  Yb1  1  0.249998  0.750000  0.500001  1
  Ti  Ti2  1  0.500000  0.500000  0.000000  1
  Ti  Ti3  1  0.750000  0.250002  0.500001  1
  Sb  Sb4  1  0.495076  0.995078  0.009844  1
  Sb  Sb5  1  0.754923  0.754923  0.490156  1
  Sb  Sb6  1  0.245078  0.245078  0.509845  1
  Sb  Sb7  1  0.004921  0.504923  0.990155  1
  Pt  Pt8  1  0.125000  0.157871  0.249999  1
  Pt  Pt9  1  0.625000  0.592130  0.250000  1
  Pt  Pt10  1  0.842131  0.375002  0.749999  1
  Pt  Pt11  1  0.407871  0.875000  0.750001  1
