# generated using pymatgen
data_Th4Br13Cl3
_symmetry_space_group_name_H-M   'P 1'
_cell_length_a   7.64954362
_cell_length_b   8.00349083
_cell_length_c   13.25716983
_cell_angle_alpha   68.46869315
_cell_angle_beta   89.25155473
_cell_angle_gamma   89.10783489
_symmetry_Int_Tables_number   1
_chemical_formula_structural   Th4Br13Cl3
_chemical_formula_sum   'Th4 Br13 Cl3'
_cell_volume   754.89047110
_cell_formula_units_Z   1
loop_
 _symmetry_equiv_pos_site_id
 _symmetry_equiv_pos_as_xyz
  1  'x, y, z'
loop_
 _atom_site_type_symbol
 _atom_site_label
 _atom_site_symmetry_multiplicity
 _atom_site_fract_x
 _atom_site_fract_y
 _atom_site_fract_z
 _atom_site_occupancy
  Th  Th0  1  0.488124  0.998397  0.318792  1
  Th  Th1  1  0.991417  0.992883  0.184022  1
  Th  Th2  1  0.510101  0.999390  0.679319  1
  Th  Th3  1  0.012296  0.006264  0.815798  1
  Br  Br4  1  0.665451  0.142340  0.841400  1
  Br  Br5  1  0.082774  0.223199  0.952161  1
  Br  Br6  1  0.570166  0.766397  0.552182  1
  Br  Br7  1  0.931106  0.773168  0.049220  1
  Br  Br8  1  0.427950  0.229479  0.447534  1
  Br  Br9  1  0.780222  0.725419  0.800517  1
  Br  Br10  1  0.268370  0.285400  0.693866  1
  Br  Br11  1  0.213848  0.275583  0.204557  1
  Br  Br12  1  0.721882  0.715649  0.297991  1
  Br  Br13  1  0.340329  0.807775  0.898621  1
  Br  Br14  1  0.837540  0.187911  0.595130  1
  Br  Br15  1  0.665203  0.198994  0.102966  1
  Br  Br16  1  0.163240  0.799565  0.402726  1
  Cl  Cl17  1  0.822657  0.100149  0.346184  1
  Cl  Cl18  1  0.330262  0.885365  0.159065  1
  Cl  Cl19  1  0.177060  0.886673  0.657950  1
