# generated using pymatgen
data_CaTb4Tm(Si3Ru)8
_symmetry_space_group_name_H-M   'P 1'
_cell_length_a   10.11602389
_cell_length_b   10.11602415
_cell_length_c   8.14308811
_cell_angle_alpha   90.02112450
_cell_angle_beta   90.02111816
_cell_angle_gamma   132.57820825
_symmetry_Int_Tables_number   1
_chemical_formula_structural   CaTb4Tm(Si3Ru)8
_chemical_formula_sum   'Ca1 Tb4 Tm1 Si24 Ru8'
_cell_volume   613.61446043
_cell_formula_units_Z   1
loop_
 _symmetry_equiv_pos_site_id
 _symmetry_equiv_pos_as_xyz
  1  'x, y, z'
loop_
 _atom_site_type_symbol
 _atom_site_label
 _atom_site_symmetry_multiplicity
 _atom_site_fract_x
 _atom_site_fract_y
 _atom_site_fract_z
 _atom_site_occupancy
  Ca  Ca0  1  0.000000  0.000000  0.000000  1
  Tb  Tb1  1  0.502657  0.002189  0.749931  1
  Tb  Tb2  1  0.997811  0.497343  0.250069  1
  Tb  Tb3  1  0.497343  0.997811  0.250069  1
  Tb  Tb4  1  0.002189  0.502657  0.749931  1
  Tm  Tm5  1  0.500000  0.500000  0.500000  1
  Si  Si6  1  0.794738  0.205262  0.500000  1
  Si  Si7  1  0.295502  0.704498  0.000000  1
  Si  Si8  1  0.205262  0.794738  0.500000  1
  Si  Si9  1  0.704498  0.295502  0.000000  1
  Si  Si10  1  0.330794  0.330794  0.833963  1
  Si  Si11  1  0.669206  0.669206  0.166037  1
  Si  Si12  1  0.166751  0.166751  0.331813  1
  Si  Si13  1  0.833249  0.833249  0.668187  1
  Si  Si14  1  0.121816  0.888363  0.729446  1
  Si  Si15  1  0.111637  0.878184  0.270554  1
  Si  Si16  1  0.610088  0.376687  0.228867  1
  Si  Si17  1  0.623313  0.389912  0.771133  1
  Si  Si18  1  0.878184  0.111637  0.270554  1
  Si  Si19  1  0.888363  0.121816  0.729446  1
  Si  Si20  1  0.389912  0.623313  0.771133  1
  Si  Si21  1  0.376687  0.610088  0.228867  1
  Si  Si22  1  0.344773  0.111973  0.505243  1
  Si  Si23  1  0.888027  0.655227  0.494757  1
  Si  Si24  1  0.386002  0.153921  0.005627  1
  Si  Si25  1  0.846079  0.613998  0.994373  1
  Si  Si26  1  0.655227  0.888027  0.494757  1
  Si  Si27  1  0.111973  0.344773  0.505243  1
  Si  Si28  1  0.613998  0.846079  0.994373  1
  Si  Si29  1  0.153921  0.386002  0.005627  1
  Ru  Ru30  1  0.668605  0.331395  0.500000  1
  Ru  Ru31  1  0.170490  0.829510  0.000000  1
  Ru  Ru32  1  0.331395  0.668605  0.500000  1
  Ru  Ru33  1  0.829510  0.170490  0.000000  1
  Ru  Ru34  1  0.127225  0.127225  0.624301  1
  Ru  Ru35  1  0.872775  0.872775  0.375699  1
  Ru  Ru36  1  0.376261  0.376261  0.128721  1
  Ru  Ru37  1  0.623739  0.623739  0.871279  1
