# generated using pymatgen
data_Tb2LuZnAg3Ge2
_symmetry_space_group_name_H-M   'P 1'
_cell_length_a   7.20867022
_cell_length_b   7.20866946
_cell_length_c   4.13992900
_cell_angle_alpha   90.00000000
_cell_angle_beta   90.00000000
_cell_angle_gamma   119.84078724
_symmetry_Int_Tables_number   1
_chemical_formula_structural   Tb2LuZnAg3Ge2
_chemical_formula_sum   'Tb2 Lu1 Zn1 Ag3 Ge2'
_cell_volume   186.60716479
_cell_formula_units_Z   1
loop_
 _symmetry_equiv_pos_site_id
 _symmetry_equiv_pos_as_xyz
  1  'x, y, z'
loop_
 _atom_site_type_symbol
 _atom_site_label
 _atom_site_symmetry_multiplicity
 _atom_site_fract_x
 _atom_site_fract_y
 _atom_site_fract_z
 _atom_site_occupancy
  Tb  Tb0  1  0.582721  0.999308  0.000000  1
  Tb  Tb1  1  0.999308  0.582721  0.000000  1
  Lu  Lu2  1  0.416891  0.416891  0.000000  1
  Zn  Zn3  1  0.002852  0.002852  0.000000  1
  Ag  Ag4  1  0.249387  0.001212  0.500000  1
  Ag  Ag5  1  0.001212  0.249387  0.500000  1
  Ag  Ag6  1  0.749372  0.749372  0.500000  1
  Ge  Ge7  1  0.334342  0.663914  0.500000  1
  Ge  Ge8  1  0.663914  0.334342  0.500000  1
