# generated using pymatgen
data_Y18Lu2Cd6RuPt
_symmetry_space_group_name_H-M   'P 1'
_cell_length_a   9.67886500
_cell_length_b   9.67886528
_cell_length_c   9.79676800
_cell_angle_alpha   90.00000000
_cell_angle_beta   90.00000000
_cell_angle_gamma   120.00000247
_symmetry_Int_Tables_number   1
_chemical_formula_structural   Y18Lu2Cd6RuPt
_chemical_formula_sum   'Y18 Lu2 Cd6 Ru1 Pt1'
_cell_volume   794.80816801
_cell_formula_units_Z   1
loop_
 _symmetry_equiv_pos_site_id
 _symmetry_equiv_pos_as_xyz
  1  'x, y, z'
loop_
 _atom_site_type_symbol
 _atom_site_label
 _atom_site_symmetry_multiplicity
 _atom_site_fract_x
 _atom_site_fract_y
 _atom_site_fract_z
 _atom_site_occupancy
  Y  Y0  1  0.207229  0.792771  0.441382  1
  Y  Y1  1  0.207229  0.414459  0.441382  1
  Y  Y2  1  0.585541  0.792771  0.441382  1
  Y  Y3  1  0.791318  0.208682  0.560745  1
  Y  Y4  1  0.791318  0.582636  0.560745  1
  Y  Y5  1  0.417364  0.208682  0.560745  1
  Y  Y6  1  0.791318  0.208682  0.939255  1
  Y  Y7  1  0.791318  0.582636  0.939255  1
  Y  Y8  1  0.417364  0.208682  0.939255  1
  Y  Y9  1  0.207229  0.792771  0.058618  1
  Y  Y10  1  0.207229  0.414459  0.058618  1
  Y  Y11  1  0.585541  0.792771  0.058618  1
  Y  Y12  1  0.542269  0.457731  0.250000  1
  Y  Y13  1  0.542269  0.084537  0.250000  1
  Y  Y14  1  0.915463  0.457731  0.250000  1
  Y  Y15  1  0.459012  0.540988  0.750000  1
  Y  Y16  1  0.459012  0.918025  0.750000  1
  Y  Y17  1  0.081975  0.540988  0.750000  1
  Lu  Lu18  1  0.000000  0.000000  0.499379  1
  Lu  Lu19  1  0.000000  0.000000  0.000621  1
  Cd  Cd20  1  0.886666  0.113334  0.250000  1
  Cd  Cd21  1  0.886666  0.773333  0.250000  1
  Cd  Cd22  1  0.226667  0.113334  0.250000  1
  Cd  Cd23  1  0.113151  0.886849  0.750000  1
  Cd  Cd24  1  0.113151  0.226300  0.750000  1
  Cd  Cd25  1  0.773700  0.886849  0.750000  1
  Ru  Ru26  1  0.666667  0.333333  0.750000  1
  Pt  Pt27  1  0.333333  0.666667  0.250000  1
