# generated using pymatgen
data_LiTb2Ga7Ni2
_symmetry_space_group_name_H-M   'P 1'
_cell_length_a   4.16271472
_cell_length_b   6.42983264
_cell_length_c   8.02598443
_cell_angle_alpha   90.71095087
_cell_angle_beta   105.03015928
_cell_angle_gamma   89.99999874
_symmetry_Int_Tables_number   1
_chemical_formula_structural   LiTb2Ga7Ni2
_chemical_formula_sum   'Li1 Tb2 Ga7 Ni2'
_cell_volume   207.45372811
_cell_formula_units_Z   1
loop_
 _symmetry_equiv_pos_site_id
 _symmetry_equiv_pos_as_xyz
  1  'x, y, z'
loop_
 _atom_site_type_symbol
 _atom_site_label
 _atom_site_symmetry_multiplicity
 _atom_site_fract_x
 _atom_site_fract_y
 _atom_site_fract_z
 _atom_site_occupancy
  Li  Li0  1  0.500000  0.500000  0.000000  1
  Tb  Tb1  1  0.876564  0.756493  0.753128  1
  Tb  Tb2  1  0.123436  0.243507  0.246872  1
  Ga  Ga3  1  0.500000  0.000000  0.000000  1
  Ga  Ga4  1  0.068565  0.739370  0.137131  1
  Ga  Ga5  1  0.931435  0.260630  0.862869  1
  Ga  Ga6  1  0.683765  0.544669  0.367530  1
  Ga  Ga7  1  0.316235  0.455331  0.632470  1
  Ga  Ga8  1  0.684710  0.946594  0.369421  1
  Ga  Ga9  1  0.315290  0.053406  0.630579  1
  Ni  Ni10  1  0.221028  0.751937  0.442055  1
  Ni  Ni11  1  0.778972  0.248063  0.557945  1
