# generated using pymatgen
data_Sc6Mn2B13C
_symmetry_space_group_name_H-M   'P 1'
_cell_length_a   7.58695346
_cell_length_b   7.58695241
_cell_length_c   8.83443300
_cell_angle_alpha   90.00000000
_cell_angle_beta   90.00000000
_cell_angle_gamma   155.09643996
_symmetry_Int_Tables_number   1
_chemical_formula_structural   Sc6Mn2B13C
_chemical_formula_sum   'Sc6 Mn2 B13 C1'
_cell_volume   214.13646472
_cell_formula_units_Z   1
loop_
 _symmetry_equiv_pos_site_id
 _symmetry_equiv_pos_as_xyz
  1  'x, y, z'
loop_
 _atom_site_type_symbol
 _atom_site_label
 _atom_site_symmetry_multiplicity
 _atom_site_fract_x
 _atom_site_fract_y
 _atom_site_fract_z
 _atom_site_occupancy
  Sc  Sc0  1  0.894908  0.105092  0.439114  1
  Sc  Sc1  1  0.105443  0.894557  0.558452  1
  Sc  Sc2  1  0.894908  0.105092  0.060886  1
  Sc  Sc3  1  0.105443  0.894557  0.941548  1
  Sc  Sc4  1  0.242116  0.757884  0.250000  1
  Sc  Sc5  1  0.757010  0.242990  0.750000  1
  Mn  Mn6  1  0.050702  0.949298  0.250000  1
  Mn  Mn7  1  0.948518  0.051482  0.750000  1
  B  B8  1  0.728400  0.271600  0.465655  1
  B  B9  1  0.272056  0.727944  0.531453  1
  B  B10  1  0.728400  0.271600  0.034345  1
  B  B11  1  0.272056  0.727944  0.968547  1
  B  B12  1  0.631438  0.368562  0.151278  1
  B  B13  1  0.368139  0.631861  0.849753  1
  B  B14  1  0.631438  0.368562  0.348722  1
  B  B15  1  0.368139  0.631861  0.650247  1
  B  B16  1  0.517473  0.482527  0.098805  1
  B  B17  1  0.480721  0.519279  0.906640  1
  B  B18  1  0.517473  0.482527  0.401195  1
  B  B19  1  0.480721  0.519279  0.593360  1
  B  B20  1  0.550298  0.449702  0.750000  1
  C  C21  1  0.454201  0.545799  0.250000  1
