# generated using pymatgen
data_Mg8Zn13Ni3
_symmetry_space_group_name_H-M   'P 1'
_cell_length_a   5.11291267
_cell_length_b   5.09887554
_cell_length_c   16.72053800
_cell_angle_alpha   90.00000000
_cell_angle_beta   90.00000000
_cell_angle_gamma   120.03198737
_symmetry_Int_Tables_number   1
_chemical_formula_structural   Mg8Zn13Ni3
_chemical_formula_sum   'Mg8 Zn13 Ni3'
_cell_volume   377.38409299
_cell_formula_units_Z   1
loop_
 _symmetry_equiv_pos_site_id
 _symmetry_equiv_pos_as_xyz
  1  'x, y, z'
loop_
 _atom_site_type_symbol
 _atom_site_label
 _atom_site_symmetry_multiplicity
 _atom_site_fract_x
 _atom_site_fract_y
 _atom_site_fract_z
 _atom_site_occupancy
  Mg  Mg0  1  0.000585  0.998779  0.088269  1
  Mg  Mg1  1  0.661460  0.337372  0.153022  1
  Mg  Mg2  1  0.661460  0.337372  0.346978  1
  Mg  Mg3  1  0.000585  0.998779  0.411731  1
  Mg  Mg4  1  0.994691  0.992779  0.593625  1
  Mg  Mg5  1  0.338373  0.663539  0.658370  1
  Mg  Mg6  1  0.338373  0.663539  0.841630  1
  Mg  Mg7  1  0.994691  0.992779  0.906375  1
  Zn  Zn8  1  0.500293  0.000726  0.998055  1
  Zn  Zn9  1  0.001220  0.498520  0.999352  1
  Zn  Zn10  1  0.342056  0.659234  0.122919  1
  Zn  Zn11  1  0.161086  0.326153  0.250000  1
  Zn  Zn12  1  0.165475  0.834732  0.250000  1
  Zn  Zn13  1  0.673362  0.838916  0.250000  1
  Zn  Zn14  1  0.342056  0.659234  0.377081  1
  Zn  Zn15  1  0.500293  0.000726  0.501945  1
  Zn  Zn16  1  0.001220  0.498520  0.500648  1
  Zn  Zn17  1  0.666130  0.357845  0.625319  1
  Zn  Zn18  1  0.322630  0.154037  0.750000  1
  Zn  Zn19  1  0.832606  0.160698  0.750000  1
  Zn  Zn20  1  0.666130  0.357845  0.874681  1
  Ni  Ni21  1  0.499229  0.499052  0.999860  1
  Ni  Ni22  1  0.499229  0.499052  0.500140  1
  Ni  Ni23  1  0.836766  0.669779  0.750000  1
