# generated using pymatgen
data_PrSm5Zn4IrPd12
_symmetry_space_group_name_H-M   'P 1'
_cell_length_a   8.38163078
_cell_length_b   8.38163122
_cell_length_c   8.38163200
_cell_angle_alpha   109.46784862
_cell_angle_beta   109.46784244
_cell_angle_gamma   109.47796539
_symmetry_Int_Tables_number   1
_chemical_formula_structural   PrSm5Zn4IrPd12
_chemical_formula_sum   'Pr1 Sm5 Zn4 Ir1 Pd12'
_cell_volume   453.27712102
_cell_formula_units_Z   1
loop_
 _symmetry_equiv_pos_site_id
 _symmetry_equiv_pos_as_xyz
  1  'x, y, z'
loop_
 _atom_site_type_symbol
 _atom_site_label
 _atom_site_symmetry_multiplicity
 _atom_site_fract_x
 _atom_site_fract_y
 _atom_site_fract_z
 _atom_site_occupancy
  Pr  Pr0  1  0.704488  0.704488  0.000008  1
  Sm  Sm1  1  0.297126  0.000246  0.296874  1
  Sm  Sm2  1  0.000245  0.297137  0.296886  1
  Sm  Sm3  1  0.296150  0.296149  0.999997  1
  Sm  Sm4  1  0.703372  0.000253  0.703126  1
  Sm  Sm5  1  0.000253  0.703361  0.703114  1
  Zn  Zn6  1  0.000175  0.000175  0.500687  1
  Zn  Zn7  1  0.000175  0.499489  0.000000  1
  Zn  Zn8  1  0.499488  0.000175  0.000000  1
  Zn  Zn9  1  0.499488  0.499488  0.499313  1
  Ir  Ir10  1  0.002461  0.002461  0.000000  1
  Pd  Pd11  1  0.330649  0.330649  0.662589  1
  Pd  Pd12  1  0.667769  0.000522  0.332743  1
  Pd  Pd13  1  0.000519  0.667764  0.332742  1
  Pd  Pd14  1  0.668064  0.330643  0.000001  1
  Pd  Pd15  1  0.332013  0.664030  0.332007  1
  Pd  Pd16  1  0.000010  0.332029  0.667994  1
  Pd  Pd17  1  0.330640  0.668061  0.999999  1
  Pd  Pd18  1  0.332024  0.000006  0.667993  1
  Pd  Pd19  1  0.664032  0.332017  0.332007  1
  Pd  Pd20  1  0.668053  0.668052  0.337407  1
  Pd  Pd21  1  0.667780  0.335027  0.667257  1
  Pd  Pd22  1  0.335026  0.667778  0.667256  1
