# generated using pymatgen
data_CsRb3(Al3Se5)4
_symmetry_space_group_name_H-M   'P 1'
_cell_length_a   13.50524603
_cell_length_b   7.58768309
_cell_length_c   11.13051656
_cell_angle_alpha   76.44160951
_cell_angle_beta   89.86959012
_cell_angle_gamma   90.06696950
_symmetry_Int_Tables_number   1
_chemical_formula_structural   CsRb3(Al3Se5)4
_chemical_formula_sum   'Cs1 Rb3 Al12 Se20'
_cell_volume   1108.79238280
_cell_formula_units_Z   1
loop_
 _symmetry_equiv_pos_site_id
 _symmetry_equiv_pos_as_xyz
  1  'x, y, z'
loop_
 _atom_site_type_symbol
 _atom_site_label
 _atom_site_symmetry_multiplicity
 _atom_site_fract_x
 _atom_site_fract_y
 _atom_site_fract_z
 _atom_site_occupancy
  Cs  Cs0  1  0.611705  0.835038  0.399298  1
  Rb  Rb1  1  0.118156  0.165028  0.108424  1
  Rb  Rb2  1  0.381317  0.165586  0.608905  1
  Rb  Rb3  1  0.882243  0.834879  0.891446  1
  Al  Al4  1  0.924516  0.796494  0.400982  1
  Al  Al5  1  0.576543  0.795987  0.899782  1
  Al  Al6  1  0.423161  0.204750  0.098992  1
  Al  Al7  1  0.398788  0.562734  0.806427  1
  Al  Al8  1  0.101252  0.562289  0.306708  1
  Al  Al9  1  0.336554  0.709273  0.123710  1
  Al  Al10  1  0.601602  0.437324  0.192461  1
  Al  Al11  1  0.076488  0.203445  0.599388  1
  Al  Al12  1  0.662944  0.290597  0.875126  1
  Al  Al13  1  0.899909  0.436634  0.694020  1
  Al  Al14  1  0.162927  0.709011  0.624238  1
  Al  Al15  1  0.837916  0.290635  0.375441  1
  Se  Se16  1  0.834797  0.717852  0.588497  1
  Se  Se17  1  0.105895  0.813014  0.410659  1
  Se  Se18  1  0.668327  0.717164  0.085028  1
  Se  Se19  1  0.395254  0.813581  0.910309  1
  Se  Se20  1  0.332021  0.282717  0.913098  1
  Se  Se21  1  0.664489  0.343656  0.397817  1
  Se  Se22  1  0.579788  0.573014  0.767049  1
  Se  Se23  1  0.604347  0.186309  0.088537  1
  Se  Se24  1  0.895108  0.186904  0.589198  1
  Se  Se25  1  0.632987  0.065817  0.760151  1
  Se  Se26  1  0.363303  0.936782  0.237295  1
  Se  Se27  1  0.168016  0.282389  0.413324  1
  Se  Se28  1  0.080686  0.425045  0.733088  1
  Se  Se29  1  0.920532  0.574341  0.267840  1
  Se  Se30  1  0.868717  0.065749  0.260986  1
  Se  Se31  1  0.133081  0.934301  0.738860  1
  Se  Se32  1  0.836148  0.343469  0.899368  1
  Se  Se33  1  0.336469  0.656376  0.600859  1
  Se  Se34  1  0.420503  0.427565  0.232065  1
  Se  Se35  1  0.163510  0.654250  0.100625  1
