# generated using pymatgen
data_Er8Ga12CuAg3
_symmetry_space_group_name_H-M   'P 1'
_cell_length_a   7.03058700
_cell_length_b   8.92564721
_cell_length_c   8.92564800
_cell_angle_alpha   120.00000293
_cell_angle_beta   90.00000000
_cell_angle_gamma   90.00000000
_symmetry_Int_Tables_number   1
_chemical_formula_structural   Er8Ga12CuAg3
_chemical_formula_sum   'Er8 Ga12 Cu1 Ag3'
_cell_volume   485.06694260
_cell_formula_units_Z   1
loop_
 _symmetry_equiv_pos_site_id
 _symmetry_equiv_pos_as_xyz
  1  'x, y, z'
loop_
 _atom_site_type_symbol
 _atom_site_label
 _atom_site_symmetry_multiplicity
 _atom_site_fract_x
 _atom_site_fract_y
 _atom_site_fract_z
 _atom_site_occupancy
  Er  Er0  1  0.743972  0.000000  0.000000  1
  Er  Er1  1  0.249467  0.000000  0.000000  1
  Er  Er2  1  0.750251  0.489600  0.510400  1
  Er  Er3  1  0.253590  0.515078  0.484922  1
  Er  Er4  1  0.750251  0.020798  0.510400  1
  Er  Er5  1  0.253590  0.969846  0.484922  1
  Er  Er6  1  0.750251  0.489600  0.979202  1
  Er  Er7  1  0.253590  0.515078  0.030154  1
  Ga  Ga8  1  0.966689  0.836128  0.163872  1
  Ga  Ga9  1  0.033771  0.165306  0.834694  1
  Ga  Ga10  1  0.966689  0.327746  0.163872  1
  Ga  Ga11  1  0.467035  0.164335  0.835665  1
  Ga  Ga12  1  0.033771  0.669388  0.834694  1
  Ga  Ga13  1  0.533154  0.829378  0.170622  1
  Ga  Ga14  1  0.966689  0.836128  0.672254  1
  Ga  Ga15  1  0.467035  0.671328  0.835665  1
  Ga  Ga16  1  0.033771  0.165306  0.330612  1
  Ga  Ga17  1  0.533154  0.341247  0.170622  1
  Ga  Ga18  1  0.467035  0.164335  0.328672  1
  Ga  Ga19  1  0.533154  0.829378  0.658753  1
  Cu  Cu20  1  0.532179  0.666667  0.333333  1
  Ag  Ag21  1  0.960473  0.666667  0.333333  1
  Ag  Ag22  1  0.032049  0.333333  0.666667  1
  Ag  Ag23  1  0.468392  0.333333  0.666667  1
