# generated using pymatgen
data_Dy4Ho6Zn3Bi2Au
_symmetry_space_group_name_H-M   'P 1'
_cell_length_a   8.64940889
_cell_length_b   8.65041861
_cell_length_c   8.65230796
_cell_angle_alpha   123.89630247
_cell_angle_beta   123.89274436
_cell_angle_gamma   83.35945055
_symmetry_Int_Tables_number   1
_chemical_formula_structural   Dy4Ho6Zn3Bi2Au
_chemical_formula_sum   'Dy4 Ho6 Zn3 Bi2 Au1'
_cell_volume   427.74317389
_cell_formula_units_Z   1
loop_
 _symmetry_equiv_pos_site_id
 _symmetry_equiv_pos_as_xyz
  1  'x, y, z'
loop_
 _atom_site_type_symbol
 _atom_site_label
 _atom_site_symmetry_multiplicity
 _atom_site_fract_x
 _atom_site_fract_y
 _atom_site_fract_z
 _atom_site_occupancy
  Dy  Dy0  1  0.489036  0.990480  0.194334  1
  Dy  Dy1  1  0.794702  0.296146  0.805666  1
  Dy  Dy2  1  0.988989  0.795232  0.500000  1
  Dy  Dy3  1  0.295445  0.488189  0.500000  1
  Ho  Ho4  1  0.499441  0.499601  0.999328  1
  Ho  Ho5  1  0.000114  0.000273  0.000672  1
  Ho  Ho6  1  0.509918  0.011288  0.805454  1
  Ho  Ho7  1  0.204464  0.705834  0.194546  1
  Ho  Ho8  1  0.012084  0.205171  0.500000  1
  Ho  Ho9  1  0.705452  0.511369  0.500000  1
  Zn  Zn10  1  0.137480  0.639263  0.777399  1
  Zn  Zn11  1  0.860082  0.361865  0.222601  1
  Zn  Zn12  1  0.639506  0.859892  0.500000  1
  Bi  Bi13  1  0.249256  0.250983  0.000076  1
  Bi  Bi14  1  0.749180  0.750907  0.999924  1
  Au  Au15  1  0.364851  0.133508  0.500000  1
