# generated using pymatgen
data_Y2Ho2ReRuC4
_symmetry_space_group_name_H-M   'P 1'
_cell_length_a   5.10567300
_cell_length_b   6.54646400
_cell_length_c   9.81250500
_cell_angle_alpha   90.00000000
_cell_angle_beta   90.00000000
_cell_angle_gamma   90.00000000
_symmetry_Int_Tables_number   1
_chemical_formula_structural   Y2Ho2ReRuC4
_chemical_formula_sum   'Y4 Ho4 Re2 Ru2 C8'
_cell_volume   327.97419243
_cell_formula_units_Z   2
loop_
 _symmetry_equiv_pos_site_id
 _symmetry_equiv_pos_as_xyz
  1  'x, y, z'
loop_
 _atom_site_type_symbol
 _atom_site_label
 _atom_site_symmetry_multiplicity
 _atom_site_fract_x
 _atom_site_fract_y
 _atom_site_fract_z
 _atom_site_occupancy
  Y  Y0  1  0.250000  0.466570  0.784896  1
  Y  Y1  1  0.750000  0.033430  0.284896  1
  Y  Y2  1  0.250000  0.968934  0.714816  1
  Y  Y3  1  0.750000  0.531066  0.214816  1
  Ho  Ho4  1  0.250000  0.826133  0.055419  1
  Ho  Ho5  1  0.750000  0.673867  0.555419  1
  Ho  Ho6  1  0.250000  0.320737  0.442460  1
  Ho  Ho7  1  0.750000  0.179263  0.942460  1
  Re  Re8  1  0.250000  0.778477  0.365145  1
  Re  Re9  1  0.750000  0.721523  0.865145  1
  Ru  Ru10  1  0.250000  0.277977  0.134069  1
  Ru  Ru11  1  0.750000  0.222023  0.634069  1
  C  C12  1  0.250000  0.173860  0.949567  1
  C  C13  1  0.750000  0.824681  0.050905  1
  C  C14  1  0.250000  0.675319  0.550905  1
  C  C15  1  0.750000  0.326140  0.449567  1
  C  C16  1  0.250000  0.044124  0.260419  1
  C  C17  1  0.750000  0.455876  0.760419  1
  C  C18  1  0.250000  0.546114  0.242303  1
  C  C19  1  0.750000  0.953886  0.742303  1
