# generated using pymatgen
data_HoZn2CdPd2
_symmetry_space_group_name_H-M   'P 1'
_cell_length_a   5.23738469
_cell_length_b   5.28990655
_cell_length_c   5.28990674
_cell_angle_alpha   63.12183779
_cell_angle_beta   60.32789507
_cell_angle_gamma   60.32789421
_symmetry_Int_Tables_number   1
_chemical_formula_structural   HoZn2CdPd2
_chemical_formula_sum   'Ho1 Zn2 Cd1 Pd2'
_cell_volume   106.40079948
_cell_formula_units_Z   1
loop_
 _symmetry_equiv_pos_site_id
 _symmetry_equiv_pos_as_xyz
  1  'x, y, z'
loop_
 _atom_site_type_symbol
 _atom_site_label
 _atom_site_symmetry_multiplicity
 _atom_site_fract_x
 _atom_site_fract_y
 _atom_site_fract_z
 _atom_site_occupancy
  Ho  Ho0  1  0.744717  0.755283  0.755283  1
  Zn  Zn1  1  0.379313  0.371028  0.371028  1
  Zn  Zn2  1  0.878630  0.371028  0.371028  1
  Cd  Cd3  1  0.994736  0.005264  0.005264  1
  Pd  Pd4  1  0.376302  0.373079  0.874317  1
  Pd  Pd5  1  0.376302  0.874317  0.373079  1
