# generated using pymatgen
data_La(Yb4Pd3)2
_symmetry_space_group_name_H-M   'P 1'
_cell_length_a   7.57928379
_cell_length_b   7.62953551
_cell_length_c   7.57541700
_cell_angle_alpha   70.82154676
_cell_angle_beta   70.97179434
_cell_angle_gamma   70.99103310
_symmetry_Int_Tables_number   1
_chemical_formula_structural   La(Yb4Pd3)2
_chemical_formula_sum   'La1 Yb8 Pd6'
_cell_volume   379.23468176
_cell_formula_units_Z   1
loop_
 _symmetry_equiv_pos_site_id
 _symmetry_equiv_pos_as_xyz
  1  'x, y, z'
loop_
 _atom_site_type_symbol
 _atom_site_label
 _atom_site_symmetry_multiplicity
 _atom_site_fract_x
 _atom_site_fract_y
 _atom_site_fract_z
 _atom_site_occupancy
  La  La0  1  0.398566  0.154729  0.666558  1
  Yb  Yb1  1  0.996355  0.998328  0.003321  1
  Yb  Yb2  1  0.802405  0.797984  0.801024  1
  Yb  Yb3  1  0.200861  0.200586  0.199585  1
  Yb  Yb4  1  0.330098  0.605366  0.846688  1
  Yb  Yb5  1  0.846478  0.330999  0.601057  1
  Yb  Yb6  1  0.603278  0.839563  0.331094  1
  Yb  Yb7  1  0.670121  0.399170  0.154577  1
  Yb  Yb8  1  0.155165  0.669112  0.396394  1
  Pd  Pd9  1  0.160197  0.955241  0.586599  1
  Pd  Pd10  1  0.592716  0.160703  0.956729  1
  Pd  Pd11  1  0.954828  0.589581  0.160907  1
  Pd  Pd12  1  0.833133  0.045465  0.412093  1
  Pd  Pd13  1  0.408572  0.843092  0.043793  1
  Pd  Pd14  1  0.047231  0.410083  0.839582  1
