# generated using pymatgen
data_La4Pr(Hg2Pt)2
_symmetry_space_group_name_H-M   'P 1'
_cell_length_a   3.84766100
_cell_length_b   8.32717700
_cell_length_c   18.86669700
_cell_angle_alpha   90.00000000
_cell_angle_beta   90.00000000
_cell_angle_gamma   90.00000000
_symmetry_Int_Tables_number   1
_chemical_formula_structural   La4Pr(Hg2Pt)2
_chemical_formula_sum   'La8 Pr2 Hg8 Pt4'
_cell_volume   604.49188080
_cell_formula_units_Z   2
loop_
 _symmetry_equiv_pos_site_id
 _symmetry_equiv_pos_as_xyz
  1  'x, y, z'
loop_
 _atom_site_type_symbol
 _atom_site_label
 _atom_site_symmetry_multiplicity
 _atom_site_fract_x
 _atom_site_fract_y
 _atom_site_fract_z
 _atom_site_occupancy
  La  La0  1  0.000000  0.114990  0.413680  1
  La  La1  1  0.000000  0.885010  0.586320  1
  La  La2  1  0.000000  0.385010  0.913680  1
  La  La3  1  0.000000  0.614990  0.086320  1
  La  La4  1  0.000000  0.237628  0.216086  1
  La  La5  1  0.000000  0.762372  0.783914  1
  La  La6  1  0.000000  0.262372  0.716086  1
  La  La7  1  0.000000  0.737628  0.283914  1
  Pr  Pr8  1  0.000000  0.000000  0.000000  1
  Pr  Pr9  1  0.000000  0.500000  0.500000  1
  Hg  Hg10  1  0.500000  0.424143  0.354270  1
  Hg  Hg11  1  0.500000  0.575857  0.645730  1
  Hg  Hg12  1  0.500000  0.075857  0.854270  1
  Hg  Hg13  1  0.500000  0.924143  0.145730  1
  Hg  Hg14  1  0.500000  0.285779  0.064353  1
  Hg  Hg15  1  0.500000  0.714221  0.935647  1
  Hg  Hg16  1  0.500000  0.214221  0.564353  1
  Hg  Hg17  1  0.500000  0.785779  0.435647  1
  Pt  Pt18  1  0.500000  0.022921  0.302491  1
  Pt  Pt19  1  0.500000  0.977079  0.697509  1
  Pt  Pt20  1  0.500000  0.477079  0.802491  1
  Pt  Pt21  1  0.500000  0.522921  0.197509  1
