# generated using pymatgen
data_GaReSeO8
_symmetry_space_group_name_H-M   'P 1'
_cell_length_a   5.24653000
_cell_length_b   5.24653064
_cell_length_c   7.08035900
_cell_angle_alpha   90.00000000
_cell_angle_beta   90.00000000
_cell_angle_gamma   119.99999597
_symmetry_Int_Tables_number   1
_chemical_formula_structural   GaReSeO8
_chemical_formula_sum   'Ga1 Re1 Se1 O8'
_cell_volume   168.78362181
_cell_formula_units_Z   1
loop_
 _symmetry_equiv_pos_site_id
 _symmetry_equiv_pos_as_xyz
  1  'x, y, z'
loop_
 _atom_site_type_symbol
 _atom_site_label
 _atom_site_symmetry_multiplicity
 _atom_site_fract_x
 _atom_site_fract_y
 _atom_site_fract_z
 _atom_site_occupancy
  Ga  Ga0  1  0.000000  0.000000  0.974479  1
  Re  Re1  1  0.333333  0.666667  0.246693  1
  Se  Se2  1  0.666667  0.333333  0.752842  1
  O  O3  1  0.346305  0.292728  0.840442  1
  O  O4  1  0.261333  0.941955  0.164120  1
  O  O5  1  0.058045  0.319376  0.164120  1
  O  O6  1  0.666667  0.333333  0.523951  1
  O  O7  1  0.333333  0.666667  0.488351  1
  O  O8  1  0.946424  0.653695  0.840442  1
  O  O9  1  0.707272  0.053576  0.840442  1
  O  O10  1  0.680624  0.738667  0.164120  1
