# generated using pymatgen
data_Ca7La13Sn16
_symmetry_space_group_name_H-M   'P 1'
_cell_length_a   8.16560625
_cell_length_b   8.66373989
_cell_length_c   16.36450205
_cell_angle_alpha   90.02867077
_cell_angle_beta   89.98427877
_cell_angle_gamma   89.99139579
_symmetry_Int_Tables_number   1
_chemical_formula_structural   Ca7La13Sn16
_chemical_formula_sum   'Ca7 La13 Sn16'
_cell_volume   1157.70140015
_cell_formula_units_Z   1
loop_
 _symmetry_equiv_pos_site_id
 _symmetry_equiv_pos_as_xyz
  1  'x, y, z'
loop_
 _atom_site_type_symbol
 _atom_site_label
 _atom_site_symmetry_multiplicity
 _atom_site_fract_x
 _atom_site_fract_y
 _atom_site_fract_z
 _atom_site_occupancy
  Ca  Ca0  1  0.330148  0.829347  0.876753  1
  Ca  Ca1  1  0.831940  0.670735  0.622685  1
  Ca  Ca2  1  0.669692  0.169309  0.377367  1
  Ca  Ca3  1  0.163166  0.498446  0.749868  1
  Ca  Ca4  1  0.662216  0.002622  0.749833  1
  Ca  Ca5  1  0.836304  0.502796  0.251715  1
  Ca  Ca6  1  0.337580  0.994415  0.251014  1
  La  La7  1  0.166216  0.326330  0.123065  1
  La  La8  1  0.666951  0.172240  0.124533  1
  La  La9  1  0.166173  0.326425  0.375960  1
  La  La10  1  0.335094  0.827096  0.624960  1
  La  La11  1  0.834813  0.674750  0.874415  1
  La  La12  1  0.491028  0.315817  0.904252  1
  La  La13  1  0.991370  0.187397  0.596269  1
  La  La14  1  0.510362  0.685569  0.404609  1
  La  La15  1  0.007984  0.814480  0.095526  1
  La  La16  1  0.508339  0.683653  0.095680  1
  La  La17  1  0.005147  0.816221  0.405160  1
  La  La18  1  0.494176  0.315892  0.595055  1
  La  La19  1  0.991010  0.185279  0.902854  1
  Sn  Sn20  1  0.328446  0.032546  0.038017  1
  Sn  Sn21  1  0.827574  0.466307  0.461462  1
  Sn  Sn22  1  0.674055  0.965987  0.539155  1
  Sn  Sn23  1  0.174497  0.535601  0.960702  1
  Sn  Sn24  1  0.669344  0.963714  0.961499  1
  Sn  Sn25  1  0.171127  0.536953  0.538119  1
  Sn  Sn26  1  0.330519  0.035559  0.461996  1
  Sn  Sn27  1  0.825727  0.464403  0.037104  1
  Sn  Sn28  1  0.532622  0.603016  0.749441  1
  Sn  Sn29  1  0.032184  0.899683  0.750193  1
  Sn  Sn30  1  0.469103  0.398258  0.249722  1
  Sn  Sn31  1  0.968166  0.101690  0.251089  1
  Sn  Sn32  1  0.287817  0.141120  0.749568  1
  Sn  Sn33  1  0.786961  0.359926  0.750475  1
  Sn  Sn34  1  0.710823  0.857651  0.249730  1
  Sn  Sn35  1  0.211324  0.638764  0.250156  1
