# generated using pymatgen
data_HoEr2Co7(P3Ir)2
_symmetry_space_group_name_H-M   'P 1'
_cell_length_a   3.72671000
_cell_length_b   10.63912200
_cell_length_c   12.36202200
_cell_angle_alpha   90.00000000
_cell_angle_beta   90.00000000
_cell_angle_gamma   90.00000000
_symmetry_Int_Tables_number   1
_chemical_formula_structural   HoEr2Co7(P3Ir)2
_chemical_formula_sum   'Ho2 Er4 Co14 P12 Ir4'
_cell_volume   490.14085035
_cell_formula_units_Z   2
loop_
 _symmetry_equiv_pos_site_id
 _symmetry_equiv_pos_as_xyz
  1  'x, y, z'
loop_
 _atom_site_type_symbol
 _atom_site_label
 _atom_site_symmetry_multiplicity
 _atom_site_fract_x
 _atom_site_fract_y
 _atom_site_fract_z
 _atom_site_occupancy
  Ho  Ho0  1  0.750000  0.250000  0.480002  1
  Ho  Ho1  1  0.250000  0.750000  0.519998  1
  Er  Er2  1  0.250000  0.936523  0.794005  1
  Er  Er3  1  0.250000  0.563477  0.794005  1
  Er  Er4  1  0.750000  0.063477  0.205995  1
  Er  Er5  1  0.750000  0.436523  0.205995  1
  Co  Co6  1  0.750000  0.250000  0.011973  1
  Co  Co7  1  0.250000  0.750000  0.988027  1
  Co  Co8  1  0.250000  0.417615  0.006695  1
  Co  Co9  1  0.250000  0.082385  0.006695  1
  Co  Co10  1  0.750000  0.582385  0.993305  1
  Co  Co11  1  0.750000  0.917615  0.993305  1
  Co  Co12  1  0.250000  0.449883  0.571307  1
  Co  Co13  1  0.250000  0.050117  0.571307  1
  Co  Co14  1  0.750000  0.550117  0.428693  1
  Co  Co15  1  0.750000  0.949883  0.428693  1
  Co  Co16  1  0.250000  0.869699  0.288642  1
  Co  Co17  1  0.250000  0.630301  0.288642  1
  Co  Co18  1  0.750000  0.130301  0.711358  1
  Co  Co19  1  0.750000  0.369699  0.711358  1
  P  P20  1  0.250000  0.250000  0.110939  1
  P  P21  1  0.750000  0.750000  0.889061  1
  P  P22  1  0.250000  0.250000  0.649075  1
  P  P23  1  0.750000  0.750000  0.350925  1
  P  P24  1  0.250000  0.447651  0.386707  1
  P  P25  1  0.250000  0.052349  0.386707  1
  P  P26  1  0.750000  0.552349  0.613293  1
  P  P27  1  0.750000  0.947651  0.613293  1
  P  P28  1  0.250000  0.905610  0.105577  1
  P  P29  1  0.250000  0.594390  0.105577  1
  P  P30  1  0.750000  0.094390  0.894423  1
  P  P31  1  0.750000  0.405610  0.894423  1
  Ir  Ir32  1  0.250000  0.250000  0.839195  1
  Ir  Ir33  1  0.750000  0.750000  0.160805  1
  Ir  Ir34  1  0.250000  0.250000  0.297078  1
  Ir  Ir35  1  0.750000  0.750000  0.702922  1
