# generated using pymatgen
data_La2Tc5(PRh)7
_symmetry_space_group_name_H-M   'P 1'
_cell_length_a   3.97671901
_cell_length_b   9.56772180
_cell_length_c   9.58811539
_cell_angle_alpha   119.63513884
_cell_angle_beta   90.00608421
_cell_angle_gamma   89.99985924
_symmetry_Int_Tables_number   1
_chemical_formula_structural   La2Tc5(PRh)7
_chemical_formula_sum   'La2 Tc5 P7 Rh7'
_cell_volume   317.08984350
_cell_formula_units_Z   1
loop_
 _symmetry_equiv_pos_site_id
 _symmetry_equiv_pos_as_xyz
  1  'x, y, z'
loop_
 _atom_site_type_symbol
 _atom_site_label
 _atom_site_symmetry_multiplicity
 _atom_site_fract_x
 _atom_site_fract_y
 _atom_site_fract_z
 _atom_site_occupancy
  La  La0  1  0.261937  0.668333  0.333349  1
  La  La1  1  0.761941  0.333264  0.666232  1
  Tc  Tc2  1  0.761851  0.093796  0.873961  1
  Tc  Tc3  1  0.762005  0.124581  0.216559  1
  Tc  Tc4  1  0.761890  0.783163  0.906362  1
  Tc  Tc5  1  0.261861  0.886221  0.157060  1
  Tc  Tc6  1  0.261943  0.843577  0.729096  1
  P  P7  1  0.261996  0.996597  0.997549  1
  P  P8  1  0.761889  0.888134  0.604870  1
  P  P9  1  0.761915  0.396993  0.288595  1
  P  P10  1  0.761902  0.717910  0.113632  1
  P  P11  1  0.261885  0.110464  0.406731  1
  P  P12  1  0.261924  0.592510  0.703686  1
  P  P13  1  0.261877  0.295400  0.886482  1
  Rh  Rh14  1  0.261941  0.269884  0.112343  1
  Rh  Rh15  1  0.761838  0.609497  0.560931  1
  Rh  Rh16  1  0.761882  0.438498  0.052009  1
  Rh  Rh17  1  0.761843  0.950526  0.390877  1
  Rh  Rh18  1  0.261931  0.367053  0.431737  1
  Rh  Rh19  1  0.261967  0.565762  0.934333  1
  Rh  Rh20  1  0.261783  0.067837  0.633609  1
