# generated using pymatgen
data_Nd12Ni3IrI12
_symmetry_space_group_name_H-M   'P 1'
_cell_length_a   10.80120170
_cell_length_b   10.76390377
_cell_length_c   10.76390508
_cell_angle_alpha   109.40091788
_cell_angle_beta   109.54142630
_cell_angle_gamma   109.54142878
_symmetry_Int_Tables_number   1
_chemical_formula_structural   Nd12Ni3IrI12
_chemical_formula_sum   'Nd12 Ni3 Ir1 I12'
_cell_volume   962.52684154
_cell_formula_units_Z   1
loop_
 _symmetry_equiv_pos_site_id
 _symmetry_equiv_pos_as_xyz
  1  'x, y, z'
loop_
 _atom_site_type_symbol
 _atom_site_label
 _atom_site_symmetry_multiplicity
 _atom_site_fract_x
 _atom_site_fract_y
 _atom_site_fract_z
 _atom_site_occupancy
  Nd  Nd0  1  0.457327  0.478962  0.229550  1
  Nd  Nd1  1  0.750000  0.227290  0.272710  1
  Nd  Nd2  1  0.750000  0.023793  0.476207  1
  Nd  Nd3  1  0.226207  0.452415  0.476207  1
  Nd  Nd4  1  0.272223  0.750588  0.229550  1
  Nd  Nd5  1  0.042673  0.270450  0.021038  1
  Nd  Nd6  1  0.022710  0.045418  0.272710  1
  Nd  Nd7  1  0.478364  0.750588  0.021038  1
  Nd  Nd8  1  0.477290  0.227290  0.454582  1
  Nd  Nd9  1  0.021636  0.478962  0.749412  1
  Nd  Nd10  1  0.273793  0.023793  0.047585  1
  Nd  Nd11  1  0.227777  0.270450  0.749412  1
  Ni  Ni12  1  0.250000  0.249492  0.250508  1
  Ni  Ni13  1  0.500508  0.001017  0.250508  1
  Ni  Ni14  1  0.999492  0.249492  0.498983  1
  Ir  Ir15  1  0.250000  0.500000  0.000000  1
  I  I16  1  0.250000  0.759773  0.740227  1
  I  I17  1  0.518916  0.508541  0.758165  1
  I  I18  1  0.981084  0.741835  0.991459  1
  I  I19  1  0.739249  0.249625  0.758165  1
  I  I20  1  0.990227  0.980457  0.740227  1
  I  I21  1  0.250000  0.990785  0.509215  1
  I  I22  1  0.759215  0.518427  0.509215  1
  I  I23  1  0.510377  0.249625  0.991459  1
  I  I24  1  0.760751  0.741835  0.250375  1
  I  I25  1  0.740785  0.990785  0.981573  1
  I  I26  1  0.989623  0.508541  0.250375  1
  I  I27  1  0.509773  0.759773  0.519543  1
