# generated using pymatgen
data_Tb20Si12P
_symmetry_space_group_name_H-M   'P 1'
_cell_length_a   6.41703026
_cell_length_b   8.53191491
_cell_length_c   14.85793900
_cell_angle_alpha   90.00000672
_cell_angle_beta   90.00000000
_cell_angle_gamma   89.88410334
_symmetry_Int_Tables_number   1
_chemical_formula_structural   Tb20Si12P
_chemical_formula_sum   'Tb20 Si12 P1'
_cell_volume   813.46390087
_cell_formula_units_Z   1
loop_
 _symmetry_equiv_pos_site_id
 _symmetry_equiv_pos_as_xyz
  1  'x, y, z'
loop_
 _atom_site_type_symbol
 _atom_site_label
 _atom_site_symmetry_multiplicity
 _atom_site_fract_x
 _atom_site_fract_y
 _atom_site_fract_z
 _atom_site_occupancy
  Tb  Tb0  1  0.500000  0.999999  0.335970  1
  Tb  Tb1  1  0.500000  0.500001  0.829308  1
  Tb  Tb2  1  0.500000  0.500001  0.170692  1
  Tb  Tb3  1  0.500000  0.999999  0.664030  1
  Tb  Tb4  1  0.000000  0.499999  0.166348  1
  Tb  Tb5  1  0.000000  0.000001  0.666196  1
  Tb  Tb6  1  0.000000  0.000001  0.333804  1
  Tb  Tb7  1  0.000000  0.499999  0.833652  1
  Tb  Tb8  1  0.746899  0.253415  0.000000  1
  Tb  Tb9  1  0.748356  0.744722  0.500000  1
  Tb  Tb10  1  0.751618  0.377044  0.380033  1
  Tb  Tb11  1  0.748511  0.871675  0.872249  1
  Tb  Tb12  1  0.748511  0.871675  0.127751  1
  Tb  Tb13  1  0.751618  0.377044  0.619967  1
  Tb  Tb14  1  0.253096  0.746584  0.000000  1
  Tb  Tb15  1  0.251643  0.255279  0.500000  1
  Tb  Tb16  1  0.251489  0.128325  0.127751  1
  Tb  Tb17  1  0.248381  0.622956  0.619967  1
  Tb  Tb18  1  0.248381  0.622956  0.380033  1
  Tb  Tb19  1  0.251489  0.128325  0.872249  1
  Si  Si20  1  0.745458  0.605729  0.000000  1
  Si  Si21  1  0.750714  0.105590  0.500000  1
  Si  Si22  1  0.749684  0.198238  0.199100  1
  Si  Si23  1  0.752827  0.696110  0.695233  1
  Si  Si24  1  0.752827  0.696110  0.304767  1
  Si  Si25  1  0.749684  0.198238  0.800900  1
  Si  Si26  1  0.254542  0.394271  0.000000  1
  Si  Si27  1  0.249286  0.894411  0.500000  1
  Si  Si28  1  0.247179  0.303892  0.304766  1
  Si  Si29  1  0.250314  0.801762  0.800900  1
  Si  Si30  1  0.250314  0.801762  0.199100  1
  Si  Si31  1  0.247179  0.303892  0.695234  1
  P  P32  1  0.499999  0.999999  0.000000  1
