# generated using pymatgen
data_LaTh2In3NiIr2
_symmetry_space_group_name_H-M   'P 1'
_cell_length_a   7.61827900
_cell_length_b   7.73250752
_cell_length_c   4.01167800
_cell_angle_alpha   90.00000000
_cell_angle_beta   90.00000000
_cell_angle_gamma   119.51251655
_symmetry_Int_Tables_number   1
_chemical_formula_structural   LaTh2In3NiIr2
_chemical_formula_sum   'La1 Th2 In3 Ni1 Ir2'
_cell_volume   205.65836396
_cell_formula_units_Z   1
loop_
 _symmetry_equiv_pos_site_id
 _symmetry_equiv_pos_as_xyz
  1  'x, y, z'
loop_
 _atom_site_type_symbol
 _atom_site_label
 _atom_site_symmetry_multiplicity
 _atom_site_fract_x
 _atom_site_fract_y
 _atom_site_fract_z
 _atom_site_occupancy
  La  La0  1  0.414925  0.000000  0.500000  1
  Th  Th1  1  0.001116  0.418443  0.500000  1
  Th  Th2  1  0.582674  0.581557  0.500000  1
  In  In3  1  0.754739  0.000000  0.000000  1
  In  In4  1  0.004983  0.765362  0.000000  1
  In  In5  1  0.239621  0.234638  0.000000  1
  Ni  Ni6  1  0.988987  0.000000  0.500000  1
  Ir  Ir7  1  0.328340  0.643726  0.000000  1
  Ir  Ir8  1  0.684615  0.356274  0.000000  1
