# generated using pymatgen
data_Y2Er14Ga6FeCo
_symmetry_space_group_name_H-M   'P 1'
_cell_length_a   9.92425600
_cell_length_b   9.92425666
_cell_length_c   6.90087400
_cell_angle_alpha   90.00000000
_cell_angle_beta   90.00000000
_cell_angle_gamma   120.00000445
_symmetry_Int_Tables_number   1
_chemical_formula_structural   Y2Er14Ga6FeCo
_chemical_formula_sum   'Y2 Er14 Ga6 Fe1 Co1'
_cell_volume   588.61409329
_cell_formula_units_Z   1
loop_
 _symmetry_equiv_pos_site_id
 _symmetry_equiv_pos_as_xyz
  1  'x, y, z'
loop_
 _atom_site_type_symbol
 _atom_site_label
 _atom_site_symmetry_multiplicity
 _atom_site_fract_x
 _atom_site_fract_y
 _atom_site_fract_z
 _atom_site_occupancy
  Y  Y0  1  0.000000  0.000000  0.269809  1
  Y  Y1  1  0.000000  0.000000  0.769260  1
  Er  Er2  1  0.173843  0.826157  0.990989  1
  Er  Er3  1  0.826312  0.173688  0.490130  1
  Er  Er4  1  0.173843  0.347686  0.990989  1
  Er  Er5  1  0.652314  0.826157  0.990989  1
  Er  Er6  1  0.347376  0.173688  0.490130  1
  Er  Er7  1  0.826312  0.652624  0.490130  1
  Er  Er8  1  0.333333  0.666667  0.670706  1
  Er  Er9  1  0.666667  0.333333  0.171289  1
  Er  Er10  1  0.463361  0.536639  0.292878  1
  Er  Er11  1  0.535983  0.464017  0.793587  1
  Er  Er12  1  0.463361  0.926723  0.292878  1
  Er  Er13  1  0.073277  0.536639  0.292878  1
  Er  Er14  1  0.928035  0.464017  0.793587  1
  Er  Er15  1  0.535983  0.071965  0.793587  1
  Ga  Ga16  1  0.163570  0.836430  0.540980  1
  Ga  Ga17  1  0.836132  0.163868  0.041130  1
  Ga  Ga18  1  0.163570  0.327142  0.540980  1
  Ga  Ga19  1  0.672858  0.836430  0.540980  1
  Ga  Ga20  1  0.327737  0.163868  0.041130  1
  Ga  Ga21  1  0.836132  0.672263  0.041130  1
  Fe  Fe22  1  0.333333  0.666667  0.057769  1
  Co  Co23  1  0.666667  0.333333  0.558205  1
