# generated using pymatgen
data_Dy3Hf4ScPt4
_symmetry_space_group_name_H-M   'P 1'
_cell_length_a   4.63852500
_cell_length_b   7.01626192
_cell_length_c   8.16288248
_cell_angle_alpha   90.27937615
_cell_angle_beta   90.00000000
_cell_angle_gamma   90.00000000
_symmetry_Int_Tables_number   1
_chemical_formula_structural   Dy3Hf4ScPt4
_chemical_formula_sum   'Dy3 Hf4 Sc1 Pt4'
_cell_volume   265.65872008
_cell_formula_units_Z   1
loop_
 _symmetry_equiv_pos_site_id
 _symmetry_equiv_pos_as_xyz
  1  'x, y, z'
loop_
 _atom_site_type_symbol
 _atom_site_label
 _atom_site_symmetry_multiplicity
 _atom_site_fract_x
 _atom_site_fract_y
 _atom_site_fract_z
 _atom_site_occupancy
  Dy  Dy0  1  0.250000  0.518947  0.180285  1
  Dy  Dy1  1  0.750000  0.982763  0.676597  1
  Dy  Dy2  1  0.750000  0.485180  0.820807  1
  Hf  Hf3  1  0.250000  0.147085  0.925813  1
  Hf  Hf4  1  0.250000  0.645964  0.574591  1
  Hf  Hf5  1  0.750000  0.858834  0.083684  1
  Hf  Hf6  1  0.750000  0.347629  0.421262  1
  Sc  Sc7  1  0.250000  0.017319  0.324210  1
  Pt  Pt8  1  0.250000  0.263971  0.590488  1
  Pt  Pt9  1  0.250000  0.770933  0.903719  1
  Pt  Pt10  1  0.750000  0.729193  0.402683  1
  Pt  Pt11  1  0.750000  0.232182  0.095862  1
