# generated using pymatgen
data_Ce2TmZr3F22
_symmetry_space_group_name_H-M   'P 1'
_cell_length_a   8.47966968
_cell_length_b   8.47966963
_cell_length_c   8.50041437
_cell_angle_alpha   124.51513029
_cell_angle_beta   106.16116793
_cell_angle_gamma   98.79901014
_symmetry_Int_Tables_number   1
_chemical_formula_structural   Ce2TmZr3F22
_chemical_formula_sum   'Ce2 Tm1 Zr3 F22'
_cell_volume   444.89721218
_cell_formula_units_Z   1
loop_
 _symmetry_equiv_pos_site_id
 _symmetry_equiv_pos_as_xyz
  1  'x, y, z'
loop_
 _atom_site_type_symbol
 _atom_site_label
 _atom_site_symmetry_multiplicity
 _atom_site_fract_x
 _atom_site_fract_y
 _atom_site_fract_z
 _atom_site_occupancy
  Ce  Ce0  1  0.748959  0.247933  0.496366  1
  Ce  Ce1  1  0.248433  0.747407  0.496366  1
  Tm  Tm2  1  0.681280  0.636398  0.317678  1
  Zr  Zr3  1  0.319996  0.365828  0.685825  1
  Zr  Zr4  1  0.179586  0.866151  0.045737  1
  Zr  Zr5  1  0.816922  0.135515  0.952437  1
  F  F6  1  0.707216  0.916383  0.349618  1
  F  F7  1  0.293149  0.097125  0.651351  1
  F  F8  1  0.554225  0.358201  0.651351  1
  F  F9  1  0.945579  0.601286  0.809256  1
  F  F10  1  0.433235  0.642401  0.349618  1
  F  F11  1  0.057887  0.395595  0.189058  1
  F  F12  1  0.793462  0.131169  0.189058  1
  F  F13  1  0.207969  0.863676  0.809256  1
  F  F14  1  0.494437  0.495080  0.989518  1
  F  F15  1  0.002035  0.001092  0.003127  1
  F  F16  1  0.781822  0.879067  0.660889  1
  F  F17  1  0.220405  0.129180  0.349585  1
  F  F18  1  0.279570  0.630554  0.910124  1
  F  F19  1  0.720070  0.363768  0.083837  1
  F  F20  1  0.969924  0.738658  0.424125  1
  F  F21  1  0.046078  0.262716  0.582658  1
  F  F22  1  0.319941  0.536580  0.582658  1
  F  F23  1  0.174475  0.759442  0.212696  1
  F  F24  1  0.685468  0.454201  0.424125  1
  F  F25  1  0.823828  0.244702  0.785495  1
  F  F26  1  0.540793  0.961668  0.785495  1
  F  F27  1  0.453254  0.038221  0.212696  1
