# generated using pymatgen
data_TbB3W
_symmetry_space_group_name_H-M   'P 1'
_cell_length_a   5.48214276
_cell_length_b   3.17058800
_cell_length_c   6.85498676
_cell_angle_alpha   90.00000000
_cell_angle_beta   102.44106672
_cell_angle_gamma   90.00000000
_symmetry_Int_Tables_number   1
_chemical_formula_structural   TbB3W
_chemical_formula_sum   'Tb2 B6 W2'
_cell_volume   116.35286393
_cell_formula_units_Z   2
loop_
 _symmetry_equiv_pos_site_id
 _symmetry_equiv_pos_as_xyz
  1  'x, y, z'
loop_
 _atom_site_type_symbol
 _atom_site_label
 _atom_site_symmetry_multiplicity
 _atom_site_fract_x
 _atom_site_fract_y
 _atom_site_fract_z
 _atom_site_occupancy
  Tb  Tb0  1  0.174001  0.250000  0.207978  1
  Tb  Tb1  1  0.825999  0.750000  0.792022  1
  B  B2  1  0.581777  0.250000  0.025667  1
  B  B3  1  0.083056  0.750000  0.493479  1
  B  B4  1  0.412732  0.750000  0.495028  1
  B  B5  1  0.587266  0.250000  0.504972  1
  B  B6  1  0.916945  0.250000  0.506521  1
  B  B7  1  0.418223  0.750000  0.974332  1
  W  W8  1  0.687184  0.750000  0.280844  1
  W  W9  1  0.312817  0.250000  0.719157  1
