# generated using pymatgen
data_Cs2Te(OF2)2
_symmetry_space_group_name_H-M   'P 1'
_cell_length_a   6.43394888
_cell_length_b   6.43394931
_cell_length_c   5.30190011
_cell_angle_alpha   87.35014822
_cell_angle_beta   87.35014315
_cell_angle_gamma   59.62823846
_symmetry_Int_Tables_number   1
_chemical_formula_structural   Cs2Te(OF2)2
_chemical_formula_sum   'Cs2 Te1 O2 F4'
_cell_volume   189.08664627
_cell_formula_units_Z   1
loop_
 _symmetry_equiv_pos_site_id
 _symmetry_equiv_pos_as_xyz
  1  'x, y, z'
loop_
 _atom_site_type_symbol
 _atom_site_label
 _atom_site_symmetry_multiplicity
 _atom_site_fract_x
 _atom_site_fract_y
 _atom_site_fract_z
 _atom_site_occupancy
  Cs  Cs0  1  0.324009  0.324009  0.304713  1
  Cs  Cs1  1  0.675991  0.675991  0.695287  1
  Te  Te2  1  0.000000  0.000000  0.000000  1
  O  O3  1  0.140005  0.140005  0.805265  1
  O  O4  1  0.859995  0.859995  0.194735  1
  F  F5  1  0.707434  0.158529  0.789695  1
  F  F6  1  0.158529  0.707434  0.789695  1
  F  F7  1  0.292566  0.841471  0.210305  1
  F  F8  1  0.841471  0.292566  0.210305  1
