# generated using pymatgen
data_Zr6NiS2
_symmetry_space_group_name_H-M   'P 1'
_cell_length_a   3.49570300
_cell_length_b   12.71335600
_cell_length_c   15.55036400
_cell_angle_alpha   90.00000000
_cell_angle_beta   90.00000000
_cell_angle_gamma   90.00000000
_symmetry_Int_Tables_number   1
_chemical_formula_structural   Zr6NiS2
_chemical_formula_sum   'Zr24 Ni4 S8'
_cell_volume   691.09109176
_cell_formula_units_Z   4
loop_
 _symmetry_equiv_pos_site_id
 _symmetry_equiv_pos_as_xyz
  1  'x, y, z'
loop_
 _atom_site_type_symbol
 _atom_site_label
 _atom_site_symmetry_multiplicity
 _atom_site_fract_x
 _atom_site_fract_y
 _atom_site_fract_z
 _atom_site_occupancy
  Zr  Zr0  1  0.000000  0.022726  0.103566  1
  Zr  Zr1  1  0.000000  0.977274  0.896434  1
  Zr  Zr2  1  0.500000  0.477274  0.603566  1
  Zr  Zr3  1  0.500000  0.522726  0.396434  1
  Zr  Zr4  1  0.000000  0.412310  0.251855  1
  Zr  Zr5  1  0.000000  0.587690  0.748145  1
  Zr  Zr6  1  0.500000  0.087690  0.751855  1
  Zr  Zr7  1  0.500000  0.912310  0.248145  1
  Zr  Zr8  1  0.000000  0.090541  0.579572  1
  Zr  Zr9  1  0.000000  0.909459  0.420428  1
  Zr  Zr10  1  0.500000  0.409459  0.079572  1
  Zr  Zr11  1  0.500000  0.590541  0.920428  1
  Zr  Zr12  1  0.000000  0.333360  0.480108  1
  Zr  Zr13  1  0.000000  0.666640  0.519892  1
  Zr  Zr14  1  0.500000  0.166640  0.980108  1
  Zr  Zr15  1  0.500000  0.833360  0.019892  1
  Zr  Zr16  1  0.000000  0.692372  0.292072  1
  Zr  Zr17  1  0.000000  0.307628  0.707928  1
  Zr  Zr18  1  0.500000  0.807628  0.792072  1
  Zr  Zr19  1  0.500000  0.192372  0.207928  1
  Zr  Zr20  1  0.000000  0.617206  0.087167  1
  Zr  Zr21  1  0.000000  0.382794  0.912833  1
  Zr  Zr22  1  0.500000  0.882794  0.587167  1
  Zr  Zr23  1  0.500000  0.117206  0.412833  1
  Ni  Ni24  1  0.000000  0.257741  0.090371  1
  Ni  Ni25  1  0.000000  0.742259  0.909629  1
  Ni  Ni26  1  0.500000  0.242259  0.590371  1
  Ni  Ni27  1  0.500000  0.757741  0.409629  1
  S  S28  1  0.000000  0.062307  0.288107  1
  S  S29  1  0.000000  0.937693  0.711893  1
  S  S30  1  0.500000  0.437693  0.788107  1
  S  S31  1  0.500000  0.562307  0.211893  1
  S  S32  1  0.000000  0.810227  0.150875  1
  S  S33  1  0.000000  0.189773  0.849125  1
  S  S34  1  0.500000  0.689773  0.650875  1
  S  S35  1  0.500000  0.310227  0.349125  1
