# generated using pymatgen
data_Tm2Ta3Co9P7
_symmetry_space_group_name_H-M   'P 1'
_cell_length_a   3.66710700
_cell_length_b   9.21046727
_cell_length_c   9.21046700
_cell_angle_alpha   119.99999545
_cell_angle_beta   90.00000000
_cell_angle_gamma   90.00000000
_symmetry_Int_Tables_number   1
_chemical_formula_structural   Tm2Ta3Co9P7
_chemical_formula_sum   'Tm2 Ta3 Co9 P7'
_cell_volume   269.41237975
_cell_formula_units_Z   1
loop_
 _symmetry_equiv_pos_site_id
 _symmetry_equiv_pos_as_xyz
  1  'x, y, z'
loop_
 _atom_site_type_symbol
 _atom_site_label
 _atom_site_symmetry_multiplicity
 _atom_site_fract_x
 _atom_site_fract_y
 _atom_site_fract_z
 _atom_site_occupancy
  Tm  Tm0  1  0.000000  0.666667  0.333333  1
  Tm  Tm1  1  0.500000  0.333333  0.666667  1
  Ta  Ta2  1  0.500000  0.773903  0.897454  1
  Ta  Ta3  1  0.500000  0.123551  0.226097  1
  Ta  Ta4  1  0.500000  0.102546  0.876449  1
  Co  Co5  1  0.000000  0.566936  0.935344  1
  Co  Co6  1  0.000000  0.368408  0.433064  1
  Co  Co7  1  0.000000  0.064656  0.631592  1
  Co  Co8  1  0.000000  0.878009  0.161900  1
  Co  Co9  1  0.000000  0.283892  0.121991  1
  Co  Co10  1  0.000000  0.838100  0.716108  1
  Co  Co11  1  0.500000  0.946562  0.387796  1
  Co  Co12  1  0.500000  0.441233  0.053438  1
  Co  Co13  1  0.500000  0.612204  0.558767  1
  P  P14  1  0.000000  0.000000  0.000000  1
  P  P15  1  0.500000  0.709879  0.126585  1
  P  P16  1  0.500000  0.416707  0.290121  1
  P  P17  1  0.500000  0.873415  0.583293  1
  P  P18  1  0.000000  0.580204  0.690908  1
  P  P19  1  0.000000  0.110704  0.419796  1
  P  P20  1  0.000000  0.309092  0.889296  1
