# generated using pymatgen
data_La8Dy2Ir3Os
_symmetry_space_group_name_H-M   'P 1'
_cell_length_a   6.68844013
_cell_length_b   7.30845425
_cell_length_c   9.09362616
_cell_angle_alpha   95.42198105
_cell_angle_beta   111.41052843
_cell_angle_gamma   90.11383295
_symmetry_Int_Tables_number   1
_chemical_formula_structural   La8Dy2Ir3Os
_chemical_formula_sum   'La8 Dy2 Ir3 Os1'
_cell_volume   411.66860251
_cell_formula_units_Z   1
loop_
 _symmetry_equiv_pos_site_id
 _symmetry_equiv_pos_as_xyz
  1  'x, y, z'
loop_
 _atom_site_type_symbol
 _atom_site_label
 _atom_site_symmetry_multiplicity
 _atom_site_fract_x
 _atom_site_fract_y
 _atom_site_fract_z
 _atom_site_occupancy
  La  La0  1  0.796451  0.086140  0.817204  1
  La  La1  1  0.979726  0.415577  0.179083  1
  La  La2  1  0.200839  0.916913  0.181632  1
  La  La3  1  0.015343  0.583048  0.818270  1
  La  La4  1  0.219106  0.185189  0.573925  1
  La  La5  1  0.641628  0.315879  0.428538  1
  La  La6  1  0.784334  0.815294  0.426723  1
  La  La7  1  0.359223  0.682739  0.576149  1
  Dy  Dy8  1  0.434705  0.251259  0.999400  1
  Dy  Dy9  1  0.564919  0.748318  0.999009  1
  Ir  Ir10  1  0.810005  0.072792  0.213167  1
  Ir  Ir11  1  0.402030  0.574475  0.212375  1
  Ir  Ir12  1  0.190123  0.926078  0.787796  1
  Os  Os13  1  0.601566  0.426299  0.786727  1
