# generated using pymatgen
data_TcIr7Rh
_symmetry_space_group_name_H-M   'P 1'
_cell_length_a   6.12349650
_cell_length_b   6.12349662
_cell_length_c   6.12308013
_cell_angle_alpha   95.72676961
_cell_angle_beta   95.72678096
_cell_angle_gamma   143.17250394
_symmetry_Int_Tables_number   1
_chemical_formula_structural   TcIr7Rh
_chemical_formula_sum   'Tc1 Ir7 Rh1'
_cell_volume   130.57585186
_cell_formula_units_Z   1
loop_
 _symmetry_equiv_pos_site_id
 _symmetry_equiv_pos_as_xyz
  1  'x, y, z'
loop_
 _atom_site_type_symbol
 _atom_site_label
 _atom_site_symmetry_multiplicity
 _atom_site_fract_x
 _atom_site_fract_y
 _atom_site_fract_z
 _atom_site_occupancy
  Tc  Tc0  1  0.001636  0.001636  0.003272  1
  Ir  Ir1  1  0.663739  0.336334  0.000073  1
  Ir  Ir2  1  0.336334  0.663739  0.000073  1
  Ir  Ir3  1  0.662238  0.662238  0.324477  1
  Ir  Ir4  1  0.330933  0.000172  0.331105  1
  Ir  Ir5  1  0.000172  0.330933  0.331105  1
  Ir  Ir6  1  0.667041  0.001684  0.668725  1
  Ir  Ir7  1  0.001684  0.667041  0.668725  1
  Rh  Rh8  1  0.336223  0.336223  0.672444  1
