# generated using pymatgen
data_TmLu19(Ir5Pt)2
_symmetry_space_group_name_H-M   'P 1'
_cell_length_a   10.70680342
_cell_length_b   10.70606728
_cell_length_c   6.25164238
_cell_angle_alpha   89.98614605
_cell_angle_beta   89.96488695
_cell_angle_gamma   90.01321038
_symmetry_Int_Tables_number   1
_chemical_formula_structural   TmLu19(Ir5Pt)2
_chemical_formula_sum   'Tm1 Lu19 Ir10 Pt2'
_cell_volume   716.61157452
_cell_formula_units_Z   1
loop_
 _symmetry_equiv_pos_site_id
 _symmetry_equiv_pos_as_xyz
  1  'x, y, z'
loop_
 _atom_site_type_symbol
 _atom_site_label
 _atom_site_symmetry_multiplicity
 _atom_site_fract_x
 _atom_site_fract_y
 _atom_site_fract_z
 _atom_site_occupancy
  Tm  Tm0  1  0.090050  0.292475  0.123746  1
  Lu  Lu1  1  0.291519  0.086650  0.375755  1
  Lu  Lu2  1  0.291202  0.912986  0.875780  1
  Lu  Lu3  1  0.705253  0.088593  0.874291  1
  Lu  Lu4  1  0.705246  0.911388  0.374525  1
  Lu  Lu5  1  0.584445  0.791362  0.877653  1
  Lu  Lu6  1  0.584437  0.208676  0.377718  1
  Lu  Lu7  1  0.411977  0.791680  0.376947  1
  Lu  Lu8  1  0.411975  0.208301  0.876835  1
  Lu  Lu9  1  0.208477  0.412463  0.622959  1
  Lu  Lu10  1  0.208460  0.588111  0.122889  1
  Lu  Lu11  1  0.791350  0.415300  0.122511  1
  Lu  Lu12  1  0.791391  0.584910  0.622624  1
  Lu  Lu13  1  0.914330  0.707235  0.126688  1
  Lu  Lu14  1  0.914145  0.292921  0.626696  1
  Lu  Lu15  1  0.089837  0.707098  0.623242  1
  Lu  Lu16  1  0.002743  0.999505  0.499883  1
  Lu  Lu17  1  0.002622  0.000034  0.999750  1
  Lu  Lu18  1  0.499962  0.499902  0.999916  1
  Lu  Lu19  1  0.500007  0.500259  0.500047  1
  Ir  Ir20  1  0.153276  0.153510  0.748659  1
  Ir  Ir21  1  0.153050  0.846118  0.249940  1
  Ir  Ir22  1  0.654839  0.345258  0.750127  1
  Ir  Ir23  1  0.654886  0.654712  0.249949  1
  Ir  Ir24  1  0.346951  0.346019  0.250559  1
  Ir  Ir25  1  0.346221  0.654016  0.750065  1
  Ir  Ir26  1  0.500779  0.000000  0.123150  1
  Ir  Ir27  1  0.500696  0.999937  0.623268  1
  Ir  Ir28  1  0.999558  0.500434  0.876418  1
  Ir  Ir29  1  0.999517  0.500502  0.377217  1
  Pt  Pt30  1  0.845205  0.153266  0.250226  1
  Pt  Pt31  1  0.845587  0.846377  0.749969  1
