# generated using pymatgen
data_YbHoNi7
_symmetry_space_group_name_H-M   'P 1'
_cell_length_a   4.87818714
_cell_length_b   4.87818692
_cell_length_c   12.26241941
_cell_angle_alpha   78.52689302
_cell_angle_beta   78.52689467
_cell_angle_gamma   59.99999792
_symmetry_Int_Tables_number   1
_chemical_formula_structural   YbHoNi7
_chemical_formula_sum   'Yb2 Ho2 Ni14'
_cell_volume   245.95486557
_cell_formula_units_Z   2
loop_
 _symmetry_equiv_pos_site_id
 _symmetry_equiv_pos_as_xyz
  1  'x, y, z'
loop_
 _atom_site_type_symbol
 _atom_site_label
 _atom_site_symmetry_multiplicity
 _atom_site_fract_x
 _atom_site_fract_y
 _atom_site_fract_z
 _atom_site_occupancy
  Yb  Yb0  1  0.850956  0.850956  0.447130  1
  Yb  Yb1  1  0.149044  0.149044  0.552870  1
  Ho  Ho2  1  0.947712  0.947712  0.156865  1
  Ho  Ho3  1  0.052288  0.052288  0.843135  1
  Ni  Ni4  1  0.500000  0.500000  0.500000  1
  Ni  Ni5  1  0.722024  0.722024  0.833928  1
  Ni  Ni6  1  0.277976  0.277976  0.166072  1
  Ni  Ni7  1  0.611573  0.611573  0.165282  1
  Ni  Ni8  1  0.388427  0.388427  0.834718  1
  Ni  Ni9  1  0.000000  0.500000  0.000000  1
  Ni  Ni10  1  0.500000  0.000000  0.000000  1
  Ni  Ni11  1  0.500000  0.500000  0.000000  1
  Ni  Ni12  1  0.389890  0.389890  0.330604  1
  Ni  Ni13  1  0.889615  0.389890  0.330604  1
  Ni  Ni14  1  0.389890  0.889615  0.330604  1
  Ni  Ni15  1  0.610110  0.610110  0.669396  1
  Ni  Ni16  1  0.110385  0.610110  0.669396  1
  Ni  Ni17  1  0.610110  0.110385  0.669396  1
