# generated using pymatgen
data_AcPrRh4
_symmetry_space_group_name_H-M   'P 1'
_cell_length_a   5.50756148
_cell_length_b   5.50756150
_cell_length_c   5.50756200
_cell_angle_alpha   59.99999699
_cell_angle_beta   59.99999685
_cell_angle_gamma   59.99999804
_symmetry_Int_Tables_number   1
_chemical_formula_structural   AcPrRh4
_chemical_formula_sum   'Ac1 Pr1 Rh4'
_cell_volume   118.13078207
_cell_formula_units_Z   1
loop_
 _symmetry_equiv_pos_site_id
 _symmetry_equiv_pos_as_xyz
  1  'x, y, z'
loop_
 _atom_site_type_symbol
 _atom_site_label
 _atom_site_symmetry_multiplicity
 _atom_site_fract_x
 _atom_site_fract_y
 _atom_site_fract_z
 _atom_site_occupancy
  Ac  Ac0  1  0.750000  0.750000  0.750000  1
  Pr  Pr1  1  0.500000  0.500000  0.500000  1
  Rh  Rh2  1  0.125469  0.125469  0.623592  1
  Rh  Rh3  1  0.125469  0.623592  0.125469  1
  Rh  Rh4  1  0.125469  0.125469  0.125469  1
  Rh  Rh5  1  0.623592  0.125469  0.125469  1
