# generated using pymatgen
data_LiHfFeH6
_symmetry_space_group_name_H-M   'P 1'
_cell_length_a   4.44663003
_cell_length_b   4.44663048
_cell_length_c   4.44663000
_cell_angle_alpha   59.99998872
_cell_angle_beta   59.99998535
_cell_angle_gamma   59.99998501
_symmetry_Int_Tables_number   1
_chemical_formula_structural   LiHfFeH6
_chemical_formula_sum   'Li1 Hf1 Fe1 H6'
_cell_volume   62.16957512
_cell_formula_units_Z   1
loop_
 _symmetry_equiv_pos_site_id
 _symmetry_equiv_pos_as_xyz
  1  'x, y, z'
loop_
 _atom_site_type_symbol
 _atom_site_label
 _atom_site_symmetry_multiplicity
 _atom_site_fract_x
 _atom_site_fract_y
 _atom_site_fract_z
 _atom_site_occupancy
  Li  Li0  1  0.750000  0.750000  0.750000  1
  Hf  Hf1  1  0.250000  0.250000  0.250000  1
  Fe  Fe2  1  0.000000  0.000000  0.000000  1
  H  H3  1  0.254770  0.745230  0.254770  1
  H  H4  1  0.745229  0.745229  0.254771  1
  H  H5  1  0.745229  0.254771  0.254771  1
  H  H6  1  0.254771  0.745229  0.745229  1
  H  H7  1  0.745230  0.254770  0.745230  1
  H  H8  1  0.254770  0.254770  0.745230  1
