# generated using pymatgen
data_Tm2TiAlIr2
_symmetry_space_group_name_H-M   'P 1'
_cell_length_a   4.33142900
_cell_length_b   6.81520373
_cell_length_c   7.84538505
_cell_angle_alpha   87.90871516
_cell_angle_beta   90.00000000
_cell_angle_gamma   90.00000000
_symmetry_Int_Tables_number   1
_chemical_formula_structural   Tm2TiAlIr2
_chemical_formula_sum   'Tm4 Ti2 Al2 Ir4'
_cell_volume   231.43815071
_cell_formula_units_Z   2
loop_
 _symmetry_equiv_pos_site_id
 _symmetry_equiv_pos_as_xyz
  1  'x, y, z'
loop_
 _atom_site_type_symbol
 _atom_site_label
 _atom_site_symmetry_multiplicity
 _atom_site_fract_x
 _atom_site_fract_y
 _atom_site_fract_z
 _atom_site_occupancy
  Tm  Tm0  1  0.250000  0.477333  0.191113  1
  Tm  Tm1  1  0.750000  0.522667  0.808887  1
  Tm  Tm2  1  0.750000  0.021222  0.674724  1
  Tm  Tm3  1  0.250000  0.978778  0.325276  1
  Ti  Ti4  1  0.250000  0.863947  0.926071  1
  Ti  Ti5  1  0.750000  0.136053  0.073929  1
  Al  Al6  1  0.750000  0.651090  0.429499  1
  Al  Al7  1  0.250000  0.348910  0.570501  1
  Ir  Ir8  1  0.250000  0.725700  0.615344  1
  Ir  Ir9  1  0.750000  0.274300  0.384656  1
  Ir  Ir10  1  0.750000  0.772828  0.099454  1
  Ir  Ir11  1  0.250000  0.227172  0.900546  1
