# generated using pymatgen
data_Nd2Er4FeI10
_symmetry_space_group_name_H-M   'P 1'
_cell_length_a   7.74536437
_cell_length_b   9.77057558
_cell_length_c   9.64078919
_cell_angle_alpha   106.62843819
_cell_angle_beta   95.94022093
_cell_angle_gamma   105.27613760
_symmetry_Int_Tables_number   1
_chemical_formula_structural   Nd2Er4FeI10
_chemical_formula_sum   'Nd2 Er4 Fe1 I10'
_cell_volume   661.62224325
_cell_formula_units_Z   1
loop_
 _symmetry_equiv_pos_site_id
 _symmetry_equiv_pos_as_xyz
  1  'x, y, z'
loop_
 _atom_site_type_symbol
 _atom_site_label
 _atom_site_symmetry_multiplicity
 _atom_site_fract_x
 _atom_site_fract_y
 _atom_site_fract_z
 _atom_site_occupancy
  Nd  Nd0  1  0.890952  0.959581  0.222050  1
  Nd  Nd1  1  0.109048  0.040419  0.777950  1
  Er  Er2  1  0.029395  0.716699  0.914760  1
  Er  Er3  1  0.970605  0.283301  0.085240  1
  Er  Er4  1  0.654238  0.876019  0.835790  1
  Er  Er5  1  0.345762  0.123981  0.164210  1
  Fe  Fe6  1  0.000000  0.000000  0.000000  1
  I  I7  1  0.651603  0.553338  0.730345  1
  I  I8  1  0.348397  0.446662  0.269655  1
  I  I9  1  0.734941  0.910839  0.543539  1
  I  I10  1  0.265059  0.089161  0.456461  1
  I  I11  1  0.084111  0.375717  0.822269  1
  I  I12  1  0.915889  0.624283  0.177731  1
  I  I13  1  0.450824  0.817352  0.091352  1
  I  I14  1  0.549176  0.182648  0.908648  1
  I  I15  1  0.223353  0.739374  0.656725  1
  I  I16  1  0.776647  0.260626  0.343275  1
