# generated using pymatgen
data_Yb5Np5O18
_symmetry_space_group_name_H-M   'P 1'
_cell_length_a   6.80805706
_cell_length_b   7.36564034
_cell_length_c   8.35141732
_cell_angle_alpha   98.21841871
_cell_angle_beta   98.23408514
_cell_angle_gamma   107.75016885
_symmetry_Int_Tables_number   1
_chemical_formula_structural   Yb5Np5O18
_chemical_formula_sum   'Yb5 Np5 O18'
_cell_volume   386.92627040
_cell_formula_units_Z   1
loop_
 _symmetry_equiv_pos_site_id
 _symmetry_equiv_pos_as_xyz
  1  'x, y, z'
loop_
 _atom_site_type_symbol
 _atom_site_label
 _atom_site_symmetry_multiplicity
 _atom_site_fract_x
 _atom_site_fract_y
 _atom_site_fract_z
 _atom_site_occupancy
  Yb  Yb0  1  0.797449  0.102631  0.577648  1
  Yb  Yb1  1  0.591765  0.694480  0.197591  1
  Yb  Yb2  1  0.408235  0.305520  0.802409  1
  Yb  Yb3  1  0.202551  0.897369  0.422352  1
  Yb  Yb4  1  0.000000  0.500000  0.000000  1
  Np  Np5  1  0.000000  0.000000  0.000000  1
  Np  Np6  1  0.789689  0.577169  0.588139  1
  Np  Np7  1  0.625067  0.203416  0.191797  1
  Np  Np8  1  0.374933  0.796584  0.808203  1
  Np  Np9  1  0.210311  0.422831  0.411861  1
  O  O10  1  0.822896  0.796657  0.467705  1
  O  O11  1  0.007259  0.249960  0.163316  1
  O  O12  1  0.672360  0.416296  0.061756  1
  O  O13  1  0.459860  0.002236  0.677766  1
  O  O14  1  0.861454  0.338308  0.423188  1
  O  O15  1  0.508057  0.412448  0.341146  1
  O  O16  1  0.249820  0.624436  0.276071  1
  O  O17  1  0.988282  0.833835  0.164900  1
  O  O18  1  0.662377  0.929341  0.003428  1
  O  O19  1  0.337623  0.070659  0.996572  1
  O  O20  1  0.011718  0.166165  0.835100  1
  O  O21  1  0.750180  0.375564  0.723929  1
  O  O22  1  0.491943  0.587552  0.658854  1
  O  O23  1  0.138546  0.661692  0.576812  1
  O  O24  1  0.540140  0.997764  0.322234  1
  O  O25  1  0.327640  0.583704  0.938244  1
  O  O26  1  0.992741  0.750040  0.836684  1
  O  O27  1  0.177104  0.203343  0.532295  1
