# generated using pymatgen
data_DyAl7Ag5
_symmetry_space_group_name_H-M   'P 1'
_cell_length_a   7.06091828
_cell_length_b   7.06091865
_cell_length_c   7.06091888
_cell_angle_alpha   133.71083599
_cell_angle_beta   100.25385071
_cell_angle_gamma   97.52571919
_symmetry_Int_Tables_number   1
_chemical_formula_structural   DyAl7Ag5
_chemical_formula_sum   'Dy1 Al7 Ag5'
_cell_volume   233.89171619
_cell_formula_units_Z   1
loop_
 _symmetry_equiv_pos_site_id
 _symmetry_equiv_pos_as_xyz
  1  'x, y, z'
loop_
 _atom_site_type_symbol
 _atom_site_label
 _atom_site_symmetry_multiplicity
 _atom_site_fract_x
 _atom_site_fract_y
 _atom_site_fract_z
 _atom_site_occupancy
  Dy  Dy0  1  0.001714  0.000000  0.001714  1
  Al  Al1  1  0.356852  0.000000  0.356852  1
  Al  Al2  1  0.649931  0.000000  0.649931  1
  Al  Al3  1  0.651465  0.647469  0.003996  1
  Al  Al4  1  0.356526  0.352531  0.003996  1
  Al  Al5  1  0.222980  0.500000  0.722980  1
  Al  Al6  1  0.204649  0.709968  0.494682  1
  Al  Al7  1  0.784714  0.290032  0.494682  1
  Ag  Ag8  1  0.487633  0.989574  0.995421  1
  Ag  Ag9  1  0.487633  0.492211  0.498059  1
  Ag  Ag10  1  0.005847  0.507789  0.995421  1
  Ag  Ag11  1  0.005847  0.010426  0.498059  1
  Ag  Ag12  1  0.784209  0.500000  0.284209  1
