# generated using pymatgen
data_Cs3Y(VS4)2
_symmetry_space_group_name_H-M   'P 1'
_cell_length_a   10.07081889
_cell_length_b   7.05567900
_cell_length_c   12.13271109
_cell_angle_alpha   90.00000000
_cell_angle_beta   89.41386820
_cell_angle_gamma   90.00000000
_symmetry_Int_Tables_number   1
_chemical_formula_structural   Cs3Y(VS4)2
_chemical_formula_sum   'Cs6 Y2 V4 S16'
_cell_volume   862.06245500
_cell_formula_units_Z   2
loop_
 _symmetry_equiv_pos_site_id
 _symmetry_equiv_pos_as_xyz
  1  'x, y, z'
loop_
 _atom_site_type_symbol
 _atom_site_label
 _atom_site_symmetry_multiplicity
 _atom_site_fract_x
 _atom_site_fract_y
 _atom_site_fract_z
 _atom_site_occupancy
  Cs  Cs0  1  0.371494  0.804095  0.081243  1
  Cs  Cs1  1  0.401485  0.307483  0.342770  1
  Cs  Cs2  1  0.849563  0.307445  0.439027  1
  Cs  Cs3  1  0.150437  0.807445  0.560974  1
  Cs  Cs4  1  0.598515  0.807483  0.657230  1
  Cs  Cs5  1  0.628507  0.304095  0.918757  1
  Y  Y6  1  0.892029  0.781950  0.141417  1
  Y  Y7  1  0.107971  0.281950  0.858583  1
  V  V8  1  0.083001  0.336480  0.145586  1
  V  V9  1  0.646761  0.805258  0.310074  1
  V  V10  1  0.353239  0.305257  0.689926  1
  V  V11  1  0.916999  0.836480  0.854414  1
  S  S12  1  0.931596  0.402081  0.028372  1
  S  S13  1  0.265868  0.305529  0.051374  1
  S  S14  1  0.681012  0.039572  0.198423  1
  S  S15  1  0.671697  0.557000  0.205094  1
  S  S16  1  0.045234  0.079390  0.237660  1
  S  S17  1  0.090061  0.578377  0.254643  1
  S  S18  1  0.456828  0.813201  0.389450  1
  S  S19  1  0.814345  0.804418  0.418098  1
  S  S20  1  0.185656  0.304417  0.581902  1
  S  S21  1  0.543171  0.313200  0.610550  1
  S  S22  1  0.909939  0.078376  0.745357  1
  S  S23  1  0.954766  0.579390  0.762340  1
  S  S24  1  0.328303  0.057001  0.794906  1
  S  S25  1  0.318988  0.539570  0.801577  1
  S  S26  1  0.734131  0.805530  0.948626  1
  S  S27  1  0.068404  0.902081  0.971627  1
