# generated using pymatgen
data_PrTh2(GaPt)3
_symmetry_space_group_name_H-M   'P 1'
_cell_length_a   7.36216081
_cell_length_b   7.36216010
_cell_length_c   4.11948300
_cell_angle_alpha   90.00000000
_cell_angle_beta   90.00000000
_cell_angle_gamma   119.88345559
_symmetry_Int_Tables_number   1
_chemical_formula_structural   PrTh2(GaPt)3
_chemical_formula_sum   'Pr1 Th2 Ga3 Pt3'
_cell_volume   193.59437422
_cell_formula_units_Z   1
loop_
 _symmetry_equiv_pos_site_id
 _symmetry_equiv_pos_as_xyz
  1  'x, y, z'
loop_
 _atom_site_type_symbol
 _atom_site_label
 _atom_site_symmetry_multiplicity
 _atom_site_fract_x
 _atom_site_fract_y
 _atom_site_fract_z
 _atom_site_occupancy
  Pr  Pr0  1  0.412008  0.412008  0.500000  1
  Th  Th1  1  0.584919  0.000192  0.500000  1
  Th  Th2  1  0.000192  0.584919  0.500000  1
  Ga  Ga3  1  0.755718  0.755718  0.000000  1
  Ga  Ga4  1  0.240098  0.004272  0.000000  1
  Ga  Ga5  1  0.004272  0.240098  0.000000  1
  Pt  Pt6  1  0.678883  0.332304  0.000000  1
  Pt  Pt7  1  0.332304  0.678883  0.000000  1
  Pt  Pt8  1  0.991606  0.991606  0.500000  1
