# generated using pymatgen
data_PaVC2
_symmetry_space_group_name_H-M   'P 1'
_cell_length_a   3.31535600
_cell_length_b   5.64413100
_cell_length_c   10.79426800
_cell_angle_alpha   90.00000000
_cell_angle_beta   90.00000000
_cell_angle_gamma   90.00000000
_symmetry_Int_Tables_number   1
_chemical_formula_structural   PaVC2
_chemical_formula_sum   'Pa4 V4 C8'
_cell_volume   201.98561969
_cell_formula_units_Z   4
loop_
 _symmetry_equiv_pos_site_id
 _symmetry_equiv_pos_as_xyz
  1  'x, y, z'
loop_
 _atom_site_type_symbol
 _atom_site_label
 _atom_site_symmetry_multiplicity
 _atom_site_fract_x
 _atom_site_fract_y
 _atom_site_fract_z
 _atom_site_occupancy
  Pa  Pa0  1  0.250000  0.081740  0.858343  1
  Pa  Pa1  1  0.750000  0.918260  0.141657  1
  Pa  Pa2  1  0.250000  0.581740  0.641657  1
  Pa  Pa3  1  0.750000  0.418260  0.358343  1
  V  V4  1  0.750000  0.080475  0.601733  1
  V  V5  1  0.750000  0.580475  0.898267  1
  V  V6  1  0.250000  0.919525  0.398267  1
  V  V7  1  0.250000  0.419525  0.101733  1
  C  C8  1  0.250000  0.724552  0.987205  1
  C  C9  1  0.750000  0.275448  0.012795  1
  C  C10  1  0.250000  0.224552  0.512795  1
  C  C11  1  0.750000  0.775448  0.487205  1
  C  C12  1  0.250000  0.166407  0.247294  1
  C  C13  1  0.750000  0.333593  0.747294  1
  C  C14  1  0.250000  0.666407  0.252706  1
  C  C15  1  0.750000  0.833593  0.752706  1
