# generated using pymatgen
data_Pr3MgCd2Ag2Ir
_symmetry_space_group_name_H-M   'P 1'
_cell_length_a   8.04230149
_cell_length_b   7.99222488
_cell_length_c   3.99921300
_cell_angle_alpha   90.00000000
_cell_angle_beta   90.00000000
_cell_angle_gamma   119.64798729
_symmetry_Int_Tables_number   1
_chemical_formula_structural   Pr3MgCd2Ag2Ir
_chemical_formula_sum   'Pr3 Mg1 Cd2 Ag2 Ir1'
_cell_volume   223.39981103
_cell_formula_units_Z   1
loop_
 _symmetry_equiv_pos_site_id
 _symmetry_equiv_pos_as_xyz
  1  'x, y, z'
loop_
 _atom_site_type_symbol
 _atom_site_label
 _atom_site_symmetry_multiplicity
 _atom_site_fract_x
 _atom_site_fract_y
 _atom_site_fract_z
 _atom_site_occupancy
  Pr  Pr0  1  0.433671  0.400368  0.500000  1
  Pr  Pr1  1  0.595364  0.023330  0.500000  1
  Pr  Pr2  1  0.972103  0.578087  0.500000  1
  Mg  Mg3  1  0.997154  0.251281  0.000000  1
  Cd  Cd4  1  0.742795  0.746769  0.000000  1
  Cd  Cd5  1  0.255086  0.999683  0.000000  1
  Ag  Ag6  1  0.327584  0.660186  0.000000  1
  Ag  Ag7  1  0.000931  0.008816  0.500000  1
  Ir  Ir8  1  0.675312  0.331481  0.000000  1
