# generated using pymatgen
data_YbEu3(SiPt)4
_symmetry_space_group_name_H-M   'P 1'
_cell_length_a   6.43044908
_cell_length_b   6.43044908
_cell_length_c   6.43044908
_cell_angle_alpha   90.34489081
_cell_angle_beta   90.34489081
_cell_angle_gamma   89.65510919
_symmetry_Int_Tables_number   1
_chemical_formula_structural   YbEu3(SiPt)4
_chemical_formula_sum   'Yb1 Eu3 Si4 Pt4'
_cell_volume   265.88901755
_cell_formula_units_Z   1
loop_
 _symmetry_equiv_pos_site_id
 _symmetry_equiv_pos_as_xyz
  1  'x, y, z'
loop_
 _atom_site_type_symbol
 _atom_site_label
 _atom_site_symmetry_multiplicity
 _atom_site_fract_x
 _atom_site_fract_y
 _atom_site_fract_z
 _atom_site_occupancy
  Yb  Yb0  1  0.368564  0.868564  0.631436  1
  Eu  Eu1  1  0.877539  0.624640  0.376871  1
  Eu  Eu2  1  0.623129  0.377539  0.875360  1
  Eu  Eu3  1  0.124640  0.123129  0.122461  1
  Si  Si4  1  0.667315  0.167315  0.332685  1
  Si  Si5  1  0.170015  0.330385  0.667209  1
  Si  Si6  1  0.332791  0.670015  0.169615  1
  Si  Si7  1  0.830385  0.832791  0.829985  1
  Pt  Pt8  1  0.085789  0.585789  0.914211  1
  Pt  Pt9  1  0.581020  0.918525  0.079710  1
  Pt  Pt10  1  0.920290  0.081020  0.581475  1
  Pt  Pt11  1  0.418525  0.420290  0.418980  1
