# generated using pymatgen
data_DyEr2AlC3
_symmetry_space_group_name_H-M   'P 1'
_cell_length_a   3.54721400
_cell_length_b   7.00693200
_cell_length_c   9.93591700
_cell_angle_alpha   90.00000000
_cell_angle_beta   90.00000000
_cell_angle_gamma   90.00000000
_symmetry_Int_Tables_number   1
_chemical_formula_structural   DyEr2AlC3
_chemical_formula_sum   'Dy2 Er4 Al2 C6'
_cell_volume   246.95808432
_cell_formula_units_Z   2
loop_
 _symmetry_equiv_pos_site_id
 _symmetry_equiv_pos_as_xyz
  1  'x, y, z'
loop_
 _atom_site_type_symbol
 _atom_site_label
 _atom_site_symmetry_multiplicity
 _atom_site_fract_x
 _atom_site_fract_y
 _atom_site_fract_z
 _atom_site_occupancy
  Dy  Dy0  1  0.000000  0.750000  0.459003  1
  Dy  Dy1  1  0.000000  0.250000  0.540997  1
  Er  Er2  1  0.500000  0.511479  0.200474  1
  Er  Er3  1  0.500000  0.488521  0.799526  1
  Er  Er4  1  0.500000  0.988521  0.200474  1
  Er  Er5  1  0.500000  0.011479  0.799526  1
  Al  Al6  1  0.000000  0.750000  0.004349  1
  Al  Al7  1  0.000000  0.250000  0.995651  1
  C  C8  1  0.500000  0.509337  0.566500  1
  C  C9  1  0.500000  0.490663  0.433500  1
  C  C10  1  0.500000  0.990663  0.566500  1
  C  C11  1  0.500000  0.009337  0.433500  1
  C  C12  1  0.000000  0.750000  0.208041  1
  C  C13  1  0.000000  0.250000  0.791959  1
