# generated using pymatgen
data_LiNd(ReH9)2
_symmetry_space_group_name_H-M   'P 1'
_cell_length_a   5.08232056
_cell_length_b   5.08236478
_cell_length_c   8.45858757
_cell_angle_alpha   90.53152168
_cell_angle_beta   89.47077185
_cell_angle_gamma   122.97531383
_symmetry_Int_Tables_number   1
_chemical_formula_structural   LiNd(ReH9)2
_chemical_formula_sum   'Li1 Nd1 Re2 H18'
_cell_volume   183.27975600
_cell_formula_units_Z   1
loop_
 _symmetry_equiv_pos_site_id
 _symmetry_equiv_pos_as_xyz
  1  'x, y, z'
loop_
 _atom_site_type_symbol
 _atom_site_label
 _atom_site_symmetry_multiplicity
 _atom_site_fract_x
 _atom_site_fract_y
 _atom_site_fract_z
 _atom_site_occupancy
  Li  Li0  1  0.000000  0.000000  0.000000  1
  Nd  Nd1  1  0.000000  0.000000  0.500000  1
  Re  Re2  1  0.332971  0.667139  0.736813  1
  Re  Re3  1  0.667029  0.332861  0.263187  1
  H  H4  1  0.404807  0.595271  0.548771  1
  H  H5  1  0.595193  0.404729  0.451229  1
  H  H6  1  0.417601  0.582461  0.910757  1
  H  H7  1  0.582399  0.417539  0.089243  1
  H  H8  1  0.493778  0.968791  0.866445  1
  H  H9  1  0.968688  0.493639  0.133566  1
  H  H10  1  0.546244  0.015948  0.640721  1
  H  H11  1  0.015850  0.546100  0.359287  1
  H  H12  1  0.506222  0.031209  0.133555  1
  H  H13  1  0.031312  0.506361  0.866434  1
  H  H14  1  0.453756  0.984052  0.359279  1
  H  H15  1  0.984150  0.453900  0.640713  1
  H  H16  1  0.711111  0.755639  0.742219  1
  H  H17  1  0.755599  0.711023  0.257790  1
  H  H18  1  0.288889  0.244361  0.257781  1
  H  H19  1  0.244401  0.288977  0.742210  1
  H  H20  1  0.144874  0.855277  0.746169  1
  H  H21  1  0.855126  0.144723  0.253831  1
