# generated using pymatgen
data_HoTm2Sn3Ir2Rh
_symmetry_space_group_name_H-M   'P 1'
_cell_length_a   7.65724604
_cell_length_b   7.65032629
_cell_length_c   3.68666600
_cell_angle_alpha   90.00000000
_cell_angle_beta   90.00000000
_cell_angle_gamma   119.97010592
_symmetry_Int_Tables_number   1
_chemical_formula_structural   HoTm2Sn3Ir2Rh
_chemical_formula_sum   'Ho1 Tm2 Sn3 Ir2 Rh1'
_cell_volume   187.08877475
_cell_formula_units_Z   1
loop_
 _symmetry_equiv_pos_site_id
 _symmetry_equiv_pos_as_xyz
  1  'x, y, z'
loop_
 _atom_site_type_symbol
 _atom_site_label
 _atom_site_symmetry_multiplicity
 _atom_site_fract_x
 _atom_site_fract_y
 _atom_site_fract_z
 _atom_site_occupancy
  Ho  Ho0  1  0.000000  0.403517  0.000000  1
  Tm  Tm1  1  0.596548  0.596547  0.000000  1
  Tm  Tm2  1  0.403452  0.999999  0.000000  1
  Sn  Sn3  1  0.266635  0.266176  0.500000  1
  Sn  Sn4  1  0.000000  0.734079  0.500000  1
  Sn  Sn5  1  0.733365  0.999541  0.500000  1
  Ir  Ir6  1  0.665948  0.333176  0.500000  1
  Ir  Ir7  1  0.334052  0.667229  0.500000  1
  Rh  Rh8  1  0.000000  0.999737  0.000000  1
