# generated using pymatgen
data_Zr14CoCu19
_symmetry_space_group_name_H-M   'P 1'
_cell_length_a   7.90266100
_cell_length_b   7.83359769
_cell_length_c   9.38580703
_cell_angle_alpha   89.97005860
_cell_angle_beta   90.12906808
_cell_angle_gamma   106.98847144
_symmetry_Int_Tables_number   1
_chemical_formula_structural   Zr14CoCu19
_chemical_formula_sum   'Zr14 Co1 Cu19'
_cell_volume   555.68433407
_cell_formula_units_Z   1
loop_
 _symmetry_equiv_pos_site_id
 _symmetry_equiv_pos_as_xyz
  1  'x, y, z'
loop_
 _atom_site_type_symbol
 _atom_site_label
 _atom_site_symmetry_multiplicity
 _atom_site_fract_x
 _atom_site_fract_y
 _atom_site_fract_z
 _atom_site_occupancy
  Zr  Zr0  1  0.690487  0.310263  0.501117  1
  Zr  Zr1  1  0.194681  0.804821  0.996165  1
  Zr  Zr2  1  0.513003  0.000588  0.750828  1
  Zr  Zr3  1  0.982884  0.485195  0.250820  1
  Zr  Zr4  1  0.017653  0.517923  0.750709  1
  Zr  Zr5  1  0.483832  0.985645  0.251411  1
  Zr  Zr6  1  0.811790  0.809495  0.805616  1
  Zr  Zr7  1  0.191210  0.190511  0.193958  1
  Zr  Zr8  1  0.314167  0.320382  0.699583  1
  Zr  Zr9  1  0.690091  0.690895  0.304547  1
  Zr  Zr10  1  0.000906  0.000522  0.497628  1
  Zr  Zr11  1  0.497263  0.506782  0.992938  1
  Zr  Zr12  1  0.313388  0.690917  0.509776  1
  Zr  Zr13  1  0.809565  0.190144  0.000145  1
  Co  Co14  1  0.356990  0.656280  0.789124  1
  Cu  Cu15  1  0.334498  0.622332  0.208009  1
  Cu  Cu16  1  0.875372  0.164003  0.705418  1
  Cu  Cu17  1  0.834114  0.124753  0.293670  1
  Cu  Cu18  1  0.162989  0.881099  0.706088  1
  Cu  Cu19  1  0.127591  0.834816  0.294592  1
  Cu  Cu20  1  0.665946  0.369695  0.794033  1
  Cu  Cu21  1  0.621929  0.336878  0.202056  1
  Cu  Cu22  1  0.652071  0.943933  0.505961  1
  Cu  Cu23  1  0.057342  0.349885  0.491547  1
  Cu  Cu24  1  0.146817  0.438744  0.994591  1
  Cu  Cu25  1  0.559882  0.853554  0.009579  1
  Cu  Cu26  1  0.944205  0.648978  0.506864  1
  Cu  Cu27  1  0.350934  0.060457  0.494087  1
  Cu  Cu28  1  0.441877  0.150783  0.990442  1
  Cu  Cu29  1  0.846978  0.557973  0.008750  1
  Cu  Cu30  1  0.610612  0.607224  0.599932  1
  Cu  Cu31  1  0.394560  0.394054  0.399992  1
  Cu  Cu32  1  0.106140  0.106259  0.899563  1
  Cu  Cu33  1  0.898229  0.894216  0.100462  1
