# generated using pymatgen
data_TiNb2RhS10
_symmetry_space_group_name_H-M   'P 1'
_cell_length_a   3.42936500
_cell_length_b   9.34356647
_cell_length_c   9.93549875
_cell_angle_alpha   67.29642495
_cell_angle_beta   90.00000000
_cell_angle_gamma   90.00000000
_symmetry_Int_Tables_number   1
_chemical_formula_structural   TiNb2RhS10
_chemical_formula_sum   'Ti1 Nb2 Rh1 S10'
_cell_volume   293.68991497
_cell_formula_units_Z   1
loop_
 _symmetry_equiv_pos_site_id
 _symmetry_equiv_pos_as_xyz
  1  'x, y, z'
loop_
 _atom_site_type_symbol
 _atom_site_label
 _atom_site_symmetry_multiplicity
 _atom_site_fract_x
 _atom_site_fract_y
 _atom_site_fract_z
 _atom_site_occupancy
  Ti  Ti0  1  0.250000  0.448420  0.912525  1
  Nb  Nb1  1  0.750000  0.295579  0.630040  1
  Nb  Nb2  1  0.250000  0.708491  0.364152  1
  Rh  Rh3  1  0.750000  0.546187  0.112247  1
  S  S4  1  0.750000  0.510972  0.362913  1
  S  S5  1  0.250000  0.349410  0.161173  1
  S  S6  1  0.250000  0.495466  0.628154  1
  S  S7  1  0.750000  0.831468  0.477504  1
  S  S8  1  0.250000  0.174532  0.513099  1
  S  S9  1  0.250000  0.079115  0.736985  1
  S  S10  1  0.250000  0.728941  0.097335  1
  S  S11  1  0.750000  0.925767  0.253921  1
  S  S12  1  0.750000  0.263276  0.897966  1
  S  S13  1  0.750000  0.642378  0.851987  1
