# generated using pymatgen
data_LuTi3(Al3Co)6
_symmetry_space_group_name_H-M   'P 1'
_cell_length_a   7.21439614
_cell_length_b   7.22396971
_cell_length_c   8.95302500
_cell_angle_alpha   90.00000000
_cell_angle_beta   90.00000000
_cell_angle_gamma   119.57785475
_symmetry_Int_Tables_number   1
_chemical_formula_structural   LuTi3(Al3Co)6
_chemical_formula_sum   'Lu1 Ti3 Al18 Co6'
_cell_volume   405.79628452
_cell_formula_units_Z   1
loop_
 _symmetry_equiv_pos_site_id
 _symmetry_equiv_pos_as_xyz
  1  'x, y, z'
loop_
 _atom_site_type_symbol
 _atom_site_label
 _atom_site_symmetry_multiplicity
 _atom_site_fract_x
 _atom_site_fract_y
 _atom_site_fract_z
 _atom_site_occupancy
  Lu  Lu0  1  0.992669  0.672673  0.250000  1
  Ti  Ti1  1  0.005374  0.325922  0.750000  1
  Ti  Ti2  1  0.672928  0.994450  0.250000  1
  Ti  Ti3  1  0.327187  0.006482  0.750000  1
  Al  Al4  1  0.992686  0.330389  0.069679  1
  Al  Al5  1  0.008103  0.664486  0.918492  1
  Al  Al6  1  0.008103  0.664486  0.581508  1
  Al  Al7  1  0.339369  0.996722  0.430456  1
  Al  Al8  1  0.992686  0.330389  0.430321  1
  Al  Al9  1  0.665505  0.008696  0.577026  1
  Al  Al10  1  0.665505  0.008696  0.922974  1
  Al  Al11  1  0.339369  0.996722  0.069544  1
  Al  Al12  1  0.347127  0.566180  0.250000  1
  Al  Al13  1  0.658971  0.429629  0.750000  1
  Al  Al14  1  0.556165  0.332513  0.250000  1
  Al  Al15  1  0.431709  0.660684  0.750000  1
  Al  Al16  1  0.326881  0.326850  0.556170  1
  Al  Al17  1  0.668078  0.672045  0.454769  1
  Al  Al18  1  0.668078  0.672045  0.045231  1
  Al  Al19  1  0.326881  0.326850  0.943830  1
  Al  Al20  1  0.117047  0.122516  0.250000  1
  Al  Al21  1  0.889628  0.891095  0.750000  1
  Co  Co22  1  0.671703  0.328521  0.999212  1
  Co  Co23  1  0.326892  0.671057  0.998364  1
  Co  Co24  1  0.326892  0.671057  0.501636  1
  Co  Co25  1  0.671703  0.328521  0.500788  1
  Co  Co26  1  0.001380  0.000163  0.999157  1
  Co  Co27  1  0.001380  0.000163  0.500843  1
