# generated using pymatgen
data_LiEr9Mg3Ru
_symmetry_space_group_name_H-M   'P 1'
_cell_length_a   9.46638100
_cell_length_b   9.46638175
_cell_length_c   9.73823100
_cell_angle_alpha   90.00000000
_cell_angle_beta   90.00000000
_cell_angle_gamma   120.00000089
_symmetry_Int_Tables_number   1
_chemical_formula_structural   LiEr9Mg3Ru
_chemical_formula_sum   'Li2 Er18 Mg6 Ru2'
_cell_volume   755.75093627
_cell_formula_units_Z   2
loop_
 _symmetry_equiv_pos_site_id
 _symmetry_equiv_pos_as_xyz
  1  'x, y, z'
loop_
 _atom_site_type_symbol
 _atom_site_label
 _atom_site_symmetry_multiplicity
 _atom_site_fract_x
 _atom_site_fract_y
 _atom_site_fract_z
 _atom_site_occupancy
  Li  Li0  1  0.000000  0.000000  0.500000  1
  Li  Li1  1  0.000000  0.000000  0.000000  1
  Er  Er2  1  0.210281  0.789719  0.442260  1
  Er  Er3  1  0.210281  0.420563  0.442260  1
  Er  Er4  1  0.579437  0.789719  0.442260  1
  Er  Er5  1  0.789719  0.210281  0.557740  1
  Er  Er6  1  0.789719  0.579437  0.557740  1
  Er  Er7  1  0.420563  0.210281  0.557740  1
  Er  Er8  1  0.789719  0.210281  0.942260  1
  Er  Er9  1  0.789719  0.579437  0.942260  1
  Er  Er10  1  0.420563  0.210281  0.942260  1
  Er  Er11  1  0.210281  0.789719  0.057740  1
  Er  Er12  1  0.210281  0.420563  0.057740  1
  Er  Er13  1  0.579437  0.789719  0.057740  1
  Er  Er14  1  0.542440  0.457560  0.250000  1
  Er  Er15  1  0.542440  0.084881  0.250000  1
  Er  Er16  1  0.915119  0.457560  0.250000  1
  Er  Er17  1  0.457560  0.542440  0.750000  1
  Er  Er18  1  0.457560  0.915119  0.750000  1
  Er  Er19  1  0.084881  0.542440  0.750000  1
  Mg  Mg20  1  0.893202  0.106798  0.250000  1
  Mg  Mg21  1  0.893202  0.786406  0.250000  1
  Mg  Mg22  1  0.213594  0.106798  0.250000  1
  Mg  Mg23  1  0.106798  0.893202  0.750000  1
  Mg  Mg24  1  0.106798  0.213594  0.750000  1
  Mg  Mg25  1  0.786406  0.893202  0.750000  1
  Ru  Ru26  1  0.333333  0.666667  0.250000  1
  Ru  Ru27  1  0.666667  0.333333  0.750000  1
