# generated using pymatgen
data_Yb3Sn3AsPt2
_symmetry_space_group_name_H-M   'P 1'
_cell_length_a   7.48754500
_cell_length_b   7.48754596
_cell_length_c   4.24034300
_cell_angle_alpha   90.00000000
_cell_angle_beta   90.00000000
_cell_angle_gamma   120.00000784
_symmetry_Int_Tables_number   1
_chemical_formula_structural   Yb3Sn3AsPt2
_chemical_formula_sum   'Yb3 Sn3 As1 Pt2'
_cell_volume   205.87828031
_cell_formula_units_Z   1
loop_
 _symmetry_equiv_pos_site_id
 _symmetry_equiv_pos_as_xyz
  1  'x, y, z'
loop_
 _atom_site_type_symbol
 _atom_site_label
 _atom_site_symmetry_multiplicity
 _atom_site_fract_x
 _atom_site_fract_y
 _atom_site_fract_z
 _atom_site_occupancy
  Yb  Yb0  1  0.407777  0.413823  0.000000  1
  Yb  Yb1  1  0.586177  0.993954  0.000000  1
  Yb  Yb2  1  0.006046  0.592223  0.000000  1
  Sn  Sn3  1  0.019417  0.258291  0.500000  1
  Sn  Sn4  1  0.741709  0.761126  0.500000  1
  Sn  Sn5  1  0.238874  0.980583  0.500000  1
  As  As6  1  0.666667  0.333333  0.500000  1
  Pt  Pt7  1  0.000000  0.000000  0.000000  1
  Pt  Pt8  1  0.333333  0.666667  0.500000  1
