# generated using pymatgen
data_Tb6ZrMn(Co4P3)4
_symmetry_space_group_name_H-M   'P 1'
_cell_length_a   3.71573600
_cell_length_b   10.62220400
_cell_length_c   12.34888700
_cell_angle_alpha   90.00000000
_cell_angle_beta   90.00000000
_cell_angle_gamma   90.00000000
_symmetry_Int_Tables_number   1
_chemical_formula_structural   Tb6ZrMn(Co4P3)4
_chemical_formula_sum   'Tb6 Zr1 Mn1 Co16 P12'
_cell_volume   487.40199732
_cell_formula_units_Z   1
loop_
 _symmetry_equiv_pos_site_id
 _symmetry_equiv_pos_as_xyz
  1  'x, y, z'
loop_
 _atom_site_type_symbol
 _atom_site_label
 _atom_site_symmetry_multiplicity
 _atom_site_fract_x
 _atom_site_fract_y
 _atom_site_fract_z
 _atom_site_occupancy
  Tb  Tb0  1  0.000000  0.500000  0.522610  1
  Tb  Tb1  1  0.500000  0.000000  0.470808  1
  Tb  Tb2  1  0.500000  0.817859  0.204368  1
  Tb  Tb3  1  0.500000  0.182141  0.204368  1
  Tb  Tb4  1  0.000000  0.678724  0.793849  1
  Tb  Tb5  1  0.000000  0.321276  0.793849  1
  Zr  Zr6  1  0.000000  0.000000  0.845429  1
  Mn  Mn7  1  0.500000  0.500000  0.162308  1
  Co  Co8  1  0.500000  0.500000  0.703839  1
  Co  Co9  1  0.000000  0.000000  0.296756  1
  Co  Co10  1  0.000000  0.500000  0.987842  1
  Co  Co11  1  0.500000  0.000000  0.016648  1
  Co  Co12  1  0.500000  0.338341  0.998660  1
  Co  Co13  1  0.500000  0.661659  0.998660  1
  Co  Co14  1  0.000000  0.172911  0.012118  1
  Co  Co15  1  0.000000  0.827089  0.012118  1
  Co  Co16  1  0.500000  0.298022  0.428906  1
  Co  Co17  1  0.500000  0.701978  0.428906  1
  Co  Co18  1  0.000000  0.206357  0.564844  1
  Co  Co19  1  0.000000  0.793643  0.564844  1
  Co  Co20  1  0.500000  0.877363  0.701273  1
  Co  Co21  1  0.500000  0.122637  0.701273  1
  Co  Co22  1  0.000000  0.619089  0.291981  1
  Co  Co23  1  0.000000  0.380911  0.291981  1
  P  P24  1  0.500000  0.500000  0.884416  1
  P  P25  1  0.000000  0.000000  0.117919  1
  P  P26  1  0.500000  0.500000  0.345530  1
  P  P27  1  0.000000  0.000000  0.638666  1
  P  P28  1  0.500000  0.311549  0.613476  1
  P  P29  1  0.500000  0.688451  0.613476  1
  P  P30  1  0.000000  0.190938  0.382296  1
  P  P31  1  0.000000  0.809062  0.382296  1
  P  P32  1  0.500000  0.835257  0.900572  1
  P  P33  1  0.500000  0.164743  0.900572  1
  P  P34  1  0.000000  0.648581  0.111270  1
  P  P35  1  0.000000  0.351419  0.111270  1
