# generated using pymatgen
data_Ni4P2PdPt
_symmetry_space_group_name_H-M   'P 1'
_cell_length_a   4.56172498
_cell_length_b   4.56172403
_cell_length_c   6.60702100
_cell_angle_alpha   90.00000000
_cell_angle_beta   90.00000000
_cell_angle_gamma   134.99046090
_symmetry_Int_Tables_number   1
_chemical_formula_structural   Ni4P2PdPt
_chemical_formula_sum   'Ni4 P2 Pd1 Pt1'
_cell_volume   97.23465774
_cell_formula_units_Z   1
loop_
 _symmetry_equiv_pos_site_id
 _symmetry_equiv_pos_as_xyz
  1  'x, y, z'
loop_
 _atom_site_type_symbol
 _atom_site_label
 _atom_site_symmetry_multiplicity
 _atom_site_fract_x
 _atom_site_fract_y
 _atom_site_fract_z
 _atom_site_occupancy
  Ni  Ni0  1  0.853541  0.146459  0.054552  1
  Ni  Ni1  1  0.147880  0.852120  0.945834  1
  Ni  Ni2  1  0.147880  0.852120  0.554166  1
  Ni  Ni3  1  0.853541  0.146459  0.445448  1
  P  P4  1  0.267643  0.732357  0.250000  1
  P  P5  1  0.731304  0.268696  0.750000  1
  Pd  Pd6  1  0.444921  0.555079  0.750000  1
  Pt  Pt7  1  0.553289  0.446711  0.250000  1
