# generated using pymatgen
data_TbDy2Zn3RuAu2
_symmetry_space_group_name_H-M   'P 1'
_cell_length_a   7.44111404
_cell_length_b   7.44271764
_cell_length_c   3.85628200
_cell_angle_alpha   90.00000000
_cell_angle_beta   90.00000000
_cell_angle_gamma   119.98119785
_symmetry_Int_Tables_number   1
_chemical_formula_structural   TbDy2Zn3RuAu2
_chemical_formula_sum   'Tb1 Dy2 Zn3 Ru1 Au2'
_cell_volume   184.99124356
_cell_formula_units_Z   1
loop_
 _symmetry_equiv_pos_site_id
 _symmetry_equiv_pos_as_xyz
  1  'x, y, z'
loop_
 _atom_site_type_symbol
 _atom_site_label
 _atom_site_symmetry_multiplicity
 _atom_site_fract_x
 _atom_site_fract_y
 _atom_site_fract_z
 _atom_site_occupancy
  Tb  Tb0  1  0.581673  0.978120  0.000000  1
  Dy  Dy1  1  0.022057  0.604002  0.000000  1
  Dy  Dy2  1  0.395877  0.417961  0.000000  1
  Zn  Zn3  1  0.257528  0.987453  0.500000  1
  Zn  Zn4  1  0.012838  0.270710  0.500000  1
  Zn  Zn5  1  0.729646  0.741768  0.500000  1
  Ru  Ru6  1  0.332806  0.665945  0.500000  1
  Au  Au7  1  0.666882  0.334071  0.500000  1
  Au  Au8  1  0.000693  0.999970  0.000000  1
