# generated using pymatgen
data_Tb2Dy14MgCd3Pt4
_symmetry_space_group_name_H-M   'P 1'
_cell_length_a   9.70625414
_cell_length_b   9.70625448
_cell_length_c   9.70468040
_cell_angle_alpha   60.05126091
_cell_angle_beta   60.05126612
_cell_angle_gamma   60.04087556
_symmetry_Int_Tables_number   1
_chemical_formula_structural   Tb2Dy14MgCd3Pt4
_chemical_formula_sum   'Tb2 Dy14 Mg1 Cd3 Pt4'
_cell_volume   647.20198156
_cell_formula_units_Z   1
loop_
 _symmetry_equiv_pos_site_id
 _symmetry_equiv_pos_as_xyz
  1  'x, y, z'
loop_
 _atom_site_type_symbol
 _atom_site_label
 _atom_site_symmetry_multiplicity
 _atom_site_fract_x
 _atom_site_fract_y
 _atom_site_fract_z
 _atom_site_occupancy
  Tb  Tb0  1  0.566314  0.566314  0.935800  1
  Tb  Tb1  1  0.936333  0.936333  0.563596  1
  Dy  Dy2  1  0.349718  0.349718  0.349879  1
  Dy  Dy3  1  0.352349  0.352349  0.945034  1
  Dy  Dy4  1  0.352496  0.944993  0.352378  1
  Dy  Dy5  1  0.944993  0.352496  0.352378  1
  Dy  Dy6  1  0.809805  0.191150  0.191148  1
  Dy  Dy7  1  0.188417  0.811707  0.811676  1
  Dy  Dy8  1  0.191150  0.809805  0.191148  1
  Dy  Dy9  1  0.811707  0.188417  0.811676  1
  Dy  Dy10  1  0.191160  0.191160  0.809780  1
  Dy  Dy11  1  0.811664  0.811664  0.188439  1
  Dy  Dy12  1  0.936063  0.566083  0.566094  1
  Dy  Dy13  1  0.563457  0.936535  0.936474  1
  Dy  Dy14  1  0.566083  0.936063  0.566094  1
  Dy  Dy15  1  0.936535  0.563457  0.936474  1
  Mg  Mg16  1  0.576413  0.576413  0.576294  1
  Cd  Cd17  1  0.581427  0.581427  0.253858  1
  Cd  Cd18  1  0.581330  0.253753  0.581485  1
  Cd  Cd19  1  0.253753  0.581330  0.581485  1
  Pt  Pt20  1  0.143875  0.143875  0.143757  1
  Pt  Pt21  1  0.141823  0.141823  0.571451  1
  Pt  Pt22  1  0.141662  0.571472  0.141800  1
  Pt  Pt23  1  0.571472  0.141662  0.141800  1
