# generated using pymatgen
data_Hf2TiGeMoP
_symmetry_space_group_name_H-M   'P 1'
_cell_length_a   3.53020400
_cell_length_b   6.86725500
_cell_length_c   8.26435800
_cell_angle_alpha   90.00000000
_cell_angle_beta   90.00000000
_cell_angle_gamma   90.00000000
_symmetry_Int_Tables_number   1
_chemical_formula_structural   Hf2TiGeMoP
_chemical_formula_sum   'Hf4 Ti2 Ge2 Mo2 P2'
_cell_volume   200.35126961
_cell_formula_units_Z   2
loop_
 _symmetry_equiv_pos_site_id
 _symmetry_equiv_pos_as_xyz
  1  'x, y, z'
loop_
 _atom_site_type_symbol
 _atom_site_label
 _atom_site_symmetry_multiplicity
 _atom_site_fract_x
 _atom_site_fract_y
 _atom_site_fract_z
 _atom_site_occupancy
  Hf  Hf0  1  0.250000  0.550838  0.159820  1
  Hf  Hf1  1  0.250000  0.050838  0.340180  1
  Hf  Hf2  1  0.750000  0.462147  0.828653  1
  Hf  Hf3  1  0.750000  0.962147  0.671347  1
  Ti  Ti4  1  0.250000  0.625029  0.565543  1
  Ti  Ti5  1  0.250000  0.125029  0.934457  1
  Ge  Ge6  1  0.750000  0.244985  0.138313  1
  Ge  Ge7  1  0.750000  0.744985  0.361687  1
  Mo  Mo8  1  0.750000  0.362065  0.448484  1
  Mo  Mo9  1  0.750000  0.862065  0.051516  1
  P  P10  1  0.250000  0.754935  0.856509  1
  P  P11  1  0.250000  0.254935  0.643491  1
