# generated using pymatgen
data_Pr8P14Ir15Rh
_symmetry_space_group_name_H-M   'P 1'
_cell_length_a   4.00408000
_cell_length_b   12.90720305
_cell_length_c   13.29869573
_cell_angle_alpha   80.73024103
_cell_angle_beta   90.00000000
_cell_angle_gamma   90.00000000
_symmetry_Int_Tables_number   1
_chemical_formula_structural   Pr8P14Ir15Rh
_chemical_formula_sum   'Pr8 P14 Ir15 Rh1'
_cell_volume   678.32070472
_cell_formula_units_Z   1
loop_
 _symmetry_equiv_pos_site_id
 _symmetry_equiv_pos_as_xyz
  1  'x, y, z'
loop_
 _atom_site_type_symbol
 _atom_site_label
 _atom_site_symmetry_multiplicity
 _atom_site_fract_x
 _atom_site_fract_y
 _atom_site_fract_z
 _atom_site_occupancy
  Pr  Pr0  1  0.750000  0.790700  0.561050  1
  Pr  Pr1  1  0.250000  0.209056  0.439353  1
  Pr  Pr2  1  0.750000  0.481706  0.706538  1
  Pr  Pr3  1  0.250000  0.518131  0.293506  1
  Pr  Pr4  1  0.750000  0.720425  0.896693  1
  Pr  Pr5  1  0.250000  0.103760  0.788918  1
  Pr  Pr6  1  0.750000  0.896355  0.211118  1
  Pr  Pr7  1  0.250000  0.279723  0.103160  1
  P  P8  1  0.250000  0.909534  0.408847  1
  P  P9  1  0.750000  0.473792  0.127472  1
  P  P10  1  0.250000  0.526082  0.872623  1
  P  P11  1  0.750000  0.090297  0.590441  1
  P  P12  1  0.250000  0.741778  0.081096  1
  P  P13  1  0.750000  0.258291  0.918818  1
  P  P14  1  0.750000  0.156066  0.281550  1
  P  P15  1  0.250000  0.844138  0.718729  1
  P  P16  1  0.250000  0.052079  0.098399  1
  P  P17  1  0.750000  0.947871  0.901260  1
  P  P18  1  0.250000  0.313557  0.688916  1
  P  P19  1  0.750000  0.686295  0.311274  1
  P  P20  1  0.250000  0.607251  0.562437  1
  P  P21  1  0.750000  0.392927  0.437801  1
  Ir  Ir22  1  0.750000  0.011352  0.423712  1
  Ir  Ir23  1  0.250000  0.662646  0.731309  1
  Ir  Ir24  1  0.750000  0.337185  0.268969  1
  Ir  Ir25  1  0.250000  0.551719  0.047366  1
  Ir  Ir26  1  0.750000  0.448416  0.952866  1
  Ir  Ir27  1  0.250000  0.062177  0.271963  1
  Ir  Ir28  1  0.750000  0.938584  0.727566  1
  Ir  Ir29  1  0.250000  0.422942  0.527526  1
  Ir  Ir30  1  0.750000  0.576831  0.472613  1
  Ir  Ir31  1  0.250000  0.915142  0.997888  1
  Ir  Ir32  1  0.750000  0.084760  0.001740  1
  Ir  Ir33  1  0.250000  0.729425  0.393369  1
  Ir  Ir34  1  0.750000  0.270631  0.606508  1
  Ir  Ir35  1  0.250000  0.341596  0.859337  1
  Ir  Ir36  1  0.750000  0.658523  0.140687  1
  Rh  Rh37  1  0.250000  0.988259  0.576584  1
