# generated using pymatgen
data_Cs4Rb2NdInSb4
_symmetry_space_group_name_H-M   'P 1'
_cell_length_a   10.52575330
_cell_length_b   10.52575290
_cell_length_c   10.52575261
_cell_angle_alpha   130.58477012
_cell_angle_beta   137.81001388
_cell_angle_gamma   66.95248475
_symmetry_Int_Tables_number   1
_chemical_formula_structural   Cs4Rb2NdInSb4
_chemical_formula_sum   'Cs4 Rb2 Nd1 In1 Sb4'
_cell_volume   585.34126341
_cell_formula_units_Z   1
loop_
 _symmetry_equiv_pos_site_id
 _symmetry_equiv_pos_as_xyz
  1  'x, y, z'
loop_
 _atom_site_type_symbol
 _atom_site_label
 _atom_site_symmetry_multiplicity
 _atom_site_fract_x
 _atom_site_fract_y
 _atom_site_fract_z
 _atom_site_occupancy
  Cs  Cs0  1  0.689365  0.465929  0.795260  1
  Cs  Cs1  1  0.810635  0.105895  0.276566  1
  Cs  Cs2  1  0.170670  0.894105  0.704740  1
  Cs  Cs3  1  0.329330  0.534071  0.223434  1
  Rb  Rb4  1  0.750000  0.000000  0.750000  1
  Rb  Rb5  1  0.250000  0.000000  0.250000  1
  Nd  Nd6  1  0.250000  0.500000  0.750000  1
  In  In7  1  0.750000  0.500000  0.250000  1
  Sb  Sb8  1  0.414161  0.208537  0.817549  1
  Sb  Sb9  1  0.609012  0.791463  0.205626  1
  Sb  Sb10  1  0.085839  0.403387  0.294374  1
  Sb  Sb11  1  0.890988  0.596613  0.682451  1
