# generated using pymatgen
data_Tb16MgIn3(IrRu)2
_symmetry_space_group_name_H-M   'P 1'
_cell_length_a   9.71410672
_cell_length_b   9.70453453
_cell_length_c   9.71487200
_cell_angle_alpha   59.96475654
_cell_angle_beta   59.99739394
_cell_angle_gamma   59.93661240
_symmetry_Int_Tables_number   1
_chemical_formula_structural   Tb16MgIn3(IrRu)2
_chemical_formula_sum   'Tb16 Mg1 In3 Ir2 Ru2'
_cell_volume   647.09336084
_cell_formula_units_Z   1
loop_
 _symmetry_equiv_pos_site_id
 _symmetry_equiv_pos_as_xyz
  1  'x, y, z'
loop_
 _atom_site_type_symbol
 _atom_site_label
 _atom_site_symmetry_multiplicity
 _atom_site_fract_x
 _atom_site_fract_y
 _atom_site_fract_z
 _atom_site_occupancy
  Tb  Tb0  1  0.598517  0.597408  0.595992  1
  Tb  Tb1  1  0.598517  0.597408  0.208083  1
  Tb  Tb2  1  0.600266  0.207031  0.596352  1
  Tb  Tb3  1  0.202976  0.600151  0.598437  1
  Tb  Tb4  1  0.055435  0.441319  0.443452  1
  Tb  Tb5  1  0.438370  0.058961  0.062244  1
  Tb  Tb6  1  0.438370  0.058961  0.440424  1
  Tb  Tb7  1  0.055435  0.441319  0.059794  1
  Tb  Tb8  1  0.439408  0.439372  0.060610  1
  Tb  Tb9  1  0.057306  0.058055  0.442320  1
  Tb  Tb10  1  0.189394  0.811237  0.809971  1
  Tb  Tb11  1  0.811473  0.189737  0.189374  1
  Tb  Tb12  1  0.811473  0.189737  0.809417  1
  Tb  Tb13  1  0.189394  0.811237  0.189398  1
  Tb  Tb14  1  0.810822  0.810631  0.189274  1
  Tb  Tb15  1  0.189145  0.189611  0.810622  1
  Mg  Mg16  1  0.519914  0.826318  0.826883  1
  In  In17  1  0.831770  0.832560  0.832256  1
  In  In18  1  0.831770  0.832560  0.503412  1
  In  In19  1  0.831147  0.503030  0.832911  1
  Ir  Ir20  1  0.389424  0.391005  0.391039  1
  Ir  Ir21  1  0.389424  0.391005  0.828530  1
  Ru  Ru22  1  0.390158  0.830317  0.389762  1
  Ru  Ru23  1  0.830089  0.391031  0.389440  1
