# generated using pymatgen
data_Cs5CaEu2Cl12
_symmetry_space_group_name_H-M   'P 1'
_cell_length_a   4.32044300
_cell_length_b   13.64963059
_cell_length_c   13.64963000
_cell_angle_alpha   120.12853168
_cell_angle_beta   90.00000000
_cell_angle_gamma   90.00000000
_symmetry_Int_Tables_number   1
_chemical_formula_structural   Cs5CaEu2Cl12
_chemical_formula_sum   'Cs5 Ca1 Eu2 Cl12'
_cell_volume   696.20437002
_cell_formula_units_Z   1
loop_
 _symmetry_equiv_pos_site_id
 _symmetry_equiv_pos_as_xyz
  1  'x, y, z'
loop_
 _atom_site_type_symbol
 _atom_site_label
 _atom_site_symmetry_multiplicity
 _atom_site_fract_x
 _atom_site_fract_y
 _atom_site_fract_z
 _atom_site_occupancy
  Cs  Cs0  1  0.000000  0.667004  0.338375  1
  Cs  Cs1  1  0.000000  0.338375  0.667004  1
  Cs  Cs2  1  0.000000  0.288111  0.288111  1
  Cs  Cs3  1  0.000000  0.993473  0.716051  1
  Cs  Cs4  1  0.000000  0.716051  0.993473  1
  Ca  Ca5  1  0.500000  0.666768  0.666768  1
  Eu  Eu6  1  0.500000  0.998369  0.332911  1
  Eu  Eu7  1  0.500000  0.332911  0.998369  1
  Cl  Cl8  1  0.000000  0.800848  0.800848  1
  Cl  Cl9  1  0.000000  0.000632  0.198508  1
  Cl  Cl10  1  0.000000  0.198508  0.000632  1
  Cl  Cl11  1  0.000000  0.537072  0.537072  1
  Cl  Cl12  1  0.000000  0.002328  0.465682  1
  Cl  Cl13  1  0.000000  0.465682  0.002328  1
  Cl  Cl14  1  0.500000  0.769218  0.211222  1
  Cl  Cl15  1  0.500000  0.441153  0.228330  1
  Cl  Cl16  1  0.500000  0.556929  0.787017  1
  Cl  Cl17  1  0.500000  0.787017  0.556929  1
  Cl  Cl18  1  0.500000  0.211222  0.769218  1
  Cl  Cl19  1  0.500000  0.228330  0.441153  1
