# generated using pymatgen
data_Eu3AsI3
_symmetry_space_group_name_H-M   'P 1'
_cell_length_a   11.15515722
_cell_length_b   11.15515645
_cell_length_c   11.15515700
_cell_angle_alpha   109.47122344
_cell_angle_beta   109.47122204
_cell_angle_gamma   109.47121806
_symmetry_Int_Tables_number   1
_chemical_formula_structural   Eu3AsI3
_chemical_formula_sum   'Eu12 As4 I12'
_cell_volume   1068.57534360
_cell_formula_units_Z   4
loop_
 _symmetry_equiv_pos_site_id
 _symmetry_equiv_pos_as_xyz
  1  'x, y, z'
loop_
 _atom_site_type_symbol
 _atom_site_label
 _atom_site_symmetry_multiplicity
 _atom_site_fract_x
 _atom_site_fract_y
 _atom_site_fract_z
 _atom_site_occupancy
  Eu  Eu0  1  0.764100  0.528201  0.514100  1
  Eu  Eu1  1  0.985900  0.514100  0.250000  1
  Eu  Eu2  1  0.528201  0.514100  0.764100  1
  Eu  Eu3  1  0.250000  0.764100  0.735900  1
  Eu  Eu4  1  0.514100  0.764100  0.528201  1
  Eu  Eu5  1  0.735900  0.250000  0.764100  1
  Eu  Eu6  1  0.514100  0.250000  0.985900  1
  Eu  Eu7  1  0.735900  0.985900  0.971799  1
  Eu  Eu8  1  0.764100  0.735900  0.250000  1
  Eu  Eu9  1  0.971799  0.735900  0.985900  1
  Eu  Eu10  1  0.250000  0.985900  0.514100  1
  Eu  Eu11  1  0.985900  0.971799  0.735900  1
  As  As12  1  0.750000  0.750000  0.750000  1
  As  As13  1  0.000000  0.750000  0.500000  1
  As  As14  1  0.750000  0.500000  0.000000  1
  As  As15  1  0.500000  0.000000  0.750000  1
  I  I16  1  0.253321  0.750000  0.246679  1
  I  I17  1  0.750000  0.003321  0.496679  1
  I  I18  1  0.003321  0.496679  0.750000  1
  I  I19  1  0.006643  0.253321  0.003321  1
  I  I20  1  0.496679  0.246679  0.493357  1
  I  I21  1  0.003321  0.006643  0.253321  1
  I  I22  1  0.246679  0.493357  0.496679  1
  I  I23  1  0.246679  0.253321  0.750000  1
  I  I24  1  0.496679  0.750000  0.003321  1
  I  I25  1  0.493357  0.496679  0.246679  1
  I  I26  1  0.750000  0.246679  0.253321  1
  I  I27  1  0.253321  0.003321  0.006643  1
