# generated using pymatgen
data_Cs2Sb4Te7
_symmetry_space_group_name_H-M   'P 1'
_cell_length_a   4.44544700
_cell_length_b   14.06870226
_cell_length_c   16.47174993
_cell_angle_alpha   84.52862966
_cell_angle_beta   90.00000000
_cell_angle_gamma   90.00000000
_symmetry_Int_Tables_number   1
_chemical_formula_structural   Cs2Sb4Te7
_chemical_formula_sum   'Cs4 Sb8 Te14'
_cell_volume   1025.47726076
_cell_formula_units_Z   2
loop_
 _symmetry_equiv_pos_site_id
 _symmetry_equiv_pos_as_xyz
  1  'x, y, z'
loop_
 _atom_site_type_symbol
 _atom_site_label
 _atom_site_symmetry_multiplicity
 _atom_site_fract_x
 _atom_site_fract_y
 _atom_site_fract_z
 _atom_site_occupancy
  Cs  Cs0  1  0.250000  0.570695  0.808858  1
  Cs  Cs1  1  0.750000  0.429305  0.191142  1
  Cs  Cs2  1  0.750000  0.823851  0.626738  1
  Cs  Cs3  1  0.250000  0.176149  0.373262  1
  Sb  Sb4  1  0.250000  0.950705  0.879447  1
  Sb  Sb5  1  0.750000  0.049295  0.120553  1
  Sb  Sb6  1  0.250000  0.830560  0.271706  1
  Sb  Sb7  1  0.750000  0.169440  0.728294  1
  Sb  Sb8  1  0.750000  0.733814  0.051950  1
  Sb  Sb9  1  0.250000  0.266186  0.948050  1
  Sb  Sb10  1  0.750000  0.609518  0.429271  1
  Sb  Sb11  1  0.250000  0.390482  0.570729  1
  Te  Te12  1  0.250000  0.460791  0.394284  1
  Te  Te13  1  0.750000  0.539209  0.605716  1
  Te  Te14  1  0.250000  0.595958  0.037803  1
  Te  Te15  1  0.750000  0.404042  0.962197  1
  Te  Te16  1  0.750000  0.984332  0.295729  1
  Te  Te17  1  0.250000  0.015668  0.704271  1
  Te  Te18  1  0.750000  0.798870  0.865604  1
  Te  Te19  1  0.250000  0.201130  0.134396  1
  Te  Te20  1  0.250000  0.757655  0.451452  1
  Te  Te21  1  0.750000  0.242345  0.548548  1
  Te  Te22  1  0.750000  0.689664  0.240986  1
  Te  Te23  1  0.250000  0.310336  0.759014  1
  Te  Te24  1  0.250000  0.901062  0.083657  1
  Te  Te25  1  0.750000  0.098938  0.916343  1
