# generated using pymatgen
data_Pr8Hg2OsPd
_symmetry_space_group_name_H-M   'P 1'
_cell_length_a   10.02407358
_cell_length_b   10.02407510
_cell_length_c   10.10829800
_cell_angle_alpha   59.72167062
_cell_angle_beta   59.72166556
_cell_angle_gamma   59.70838573
_symmetry_Int_Tables_number   1
_chemical_formula_structural   Pr8Hg2OsPd
_chemical_formula_sum   'Pr16 Hg4 Os2 Pd2'
_cell_volume   713.59775403
_cell_formula_units_Z   2
loop_
 _symmetry_equiv_pos_site_id
 _symmetry_equiv_pos_as_xyz
  1  'x, y, z'
loop_
 _atom_site_type_symbol
 _atom_site_label
 _atom_site_symmetry_multiplicity
 _atom_site_fract_x
 _atom_site_fract_y
 _atom_site_fract_z
 _atom_site_occupancy
  Pr  Pr0  1  0.349923  0.349923  0.357154  1
  Pr  Pr1  1  0.349923  0.349923  0.943000  1
  Pr  Pr2  1  0.344887  0.953027  0.351044  1
  Pr  Pr3  1  0.953027  0.344887  0.351044  1
  Pr  Pr4  1  0.815381  0.189418  0.192670  1
  Pr  Pr5  1  0.189418  0.815381  0.802532  1
  Pr  Pr6  1  0.189418  0.815381  0.192670  1
  Pr  Pr7  1  0.815381  0.189418  0.802532  1
  Pr  Pr8  1  0.189079  0.189079  0.810921  1
  Pr  Pr9  1  0.805405  0.805405  0.194595  1
  Pr  Pr10  1  0.937707  0.555911  0.565636  1
  Pr  Pr11  1  0.555911  0.937707  0.940746  1
  Pr  Pr12  1  0.555911  0.937707  0.565636  1
  Pr  Pr13  1  0.937707  0.555911  0.940746  1
  Pr  Pr14  1  0.562554  0.562554  0.937446  1
  Pr  Pr15  1  0.938504  0.938504  0.561496  1
  Hg  Hg16  1  0.583433  0.583433  0.583699  1
  Hg  Hg17  1  0.583433  0.583433  0.249435  1
  Hg  Hg18  1  0.584068  0.248026  0.583952  1
  Hg  Hg19  1  0.248026  0.584068  0.583952  1
  Os  Os20  1  0.144922  0.144922  0.136011  1
  Os  Os21  1  0.144922  0.144922  0.574145  1
  Pd  Pd22  1  0.147808  0.573251  0.139470  1
  Pd  Pd23  1  0.573251  0.147808  0.139470  1
