# generated using pymatgen
data_Pr6Cr3Co2P12Rh13
_symmetry_space_group_name_H-M   'P 1'
_cell_length_a   3.91885900
_cell_length_b   11.26476637
_cell_length_c   12.94482730
_cell_angle_alpha   90.18830677
_cell_angle_beta   90.00000000
_cell_angle_gamma   90.00000000
_symmetry_Int_Tables_number   1
_chemical_formula_structural   Pr6Cr3Co2P12Rh13
_chemical_formula_sum   'Pr6 Cr3 Co2 P12 Rh13'
_cell_volume   571.44671687
_cell_formula_units_Z   1
loop_
 _symmetry_equiv_pos_site_id
 _symmetry_equiv_pos_as_xyz
  1  'x, y, z'
loop_
 _atom_site_type_symbol
 _atom_site_label
 _atom_site_symmetry_multiplicity
 _atom_site_fract_x
 _atom_site_fract_y
 _atom_site_fract_z
 _atom_site_occupancy
  Pr  Pr0  1  0.000000  0.501355  0.518006  1
  Pr  Pr1  1  0.500000  0.999267  0.480927  1
  Pr  Pr2  1  0.500000  0.818920  0.200198  1
  Pr  Pr3  1  0.500000  0.182037  0.202447  1
  Pr  Pr4  1  0.000000  0.678569  0.799069  1
  Pr  Pr5  1  0.000000  0.319685  0.796928  1
  Cr  Cr6  1  0.500000  0.493400  0.157320  1
  Cr  Cr7  1  0.000000  0.002019  0.842899  1
  Cr  Cr8  1  0.500000  0.334084  0.997539  1
  Co  Co9  1  0.000000  0.498623  0.990488  1
  Co  Co10  1  0.500000  0.000637  0.009173  1
  P  P11  1  0.500000  0.493982  0.889920  1
  P  P12  1  0.000000  0.001084  0.110501  1
  P  P13  1  0.500000  0.500906  0.338959  1
  P  P14  1  0.000000  0.000004  0.660585  1
  P  P15  1  0.500000  0.311413  0.617309  1
  P  P16  1  0.500000  0.689137  0.617369  1
  P  P17  1  0.000000  0.189419  0.382671  1
  P  P18  1  0.000000  0.811984  0.381820  1
  P  P19  1  0.500000  0.853165  0.894806  1
  P  P20  1  0.500000  0.151186  0.895406  1
  P  P21  1  0.000000  0.645082  0.104754  1
  P  P22  1  0.000000  0.353913  0.105240  1
  Rh  Rh23  1  0.500000  0.500802  0.703219  1
  Rh  Rh24  1  0.000000  0.000933  0.294740  1
  Rh  Rh25  1  0.500000  0.663828  0.996870  1
  Rh  Rh26  1  0.000000  0.167984  0.005193  1
  Rh  Rh27  1  0.000000  0.835388  0.003540  1
  Rh  Rh28  1  0.500000  0.292855  0.431082  1
  Rh  Rh29  1  0.500000  0.708099  0.429806  1
  Rh  Rh30  1  0.000000  0.207019  0.570114  1
  Rh  Rh31  1  0.000000  0.793043  0.570171  1
  Rh  Rh32  1  0.500000  0.876838  0.713576  1
  Rh  Rh33  1  0.500000  0.122772  0.712419  1
  Rh  Rh34  1  0.000000  0.622879  0.286280  1
  Rh  Rh35  1  0.000000  0.377688  0.288657  1
