# generated using pymatgen
data_Ho3ErScIr3
_symmetry_space_group_name_H-M   'P 1'
_cell_length_a   10.72554700
_cell_length_b   10.71941400
_cell_length_c   6.24567100
_cell_angle_alpha   90.00000000
_cell_angle_beta   90.00000000
_cell_angle_gamma   90.00000000
_symmetry_Int_Tables_number   1
_chemical_formula_structural   Ho3ErScIr3
_chemical_formula_sum   'Ho12 Er4 Sc4 Ir12'
_cell_volume   718.07465472
_cell_formula_units_Z   4
loop_
 _symmetry_equiv_pos_site_id
 _symmetry_equiv_pos_as_xyz
  1  'x, y, z'
loop_
 _atom_site_type_symbol
 _atom_site_label
 _atom_site_symmetry_multiplicity
 _atom_site_fract_x
 _atom_site_fract_y
 _atom_site_fract_z
 _atom_site_occupancy
  Ho  Ho0  1  0.288107  0.086314  0.376877  1
  Ho  Ho1  1  0.288107  0.913686  0.876877  1
  Ho  Ho2  1  0.711893  0.086314  0.876877  1
  Ho  Ho3  1  0.711893  0.913686  0.376877  1
  Ho  Ho4  1  0.586250  0.788185  0.876982  1
  Ho  Ho5  1  0.586250  0.211815  0.376982  1
  Ho  Ho6  1  0.413750  0.788185  0.376982  1
  Ho  Ho7  1  0.413750  0.211815  0.876982  1
  Ho  Ho8  1  0.211583  0.413766  0.623057  1
  Ho  Ho9  1  0.211583  0.586234  0.123057  1
  Ho  Ho10  1  0.788417  0.413766  0.123057  1
  Ho  Ho11  1  0.788417  0.586234  0.623057  1
  Er  Er12  1  0.913943  0.711580  0.122797  1
  Er  Er13  1  0.913943  0.288420  0.622797  1
  Er  Er14  1  0.086057  0.711580  0.622797  1
  Er  Er15  1  0.086057  0.288420  0.122797  1
  Sc  Sc16  1  0.000000  0.000000  0.500069  1
  Sc  Sc17  1  0.000000  0.000000  0.000069  1
  Sc  Sc18  1  0.500000  0.500000  0.000113  1
  Sc  Sc19  1  0.500000  0.500000  0.500113  1
  Ir  Ir20  1  0.852203  0.148296  0.250286  1
  Ir  Ir21  1  0.852203  0.851704  0.750286  1
  Ir  Ir22  1  0.147797  0.148296  0.750286  1
  Ir  Ir23  1  0.147797  0.851704  0.250286  1
  Ir  Ir24  1  0.648305  0.351845  0.749912  1
  Ir  Ir25  1  0.648305  0.648155  0.249912  1
  Ir  Ir26  1  0.351695  0.351845  0.249912  1
  Ir  Ir27  1  0.351695  0.648155  0.749912  1
  Ir  Ir28  1  0.500000  0.000000  0.122120  1
  Ir  Ir29  1  0.500000  0.000000  0.622120  1
  Ir  Ir30  1  0.000000  0.500000  0.877875  1
  Ir  Ir31  1  0.000000  0.500000  0.377875  1
