# generated using pymatgen
data_Dy5In4CoNi
_symmetry_space_group_name_H-M   'P 1'
_cell_length_a   3.57966400
_cell_length_b   8.03102700
_cell_length_c   17.97691900
_cell_angle_alpha   90.00000000
_cell_angle_beta   90.00000000
_cell_angle_gamma   90.00000000
_symmetry_Int_Tables_number   1
_chemical_formula_structural   Dy5In4CoNi
_chemical_formula_sum   'Dy10 In8 Co2 Ni2'
_cell_volume   516.80726691
_cell_formula_units_Z   2
loop_
 _symmetry_equiv_pos_site_id
 _symmetry_equiv_pos_as_xyz
  1  'x, y, z'
loop_
 _atom_site_type_symbol
 _atom_site_label
 _atom_site_symmetry_multiplicity
 _atom_site_fract_x
 _atom_site_fract_y
 _atom_site_fract_z
 _atom_site_occupancy
  Dy  Dy0  1  0.500000  0.383800  0.589291  1
  Dy  Dy1  1  0.500000  0.884945  0.909940  1
  Dy  Dy2  1  0.500000  0.116200  0.089291  1
  Dy  Dy3  1  0.500000  0.759983  0.722511  1
  Dy  Dy4  1  0.500000  0.247080  0.778813  1
  Dy  Dy5  1  0.500000  0.499811  0.000058  1
  Dy  Dy6  1  0.500000  0.740017  0.222511  1
  Dy  Dy7  1  0.500000  0.252920  0.278813  1
  Dy  Dy8  1  0.500000  0.000189  0.500058  1
  Dy  Dy9  1  0.500000  0.615055  0.409940  1
  In  In10  1  0.000000  0.794192  0.068842  1
  In  In11  1  0.000000  0.927232  0.347595  1
  In  In12  1  0.000000  0.070054  0.652129  1
  In  In13  1  0.000000  0.572768  0.847595  1
  In  In14  1  0.000000  0.705808  0.568842  1
  In  In15  1  0.000000  0.205230  0.930418  1
  In  In16  1  0.000000  0.294770  0.430418  1
  In  In17  1  0.000000  0.429946  0.152129  1
  Co  Co18  1  0.000000  0.979428  0.804788  1
  Co  Co19  1  0.000000  0.520572  0.304788  1
  Ni  Ni20  1  0.000000  0.479143  0.695615  1
  Ni  Ni21  1  0.000000  0.020857  0.195615  1
