# generated using pymatgen
data_Hf16Co5MoPt2
_symmetry_space_group_name_H-M   'P 1'
_cell_length_a   8.62187199
_cell_length_b   8.55508385
_cell_length_c   8.55497544
_cell_angle_alpha   60.14303494
_cell_angle_beta   60.35658118
_cell_angle_gamma   60.35548938
_symmetry_Int_Tables_number   1
_chemical_formula_structural   Hf16Co5MoPt2
_chemical_formula_sum   'Hf16 Co5 Mo1 Pt2'
_cell_volume   449.07427150
_cell_formula_units_Z   1
loop_
 _symmetry_equiv_pos_site_id
 _symmetry_equiv_pos_as_xyz
  1  'x, y, z'
loop_
 _atom_site_type_symbol
 _atom_site_label
 _atom_site_symmetry_multiplicity
 _atom_site_fract_x
 _atom_site_fract_y
 _atom_site_fract_z
 _atom_site_occupancy
  Hf  Hf0  1  0.073480  0.641499  0.641479  1
  Hf  Hf1  1  0.647614  0.057702  0.646583  1
  Hf  Hf2  1  0.647622  0.646613  0.057668  1
  Hf  Hf3  1  0.647689  0.647782  0.647750  1
  Hf  Hf4  1  0.808083  0.801662  0.195308  1
  Hf  Hf5  1  0.196127  0.196316  0.802471  1
  Hf  Hf6  1  0.808064  0.195302  0.801685  1
  Hf  Hf7  1  0.196131  0.802444  0.196328  1
  Hf  Hf8  1  0.195813  0.804037  0.804056  1
  Hf  Hf9  1  0.804197  0.197187  0.197196  1
  Hf  Hf10  1  0.434688  0.436963  0.072208  1
  Hf  Hf11  1  0.054317  0.071810  0.437042  1
  Hf  Hf12  1  0.434662  0.072194  0.436985  1
  Hf  Hf13  1  0.054322  0.437030  0.071800  1
  Hf  Hf14  1  0.058048  0.437288  0.437324  1
  Hf  Hf15  1  0.435805  0.063775  0.063793  1
  Co  Co16  1  0.416653  0.409643  0.409623  1
  Co  Co17  1  0.423549  0.859072  0.859038  1
  Co  Co18  1  0.862804  0.428660  0.854455  1
  Co  Co19  1  0.862771  0.854474  0.428691  1
  Co  Co20  1  0.862440  0.854282  0.854239  1
  Mo  Mo21  1  0.741969  0.418256  0.418233  1
  Pt  Pt22  1  0.416579  0.754326  0.411687  1
  Pt  Pt23  1  0.416575  0.411684  0.754357  1
