# generated using pymatgen
data_Nd10GaSi4Ag
_symmetry_space_group_name_H-M   'P 1'
_cell_length_a   7.78528100
_cell_length_b   9.05927770
_cell_length_c   7.78528100
_cell_angle_alpha   115.44760796
_cell_angle_beta   90.00000000
_cell_angle_gamma   115.44760796
_symmetry_Int_Tables_number   1
_chemical_formula_structural   Nd10GaSi4Ag
_chemical_formula_sum   'Nd10 Ga1 Si4 Ag1'
_cell_volume   436.08138911
_cell_formula_units_Z   1
loop_
 _symmetry_equiv_pos_site_id
 _symmetry_equiv_pos_as_xyz
  1  'x, y, z'
loop_
 _atom_site_type_symbol
 _atom_site_label
 _atom_site_symmetry_multiplicity
 _atom_site_fract_x
 _atom_site_fract_y
 _atom_site_fract_z
 _atom_site_occupancy
  Nd  Nd0  1  0.975584  0.951168  0.975584  1
  Nd  Nd1  1  0.524416  0.048832  0.524416  1
  Nd  Nd2  1  0.528376  0.716932  0.676172  1
  Nd  Nd3  1  0.188557  0.716932  0.040761  1
  Nd  Nd4  1  0.676172  0.716932  0.188557  1
  Nd  Nd5  1  0.040761  0.716932  0.528376  1
  Nd  Nd6  1  0.459239  0.283068  0.311443  1
  Nd  Nd7  1  0.823828  0.283068  0.971624  1
  Nd  Nd8  1  0.311443  0.283068  0.823828  1
  Nd  Nd9  1  0.971624  0.283068  0.459239  1
  Ga  Ga10  1  0.750000  0.500000  0.750000  1
  Si  Si11  1  0.884331  0.000000  0.615669  1
  Si  Si12  1  0.115669  0.000000  0.384331  1
  Si  Si13  1  0.615669  0.000000  0.115669  1
  Si  Si14  1  0.384331  0.000000  0.884331  1
  Ag  Ag15  1  0.250000  0.500000  0.250000  1
