# generated using pymatgen
data_LaPr11(GeI3)4
_symmetry_space_group_name_H-M   'P 1'
_cell_length_a   10.93078655
_cell_length_b   10.93078821
_cell_length_c   10.95699601
_cell_angle_alpha   109.45207608
_cell_angle_beta   109.45206883
_cell_angle_gamma   109.45899000
_symmetry_Int_Tables_number   1
_chemical_formula_structural   LaPr11(GeI3)4
_chemical_formula_sum   'La1 Pr11 Ge4 I12'
_cell_volume   1008.42365109
_cell_formula_units_Z   1
loop_
 _symmetry_equiv_pos_site_id
 _symmetry_equiv_pos_as_xyz
  1  'x, y, z'
loop_
 _atom_site_type_symbol
 _atom_site_label
 _atom_site_symmetry_multiplicity
 _atom_site_fract_x
 _atom_site_fract_y
 _atom_site_fract_z
 _atom_site_occupancy
  La  La0  1  0.236470  0.263530  0.750000  1
  Pr  Pr1  1  0.467810  0.484188  0.234811  1
  Pr  Pr2  1  0.749190  0.233677  0.265919  1
  Pr  Pr3  1  0.748644  0.015673  0.482665  1
  Pr  Pr4  1  0.233393  0.467502  0.482600  1
  Pr  Pr5  1  0.266323  0.750810  0.234081  1
  Pr  Pr6  1  0.032498  0.266607  0.017400  1
  Pr  Pr7  1  0.015812  0.032190  0.265189  1
  Pr  Pr8  1  0.484327  0.751356  0.017335  1
  Pr  Pr9  1  0.483590  0.234120  0.467083  1
  Pr  Pr10  1  0.016427  0.483573  0.750000  1
  Pr  Pr11  1  0.265880  0.016410  0.032917  1
  Ge  Ge12  1  0.249931  0.250069  0.250000  1
  Ge  Ge13  1  0.499744  0.000256  0.250000  1
  Ge  Ge14  1  0.000520  0.249738  0.500240  1
  Ge  Ge15  1  0.250262  0.499480  0.999760  1
  I  I16  1  0.250076  0.756739  0.743809  1
  I  I17  1  0.515122  0.509940  0.755880  1
  I  I18  1  0.986747  0.743173  0.993487  1
  I  I19  1  0.743261  0.249924  0.756191  1
  I  I20  1  0.990060  0.984878  0.744120  1
  I  I21  1  0.249199  0.991086  0.504195  1
  I  I22  1  0.756827  0.513253  0.506513  1
  I  I23  1  0.508914  0.250801  0.995805  1
  I  I24  1  0.756391  0.743609  0.250000  1
  I  I25  1  0.743124  0.993757  0.986941  1
  I  I26  1  0.993214  0.506786  0.250000  1
  I  I27  1  0.506243  0.756876  0.513059  1
