# generated using pymatgen
data_Ce4Nd7Y5(CdRu)4
_symmetry_space_group_name_H-M   'P 1'
_cell_length_a   9.78980842
_cell_length_b   9.78980932
_cell_length_c   9.78774800
_cell_angle_alpha   60.00697169
_cell_angle_beta   60.00696866
_cell_angle_gamma   59.74320305
_symmetry_Int_Tables_number   1
_chemical_formula_structural   Ce4Nd7Y5(CdRu)4
_chemical_formula_sum   'Ce4 Nd7 Y5 Cd4 Ru4'
_cell_volume   662.08207417
_cell_formula_units_Z   1
loop_
 _symmetry_equiv_pos_site_id
 _symmetry_equiv_pos_as_xyz
  1  'x, y, z'
loop_
 _atom_site_type_symbol
 _atom_site_label
 _atom_site_symmetry_multiplicity
 _atom_site_fract_x
 _atom_site_fract_y
 _atom_site_fract_z
 _atom_site_occupancy
  Ce  Ce0  1  0.345858  0.345858  0.966969  1
  Ce  Ce1  1  0.343887  0.965163  0.345476  1
  Ce  Ce2  1  0.965163  0.343887  0.345476  1
  Ce  Ce3  1  0.345858  0.345858  0.341318  1
  Nd  Nd4  1  0.559799  0.559799  0.940201  1
  Nd  Nd5  1  0.940110  0.559256  0.942418  1
  Nd  Nd6  1  0.559256  0.940110  0.942418  1
  Nd  Nd7  1  0.941193  0.941193  0.558807  1
  Nd  Nd8  1  0.559256  0.940110  0.558215  1
  Nd  Nd9  1  0.940110  0.559256  0.558215  1
  Nd  Nd10  1  0.187528  0.187528  0.812472  1
  Y  Y11  1  0.810452  0.187360  0.812263  1
  Y  Y12  1  0.187359  0.810453  0.812263  1
  Y  Y13  1  0.812928  0.812929  0.187072  1
  Y  Y14  1  0.187359  0.810452  0.189923  1
  Y  Y15  1  0.810452  0.187360  0.189924  1
  Cd  Cd16  1  0.579264  0.579264  0.261613  1
  Cd  Cd17  1  0.581305  0.261392  0.578651  1
  Cd  Cd18  1  0.261392  0.581305  0.578651  1
  Cd  Cd19  1  0.579264  0.579264  0.579858  1
  Ru  Ru20  1  0.145726  0.145726  0.562966  1
  Ru  Ru21  1  0.147113  0.563641  0.144623  1
  Ru  Ru22  1  0.563641  0.147113  0.144623  1
  Ru  Ru23  1  0.145726  0.145726  0.145582  1
