# generated using pymatgen
data_Pr10In3Bi3Cl2
_symmetry_space_group_name_H-M   'P 1'
_cell_length_a   9.59676007
_cell_length_b   9.62813686
_cell_length_c   6.80117000
_cell_angle_alpha   90.00000000
_cell_angle_beta   90.00000000
_cell_angle_gamma   119.70393975
_symmetry_Int_Tables_number   1
_chemical_formula_structural   Pr10In3Bi3Cl2
_chemical_formula_sum   'Pr10 In3 Bi3 Cl2'
_cell_volume   545.84466457
_cell_formula_units_Z   1
loop_
 _symmetry_equiv_pos_site_id
 _symmetry_equiv_pos_as_xyz
  1  'x, y, z'
loop_
 _atom_site_type_symbol
 _atom_site_label
 _atom_site_symmetry_multiplicity
 _atom_site_fract_x
 _atom_site_fract_y
 _atom_site_fract_z
 _atom_site_occupancy
  Pr  Pr0  1  0.737676  0.737961  0.250000  1
  Pr  Pr1  1  0.995595  0.737388  0.750000  1
  Pr  Pr2  1  0.744098  0.001004  0.750000  1
  Pr  Pr3  1  0.331987  0.658994  0.499538  1
  Pr  Pr4  1  0.259370  0.264993  0.750000  1
  Pr  Pr5  1  0.004525  0.259646  0.250000  1
  Pr  Pr6  1  0.667050  0.338361  0.499718  1
  Pr  Pr7  1  0.259497  0.003383  0.250000  1
  Pr  Pr8  1  0.331987  0.658994  0.000462  1
  Pr  Pr9  1  0.667050  0.338361  0.000282  1
  In  In10  1  0.998659  0.388860  0.750000  1
  In  In11  1  0.392889  0.391945  0.250000  1
  In  In12  1  0.608295  0.608897  0.750000  1
  Bi  Bi13  1  0.386966  0.000138  0.750000  1
  Bi  Bi14  1  0.000538  0.612714  0.250000  1
  Bi  Bi15  1  0.613929  0.001705  0.250000  1
  Cl  Cl16  1  0.999945  0.998329  0.499500  1
  Cl  Cl17  1  0.999945  0.998329  0.000500  1
