# generated using pymatgen
data_Tb2LuZr3(SnRh)6
_symmetry_space_group_name_H-M   'P 1'
_cell_length_a   7.51082809
_cell_length_b   7.52376736
_cell_length_c   7.48190700
_cell_angle_alpha   90.00000000
_cell_angle_beta   90.00000000
_cell_angle_gamma   120.07632210
_symmetry_Int_Tables_number   1
_chemical_formula_structural   Tb2LuZr3(SnRh)6
_chemical_formula_sum   'Tb2 Lu1 Zr3 Sn6 Rh6'
_cell_volume   365.87404284
_cell_formula_units_Z   1
loop_
 _symmetry_equiv_pos_site_id
 _symmetry_equiv_pos_as_xyz
  1  'x, y, z'
loop_
 _atom_site_type_symbol
 _atom_site_label
 _atom_site_symmetry_multiplicity
 _atom_site_fract_x
 _atom_site_fract_y
 _atom_site_fract_z
 _atom_site_occupancy
  Tb  Tb0  1  0.594395  0.999038  0.750000  1
  Tb  Tb1  1  0.404591  0.405707  0.750000  1
  Lu  Lu2  1  0.000840  0.596730  0.750000  1
  Zr  Zr3  1  0.605418  0.002599  0.250000  1
  Zr  Zr4  1  0.397283  0.394449  0.250000  1
  Zr  Zr5  1  0.997252  0.602179  0.250000  1
  Sn  Sn6  1  0.264703  0.997884  0.006597  1
  Sn  Sn7  1  0.734225  0.734153  0.493298  1
  Sn  Sn8  1  0.001010  0.267385  0.495020  1
  Sn  Sn9  1  0.001010  0.267385  0.004980  1
  Sn  Sn10  1  0.734225  0.734153  0.006702  1
  Sn  Sn11  1  0.264703  0.997884  0.493403  1
  Rh  Rh12  1  0.667856  0.334389  0.023692  1
  Rh  Rh13  1  0.667856  0.334389  0.476308  1
  Rh  Rh14  1  0.332290  0.666566  0.032334  1
  Rh  Rh15  1  0.332290  0.666566  0.467666  1
  Rh  Rh16  1  0.000016  0.998011  0.750000  1
  Rh  Rh17  1  0.000038  0.000532  0.250000  1
