# generated using pymatgen
data_Dy8In4Ir3Au5
_symmetry_space_group_name_H-M   'P 1'
_cell_length_a   7.84653250
_cell_length_b   7.84653295
_cell_length_c   7.48978223
_cell_angle_alpha   90.08467260
_cell_angle_beta   90.08467732
_cell_angle_gamma   90.63772789
_symmetry_Int_Tables_number   1
_chemical_formula_structural   Dy8In4Ir3Au5
_chemical_formula_sum   'Dy8 In4 Ir3 Au5'
_cell_volume   461.10189757
_cell_formula_units_Z   1
loop_
 _symmetry_equiv_pos_site_id
 _symmetry_equiv_pos_as_xyz
  1  'x, y, z'
loop_
 _atom_site_type_symbol
 _atom_site_label
 _atom_site_symmetry_multiplicity
 _atom_site_fract_x
 _atom_site_fract_y
 _atom_site_fract_z
 _atom_site_occupancy
  Dy  Dy0  1  0.169865  0.169865  0.011273  1
  Dy  Dy1  1  0.819569  0.819569  0.000223  1
  Dy  Dy2  1  0.661099  0.351496  0.493304  1
  Dy  Dy3  1  0.351496  0.661099  0.493304  1
  Dy  Dy4  1  0.674339  0.341419  0.005086  1
  Dy  Dy5  1  0.341419  0.674339  0.005086  1
  Dy  Dy6  1  0.808830  0.808830  0.499689  1
  Dy  Dy7  1  0.185495  0.185495  0.491224  1
  In  In8  1  0.500306  0.007157  0.247179  1
  In  In9  1  0.501888  0.992848  0.751106  1
  In  In10  1  0.007157  0.500306  0.247179  1
  In  In11  1  0.992848  0.501888  0.751106  1
  Ir  Ir12  1  0.369558  0.369558  0.239527  1
  Ir  Ir13  1  0.626359  0.626359  0.758619  1
  Ir  Ir14  1  0.626724  0.626724  0.239219  1
  Au  Au15  1  0.870244  0.128398  0.734970  1
  Au  Au16  1  0.868582  0.125829  0.265635  1
  Au  Au17  1  0.369994  0.369994  0.765667  1
  Au  Au18  1  0.125829  0.868582  0.265635  1
  Au  Au19  1  0.128398  0.870244  0.734970  1
