# generated using pymatgen
data_Ta4BeAl(B2Ru5)2
_symmetry_space_group_name_H-M   'P 1'
_cell_length_a   9.22367700
_cell_length_b   9.22367700
_cell_length_c   2.98756500
_cell_angle_alpha   90.00000000
_cell_angle_beta   90.00000000
_cell_angle_gamma   90.00000000
_symmetry_Int_Tables_number   1
_chemical_formula_structural   Ta4BeAl(B2Ru5)2
_chemical_formula_sum   'Ta4 Be1 Al1 B4 Ru10'
_cell_volume   254.17072944
_cell_formula_units_Z   1
loop_
 _symmetry_equiv_pos_site_id
 _symmetry_equiv_pos_as_xyz
  1  'x, y, z'
loop_
 _atom_site_type_symbol
 _atom_site_label
 _atom_site_symmetry_multiplicity
 _atom_site_fract_x
 _atom_site_fract_y
 _atom_site_fract_z
 _atom_site_occupancy
  Ta  Ta0  1  0.825843  0.678500  0.000000  1
  Ta  Ta1  1  0.174157  0.321500  0.000000  1
  Ta  Ta2  1  0.321500  0.825843  0.000000  1
  Ta  Ta3  1  0.678500  0.174157  0.000000  1
  Be  Be4  1  0.000000  0.000000  0.000000  1
  Al  Al5  1  0.500000  0.500000  0.000000  1
  B  B6  1  0.631640  0.878005  0.000000  1
  B  B7  1  0.368360  0.121995  0.000000  1
  B  B8  1  0.121995  0.631640  0.000000  1
  B  B9  1  0.878005  0.368360  0.000000  1
  Ru  Ru10  1  0.571389  0.715000  0.500000  1
  Ru  Ru11  1  0.428611  0.285000  0.500000  1
  Ru  Ru12  1  0.064210  0.792281  0.500000  1
  Ru  Ru13  1  0.935790  0.207719  0.500000  1
  Ru  Ru14  1  0.285000  0.571389  0.500000  1
  Ru  Ru15  1  0.715000  0.428611  0.500000  1
  Ru  Ru16  1  0.207719  0.064210  0.500000  1
  Ru  Ru17  1  0.792281  0.935790  0.500000  1
  Ru  Ru18  1  0.500000  0.000000  0.500000  1
  Ru  Ru19  1  0.000000  0.500000  0.500000  1
