# generated using pymatgen
data_NaNb3SeS5
_symmetry_space_group_name_H-M   'P 1'
_cell_length_a   5.88889791
_cell_length_b   5.89177083
_cell_length_c   15.04024152
_cell_angle_alpha   89.75390565
_cell_angle_beta   90.49243332
_cell_angle_gamma   119.98387669
_symmetry_Int_Tables_number   1
_chemical_formula_structural   NaNb3SeS5
_chemical_formula_sum   'Na2 Nb6 Se2 S10'
_cell_volume   451.98061603
_cell_formula_units_Z   2
loop_
 _symmetry_equiv_pos_site_id
 _symmetry_equiv_pos_as_xyz
  1  'x, y, z'
loop_
 _atom_site_type_symbol
 _atom_site_label
 _atom_site_symmetry_multiplicity
 _atom_site_fract_x
 _atom_site_fract_y
 _atom_site_fract_z
 _atom_site_occupancy
  Na  Na0  1  0.351349  0.702700  0.250000  1
  Na  Na1  1  0.666465  0.332929  0.750000  1
  Nb  Nb2  1  0.333577  0.667863  0.997525  1
  Nb  Nb3  1  0.996263  0.994420  0.997606  1
  Nb  Nb4  1  0.671525  0.332416  0.998099  1
  Nb  Nb5  1  0.334285  0.667863  0.502475  1
  Nb  Nb6  1  0.998157  0.994420  0.502394  1
  Nb  Nb7  1  0.660892  0.332416  0.501901  1
  Se  Se8  1  0.992561  0.328334  0.387721  1
  Se  Se9  1  0.335772  0.328334  0.112279  1
  S  S10  1  0.663226  0.665187  0.399157  1
  S  S11  1  0.666556  0.666078  0.605812  1
  S  S12  1  0.999523  0.666078  0.894188  1
  S  S13  1  0.664615  0.997250  0.894223  1
  S  S14  1  0.670262  0.999158  0.100686  1
  S  S15  1  0.328895  0.999158  0.399314  1
  S  S16  1  0.000358  0.331480  0.602486  1
  S  S17  1  0.332635  0.997250  0.605777  1
  S  S18  1  0.001960  0.665187  0.100843  1
  S  S19  1  0.331123  0.331480  0.897514  1
