# generated using pymatgen
data_Li4AcDy3Si8
_symmetry_space_group_name_H-M   'P 1'
_cell_length_a   3.85422000
_cell_length_b   7.70721433
_cell_length_c   10.39758988
_cell_angle_alpha   89.63712263
_cell_angle_beta   90.00000000
_cell_angle_gamma   90.00000000
_symmetry_Int_Tables_number   1
_chemical_formula_structural   Li4AcDy3Si8
_chemical_formula_sum   'Li4 Ac1 Dy3 Si8'
_cell_volume   308.85732835
_cell_formula_units_Z   1
loop_
 _symmetry_equiv_pos_site_id
 _symmetry_equiv_pos_as_xyz
  1  'x, y, z'
loop_
 _atom_site_type_symbol
 _atom_site_label
 _atom_site_symmetry_multiplicity
 _atom_site_fract_x
 _atom_site_fract_y
 _atom_site_fract_z
 _atom_site_occupancy
  Li  Li0  1  0.250000  0.997683  0.392195  1
  Li  Li1  1  0.750000  0.009439  0.612910  1
  Li  Li2  1  0.250000  0.488657  0.103926  1
  Li  Li3  1  0.750000  0.509962  0.894527  1
  Ac  Ac4  1  0.750000  0.357437  0.363834  1
  Dy  Dy5  1  0.250000  0.130739  0.864299  1
  Dy  Dy6  1  0.750000  0.861206  0.131608  1
  Dy  Dy7  1  0.250000  0.639446  0.638011  1
  Si  Si8  1  0.750000  0.257906  0.058828  1
  Si  Si9  1  0.250000  0.731361  0.929977  1
  Si  Si10  1  0.750000  0.782190  0.430442  1
  Si  Si11  1  0.250000  0.227956  0.584158  1
  Si  Si12  1  0.750000  0.839876  0.820056  1
  Si  Si13  1  0.250000  0.148645  0.167737  1
  Si  Si14  1  0.750000  0.342641  0.688805  1
  Si  Si15  1  0.250000  0.674855  0.318689  1
