# generated using pymatgen
data_DyTm5Co14(P3Ir)4
_symmetry_space_group_name_H-M   'P 1'
_cell_length_a   3.70749200
_cell_length_b   10.59803100
_cell_length_c   12.33193000
_cell_angle_alpha   90.00000000
_cell_angle_beta   90.00000000
_cell_angle_gamma   90.00000000
_symmetry_Int_Tables_number   1
_chemical_formula_structural   DyTm5Co14(P3Ir)4
_chemical_formula_sum   'Dy1 Tm5 Co14 P12 Ir4'
_cell_volume   484.54761356
_cell_formula_units_Z   1
loop_
 _symmetry_equiv_pos_site_id
 _symmetry_equiv_pos_as_xyz
  1  'x, y, z'
loop_
 _atom_site_type_symbol
 _atom_site_label
 _atom_site_symmetry_multiplicity
 _atom_site_fract_x
 _atom_site_fract_y
 _atom_site_fract_z
 _atom_site_occupancy
  Dy  Dy0  1  0.000000  0.500000  0.520368  1
  Tm  Tm1  1  0.500000  0.000000  0.479910  1
  Tm  Tm2  1  0.500000  0.813850  0.206102  1
  Tm  Tm3  1  0.500000  0.186150  0.206102  1
  Tm  Tm4  1  0.000000  0.686732  0.793973  1
  Tm  Tm5  1  0.000000  0.313268  0.793973  1
  Co  Co6  1  0.000000  0.500000  0.988737  1
  Co  Co7  1  0.500000  0.000000  0.011765  1
  Co  Co8  1  0.500000  0.331808  0.993403  1
  Co  Co9  1  0.500000  0.668192  0.993403  1
  Co  Co10  1  0.000000  0.167579  0.006698  1
  Co  Co11  1  0.000000  0.832421  0.006698  1
  Co  Co12  1  0.500000  0.299507  0.428695  1
  Co  Co13  1  0.500000  0.700493  0.428695  1
  Co  Co14  1  0.000000  0.199279  0.571070  1
  Co  Co15  1  0.000000  0.800721  0.571070  1
  Co  Co16  1  0.500000  0.880269  0.710896  1
  Co  Co17  1  0.500000  0.119731  0.710896  1
  Co  Co18  1  0.000000  0.620065  0.288537  1
  Co  Co19  1  0.000000  0.379935  0.288537  1
  P  P20  1  0.500000  0.500000  0.889823  1
  P  P21  1  0.000000  0.000000  0.110872  1
  P  P22  1  0.500000  0.500000  0.350752  1
  P  P23  1  0.000000  0.000000  0.647888  1
  P  P24  1  0.500000  0.302522  0.613714  1
  P  P25  1  0.500000  0.697478  0.613714  1
  P  P26  1  0.000000  0.196916  0.386558  1
  P  P27  1  0.000000  0.803084  0.386558  1
  P  P28  1  0.500000  0.844310  0.893811  1
  P  P29  1  0.500000  0.155690  0.893811  1
  P  P30  1  0.000000  0.656301  0.106100  1
  P  P31  1  0.000000  0.343699  0.106100  1
  Ir  Ir32  1  0.500000  0.500000  0.160645  1
  Ir  Ir33  1  0.000000  0.000000  0.838641  1
  Ir  Ir34  1  0.500000  0.500000  0.704536  1
  Ir  Ir35  1  0.000000  0.000000  0.296948  1
