# generated using pymatgen
data_Hf5Zr5AlSn6Sb
_symmetry_space_group_name_H-M   'P 1'
_cell_length_a   8.77076732
_cell_length_b   8.77076920
_cell_length_c   5.91130701
_cell_angle_alpha   90.00566999
_cell_angle_beta   90.00567329
_cell_angle_gamma   120.01062283
_symmetry_Int_Tables_number   1
_chemical_formula_structural   Hf5Zr5AlSn6Sb
_chemical_formula_sum   'Hf5 Zr5 Al1 Sn6 Sb1'
_cell_volume   393.77026105
_cell_formula_units_Z   1
loop_
 _symmetry_equiv_pos_site_id
 _symmetry_equiv_pos_as_xyz
  1  'x, y, z'
loop_
 _atom_site_type_symbol
 _atom_site_label
 _atom_site_symmetry_multiplicity
 _atom_site_fract_x
 _atom_site_fract_y
 _atom_site_fract_z
 _atom_site_occupancy
  Hf  Hf0  1  0.666908  0.333880  0.499805  1
  Hf  Hf1  1  0.333880  0.666908  0.499805  1
  Hf  Hf2  1  0.333852  0.666939  0.000199  1
  Hf  Hf3  1  0.666939  0.333852  0.000199  1
  Hf  Hf4  1  0.723127  0.723127  0.237188  1
  Zr  Zr5  1  0.276436  0.000716  0.238273  1
  Zr  Zr6  1  0.000716  0.276436  0.238273  1
  Zr  Zr7  1  0.274695  0.274695  0.761586  1
  Zr  Zr8  1  0.724761  0.999319  0.762558  1
  Zr  Zr9  1  0.999319  0.724761  0.762558  1
  Al  Al10  1  0.999513  0.999513  0.001504  1
  Sn  Sn11  1  0.389478  0.389478  0.252625  1
  Sn  Sn12  1  0.611909  0.999750  0.252976  1
  Sn  Sn13  1  0.999750  0.611909  0.252976  1
  Sn  Sn14  1  0.610581  0.610581  0.746903  1
  Sn  Sn15  1  0.389016  0.000143  0.747160  1
  Sn  Sn16  1  0.000143  0.389016  0.747160  1
  Sb  Sb17  1  0.998977  0.998977  0.498255  1
