# generated using pymatgen
data_PrNd5Tm10(CdIr)4
_symmetry_space_group_name_H-M   'P 1'
_cell_length_a   9.68501833
_cell_length_b   9.67634232
_cell_length_c   9.67634155
_cell_angle_alpha   59.95545068
_cell_angle_beta   59.97033665
_cell_angle_gamma   59.97033702
_symmetry_Int_Tables_number   1
_chemical_formula_structural   PrNd5Tm10(CdIr)4
_chemical_formula_sum   'Pr1 Nd5 Tm10 Cd4 Ir4'
_cell_volume   640.71766232
_cell_formula_units_Z   1
loop_
 _symmetry_equiv_pos_site_id
 _symmetry_equiv_pos_as_xyz
  1  'x, y, z'
loop_
 _atom_site_type_symbol
 _atom_site_label
 _atom_site_symmetry_multiplicity
 _atom_site_fract_x
 _atom_site_fract_y
 _atom_site_fract_z
 _atom_site_occupancy
  Pr  Pr0  1  0.940871  0.559129  0.559129  1
  Nd  Nd1  1  0.558546  0.941454  0.941454  1
  Nd  Nd2  1  0.558388  0.941425  0.558616  1
  Nd  Nd3  1  0.941571  0.558616  0.941425  1
  Nd  Nd4  1  0.558388  0.558616  0.941425  1
  Nd  Nd5  1  0.941571  0.941425  0.558616  1
  Tm  Tm6  1  0.346357  0.346854  0.346854  1
  Tm  Tm7  1  0.346568  0.347210  0.959655  1
  Tm  Tm8  1  0.346568  0.959655  0.347210  1
  Tm  Tm9  1  0.959935  0.346854  0.346854  1
  Tm  Tm10  1  0.813352  0.186648  0.186648  1
  Tm  Tm11  1  0.186594  0.813406  0.813406  1
  Tm  Tm12  1  0.187316  0.813097  0.185838  1
  Tm  Tm13  1  0.813748  0.185838  0.813097  1
  Tm  Tm14  1  0.187316  0.185838  0.813097  1
  Tm  Tm15  1  0.813748  0.813097  0.185838  1
  Cd  Cd16  1  0.578841  0.579338  0.579338  1
  Cd  Cd17  1  0.579381  0.579445  0.261791  1
  Cd  Cd18  1  0.579381  0.261791  0.579445  1
  Cd  Cd19  1  0.262481  0.579338  0.579338  1
  Ir  Ir20  1  0.140689  0.141519  0.141519  1
  Ir  Ir21  1  0.141057  0.141352  0.576533  1
  Ir  Ir22  1  0.141057  0.576533  0.141352  1
  Ir  Ir23  1  0.576273  0.141519  0.141519  1
