# generated using pymatgen
data_Dy4Mn3Co17As12
_symmetry_space_group_name_H-M   'P 1'
_cell_length_a   3.79226300
_cell_length_b   10.72355029
_cell_length_c   12.28037298
_cell_angle_alpha   90.05108712
_cell_angle_beta   90.00000000
_cell_angle_gamma   90.00000000
_symmetry_Int_Tables_number   1
_chemical_formula_structural   Dy4Mn3Co17As12
_chemical_formula_sum   'Dy4 Mn3 Co17 As12'
_cell_volume   499.39987200
_cell_formula_units_Z   1
loop_
 _symmetry_equiv_pos_site_id
 _symmetry_equiv_pos_as_xyz
  1  'x, y, z'
loop_
 _atom_site_type_symbol
 _atom_site_label
 _atom_site_symmetry_multiplicity
 _atom_site_fract_x
 _atom_site_fract_y
 _atom_site_fract_z
 _atom_site_occupancy
  Dy  Dy0  1  0.250000  0.577696  0.702666  1
  Dy  Dy1  1  0.250000  0.921583  0.201709  1
  Dy  Dy2  1  0.750000  0.421644  0.297113  1
  Dy  Dy3  1  0.750000  0.076916  0.796961  1
  Mn  Mn4  1  0.250000  0.699904  0.991463  1
  Mn  Mn5  1  0.250000  0.799038  0.490198  1
  Mn  Mn6  1  0.750000  0.298564  0.008362  1
  Co  Co7  1  0.750000  0.206497  0.509101  1
  Co  Co8  1  0.250000  0.405601  0.487914  1
  Co  Co9  1  0.250000  0.093318  0.987369  1
  Co  Co10  1  0.750000  0.593673  0.513300  1
  Co  Co11  1  0.750000  0.906274  0.014333  1
  Co  Co12  1  0.250000  0.218201  0.176952  1
  Co  Co13  1  0.250000  0.281788  0.673865  1
  Co  Co14  1  0.750000  0.781845  0.825158  1
  Co  Co15  1  0.750000  0.719051  0.325459  1
  Co  Co16  1  0.250000  0.882672  0.697872  1
  Co  Co17  1  0.250000  0.618020  0.199429  1
  Co  Co18  1  0.750000  0.118894  0.302789  1
  Co  Co19  1  0.750000  0.379803  0.800036  1
  Co  Co20  1  0.250000  0.464024  0.932240  1
  Co  Co21  1  0.250000  0.035380  0.432708  1
  Co  Co22  1  0.750000  0.534477  0.067190  1
  Co  Co23  1  0.750000  0.967582  0.565958  1
  As  As24  1  0.250000  0.419417  0.116217  1
  As  As25  1  0.250000  0.082004  0.614573  1
  As  As26  1  0.750000  0.579067  0.883163  1
  As  As27  1  0.750000  0.920513  0.382914  1
  As  As28  1  0.250000  0.265241  0.864534  1
  As  As29  1  0.250000  0.233869  0.367422  1
  As  As30  1  0.750000  0.732824  0.135442  1
  As  As31  1  0.750000  0.767865  0.635543  1
  As  As32  1  0.250000  0.598322  0.391611  1
  As  As33  1  0.250000  0.900350  0.892030  1
  As  As34  1  0.750000  0.397890  0.606978  1
  As  As35  1  0.750000  0.100194  0.109430  1
