# generated using pymatgen
data_Nd20Ir4Ru5Pt3
_symmetry_space_group_name_H-M   'P 1'
_cell_length_a   11.25586434
_cell_length_b   11.25586434
_cell_length_c   6.64263972
_cell_angle_alpha   90.13106749
_cell_angle_beta   90.13106850
_cell_angle_gamma   90.00048524
_symmetry_Int_Tables_number   1
_chemical_formula_structural   Nd20Ir4Ru5Pt3
_chemical_formula_sum   'Nd20 Ir4 Ru5 Pt3'
_cell_volume   841.58139406
_cell_formula_units_Z   1
loop_
 _symmetry_equiv_pos_site_id
 _symmetry_equiv_pos_as_xyz
  1  'x, y, z'
loop_
 _atom_site_type_symbol
 _atom_site_label
 _atom_site_symmetry_multiplicity
 _atom_site_fract_x
 _atom_site_fract_y
 _atom_site_fract_z
 _atom_site_occupancy
  Nd  Nd0  1  0.088504  0.294876  0.115245  1
  Nd  Nd1  1  0.793840  0.412901  0.115965  1
  Nd  Nd2  1  0.206802  0.592479  0.114918  1
  Nd  Nd3  1  0.915010  0.707905  0.117025  1
  Nd  Nd4  1  0.407521  0.793198  0.385082  1
  Nd  Nd5  1  0.587099  0.206160  0.384035  1
  Nd  Nd6  1  0.292095  0.084990  0.382975  1
  Nd  Nd7  1  0.705124  0.911496  0.384755  1
  Nd  Nd8  1  0.412101  0.203435  0.877808  1
  Nd  Nd9  1  0.705879  0.087013  0.879872  1
  Nd  Nd10  1  0.292812  0.910683  0.885490  1
  Nd  Nd11  1  0.586936  0.796039  0.877607  1
  Nd  Nd12  1  0.089317  0.707188  0.614510  1
  Nd  Nd13  1  0.912987  0.294121  0.620128  1
  Nd  Nd14  1  0.203961  0.413064  0.622393  1
  Nd  Nd15  1  0.796565  0.587899  0.622192  1
  Nd  Nd16  1  0.002882  0.998535  0.998852  1
  Nd  Nd17  1  0.499601  0.499713  0.998744  1
  Nd  Nd18  1  0.500287  0.500399  0.501256  1
  Nd  Nd19  1  0.001465  0.997118  0.501148  1
  Ir  Ir20  1  0.349622  0.650378  0.750000  1
  Ir  Ir21  1  0.153634  0.154171  0.749449  1
  Ir  Ir22  1  0.845829  0.846366  0.750551  1
  Ir  Ir23  1  0.651528  0.348472  0.750000  1
  Ru  Ru24  1  0.151127  0.848873  0.250000  1
  Ru  Ru25  1  0.999877  0.499473  0.376224  1
  Ru  Ru26  1  0.500527  0.000123  0.123776  1
  Ru  Ru27  1  0.500627  0.999977  0.621503  1
  Ru  Ru28  1  0.000023  0.499373  0.878497  1
  Pt  Pt29  1  0.345644  0.345843  0.249901  1
  Pt  Pt30  1  0.654157  0.654356  0.250099  1
  Pt  Pt31  1  0.846618  0.153382  0.250000  1
