# generated using pymatgen
data_Zr5NbPtRh9
_symmetry_space_group_name_H-M   'P 1'
_cell_length_a   5.61030598
_cell_length_b   5.63390590
_cell_length_c   8.75242100
_cell_angle_alpha   90.00000000
_cell_angle_beta   90.00000000
_cell_angle_gamma   102.15303886
_symmetry_Int_Tables_number   1
_chemical_formula_structural   Zr5NbPtRh9
_chemical_formula_sum   'Zr5 Nb1 Pt1 Rh9'
_cell_volume   270.44598745
_cell_formula_units_Z   1
loop_
 _symmetry_equiv_pos_site_id
 _symmetry_equiv_pos_as_xyz
  1  'x, y, z'
loop_
 _atom_site_type_symbol
 _atom_site_label
 _atom_site_symmetry_multiplicity
 _atom_site_fract_x
 _atom_site_fract_y
 _atom_site_fract_z
 _atom_site_occupancy
  Zr  Zr0  1  0.421152  0.424697  0.250000  1
  Zr  Zr1  1  0.794686  0.212887  0.501609  1
  Zr  Zr2  1  0.207754  0.792463  0.997016  1
  Zr  Zr3  1  0.207754  0.792463  0.502984  1
  Zr  Zr4  1  0.794686  0.212887  0.998391  1
  Nb  Nb5  1  0.572363  0.572658  0.750000  1
  Pt  Pt6  1  0.515883  0.966844  0.250000  1
  Rh  Rh7  1  0.708639  0.709934  0.021199  1
  Rh  Rh8  1  0.708639  0.709934  0.478801  1
  Rh  Rh9  1  0.298827  0.300066  0.962281  1
  Rh  Rh10  1  0.298827  0.300066  0.537719  1
  Rh  Rh11  1  0.490012  0.009966  0.750000  1
  Rh  Rh12  1  0.018302  0.013340  0.250000  1
  Rh  Rh13  1  0.984650  0.983981  0.750000  1
  Rh  Rh14  1  0.008342  0.487606  0.750000  1
  Rh  Rh15  1  0.969481  0.510206  0.250000  1
