# generated using pymatgen
data_Ho6AlZn5C2
_symmetry_space_group_name_H-M   'P 1'
_cell_length_a   9.13745260
_cell_length_b   9.13745289
_cell_length_c   9.17044000
_cell_angle_alpha   59.88050684
_cell_angle_beta   59.88050580
_cell_angle_gamma   59.76091876
_symmetry_Int_Tables_number   1
_chemical_formula_structural   Ho6AlZn5C2
_chemical_formula_sum   'Ho12 Al2 Zn10 C4'
_cell_volume   539.44935335
_cell_formula_units_Z   2
loop_
 _symmetry_equiv_pos_site_id
 _symmetry_equiv_pos_as_xyz
  1  'x, y, z'
loop_
 _atom_site_type_symbol
 _atom_site_label
 _atom_site_symmetry_multiplicity
 _atom_site_fract_x
 _atom_site_fract_y
 _atom_site_fract_z
 _atom_site_occupancy
  Ho  Ho0  1  0.446474  0.446474  0.053526  1
  Ho  Ho1  1  0.053444  0.446464  0.053974  1
  Ho  Ho2  1  0.446464  0.053444  0.053974  1
  Ho  Ho3  1  0.053793  0.053793  0.446207  1
  Ho  Ho4  1  0.446464  0.053444  0.446118  1
  Ho  Ho5  1  0.053444  0.446464  0.446118  1
  Ho  Ho6  1  0.803526  0.803526  0.196474  1
  Ho  Ho7  1  0.196556  0.803536  0.196026  1
  Ho  Ho8  1  0.803536  0.196556  0.196026  1
  Ho  Ho9  1  0.196207  0.196207  0.803793  1
  Ho  Ho10  1  0.803536  0.196556  0.803882  1
  Ho  Ho11  1  0.196556  0.803536  0.803882  1
  Al  Al12  1  0.625000  0.125000  0.625000  1
  Al  Al13  1  0.125000  0.625000  0.625000  1
  Zn  Zn14  1  0.826589  0.826589  0.518057  1
  Zn  Zn15  1  0.825449  0.519273  0.827639  1
  Zn  Zn16  1  0.519273  0.825449  0.827639  1
  Zn  Zn17  1  0.826589  0.826589  0.828766  1
  Zn  Zn18  1  0.423411  0.423411  0.731943  1
  Zn  Zn19  1  0.424551  0.730727  0.422361  1
  Zn  Zn20  1  0.730727  0.424551  0.422361  1
  Zn  Zn21  1  0.423411  0.423411  0.421234  1
  Zn  Zn22  1  0.625000  0.625000  0.125000  1
  Zn  Zn23  1  0.625000  0.625000  0.625000  1
  C  C24  1  0.125000  0.125000  0.625000  1
  C  C25  1  0.125000  0.625000  0.125000  1
  C  C26  1  0.625000  0.125000  0.125000  1
  C  C27  1  0.125000  0.125000  0.125000  1
