# generated using pymatgen
data_Tb7Y(Sc3Si4)4
_symmetry_space_group_name_H-M   'P 1'
_cell_length_a   7.12246702
_cell_length_b   7.40840705
_cell_length_c   14.04982712
_cell_angle_alpha   89.98739216
_cell_angle_beta   89.99185955
_cell_angle_gamma   89.99789393
_symmetry_Int_Tables_number   1
_chemical_formula_structural   Tb7Y(Sc3Si4)4
_chemical_formula_sum   'Tb7 Y1 Sc12 Si16'
_cell_volume   741.35504653
_cell_formula_units_Z   1
loop_
 _symmetry_equiv_pos_site_id
 _symmetry_equiv_pos_as_xyz
  1  'x, y, z'
loop_
 _atom_site_type_symbol
 _atom_site_label
 _atom_site_symmetry_multiplicity
 _atom_site_fract_x
 _atom_site_fract_y
 _atom_site_fract_z
 _atom_site_occupancy
  Tb  Tb0  1  0.987959  0.825281  0.902853  1
  Tb  Tb1  1  0.487867  0.674586  0.902885  1
  Tb  Tb2  1  0.987897  0.825368  0.597186  1
  Tb  Tb3  1  0.512115  0.325288  0.097238  1
  Tb  Tb4  1  0.012120  0.174659  0.402893  1
  Tb  Tb5  1  0.512077  0.325353  0.402743  1
  Tb  Tb6  1  0.487923  0.674664  0.597202  1
  Y  Y7  1  0.011925  0.174722  0.097176  1
  Sc  Sc8  1  0.160733  0.501976  0.750094  1
  Sc  Sc9  1  0.839437  0.497858  0.249796  1
  Sc  Sc10  1  0.339314  0.002183  0.249850  1
  Sc  Sc11  1  0.660617  0.998040  0.750043  1
  Sc  Sc12  1  0.330646  0.176535  0.625153  1
  Sc  Sc13  1  0.669317  0.823363  0.374823  1
  Sc  Sc14  1  0.169432  0.676557  0.374850  1
  Sc  Sc15  1  0.669416  0.823568  0.125117  1
  Sc  Sc16  1  0.830671  0.323502  0.625150  1
  Sc  Sc17  1  0.330468  0.176567  0.874929  1
  Sc  Sc18  1  0.830721  0.323352  0.874828  1
  Sc  Sc19  1  0.169263  0.676611  0.125089  1
  Si  Si20  1  0.033548  0.118915  0.750026  1
  Si  Si21  1  0.966429  0.881168  0.249987  1
  Si  Si22  1  0.466448  0.618983  0.249998  1
  Si  Si23  1  0.533604  0.381042  0.750037  1
  Si  Si24  1  0.285752  0.875210  0.750019  1
  Si  Si25  1  0.714410  0.124826  0.249886  1
  Si  Si26  1  0.214249  0.375192  0.249979  1
  Si  Si27  1  0.785726  0.624739  0.749988  1
  Si  Si28  1  0.156856  0.464417  0.539431  1
  Si  Si29  1  0.843119  0.535618  0.460583  1
  Si  Si30  1  0.343253  0.964406  0.460586  1
  Si  Si31  1  0.843197  0.535558  0.039494  1
  Si  Si32  1  0.656797  0.035605  0.539427  1
  Si  Si33  1  0.156757  0.464299  0.960602  1
  Si  Si34  1  0.656924  0.035585  0.960603  1
  Si  Si35  1  0.343010  0.964403  0.039458  1
