# generated using pymatgen
data_Li11Sm12Si(WO6)8
_symmetry_space_group_name_H-M   'P 1'
_cell_length_a   10.87535956
_cell_length_b   10.88154281
_cell_length_c   10.85533602
_cell_angle_alpha   110.08647687
_cell_angle_beta   109.05546510
_cell_angle_gamma   109.14876689
_symmetry_Int_Tables_number   1
_chemical_formula_structural   Li11Sm12Si(WO6)8
_chemical_formula_sum   'Li11 Sm12 Si1 W8 O48'
_cell_volume   990.33099008
_cell_formula_units_Z   1
loop_
 _symmetry_equiv_pos_site_id
 _symmetry_equiv_pos_as_xyz
  1  'x, y, z'
loop_
 _atom_site_type_symbol
 _atom_site_label
 _atom_site_symmetry_multiplicity
 _atom_site_fract_x
 _atom_site_fract_y
 _atom_site_fract_z
 _atom_site_occupancy
  Li  Li0  1  0.875126  0.749093  0.126805  1
  Li  Li1  1  0.122987  0.376077  0.248273  1
  Li  Li2  1  0.625600  0.873230  0.243415  1
  Li  Li3  1  0.249708  0.123137  0.374580  1
  Li  Li4  1  0.628227  0.250166  0.373522  1
  Li  Li5  1  0.370428  0.751614  0.627523  1
  Li  Li6  1  0.750333  0.875862  0.625581  1
  Li  Li7  1  0.376466  0.126740  0.754147  1
  Li  Li8  1  0.874544  0.618327  0.746962  1
  Li  Li9  1  0.126846  0.253660  0.878837  1
  Li  Li10  1  0.243758  0.624898  0.873412  1
  Sm  Sm11  1  0.366681  0.241145  0.124541  1
  Sm  Sm12  1  0.250335  0.871945  0.122548  1
  Sm  Sm13  1  0.879053  0.121805  0.256153  1
  Sm  Sm14  1  0.376186  0.626860  0.254363  1
  Sm  Sm15  1  0.134295  0.757947  0.378019  1
  Sm  Sm16  1  0.751343  0.632373  0.382855  1
  Sm  Sm17  1  0.873967  0.252852  0.627405  1
  Sm  Sm18  1  0.244539  0.372509  0.619786  1
  Sm  Sm19  1  0.620294  0.372828  0.739163  1
  Sm  Sm20  1  0.125941  0.872125  0.745817  1
  Sm  Sm21  1  0.751377  0.119561  0.869137  1
  Sm  Sm22  1  0.631133  0.759151  0.877443  1
  Si  Si23  1  0.748836  0.375767  0.123173  1
  W  W24  1  0.999104  0.997659  0.998916  1
  W  W25  1  0.008535  0.505767  0.006954  1
  W  W26  1  0.496873  0.504825  0.991769  1
  W  W27  1  0.492342  0.998345  0.997113  1
  W  W28  1  0.502801  0.001038  0.500043  1
  W  W29  1  0.998535  0.493172  0.500299  1
  W  W30  1  0.000740  0.000157  0.503318  1
  W  W31  1  0.498920  0.500983  0.499523  1
  O  O32  1  0.339979  0.404471  0.028866  1
  O  O33  1  0.207995  0.621520  0.032024  1
  O  O34  1  0.702050  0.201992  0.087682  1
  O  O35  1  0.885958  0.904219  0.079538  1
  O  O36  1  0.630631  0.926722  0.091180  1
  O  O37  1  0.968414  0.167996  0.091170  1
  O  O38  1  0.612235  0.415265  0.112509  1
  O  O39  1  0.025747  0.699786  0.117487  1
  O  O40  1  0.195403  0.078541  0.171065  1
  O  O41  1  0.472814  0.091901  0.173766  1
  O  O42  1  0.132187  0.539536  0.213822  1
  O  O43  1  0.584196  0.666422  0.196431  1
  O  O44  1  0.326825  0.420425  0.304609  1
  O  O45  1  0.479397  0.882614  0.303654  1
  O  O46  1  0.886344  0.502363  0.297502  1
  O  O47  1  0.922247  0.799778  0.331733  1
  O  O48  1  0.578602  0.408943  0.378668  1
  O  O49  1  0.305434  0.975131  0.383951  1
  O  O50  1  0.826767  0.015917  0.406770  1
  O  O51  1  0.081915  0.380585  0.407271  1
  O  O52  1  0.826510  0.287017  0.418408  1
  O  O53  1  0.091721  0.116415  0.420523  1
  O  O54  1  0.591915  0.674354  0.476516  1
  O  O55  1  0.391204  0.808865  0.482293  1
  O  O56  1  0.613521  0.195514  0.520755  1
  O  O57  1  0.407282  0.327555  0.522080  1
  O  O58  1  0.164410  0.702424  0.570971  1
  O  O59  1  0.909577  0.883896  0.584256  1
  O  O60  1  0.912076  0.610665  0.579518  1
  O  O61  1  0.175123  0.981231  0.594282  1
  O  O62  1  0.700233  0.026869  0.617459  1
  O  O63  1  0.420947  0.594453  0.620983  1
  O  O64  1  0.078810  0.197844  0.674319  1
  O  O65  1  0.092856  0.469986  0.675225  1
  O  O66  1  0.529673  0.121485  0.699855  1
  O  O67  1  0.671925  0.579551  0.692821  1
  O  O68  1  0.419592  0.329071  0.801131  1
  O  O69  1  0.868630  0.461558  0.796689  1
  O  O70  1  0.799989  0.916681  0.826386  1
  O  O71  1  0.532335  0.918395  0.831731  1
  O  O72  1  0.971099  0.302291  0.890331  1
  O  O73  1  0.405686  0.583255  0.887086  1
  O  O74  1  0.369635  0.081888  0.908280  1
  O  O75  1  0.022584  0.825577  0.902748  1
  O  O76  1  0.111337  0.094978  0.921592  1
  O  O77  1  0.294667  0.823702  0.915513  1
  O  O78  1  0.794793  0.385505  0.994799  1
  O  O79  1  0.670876  0.593232  0.972354  1
