# generated using pymatgen
data_Yb2HfSnO6
_symmetry_space_group_name_H-M   'P 1'
_cell_length_a   5.51567742
_cell_length_b   5.72618851
_cell_length_c   7.93436900
_cell_angle_alpha   90.00000000
_cell_angle_beta   90.00000000
_cell_angle_gamma   89.87280172
_symmetry_Int_Tables_number   1
_chemical_formula_structural   Yb2HfSnO6
_chemical_formula_sum   'Yb4 Hf2 Sn2 O12'
_cell_volume   250.59697463
_cell_formula_units_Z   2
loop_
 _symmetry_equiv_pos_site_id
 _symmetry_equiv_pos_as_xyz
  1  'x, y, z'
loop_
 _atom_site_type_symbol
 _atom_site_label
 _atom_site_symmetry_multiplicity
 _atom_site_fract_x
 _atom_site_fract_y
 _atom_site_fract_z
 _atom_site_occupancy
  Yb  Yb0  1  0.981837  0.055521  0.250000  1
  Yb  Yb1  1  0.488687  0.442026  0.750000  1
  Yb  Yb2  1  0.511313  0.557974  0.250000  1
  Yb  Yb3  1  0.018163  0.944479  0.750000  1
  Hf  Hf4  1  0.000000  0.500000  0.000000  1
  Hf  Hf5  1  0.000000  0.500000  0.500000  1
  Sn  Sn6  1  0.500000  0.000000  0.000000  1
  Sn  Sn7  1  0.500000  0.000000  0.500000  1
  O  O8  1  0.615106  0.045080  0.750000  1
  O  O9  1  0.195085  0.198614  0.557347  1
  O  O10  1  0.195085  0.198614  0.942653  1
  O  O11  1  0.694780  0.302376  0.055874  1
  O  O12  1  0.694780  0.302376  0.444126  1
  O  O13  1  0.104897  0.459295  0.250000  1
  O  O14  1  0.895103  0.540705  0.750000  1
  O  O15  1  0.305220  0.697624  0.555874  1
  O  O16  1  0.305220  0.697624  0.944126  1
  O  O17  1  0.804915  0.801386  0.057347  1
  O  O18  1  0.804915  0.801386  0.442653  1
  O  O19  1  0.384894  0.954920  0.250000  1
