# generated using pymatgen
data_Ba2GeS5
_symmetry_space_group_name_H-M   'P 1'
_cell_length_a   8.74010900
_cell_length_b   9.03039943
_cell_length_c   11.92739456
_cell_angle_alpha   69.33450100
_cell_angle_beta   90.00000000
_cell_angle_gamma   90.00000000
_symmetry_Int_Tables_number   1
_chemical_formula_structural   Ba2GeS5
_chemical_formula_sum   'Ba8 Ge4 S20'
_cell_volume   880.81749246
_cell_formula_units_Z   4
loop_
 _symmetry_equiv_pos_site_id
 _symmetry_equiv_pos_as_xyz
  1  'x, y, z'
loop_
 _atom_site_type_symbol
 _atom_site_label
 _atom_site_symmetry_multiplicity
 _atom_site_fract_x
 _atom_site_fract_y
 _atom_site_fract_z
 _atom_site_occupancy
  Ba  Ba0  1  0.129720  0.744887  0.177088  1
  Ba  Ba1  1  0.629720  0.755113  0.322912  1
  Ba  Ba2  1  0.870280  0.255113  0.822912  1
  Ba  Ba3  1  0.370280  0.244887  0.677088  1
  Ba  Ba4  1  0.624138  0.315495  0.154213  1
  Ba  Ba5  1  0.124138  0.184505  0.345787  1
  Ba  Ba6  1  0.375862  0.684505  0.845787  1
  Ba  Ba7  1  0.875862  0.815495  0.654213  1
  Ge  Ge8  1  0.798029  0.350394  0.485737  1
  Ge  Ge9  1  0.298029  0.149606  0.014263  1
  Ge  Ge10  1  0.201971  0.649606  0.514263  1
  Ge  Ge11  1  0.701971  0.850394  0.985737  1
  S  S12  1  0.314073  0.515240  0.412682  1
  S  S13  1  0.814073  0.984760  0.087318  1
  S  S14  1  0.685927  0.484760  0.587318  1
  S  S15  1  0.185927  0.015240  0.912682  1
  S  S16  1  0.521517  0.688411  0.092172  1
  S  S17  1  0.021517  0.811589  0.407828  1
  S  S18  1  0.478483  0.311589  0.907828  1
  S  S19  1  0.978483  0.188411  0.592172  1
  S  S20  1  0.869065  0.479249  0.296955  1
  S  S21  1  0.369064  0.020751  0.203045  1
  S  S22  1  0.130936  0.520751  0.703045  1
  S  S23  1  0.630935  0.979249  0.796955  1
  S  S24  1  0.604450  0.193801  0.451698  1
  S  S25  1  0.104450  0.306199  0.048302  1
  S  S26  1  0.395550  0.806199  0.548302  1
  S  S27  1  0.895550  0.693801  0.951698  1
  S  S28  1  0.748997  0.047061  0.397830  1
  S  S29  1  0.248997  0.452939  0.102170  1
  S  S30  1  0.251003  0.952939  0.602170  1
  S  S31  1  0.751003  0.547061  0.897830  1
