# generated using pymatgen
data_Nd2Ir3W
_symmetry_space_group_name_H-M   'P 1'
_cell_length_a   5.29809206
_cell_length_b   5.71025859
_cell_length_c   5.71025900
_cell_angle_alpha   60.00000343
_cell_angle_beta   57.39137602
_cell_angle_gamma   57.39138483
_symmetry_Int_Tables_number   1
_chemical_formula_structural   Nd2Ir3W
_chemical_formula_sum   'Nd2 Ir3 W1'
_cell_volume   117.11597175
_cell_formula_units_Z   1
loop_
 _symmetry_equiv_pos_site_id
 _symmetry_equiv_pos_as_xyz
  1  'x, y, z'
loop_
 _atom_site_type_symbol
 _atom_site_label
 _atom_site_symmetry_multiplicity
 _atom_site_fract_x
 _atom_site_fract_y
 _atom_site_fract_z
 _atom_site_occupancy
  Nd  Nd0  1  0.999065  0.000311  0.000311  1
  Nd  Nd1  1  0.250935  0.249689  0.249689  1
  Ir  Ir2  1  0.625000  0.625000  0.625000  1
  Ir  Ir3  1  0.625000  0.125000  0.625000  1
  Ir  Ir4  1  0.625000  0.625000  0.125000  1
  W  W5  1  0.125000  0.625000  0.625000  1
