# generated using pymatgen
data_LaPr3Zn4PtRh3
_symmetry_space_group_name_H-M   'P 1'
_cell_length_a   4.05453400
_cell_length_b   7.42534153
_cell_length_c   16.73949527
_cell_angle_alpha   89.83613305
_cell_angle_beta   90.00000000
_cell_angle_gamma   90.00000000
_symmetry_Int_Tables_number   1
_chemical_formula_structural   LaPr3Zn4PtRh3
_chemical_formula_sum   'La2 Pr6 Zn8 Pt2 Rh6'
_cell_volume   503.96219979
_cell_formula_units_Z   2
loop_
 _symmetry_equiv_pos_site_id
 _symmetry_equiv_pos_as_xyz
  1  'x, y, z'
loop_
 _atom_site_type_symbol
 _atom_site_label
 _atom_site_symmetry_multiplicity
 _atom_site_fract_x
 _atom_site_fract_y
 _atom_site_fract_z
 _atom_site_occupancy
  La  La0  1  0.750000  0.454567  0.220312  1
  La  La1  1  0.750000  0.950689  0.284450  1
  Pr  Pr2  1  0.750000  0.827718  0.059871  1
  Pr  Pr3  1  0.250000  0.045209  0.714037  1
  Pr  Pr4  1  0.250000  0.167133  0.938684  1
  Pr  Pr5  1  0.250000  0.554305  0.782947  1
  Pr  Pr6  1  0.750000  0.329978  0.440459  1
  Pr  Pr7  1  0.250000  0.669946  0.560541  1
  Zn  Zn8  1  0.250000  0.999108  0.441215  1
  Zn  Zn9  1  0.750000  0.505452  0.937841  1
  Zn  Zn10  1  0.750000  0.001340  0.559961  1
  Zn  Zn11  1  0.250000  0.624883  0.352453  1
  Zn  Zn12  1  0.750000  0.376310  0.649487  1
  Zn  Zn13  1  0.750000  0.872966  0.849133  1
  Zn  Zn14  1  0.250000  0.501725  0.059429  1
  Zn  Zn15  1  0.250000  0.120715  0.150820  1
  Pt  Pt16  1  0.750000  0.257250  0.065773  1
  Pt  Pt17  1  0.750000  0.254688  0.813600  1
  Rh  Rh18  1  0.250000  0.243601  0.565555  1
  Rh  Rh19  1  0.250000  0.243845  0.311609  1
  Rh  Rh20  1  0.250000  0.744291  0.935054  1
  Rh  Rh21  1  0.750000  0.751636  0.685539  1
  Rh  Rh22  1  0.750000  0.758972  0.433997  1
  Rh  Rh23  1  0.250000  0.743669  0.187234  1
