# generated using pymatgen
data_KSm(TcH9)2
_symmetry_space_group_name_H-M   'P 1'
_cell_length_a   5.14727380
_cell_length_b   5.14730254
_cell_length_c   8.77692800
_cell_angle_alpha   92.88031534
_cell_angle_beta   87.12497375
_cell_angle_gamma   124.85764120
_symmetry_Int_Tables_number   1
_chemical_formula_structural   KSm(TcH9)2
_chemical_formula_sum   'K1 Sm1 Tc2 H18'
_cell_volume   190.51095518
_cell_formula_units_Z   1
loop_
 _symmetry_equiv_pos_site_id
 _symmetry_equiv_pos_as_xyz
  1  'x, y, z'
loop_
 _atom_site_type_symbol
 _atom_site_label
 _atom_site_symmetry_multiplicity
 _atom_site_fract_x
 _atom_site_fract_y
 _atom_site_fract_z
 _atom_site_occupancy
  K  K0  1  0.000000  0.000000  0.000000  1
  Sm  Sm1  1  0.000000  0.000000  0.500000  1
  Tc  Tc2  1  0.335115  0.664996  0.722093  1
  Tc  Tc3  1  0.664885  0.335004  0.277907  1
  H  H4  1  0.383798  0.616365  0.530571  1
  H  H5  1  0.616202  0.383635  0.469429  1
  H  H6  1  0.410890  0.589172  0.887374  1
  H  H7  1  0.589110  0.410828  0.112626  1
  H  H8  1  0.473194  0.957332  0.852675  1
  H  H9  1  0.957220  0.473047  0.147344  1
  H  H10  1  0.591591  0.026815  0.654939  1
  H  H11  1  0.026702  0.591411  0.345132  1
  H  H12  1  0.526806  0.042668  0.147325  1
  H  H13  1  0.042780  0.526953  0.852656  1
  H  H14  1  0.408409  0.973185  0.345061  1
  H  H15  1  0.973298  0.408589  0.654868  1
  H  H16  1  0.697864  0.728122  0.720051  1
  H  H17  1  0.728037  0.697770  0.279973  1
  H  H18  1  0.302136  0.271878  0.279949  1
  H  H19  1  0.271963  0.302230  0.720027  1
  H  H20  1  0.151772  0.848492  0.706384  1
  H  H21  1  0.848228  0.151508  0.293616  1
