# generated using pymatgen
data_Lu4NbOs6W
_symmetry_space_group_name_H-M   'P 1'
_cell_length_a   5.41123457
_cell_length_b   5.37214946
_cell_length_c   8.87421700
_cell_angle_alpha   90.00000000
_cell_angle_beta   90.00000000
_cell_angle_gamma   121.86666913
_symmetry_Int_Tables_number   1
_chemical_formula_structural   Lu4NbOs6W
_chemical_formula_sum   'Lu4 Nb1 Os6 W1'
_cell_volume   219.09115936
_cell_formula_units_Z   1
loop_
 _symmetry_equiv_pos_site_id
 _symmetry_equiv_pos_as_xyz
  1  'x, y, z'
loop_
 _atom_site_type_symbol
 _atom_site_label
 _atom_site_symmetry_multiplicity
 _atom_site_fract_x
 _atom_site_fract_y
 _atom_site_fract_z
 _atom_site_occupancy
  Lu  Lu0  1  0.337167  0.666575  0.438921  1
  Lu  Lu1  1  0.669470  0.339493  0.566146  1
  Lu  Lu2  1  0.669470  0.339493  0.933854  1
  Lu  Lu3  1  0.337167  0.666575  0.061079  1
  Nb  Nb4  1  0.337100  0.164780  0.250000  1
  Os  Os5  1  0.171308  0.823026  0.750000  1
  Os  Os6  1  0.830218  0.652352  0.250000  1
  Os  Os7  1  0.650404  0.824382  0.750000  1
  Os  Os8  1  0.000005  0.007668  0.997331  1
  Os  Os9  1  0.829148  0.172309  0.250000  1
  Os  Os10  1  0.000005  0.007668  0.502669  1
  W  W11  1  0.168537  0.335680  0.750000  1
