# generated using pymatgen
data_TbCe2(SnIr)3
_symmetry_space_group_name_H-M   'P 1'
_cell_length_a   7.50936038
_cell_length_b   7.50936060
_cell_length_c   4.05305100
_cell_angle_alpha   90.00000000
_cell_angle_beta   90.00000000
_cell_angle_gamma   120.41972893
_symmetry_Int_Tables_number   1
_chemical_formula_structural   TbCe2(SnIr)3
_chemical_formula_sum   'Tb1 Ce2 Sn3 Ir3'
_cell_volume   197.09072653
_cell_formula_units_Z   1
loop_
 _symmetry_equiv_pos_site_id
 _symmetry_equiv_pos_as_xyz
  1  'x, y, z'
loop_
 _atom_site_type_symbol
 _atom_site_label
 _atom_site_symmetry_multiplicity
 _atom_site_fract_x
 _atom_site_fract_y
 _atom_site_fract_z
 _atom_site_occupancy
  Tb  Tb0  1  0.407678  0.407678  0.000000  1
  Ce  Ce1  1  0.586940  0.999167  0.000000  1
  Ce  Ce2  1  0.999167  0.586940  0.000000  1
  Sn  Sn3  1  0.005906  0.254976  0.500000  1
  Sn  Sn4  1  0.739626  0.739626  0.500000  1
  Sn  Sn5  1  0.254976  0.005906  0.500000  1
  Ir  Ir6  1  0.996676  0.996676  0.000000  1
  Ir  Ir7  1  0.676612  0.332418  0.500000  1
  Ir  Ir8  1  0.332418  0.676612  0.500000  1
