# generated using pymatgen
data_Tb4Al(Zn9Cu2)3
_symmetry_space_group_name_H-M   'P 1'
_cell_length_a   8.91656800
_cell_length_b   8.91656765
_cell_length_c   8.65820800
_cell_angle_alpha   90.00000000
_cell_angle_beta   90.00000000
_cell_angle_gamma   120.00000129
_symmetry_Int_Tables_number   1
_chemical_formula_structural   Tb4Al(Zn9Cu2)3
_chemical_formula_sum   'Tb4 Al1 Zn27 Cu6'
_cell_volume   596.14797877
_cell_formula_units_Z   1
loop_
 _symmetry_equiv_pos_site_id
 _symmetry_equiv_pos_as_xyz
  1  'x, y, z'
loop_
 _atom_site_type_symbol
 _atom_site_label
 _atom_site_symmetry_multiplicity
 _atom_site_fract_x
 _atom_site_fract_y
 _atom_site_fract_z
 _atom_site_occupancy
  Tb  Tb0  1  0.000000  0.000000  0.251320  1
  Tb  Tb1  1  0.000000  0.000000  0.750859  1
  Tb  Tb2  1  0.333333  0.666667  0.750670  1
  Tb  Tb3  1  0.666667  0.333333  0.250044  1
  Al  Al4  1  0.333333  0.666667  0.402201  1
  Zn  Zn5  1  0.666667  0.333333  0.595365  1
  Zn  Zn6  1  0.666667  0.333333  0.904636  1
  Zn  Zn7  1  0.333333  0.666667  0.093379  1
  Zn  Zn8  1  0.333548  0.369592  0.249605  1
  Zn  Zn9  1  0.630408  0.963958  0.249605  1
  Zn  Zn10  1  0.036042  0.666452  0.249605  1
  Zn  Zn11  1  0.630408  0.666452  0.249605  1
  Zn  Zn12  1  0.036042  0.369592  0.249605  1
  Zn  Zn13  1  0.333548  0.963958  0.249605  1
  Zn  Zn14  1  0.667514  0.631035  0.750176  1
  Zn  Zn15  1  0.368965  0.036478  0.750176  1
  Zn  Zn16  1  0.963522  0.332486  0.750176  1
  Zn  Zn17  1  0.368965  0.332486  0.750176  1
  Zn  Zn18  1  0.963522  0.631035  0.750176  1
  Zn  Zn19  1  0.667514  0.036478  0.750176  1
  Zn  Zn20  1  0.164267  0.835733  0.520856  1
  Zn  Zn21  1  0.164267  0.328536  0.520856  1
  Zn  Zn22  1  0.671464  0.835733  0.520856  1
  Zn  Zn23  1  0.835358  0.164642  0.480977  1
  Zn  Zn24  1  0.835358  0.670715  0.480977  1
  Zn  Zn25  1  0.329285  0.164642  0.480977  1
  Zn  Zn26  1  0.836117  0.163883  0.019151  1
  Zn  Zn27  1  0.836117  0.672233  0.019151  1
  Zn  Zn28  1  0.327767  0.163883  0.019151  1
  Zn  Zn29  1  0.165784  0.834216  0.979923  1
  Zn  Zn30  1  0.165784  0.331569  0.979923  1
  Zn  Zn31  1  0.668431  0.834216  0.979923  1
  Cu  Cu32  1  0.497516  0.502484  0.500875  1
  Cu  Cu33  1  0.497516  0.995032  0.500875  1
  Cu  Cu34  1  0.004968  0.502484  0.500875  1
  Cu  Cu35  1  0.499509  0.500491  0.999164  1
  Cu  Cu36  1  0.499509  0.999018  0.999164  1
  Cu  Cu37  1  0.000982  0.500491  0.999164  1
