# generated using pymatgen
data_Np2P4Ir7
_symmetry_space_group_name_H-M   'P 1'
_cell_length_a   3.93874900
_cell_length_b   9.69000000
_cell_length_c   11.01071700
_cell_angle_alpha   90.00000000
_cell_angle_beta   90.00000000
_cell_angle_gamma   90.00000000
_symmetry_Int_Tables_number   1
_chemical_formula_structural   Np2P4Ir7
_chemical_formula_sum   'Np4 P8 Ir14'
_cell_volume   420.24028605
_cell_formula_units_Z   2
loop_
 _symmetry_equiv_pos_site_id
 _symmetry_equiv_pos_as_xyz
  1  'x, y, z'
loop_
 _atom_site_type_symbol
 _atom_site_label
 _atom_site_symmetry_multiplicity
 _atom_site_fract_x
 _atom_site_fract_y
 _atom_site_fract_z
 _atom_site_occupancy
  Np  Np0  1  0.000000  0.555971  0.993561  1
  Np  Np1  1  0.500000  0.444029  0.493561  1
  Np  Np2  1  0.000000  0.934779  0.783453  1
  Np  Np3  1  0.500000  0.065221  0.283453  1
  P  P4  1  0.000000  0.513092  0.714027  1
  P  P5  1  0.500000  0.486908  0.214027  1
  P  P6  1  0.000000  0.827734  0.286750  1
  P  P7  1  0.500000  0.172266  0.786750  1
  P  P8  1  0.000000  0.158283  0.103346  1
  P  P9  1  0.500000  0.841717  0.603346  1
  P  P10  1  0.000000  0.187164  0.462927  1
  P  P11  1  0.500000  0.812836  0.962927  1
  Ir  Ir12  1  0.000000  0.587612  0.295205  1
  Ir  Ir13  1  0.500000  0.412388  0.795205  1
  Ir  Ir14  1  0.000000  0.295963  0.281081  1
  Ir  Ir15  1  0.500000  0.704037  0.781081  1
  Ir  Ir16  1  0.000000  0.250897  0.909792  1
  Ir  Ir17  1  0.500000  0.749103  0.409792  1
  Ir  Ir18  1  0.000000  0.915657  0.093210  1
  Ir  Ir19  1  0.500000  0.084343  0.593210  1
  Ir  Ir20  1  0.000000  0.946020  0.468991  1
  Ir  Ir21  1  0.500000  0.053980  0.968991  1
  Ir  Ir22  1  0.000000  0.275339  0.655776  1
  Ir  Ir23  1  0.500000  0.724661  0.155776  1
  Ir  Ir24  1  0.000000  0.691064  0.583080  1
  Ir  Ir25  1  0.500000  0.308936  0.083080  1
