# generated using pymatgen
data_La16Cd4TcPd3
_symmetry_space_group_name_H-M   'P 1'
_cell_length_a   10.24639912
_cell_length_b   10.24639919
_cell_length_c   10.24639940
_cell_angle_alpha   59.23436449
_cell_angle_beta   59.23436500
_cell_angle_gamma   59.23436411
_symmetry_Int_Tables_number   1
_chemical_formula_structural   La16Cd4TcPd3
_chemical_formula_sum   'La16 Cd4 Tc1 Pd3'
_cell_volume   747.40796773
_cell_formula_units_Z   1
loop_
 _symmetry_equiv_pos_site_id
 _symmetry_equiv_pos_as_xyz
  1  'x, y, z'
loop_
 _atom_site_type_symbol
 _atom_site_label
 _atom_site_symmetry_multiplicity
 _atom_site_fract_x
 _atom_site_fract_y
 _atom_site_fract_z
 _atom_site_occupancy
  La  La0  1  0.351477  0.351477  0.351477  1
  La  La1  1  0.345275  0.345275  0.955596  1
  La  La2  1  0.345275  0.955596  0.345275  1
  La  La3  1  0.955596  0.345275  0.345275  1
  La  La4  1  0.818658  0.188355  0.188355  1
  La  La5  1  0.192335  0.805812  0.805812  1
  La  La6  1  0.188355  0.818658  0.188355  1
  La  La7  1  0.805812  0.192335  0.805812  1
  La  La8  1  0.188355  0.188355  0.818658  1
  La  La9  1  0.805812  0.805812  0.192335  1
  La  La10  1  0.935539  0.564722  0.564722  1
  La  La11  1  0.554808  0.939085  0.939085  1
  La  La12  1  0.564722  0.935539  0.564722  1
  La  La13  1  0.939085  0.554808  0.939085  1
  La  La14  1  0.564722  0.564722  0.935539  1
  La  La15  1  0.939085  0.939085  0.554808  1
  Cd  Cd16  1  0.579163  0.579163  0.579163  1
  Cd  Cd17  1  0.579706  0.579706  0.260214  1
  Cd  Cd18  1  0.579706  0.260214  0.579706  1
  Cd  Cd19  1  0.260214  0.579706  0.579706  1
  Tc  Tc20  1  0.141565  0.141565  0.141565  1
  Pd  Pd21  1  0.145017  0.145017  0.574699  1
  Pd  Pd22  1  0.145017  0.574699  0.145017  1
  Pd  Pd23  1  0.574699  0.145017  0.145017  1
