# generated using pymatgen
data_Tb3Zr(Ga3Rh)6
_symmetry_space_group_name_H-M   'P 1'
_cell_length_a   7.57043842
_cell_length_b   7.55491515
_cell_length_c   9.49490400
_cell_angle_alpha   90.00000000
_cell_angle_beta   90.00000000
_cell_angle_gamma   119.84221913
_symmetry_Int_Tables_number   1
_chemical_formula_structural   Tb3Zr(Ga3Rh)6
_chemical_formula_sum   'Tb3 Zr1 Ga18 Rh6'
_cell_volume   471.04253443
_cell_formula_units_Z   1
loop_
 _symmetry_equiv_pos_site_id
 _symmetry_equiv_pos_as_xyz
  1  'x, y, z'
loop_
 _atom_site_type_symbol
 _atom_site_label
 _atom_site_symmetry_multiplicity
 _atom_site_fract_x
 _atom_site_fract_y
 _atom_site_fract_z
 _atom_site_occupancy
  Tb  Tb0  1  0.004176  0.331295  0.750000  1
  Tb  Tb1  1  0.669119  0.997225  0.250000  1
  Tb  Tb2  1  0.331668  0.003852  0.750000  1
  Zr  Zr3  1  0.996585  0.667847  0.250000  1
  Ga  Ga4  1  0.123799  0.121915  0.250000  1
  Ga  Ga5  1  0.873518  0.873334  0.750000  1
  Ga  Ga6  1  0.999992  0.337445  0.081439  1
  Ga  Ga7  1  0.000124  0.665779  0.923902  1
  Ga  Ga8  1  0.000124  0.665779  0.576098  1
  Ga  Ga9  1  0.330834  0.997221  0.418551  1
  Ga  Ga10  1  0.999992  0.337445  0.418561  1
  Ga  Ga11  1  0.665792  0.999455  0.578355  1
  Ga  Ga12  1  0.665792  0.999455  0.921645  1
  Ga  Ga13  1  0.330834  0.997221  0.081449  1
  Ga  Ga14  1  0.333428  0.333381  0.563044  1
  Ga  Ga15  1  0.669274  0.666897  0.433775  1
  Ga  Ga16  1  0.669274  0.666897  0.066225  1
  Ga  Ga17  1  0.333428  0.333381  0.936956  1
  Ga  Ga18  1  0.336035  0.547885  0.250000  1
  Ga  Ga19  1  0.661999  0.454007  0.750000  1
  Ga  Ga20  1  0.551503  0.341136  0.250000  1
  Ga  Ga21  1  0.452868  0.661181  0.750000  1
  Rh  Rh22  1  0.672691  0.329381  0.001012  1
  Rh  Rh23  1  0.327402  0.671783  0.001581  1
  Rh  Rh24  1  0.327402  0.671783  0.498419  1
  Rh  Rh25  1  0.672691  0.329381  0.498988  1
  Rh  Rh26  1  0.999829  0.998819  0.001089  1
  Rh  Rh27  1  0.999829  0.998819  0.498911  1
