# generated using pymatgen
data_Tm2Ni11MoP7
_symmetry_space_group_name_H-M   'P 1'
_cell_length_a   9.08590266
_cell_length_b   9.10259330
_cell_length_c   3.67158400
_cell_angle_alpha   90.00000000
_cell_angle_beta   90.00000000
_cell_angle_gamma   120.09534251
_symmetry_Int_Tables_number   1
_chemical_formula_structural   Tm2Ni11MoP7
_chemical_formula_sum   'Tm2 Ni11 Mo1 P7'
_cell_volume   262.72371424
_cell_formula_units_Z   1
loop_
 _symmetry_equiv_pos_site_id
 _symmetry_equiv_pos_as_xyz
  1  'x, y, z'
loop_
 _atom_site_type_symbol
 _atom_site_label
 _atom_site_symmetry_multiplicity
 _atom_site_fract_x
 _atom_site_fract_y
 _atom_site_fract_z
 _atom_site_occupancy
  Tm  Tm0  1  0.334089  0.664005  0.000000  1
  Tm  Tm1  1  0.666329  0.332162  0.500001  1
  Ni  Ni2  1  0.436232  0.062036  0.000000  1
  Ni  Ni3  1  0.152298  0.281149  0.000000  1
  Ni  Ni4  1  0.938307  0.377096  0.000000  1
  Ni  Ni5  1  0.630648  0.566372  0.000000  1
  Ni  Ni6  1  0.122153  0.839353  0.000000  1
  Ni  Ni7  1  0.722276  0.878484  0.000000  1
  Ni  Ni8  1  0.904192  0.122112  0.500001  1
  Ni  Ni9  1  0.385018  0.438678  0.500001  1
  Ni  Ni10  1  0.051563  0.617133  0.500001  1
  Ni  Ni11  1  0.873865  0.775154  0.500001  1
  Ni  Ni12  1  0.567835  0.951455  0.500001  1
  Mo  Mo13  1  0.211226  0.094187  0.500001  1
  P  P14  1  0.995864  0.997826  0.000000  1
  P  P15  1  0.709127  0.116931  0.000000  1
  P  P16  1  0.411670  0.299506  0.000000  1
  P  P17  1  0.885354  0.590485  0.000000  1
  P  P18  1  0.112855  0.404183  0.500001  1
  P  P19  1  0.594297  0.708880  0.500001  1
  P  P20  1  0.294801  0.882812  0.500001  1
