# generated using pymatgen
data_Sr3(HoSn2)2
_symmetry_space_group_name_H-M   'P 1'
_cell_length_a   8.13926200
_cell_length_b   8.68808700
_cell_length_c   16.49413700
_cell_angle_alpha   90.00000000
_cell_angle_beta   90.00000000
_cell_angle_gamma   90.00000000
_symmetry_Int_Tables_number   1
_chemical_formula_structural   Sr3(HoSn2)2
_chemical_formula_sum   'Sr12 Ho8 Sn16'
_cell_volume   1166.37657034
_cell_formula_units_Z   4
loop_
 _symmetry_equiv_pos_site_id
 _symmetry_equiv_pos_as_xyz
  1  'x, y, z'
loop_
 _atom_site_type_symbol
 _atom_site_label
 _atom_site_symmetry_multiplicity
 _atom_site_fract_x
 _atom_site_fract_y
 _atom_site_fract_z
 _atom_site_occupancy
  Sr  Sr0  1  0.500241  0.679931  0.592185  1
  Sr  Sr1  1  0.000241  0.820069  0.907815  1
  Sr  Sr2  1  0.499759  0.320069  0.092185  1
  Sr  Sr3  1  0.999759  0.179931  0.407815  1
  Sr  Sr4  1  0.499759  0.320069  0.407815  1
  Sr  Sr5  1  0.999759  0.179931  0.092185  1
  Sr  Sr6  1  0.500241  0.679931  0.907815  1
  Sr  Sr7  1  0.000241  0.820069  0.592185  1
  Sr  Sr8  1  0.822588  0.513782  0.750000  1
  Sr  Sr9  1  0.322588  0.986218  0.750000  1
  Sr  Sr10  1  0.177412  0.486218  0.250000  1
  Sr  Sr11  1  0.677412  0.013782  0.250000  1
  Ho  Ho12  1  0.665342  0.168345  0.622166  1
  Ho  Ho13  1  0.165342  0.331655  0.877834  1
  Ho  Ho14  1  0.334658  0.831655  0.122166  1
  Ho  Ho15  1  0.834658  0.668345  0.377834  1
  Ho  Ho16  1  0.334658  0.831655  0.377834  1
  Ho  Ho17  1  0.834658  0.668345  0.122166  1
  Ho  Ho18  1  0.665342  0.168345  0.877834  1
  Ho  Ho19  1  0.165342  0.331655  0.622166  1
  Sn  Sn20  1  0.665657  0.957567  0.461693  1
  Sn  Sn21  1  0.165657  0.542433  0.038307  1
  Sn  Sn22  1  0.334343  0.042433  0.961693  1
  Sn  Sn23  1  0.834343  0.457567  0.538307  1
  Sn  Sn24  1  0.334343  0.042433  0.538307  1
  Sn  Sn25  1  0.834343  0.457567  0.961693  1
  Sn  Sn26  1  0.665657  0.957567  0.038307  1
  Sn  Sn27  1  0.165657  0.542433  0.461693  1
  Sn  Sn28  1  0.455967  0.364056  0.750000  1
  Sn  Sn29  1  0.955967  0.135944  0.750000  1
  Sn  Sn30  1  0.544033  0.635944  0.250000  1
  Sn  Sn31  1  0.044033  0.864056  0.250000  1
  Sn  Sn32  1  0.710862  0.889253  0.750000  1
  Sn  Sn33  1  0.210862  0.610747  0.750000  1
  Sn  Sn34  1  0.289138  0.110747  0.250000  1
  Sn  Sn35  1  0.789138  0.389253  0.250000  1
