# generated using pymatgen
data_Ho5P12Ir15Rh4
_symmetry_space_group_name_H-M   'P 1'
_cell_length_a   12.71500270
_cell_length_b   12.71090442
_cell_length_c   3.95639100
_cell_angle_alpha   90.00000000
_cell_angle_beta   90.00000000
_cell_angle_gamma   119.92909629
_symmetry_Int_Tables_number   1
_chemical_formula_structural   Ho5P12Ir15Rh4
_chemical_formula_sum   'Ho5 P12 Ir15 Rh4'
_cell_volume   554.15670864
_cell_formula_units_Z   1
loop_
 _symmetry_equiv_pos_site_id
 _symmetry_equiv_pos_as_xyz
  1  'x, y, z'
loop_
 _atom_site_type_symbol
 _atom_site_label
 _atom_site_symmetry_multiplicity
 _atom_site_fract_x
 _atom_site_fract_y
 _atom_site_fract_z
 _atom_site_occupancy
  Ho  Ho0  1  0.999900  0.185890  0.500000  1
  Ho  Ho1  1  0.814348  0.814334  0.500000  1
  Ho  Ho2  1  0.185673  0.999969  0.500000  1
  Ho  Ho3  1  0.666676  0.332622  0.000000  1
  Ho  Ho4  1  0.333224  0.666645  0.000000  1
  P  P5  1  0.000184  0.821832  0.000000  1
  P  P6  1  0.178216  0.178539  0.000000  1
  P  P7  1  0.821305  0.999850  0.000000  1
  P  P8  1  0.687034  0.169342  0.500000  1
  P  P9  1  0.830003  0.516378  0.500000  1
  P  P10  1  0.483004  0.313200  0.500000  1
  P  P11  1  0.170416  0.687436  0.500000  1
  P  P12  1  0.516765  0.829671  0.500000  1
  P  P13  1  0.312676  0.482993  0.500000  1
  P  P14  1  0.999680  0.360256  0.000000  1
  P  P15  1  0.639984  0.639607  0.000000  1
  P  P16  1  0.360222  0.999811  0.000000  1
  Ir  Ir17  1  0.999887  0.717802  0.500000  1
  Ir  Ir18  1  0.281901  0.281967  0.500000  1
  Ir  Ir19  1  0.717003  0.999269  0.500000  1
  Ir  Ir20  1  0.819607  0.625750  0.000000  1
  Ir  Ir21  1  0.373879  0.193194  0.000000  1
  Ir  Ir22  1  0.180747  0.806240  0.000000  1
  Ir  Ir23  1  0.625541  0.818816  0.000000  1
  Ir  Ir24  1  0.194330  0.375281  0.000000  1
  Ir  Ir25  1  0.866282  0.358462  0.500000  1
  Ir  Ir26  1  0.640621  0.507100  0.500000  1
  Ir  Ir27  1  0.492945  0.133901  0.500000  1
  Ir  Ir28  1  0.360001  0.867473  0.500000  1
  Ir  Ir29  1  0.506865  0.640275  0.500000  1
  Ir  Ir30  1  0.132850  0.492892  0.500000  1
  Ir  Ir31  1  0.000166  0.000247  0.000000  1
  Rh  Rh32  1  0.999737  0.540247  0.000000  1
  Rh  Rh33  1  0.460669  0.460323  0.000000  1
  Rh  Rh34  1  0.541158  0.002181  0.000000  1
  Rh  Rh35  1  0.806501  0.180206  0.000000  1
