# generated using pymatgen
data_PrDy2Ta(Co4P3)2
_symmetry_space_group_name_H-M   'P 1'
_cell_length_a   3.73509000
_cell_length_b   10.68580600
_cell_length_c   12.39281000
_cell_angle_alpha   90.00000000
_cell_angle_beta   90.00000000
_cell_angle_gamma   90.00000000
_symmetry_Int_Tables_number   1
_chemical_formula_structural   PrDy2Ta(Co4P3)2
_chemical_formula_sum   'Pr2 Dy4 Ta2 Co16 P12'
_cell_volume   494.62737395
_cell_formula_units_Z   2
loop_
 _symmetry_equiv_pos_site_id
 _symmetry_equiv_pos_as_xyz
  1  'x, y, z'
loop_
 _atom_site_type_symbol
 _atom_site_label
 _atom_site_symmetry_multiplicity
 _atom_site_fract_x
 _atom_site_fract_y
 _atom_site_fract_z
 _atom_site_occupancy
  Pr  Pr0  1  0.000000  0.500000  0.527561  1
  Pr  Pr1  1  0.500000  0.000000  0.472439  1
  Dy  Dy2  1  0.500000  0.820205  0.203486  1
  Dy  Dy3  1  0.500000  0.179795  0.203486  1
  Dy  Dy4  1  0.000000  0.679795  0.796514  1
  Dy  Dy5  1  0.000000  0.320205  0.796514  1
  Ta  Ta6  1  0.500000  0.500000  0.153786  1
  Ta  Ta7  1  0.000000  0.000000  0.846214  1
  Co  Co8  1  0.500000  0.500000  0.706384  1
  Co  Co9  1  0.000000  0.000000  0.293616  1
  Co  Co10  1  0.000000  0.500000  0.987030  1
  Co  Co11  1  0.500000  0.000000  0.012970  1
  Co  Co12  1  0.500000  0.332376  0.992368  1
  Co  Co13  1  0.500000  0.667624  0.992368  1
  Co  Co14  1  0.000000  0.167624  0.007632  1
  Co  Co15  1  0.000000  0.832376  0.007632  1
  Co  Co16  1  0.500000  0.294959  0.430673  1
  Co  Co17  1  0.500000  0.705041  0.430673  1
  Co  Co18  1  0.000000  0.205041  0.569327  1
  Co  Co19  1  0.000000  0.794959  0.569327  1
  Co  Co20  1  0.500000  0.878474  0.708603  1
  Co  Co21  1  0.500000  0.121526  0.708603  1
  Co  Co22  1  0.000000  0.621526  0.291397  1
  Co  Co23  1  0.000000  0.378474  0.291397  1
  P  P24  1  0.500000  0.500000  0.883715  1
  P  P25  1  0.000000  0.000000  0.116285  1
  P  P26  1  0.500000  0.500000  0.351332  1
  P  P27  1  0.000000  0.000000  0.648668  1
  P  P28  1  0.500000  0.306831  0.617633  1
  P  P29  1  0.500000  0.693169  0.617633  1
  P  P30  1  0.000000  0.193169  0.382367  1
  P  P31  1  0.000000  0.806831  0.382367  1
  P  P32  1  0.500000  0.841282  0.893713  1
  P  P33  1  0.500000  0.158718  0.893713  1
  P  P34  1  0.000000  0.658718  0.106287  1
  P  P35  1  0.000000  0.341282  0.106287  1
