# generated using pymatgen
data_Ni8GeMo12P3C4
_symmetry_space_group_name_H-M   'P 1'
_cell_length_a   7.83039886
_cell_length_b   7.83039939
_cell_length_c   7.84135382
_cell_angle_alpha   60.04620392
_cell_angle_beta   60.04620190
_cell_angle_gamma   59.99999416
_symmetry_Int_Tables_number   1
_chemical_formula_structural   Ni8GeMo12P3C4
_chemical_formula_sum   'Ni8 Ge1 Mo12 P3 C4'
_cell_volume   340.20976236
_cell_formula_units_Z   1
loop_
 _symmetry_equiv_pos_site_id
 _symmetry_equiv_pos_as_xyz
  1  'x, y, z'
loop_
 _atom_site_type_symbol
 _atom_site_label
 _atom_site_symmetry_multiplicity
 _atom_site_fract_x
 _atom_site_fract_y
 _atom_site_fract_z
 _atom_site_occupancy
  Ni  Ni0  1  0.917322  0.917322  0.248035  1
  Ni  Ni1  1  0.336614  0.336614  0.321335  1
  Ni  Ni2  1  0.244562  0.913386  0.928665  1
  Ni  Ni3  1  0.336614  0.005438  0.321335  1
  Ni  Ni4  1  0.005438  0.336614  0.321335  1
  Ni  Ni5  1  0.332678  0.332678  0.001965  1
  Ni  Ni6  1  0.913386  0.913386  0.928665  1
  Ni  Ni7  1  0.913386  0.244562  0.928665  1
  Ge  Ge8  1  0.125000  0.125000  0.625000  1
  Mo  Mo9  1  0.690995  0.308619  0.309391  1
  Mo  Mo10  1  0.941955  0.941955  0.557847  1
  Mo  Mo11  1  0.690995  0.690995  0.309391  1
  Mo  Mo12  1  0.691757  0.308045  0.692153  1
  Mo  Mo13  1  0.308619  0.690995  0.309391  1
  Mo  Mo14  1  0.558243  0.941955  0.557847  1
  Mo  Mo15  1  0.559005  0.941381  0.940609  1
  Mo  Mo16  1  0.941955  0.558243  0.557847  1
  Mo  Mo17  1  0.941381  0.559005  0.940609  1
  Mo  Mo18  1  0.308045  0.308045  0.692153  1
  Mo  Mo19  1  0.559005  0.559005  0.940609  1
  Mo  Mo20  1  0.308045  0.691757  0.692153  1
  P  P21  1  0.125000  0.125000  0.125000  1
  P  P22  1  0.625000  0.125000  0.125000  1
  P  P23  1  0.125000  0.625000  0.125000  1
  C  C24  1  0.625000  0.625000  0.625000  1
  C  C25  1  0.625000  0.625000  0.125000  1
  C  C26  1  0.125000  0.625000  0.625000  1
  C  C27  1  0.625000  0.125000  0.625000  1
