# generated using pymatgen
data_Sc3Si2B4Ru10W
_symmetry_space_group_name_H-M   'P 1'
_cell_length_a   9.32840628
_cell_length_b   9.32840628
_cell_length_c   2.96623700
_cell_angle_alpha   90.00000000
_cell_angle_beta   90.00000000
_cell_angle_gamma   89.57129439
_symmetry_Int_Tables_number   1
_chemical_formula_structural   Sc3Si2B4Ru10W
_chemical_formula_sum   'Sc3 Si2 B4 Ru10 W1'
_cell_volume   258.11223783
_cell_formula_units_Z   1
loop_
 _symmetry_equiv_pos_site_id
 _symmetry_equiv_pos_as_xyz
  1  'x, y, z'
loop_
 _atom_site_type_symbol
 _atom_site_label
 _atom_site_symmetry_multiplicity
 _atom_site_fract_x
 _atom_site_fract_y
 _atom_site_fract_z
 _atom_site_occupancy
  Sc  Sc0  1  0.674565  0.826797  0.000000  1
  Sc  Sc1  1  0.326797  0.174565  0.000000  1
  Sc  Sc2  1  0.824744  0.324744  0.000000  1
  Si  Si3  1  0.998627  0.002080  0.000000  1
  Si  Si4  1  0.502080  0.498627  0.000000  1
  B  B5  1  0.376415  0.876415  0.000000  1
  B  B6  1  0.873221  0.624323  0.000000  1
  B  B7  1  0.124323  0.373221  0.000000  1
  B  B8  1  0.623957  0.123957  0.000000  1
  Ru  Ru9  1  0.003971  0.503971  0.500000  1
  Ru  Ru10  1  0.498957  0.998957  0.500000  1
  Ru  Ru11  1  0.286916  0.441730  0.500000  1
  Ru  Ru12  1  0.710014  0.571676  0.500000  1
  Ru  Ru13  1  0.567977  0.289983  0.500000  1
  Ru  Ru14  1  0.421578  0.707414  0.500000  1
  Ru  Ru15  1  0.941730  0.786915  0.500000  1
  Ru  Ru16  1  0.789982  0.067977  0.500000  1
  Ru  Ru17  1  0.207413  0.921578  0.500000  1
  Ru  Ru18  1  0.071676  0.210013  0.500000  1
  W  W19  1  0.175056  0.675056  0.000000  1
