# generated using pymatgen
data_Dy5BeSi2P9Ir19
_symmetry_space_group_name_H-M   'P 1'
_cell_length_a   12.69388339
_cell_length_b   12.71507615
_cell_length_c   3.95853300
_cell_angle_alpha   90.00000000
_cell_angle_beta   90.00000000
_cell_angle_gamma   120.16568857
_symmetry_Int_Tables_number   1
_chemical_formula_structural   Dy5BeSi2P9Ir19
_chemical_formula_sum   'Dy5 Be1 Si2 P9 Ir19'
_cell_volume   552.39641896
_cell_formula_units_Z   1
loop_
 _symmetry_equiv_pos_site_id
 _symmetry_equiv_pos_as_xyz
  1  'x, y, z'
loop_
 _atom_site_type_symbol
 _atom_site_label
 _atom_site_symmetry_multiplicity
 _atom_site_fract_x
 _atom_site_fract_y
 _atom_site_fract_z
 _atom_site_occupancy
  Dy  Dy0  1  0.344189  0.666404  0.500000  1
  Dy  Dy1  1  0.667017  0.334241  0.500000  1
  Dy  Dy2  1  0.998707  0.817795  0.000000  1
  Dy  Dy3  1  0.182351  0.183217  0.000000  1
  Dy  Dy4  1  0.810479  0.994802  0.000000  1
  Be  Be5  1  0.520492  0.685314  0.000000  1
  Si  Si6  1  0.001241  0.640449  0.500000  1
  Si  Si7  1  0.362345  0.365388  0.500000  1
  P  P8  1  0.638349  0.994562  0.500000  1
  P  P9  1  0.313908  0.826637  0.000000  1
  P  P10  1  0.173039  0.483281  0.000000  1
  P  P11  1  0.482773  0.176791  0.000000  1
  P  P12  1  0.690345  0.517861  0.000000  1
  P  P13  1  0.828413  0.311935  0.000000  1
  P  P14  1  0.996639  0.176130  0.500000  1
  P  P15  1  0.818588  0.819537  0.500000  1
  P  P16  1  0.179473  0.000220  0.500000  1
  Ir  Ir17  1  0.510705  0.870294  0.000000  1
  Ir  Ir18  1  0.130223  0.637699  0.000000  1
  Ir  Ir19  1  0.356428  0.484922  0.000000  1
  Ir  Ir20  1  0.491888  0.366587  0.000000  1
  Ir  Ir21  1  0.871450  0.509487  0.000000  1
  Ir  Ir22  1  0.637494  0.135318  0.000000  1
  Ir  Ir23  1  0.999613  0.454574  0.500000  1
  Ir  Ir24  1  0.543907  0.557353  0.500000  1
  Ir  Ir25  1  0.461503  0.000387  0.500000  1
  Ir  Ir26  1  0.997063  0.283794  0.000000  1
  Ir  Ir27  1  0.713494  0.712594  0.000000  1
  Ir  Ir28  1  0.284755  0.999665  0.000000  1
  Ir  Ir29  1  0.625944  0.805815  0.500000  1
  Ir  Ir30  1  0.200405  0.821389  0.500000  1
  Ir  Ir31  1  0.174341  0.374002  0.500000  1
  Ir  Ir32  1  0.377117  0.180064  0.500000  1
  Ir  Ir33  1  0.800689  0.621493  0.500000  1
  Ir  Ir34  1  0.815010  0.190935  0.500000  1
  Ir  Ir35  1  0.999627  0.999062  0.500000  1
