# generated using pymatgen
data_LuHf3Ge6Ir7
_symmetry_space_group_name_H-M   'P 1'
_cell_length_a   7.13696348
_cell_length_b   7.13696509
_cell_length_c   7.11366200
_cell_angle_alpha   109.40508639
_cell_angle_beta   109.40509095
_cell_angle_gamma   109.53726872
_symmetry_Int_Tables_number   1
_chemical_formula_structural   LuHf3Ge6Ir7
_chemical_formula_sum   'Lu1 Hf3 Ge6 Ir7'
_cell_volume   279.15936368
_cell_formula_units_Z   1
loop_
 _symmetry_equiv_pos_site_id
 _symmetry_equiv_pos_as_xyz
  1  'x, y, z'
loop_
 _atom_site_type_symbol
 _atom_site_label
 _atom_site_symmetry_multiplicity
 _atom_site_fract_x
 _atom_site_fract_y
 _atom_site_fract_z
 _atom_site_occupancy
  Lu  Lu0  1  0.000000  0.000000  0.500000  1
  Hf  Hf1  1  0.500000  0.500000  0.500000  1
  Hf  Hf2  1  0.000000  0.500000  0.000000  1
  Hf  Hf3  1  0.500000  0.000000  0.000000  1
  Ge  Ge4  1  0.000000  0.314007  0.314035  1
  Ge  Ge5  1  0.000000  0.685993  0.685965  1
  Ge  Ge6  1  0.314007  0.000000  0.314035  1
  Ge  Ge7  1  0.685993  0.000000  0.685965  1
  Ge  Ge8  1  0.314007  0.314007  0.999972  1
  Ge  Ge9  1  0.685993  0.685993  0.000028  1
  Ir  Ir10  1  0.495045  0.747522  0.247522  1
  Ir  Ir11  1  0.504955  0.252478  0.752478  1
  Ir  Ir12  1  0.252478  0.504955  0.752478  1
  Ir  Ir13  1  0.747522  0.495045  0.247522  1
  Ir  Ir14  1  0.747522  0.252478  0.500000  1
  Ir  Ir15  1  0.252478  0.747522  0.500000  1
  Ir  Ir16  1  0.000000  0.000000  0.000000  1
