# generated using pymatgen
data_Ca3V2Si(NiO6)2
_symmetry_space_group_name_H-M   'P 1'
_cell_length_a   10.76188363
_cell_length_b   10.75808478
_cell_length_c   10.76103303
_cell_angle_alpha   109.54216848
_cell_angle_beta   109.41188912
_cell_angle_gamma   109.43792335
_symmetry_Int_Tables_number   1
_chemical_formula_structural   Ca3V2Si(NiO6)2
_chemical_formula_sum   'Ca12 V8 Si4 Ni8 O48'
_cell_volume   959.33658472
_cell_formula_units_Z   4
loop_
 _symmetry_equiv_pos_site_id
 _symmetry_equiv_pos_as_xyz
  1  'x, y, z'
loop_
 _atom_site_type_symbol
 _atom_site_label
 _atom_site_symmetry_multiplicity
 _atom_site_fract_x
 _atom_site_fract_y
 _atom_site_fract_z
 _atom_site_occupancy
  Ca  Ca0  1  0.271607  0.392087  0.141465  1
  Ca  Ca1  1  0.743517  0.115470  0.366046  1
  Ca  Ca2  1  0.382539  0.131724  0.250610  1
  Ca  Ca3  1  0.125268  0.374522  0.750763  1
  Ca  Ca4  1  0.248226  0.867951  0.618138  1
  Ca  Ca5  1  0.123724  0.251112  0.372784  1
  Ca  Ca6  1  0.621350  0.253886  0.883458  1
  Ca  Ca7  1  0.748614  0.630418  0.880290  1
  Ca  Ca8  1  0.864580  0.738334  0.610729  1
  Ca  Ca9  1  0.865974  0.627848  0.252895  1
  Ca  Ca10  1  0.618594  0.865780  0.737241  1
  Ca  Ca11  1  0.384538  0.750998  0.133568  1
  V  V12  1  0.125966  0.750285  0.875576  1
  V  V13  1  0.874596  0.249754  0.123508  1
  V  V14  1  0.749710  0.374660  0.625645  1
  V  V15  1  0.126557  0.876180  0.250612  1
  V  V16  1  0.248250  0.124270  0.873847  1
  V  V17  1  0.374552  0.624045  0.750584  1
  V  V18  1  0.374826  0.250283  0.624402  1
  V  V19  1  0.874695  0.124972  0.750764  1
  Si  Si20  1  0.626077  0.374282  0.249789  1
  Si  Si21  1  0.749855  0.875250  0.123968  1
  Si  Si22  1  0.248077  0.623569  0.374586  1
  Si  Si23  1  0.626939  0.752215  0.377094  1
  Ni  Ni24  1  0.507957  0.003438  0.007630  1
  Ni  Ni25  1  0.511653  0.510342  0.016623  1
  Ni  Ni26  1  0.995706  0.499624  0.490681  1
  Ni  Ni27  1  0.986589  0.993151  0.487690  1
  Ni  Ni28  1  0.498407  0.504649  0.489816  1
  Ni  Ni29  1  0.007756  0.504315  0.010188  1
  Ni  Ni30  1  0.498769  0.987482  0.496513  1
  Ni  Ni31  1  0.993393  0.997131  0.000825  1
  O  O32  1  0.594268  0.894588  0.384931  1
  O  O33  1  0.380986  0.586722  0.898077  1
  O  O34  1  0.294136  0.310062  0.911403  1
  O  O35  1  0.492174  0.610725  0.202222  1
  O  O36  1  0.309846  0.898956  0.017228  1
  O  O37  1  0.121687  0.018757  0.208267  1
  O  O38  1  0.382465  0.293876  0.483576  1
  O  O39  1  0.898201  0.382384  0.589417  1
  O  O40  1  0.189535  0.206368  0.586975  1
  O  O41  1  0.490609  0.380345  0.289922  1
  O  O42  1  0.892224  0.011549  0.298754  1
  O  O43  1  0.607230  0.907910  0.115955  1
  O  O44  1  0.911783  0.121035  0.603322  1
  O  O45  1  0.289200  0.488896  0.382341  1
  O  O46  1  0.592732  0.198592  0.209222  1
  O  O47  1  0.210019  0.591905  0.200169  1
  O  O48  1  0.016789  0.309164  0.899257  1
  O  O49  1  0.910499  0.290762  0.307319  1
  O  O50  1  0.016092  0.207627  0.116229  1
  O  O51  1  0.801856  0.791693  0.410505  1
  O  O52  1  0.188959  0.482869  0.603675  1
  O  O53  1  0.601613  0.189083  0.486535  1
  O  O54  1  0.203829  0.115875  0.014087  1
  O  O55  1  0.120172  0.602060  0.912257  1
  O  O56  1  0.411103  0.102092  0.618029  1
  O  O57  1  0.618599  0.407510  0.107512  1
  O  O58  1  0.710820  0.700050  0.090878  1
  O  O59  1  0.515122  0.398578  0.809685  1
  O  O60  1  0.690820  0.101939  0.980229  1
  O  O61  1  0.881714  0.983419  0.793136  1
  O  O62  1  0.620440  0.711879  0.512218  1
  O  O63  1  0.105721  0.616628  0.407452  1
  O  O64  1  0.880265  0.397850  0.087609  1
  O  O65  1  0.790170  0.881534  0.988278  1
  O  O66  1  0.389569  0.799518  0.510972  1
  O  O67  1  0.690804  0.089533  0.709334  1
  O  O68  1  0.800954  0.509416  0.391909  1
  O  O69  1  0.983409  0.791543  0.881758  1
  O  O70  1  0.089526  0.707017  0.690793  1
  O  O71  1  0.984779  0.692638  0.101682  1
  O  O72  1  0.795287  0.412381  0.811326  1
  O  O73  1  0.410343  0.808222  0.793855  1
  O  O74  1  0.705343  0.515623  0.619226  1
  O  O75  1  0.090305  0.884131  0.399044  1
  O  O76  1  0.395095  0.085035  0.879297  1
  O  O77  1  0.099942  0.984670  0.689099  1
  O  O78  1  0.513563  0.614779  0.704339  1
  O  O79  1  0.310543  0.912184  0.292368  1
