# generated using pymatgen
data_Nd2SmSi2Rh3
_symmetry_space_group_name_H-M   'P 1'
_cell_length_a   5.71489600
_cell_length_b   7.73980900
_cell_length_c   14.96461400
_cell_angle_alpha   90.00000000
_cell_angle_beta   90.00000000
_cell_angle_gamma   90.00000000
_symmetry_Int_Tables_number   1
_chemical_formula_structural   Nd2SmSi2Rh3
_chemical_formula_sum   'Nd8 Sm4 Si8 Rh12'
_cell_volume   661.91785167
_cell_formula_units_Z   4
loop_
 _symmetry_equiv_pos_site_id
 _symmetry_equiv_pos_as_xyz
  1  'x, y, z'
loop_
 _atom_site_type_symbol
 _atom_site_label
 _atom_site_symmetry_multiplicity
 _atom_site_fract_x
 _atom_site_fract_y
 _atom_site_fract_z
 _atom_site_occupancy
  Nd  Nd0  1  0.139482  0.472661  0.890339  1
  Nd  Nd1  1  0.360518  0.972661  0.890339  1
  Nd  Nd2  1  0.639482  0.027339  0.390339  1
  Nd  Nd3  1  0.860518  0.527339  0.109661  1
  Nd  Nd4  1  0.860518  0.527339  0.390339  1
  Nd  Nd5  1  0.360518  0.972661  0.609661  1
  Nd  Nd6  1  0.139482  0.472661  0.609661  1
  Nd  Nd7  1  0.639482  0.027339  0.109661  1
  Sm  Sm8  1  0.617609  0.333553  0.750000  1
  Sm  Sm9  1  0.382391  0.666447  0.250000  1
  Sm  Sm10  1  0.882391  0.833553  0.750000  1
  Sm  Sm11  1  0.117609  0.166447  0.250000  1
  Si  Si12  1  0.366454  0.374561  0.099187  1
  Si  Si13  1  0.633546  0.625439  0.900813  1
  Si  Si14  1  0.866454  0.125439  0.900813  1
  Si  Si15  1  0.366454  0.374561  0.400813  1
  Si  Si16  1  0.866454  0.125439  0.599187  1
  Si  Si17  1  0.633546  0.625439  0.599187  1
  Si  Si18  1  0.133546  0.874561  0.400813  1
  Si  Si19  1  0.133546  0.874561  0.099187  1
  Rh  Rh20  1  0.601739  0.336554  0.961988  1
  Rh  Rh21  1  0.398261  0.663446  0.038012  1
  Rh  Rh22  1  0.571604  0.321203  0.250000  1
  Rh  Rh23  1  0.398261  0.663446  0.461988  1
  Rh  Rh24  1  0.071604  0.178797  0.750000  1
  Rh  Rh25  1  0.101739  0.163446  0.461988  1
  Rh  Rh26  1  0.428396  0.678797  0.750000  1
  Rh  Rh27  1  0.928396  0.821203  0.250000  1
  Rh  Rh28  1  0.101739  0.163446  0.038012  1
  Rh  Rh29  1  0.601739  0.336554  0.538012  1
  Rh  Rh30  1  0.898261  0.836554  0.538012  1
  Rh  Rh31  1  0.898261  0.836554  0.961988  1
