# generated using pymatgen
data_Th3In2GaPtRh2
_symmetry_space_group_name_H-M   'P 1'
_cell_length_a   7.66311901
_cell_length_b   7.60295439
_cell_length_c   4.02921800
_cell_angle_alpha   90.00000000
_cell_angle_beta   90.00000000
_cell_angle_gamma   120.26709338
_symmetry_Int_Tables_number   1
_chemical_formula_structural   Th3In2GaPtRh2
_chemical_formula_sum   'Th3 In2 Ga1 Pt1 Rh2'
_cell_volume   202.75155097
_cell_formula_units_Z   1
loop_
 _symmetry_equiv_pos_site_id
 _symmetry_equiv_pos_as_xyz
  1  'x, y, z'
loop_
 _atom_site_type_symbol
 _atom_site_label
 _atom_site_symmetry_multiplicity
 _atom_site_fract_x
 _atom_site_fract_y
 _atom_site_fract_z
 _atom_site_occupancy
  Th  Th0  1  0.993067  0.402361  0.500000  1
  Th  Th1  1  0.595372  0.593210  0.500000  1
  Th  Th2  1  0.430839  0.005365  0.500000  1
  In  In3  1  0.004973  0.759550  0.000000  1
  In  In4  1  0.247245  0.237680  0.000000  1
  Ga  Ga5  1  0.751159  0.003345  0.000000  1
  Pt  Pt6  1  0.341807  0.669123  0.000000  1
  Rh  Rh7  1  0.672624  0.329586  0.000000  1
  Rh  Rh8  1  0.962915  0.999780  0.500000  1
