# generated using pymatgen
data_Tb16InNiAg2HgIr3
_symmetry_space_group_name_H-M   'P 1'
_cell_length_a   9.60934861
_cell_length_b   9.59190910
_cell_length_c   9.59197100
_cell_angle_alpha   60.43532218
_cell_angle_beta   60.35692330
_cell_angle_gamma   60.35681930
_symmetry_Int_Tables_number   1
_chemical_formula_structural   Tb16InNiAg2HgIr3
_chemical_formula_sum   'Tb16 In1 Ni1 Ag2 Hg1 Ir3'
_cell_volume   630.57586601
_cell_formula_units_Z   1
loop_
 _symmetry_equiv_pos_site_id
 _symmetry_equiv_pos_as_xyz
  1  'x, y, z'
loop_
 _atom_site_type_symbol
 _atom_site_label
 _atom_site_symmetry_multiplicity
 _atom_site_fract_x
 _atom_site_fract_y
 _atom_site_fract_z
 _atom_site_occupancy
  Tb  Tb0  1  0.098594  0.700419  0.100284  1
  Tb  Tb1  1  0.940658  0.939951  0.561976  1
  Tb  Tb2  1  0.942173  0.561370  0.938784  1
  Tb  Tb3  1  0.311810  0.687372  0.310245  1
  Tb  Tb4  1  0.935985  0.560689  0.561251  1
  Tb  Tb5  1  0.312398  0.313045  0.683091  1
  Tb  Tb6  1  0.101099  0.099315  0.099263  1
  Tb  Tb7  1  0.558188  0.559234  0.940111  1
  Tb  Tb8  1  0.101628  0.100401  0.697481  1
  Tb  Tb9  1  0.690142  0.312746  0.684452  1
  Tb  Tb10  1  0.688743  0.685601  0.311907  1
  Tb  Tb11  1  0.692143  0.311173  0.307793  1
  Tb  Tb12  1  0.315027  0.688213  0.684657  1
  Tb  Tb13  1  0.560107  0.938220  0.560807  1
  Tb  Tb14  1  0.698685  0.097877  0.100138  1
  Tb  Tb15  1  0.558924  0.943256  0.940676  1
  In  In16  1  0.329079  0.332843  0.009384  1
  Ni  Ni17  1  0.891383  0.892704  0.891880  1
  Ag  Ag18  1  0.330802  0.334337  0.333367  1
  Ag  Ag19  1  0.000126  0.335541  0.334447  1
  Hg  Hg20  1  0.334389  0.995923  0.338121  1
  Ir  Ir21  1  0.892033  0.893048  0.324302  1
  Ir  Ir22  1  0.324152  0.892463  0.892542  1
  Ir  Ir23  1  0.891732  0.324256  0.893036  1
