# generated using pymatgen
data_Nb12Al4CuAu3N4
_symmetry_space_group_name_H-M   'P 1'
_cell_length_a   7.09508798
_cell_length_b   7.09508798
_cell_length_c   7.09508798
_cell_angle_alpha   90.09600871
_cell_angle_beta   90.09600871
_cell_angle_gamma   90.09600871
_symmetry_Int_Tables_number   1
_chemical_formula_structural   Nb12Al4CuAu3N4
_chemical_formula_sum   'Nb12 Al4 Cu1 Au3 N4'
_cell_volume   357.16716373
_cell_formula_units_Z   1
loop_
 _symmetry_equiv_pos_site_id
 _symmetry_equiv_pos_as_xyz
  1  'x, y, z'
loop_
 _atom_site_type_symbol
 _atom_site_label
 _atom_site_symmetry_multiplicity
 _atom_site_fract_x
 _atom_site_fract_y
 _atom_site_fract_z
 _atom_site_occupancy
  Nb  Nb0  1  0.785248  0.955728  0.379580  1
  Nb  Nb1  1  0.712590  0.040549  0.872583  1
  Nb  Nb2  1  0.213673  0.456401  0.124155  1
  Nb  Nb3  1  0.288746  0.543877  0.624163  1
  Nb  Nb4  1  0.955728  0.379580  0.785248  1
  Nb  Nb5  1  0.040549  0.872583  0.712590  1
  Nb  Nb6  1  0.456401  0.124155  0.213673  1
  Nb  Nb7  1  0.543877  0.624163  0.288746  1
  Nb  Nb8  1  0.379580  0.785248  0.955728  1
  Nb  Nb9  1  0.872583  0.712590  0.040549  1
  Nb  Nb10  1  0.124155  0.213673  0.456401  1
  Nb  Nb11  1  0.624163  0.288746  0.543877  1
  Al  Al12  1  0.574839  0.433388  0.921816  1
  Al  Al13  1  0.433388  0.921816  0.574839  1
  Al  Al14  1  0.921816  0.574839  0.433388  1
  Al  Al15  1  0.071881  0.071881  0.071881  1
  Cu  Cu16  1  0.678648  0.678648  0.678648  1
  Au  Au17  1  0.178622  0.820699  0.320416  1
  Au  Au18  1  0.320416  0.178622  0.820699  1
  Au  Au19  1  0.820699  0.320416  0.178622  1
  N  N20  1  0.878542  0.123543  0.623145  1
  N  N21  1  0.623145  0.878542  0.123543  1
  N  N22  1  0.123543  0.623145  0.878542  1
  N  N23  1  0.377168  0.377168  0.377168  1
