# generated using pymatgen
data_Tb9Nd(Hg2Pd)4
_symmetry_space_group_name_H-M   'P 1'
_cell_length_a   8.00298057
_cell_length_b   18.30286730
_cell_length_c   3.68483600
_cell_angle_alpha   90.00000000
_cell_angle_beta   90.00000000
_cell_angle_gamma   90.46414066
_symmetry_Int_Tables_number   1
_chemical_formula_structural   Tb9Nd(Hg2Pd)4
_chemical_formula_sum   'Tb9 Nd1 Hg8 Pd4'
_cell_volume   539.72782408
_cell_formula_units_Z   1
loop_
 _symmetry_equiv_pos_site_id
 _symmetry_equiv_pos_as_xyz
  1  'x, y, z'
loop_
 _atom_site_type_symbol
 _atom_site_label
 _atom_site_symmetry_multiplicity
 _atom_site_fract_x
 _atom_site_fract_y
 _atom_site_fract_z
 _atom_site_occupancy
  Tb  Tb0  1  0.000000  0.000000  0.000000  1
  Tb  Tb1  1  0.735130  0.284238  0.000000  1
  Tb  Tb2  1  0.264870  0.715762  0.000000  1
  Tb  Tb3  1  0.764995  0.785086  0.000000  1
  Tb  Tb4  1  0.235005  0.214914  0.000000  1
  Tb  Tb5  1  0.614741  0.084878  0.000000  1
  Tb  Tb6  1  0.385259  0.915122  0.000000  1
  Tb  Tb7  1  0.884086  0.585005  0.000000  1
  Tb  Tb8  1  0.115914  0.414995  0.000000  1
  Nd  Nd9  1  0.500000  0.500000  0.000000  1
  Hg  Hg10  1  0.710847  0.935037  0.500000  1
  Hg  Hg11  1  0.289153  0.064963  0.500000  1
  Hg  Hg12  1  0.795328  0.433445  0.500000  1
  Hg  Hg13  1  0.204672  0.566555  0.500000  1
  Hg  Hg14  1  0.583144  0.650682  0.500000  1
  Hg  Hg15  1  0.416856  0.349318  0.500000  1
  Hg  Hg16  1  0.918592  0.147569  0.500000  1
  Hg  Hg17  1  0.081408  0.852431  0.500000  1
  Pd  Pd18  1  0.525219  0.195994  0.500000  1
  Pd  Pd19  1  0.474781  0.804006  0.500000  1
  Pd  Pd20  1  0.975167  0.696653  0.500000  1
  Pd  Pd21  1  0.024833  0.303347  0.500000  1
