# generated using pymatgen
data_LaTbZn2(Co3B)2
_symmetry_space_group_name_H-M   'P 1'
_cell_length_a   5.17185400
_cell_length_b   5.17319917
_cell_length_c   6.82753800
_cell_angle_alpha   90.00000000
_cell_angle_beta   90.00000000
_cell_angle_gamma   119.99142431
_symmetry_Int_Tables_number   1
_chemical_formula_structural   LaTbZn2(Co3B)2
_chemical_formula_sum   'La1 Tb1 Zn2 Co6 B2'
_cell_volume   158.21138644
_cell_formula_units_Z   1
loop_
 _symmetry_equiv_pos_site_id
 _symmetry_equiv_pos_as_xyz
  1  'x, y, z'
loop_
 _atom_site_type_symbol
 _atom_site_label
 _atom_site_symmetry_multiplicity
 _atom_site_fract_x
 _atom_site_fract_y
 _atom_site_fract_z
 _atom_site_occupancy
  La  La0  1  0.999982  0.000000  0.000000  1
  Tb  Tb1  1  0.999989  0.000000  0.500000  1
  Zn  Zn2  1  0.333396  0.666838  0.000000  1
  Zn  Zn3  1  0.666558  0.333162  0.000000  1
  Co  Co4  1  0.499987  0.000000  0.300244  1
  Co  Co5  1  0.499985  0.500003  0.300255  1
  Co  Co6  1  0.999981  0.499997  0.300255  1
  Co  Co7  1  0.499987  0.000000  0.699756  1
  Co  Co8  1  0.499985  0.500003  0.699745  1
  Co  Co9  1  0.999981  0.499997  0.699745  1
  B  B10  1  0.333265  0.666562  0.500000  1
  B  B11  1  0.666702  0.333438  0.500000  1
