# generated using pymatgen
data_Tb6Dy(ErSi2)3
_symmetry_space_group_name_H-M   'P 1'
_cell_length_a   8.46344900
_cell_length_b   8.46344802
_cell_length_c   6.35369200
_cell_angle_alpha   90.00000000
_cell_angle_beta   90.00000000
_cell_angle_gamma   119.99999990
_symmetry_Int_Tables_number   1
_chemical_formula_structural   Tb6Dy(ErSi2)3
_chemical_formula_sum   'Tb6 Dy1 Er3 Si6'
_cell_volume   394.14089948
_cell_formula_units_Z   1
loop_
 _symmetry_equiv_pos_site_id
 _symmetry_equiv_pos_as_xyz
  1  'x, y, z'
loop_
 _atom_site_type_symbol
 _atom_site_label
 _atom_site_symmetry_multiplicity
 _atom_site_fract_x
 _atom_site_fract_y
 _atom_site_fract_z
 _atom_site_occupancy
  Tb  Tb0  1  0.999899  0.756171  0.750104  1
  Tb  Tb1  1  0.999899  0.243727  0.249896  1
  Tb  Tb2  1  0.756273  0.756171  0.249896  1
  Tb  Tb3  1  0.756273  0.000101  0.750104  1
  Tb  Tb4  1  0.243829  0.243727  0.750104  1
  Tb  Tb5  1  0.243829  0.000101  0.249896  1
  Dy  Dy6  1  0.333333  0.666667  0.500000  1
  Er  Er7  1  0.666667  0.333333  0.000000  1
  Er  Er8  1  0.666667  0.333333  0.500000  1
  Er  Er9  1  0.333333  0.666667  0.000000  1
  Si  Si10  1  0.395149  0.000310  0.750265  1
  Si  Si11  1  0.395149  0.394839  0.249735  1
  Si  Si12  1  0.999690  0.604851  0.249735  1
  Si  Si13  1  0.999690  0.394839  0.750265  1
  Si  Si14  1  0.605161  0.604851  0.750265  1
  Si  Si15  1  0.605161  0.000310  0.249735  1
