# generated using pymatgen
data_Tb8Sc11Si16Au
_symmetry_space_group_name_H-M   'P 1'
_cell_length_a   7.03613402
_cell_length_b   7.41748527
_cell_length_c   14.06628900
_cell_angle_alpha   90.00000000
_cell_angle_beta   90.00000000
_cell_angle_gamma   89.81767573
_symmetry_Int_Tables_number   1
_chemical_formula_structural   Tb8Sc11Si16Au
_chemical_formula_sum   'Tb8 Sc11 Si16 Au1'
_cell_volume   734.12182012
_cell_formula_units_Z   1
loop_
 _symmetry_equiv_pos_site_id
 _symmetry_equiv_pos_as_xyz
  1  'x, y, z'
loop_
 _atom_site_type_symbol
 _atom_site_label
 _atom_site_symmetry_multiplicity
 _atom_site_fract_x
 _atom_site_fract_y
 _atom_site_fract_z
 _atom_site_occupancy
  Tb  Tb0  1  0.010921  0.174379  0.096394  1
  Tb  Tb1  1  0.991510  0.814903  0.900441  1
  Tb  Tb2  1  0.483875  0.673006  0.900511  1
  Tb  Tb3  1  0.991510  0.814903  0.599559  1
  Tb  Tb4  1  0.510824  0.323777  0.096565  1
  Tb  Tb5  1  0.010921  0.174379  0.403606  1
  Tb  Tb6  1  0.510824  0.323777  0.403435  1
  Tb  Tb7  1  0.483875  0.673006  0.599489  1
  Sc  Sc8  1  0.838706  0.497837  0.250000  1
  Sc  Sc9  1  0.339860  0.002574  0.250000  1
  Sc  Sc10  1  0.657351  0.998963  0.750000  1
  Sc  Sc11  1  0.325088  0.183703  0.626702  1
  Sc  Sc12  1  0.671172  0.823533  0.375105  1
  Sc  Sc13  1  0.171053  0.678243  0.373985  1
  Sc  Sc14  1  0.671172  0.823533  0.124895  1
  Sc  Sc15  1  0.836137  0.327877  0.626824  1
  Sc  Sc16  1  0.325088  0.183703  0.873298  1
  Sc  Sc17  1  0.836137  0.327877  0.873176  1
  Sc  Sc18  1  0.171053  0.678243  0.126015  1
  Si  Si19  1  0.027702  0.099041  0.750000  1
  Si  Si20  1  0.968747  0.885878  0.250000  1
  Si  Si21  1  0.467400  0.618139  0.250000  1
  Si  Si22  1  0.536895  0.384229  0.750000  1
  Si  Si23  1  0.289532  0.887003  0.750000  1
  Si  Si24  1  0.713254  0.126298  0.250000  1
  Si  Si25  1  0.212416  0.373232  0.250000  1
  Si  Si26  1  0.778171  0.627551  0.750000  1
  Si  Si27  1  0.160385  0.459417  0.531005  1
  Si  Si28  1  0.843552  0.535710  0.462167  1
  Si  Si29  1  0.345406  0.964959  0.462995  1
  Si  Si30  1  0.843552  0.535710  0.037833  1
  Si  Si31  1  0.657308  0.033675  0.540477  1
  Si  Si32  1  0.160385  0.459417  0.968995  1
  Si  Si33  1  0.657308  0.033675  0.959523  1
  Si  Si34  1  0.345406  0.964959  0.037005  1
  Au  Au35  1  0.155505  0.512895  0.750000  1
