# generated using pymatgen
data_Pa8Mn3CdO24
_symmetry_space_group_name_H-M   'P 1'
_cell_length_a   5.40899600
_cell_length_b   5.38747698
_cell_length_c   16.17768035
_cell_angle_alpha   89.67662964
_cell_angle_beta   90.00000000
_cell_angle_gamma   90.00000000
_symmetry_Int_Tables_number   1
_chemical_formula_structural   Pa8Mn3CdO24
_chemical_formula_sum   'Pa8 Mn3 Cd1 O24'
_cell_volume   471.42370951
_cell_formula_units_Z   1
loop_
 _symmetry_equiv_pos_site_id
 _symmetry_equiv_pos_as_xyz
  1  'x, y, z'
loop_
 _atom_site_type_symbol
 _atom_site_label
 _atom_site_symmetry_multiplicity
 _atom_site_fract_x
 _atom_site_fract_y
 _atom_site_fract_z
 _atom_site_occupancy
  Pa  Pa0  1  0.253243  0.459470  0.662028  1
  Pa  Pa1  1  0.244527  0.957113  0.842070  1
  Pa  Pa2  1  0.244527  0.042887  0.157930  1
  Pa  Pa3  1  0.253243  0.540530  0.337972  1
  Pa  Pa4  1  0.746935  0.037872  0.338062  1
  Pa  Pa5  1  0.752611  0.541689  0.157969  1
  Pa  Pa6  1  0.752611  0.458311  0.842031  1
  Pa  Pa7  1  0.746935  0.962128  0.661938  1
  Mn  Mn8  1  0.291653  0.500000  0.000000  1
  Mn  Mn9  1  0.215863  0.000000  0.500000  1
  Mn  Mn10  1  0.706970  0.000000  0.000000  1
  Cd  Cd11  1  0.780588  0.500000  0.500000  1
  O  O12  1  0.049885  0.652613  0.908106  1
  O  O13  1  0.455830  0.161310  0.593159  1
  O  O14  1  0.455830  0.838690  0.406841  1
  O  O15  1  0.049885  0.347387  0.091894  1
  O  O16  1  0.947731  0.847298  0.091959  1
  O  O17  1  0.545035  0.336124  0.401980  1
  O  O18  1  0.545035  0.663876  0.598020  1
  O  O19  1  0.947731  0.152702  0.908041  1
  O  O20  1  0.021279  0.784660  0.248776  1
  O  O21  1  0.475945  0.284252  0.245898  1
  O  O22  1  0.475945  0.715748  0.754102  1
  O  O23  1  0.021279  0.215340  0.751224  1
  O  O24  1  0.975730  0.714901  0.751045  1
  O  O25  1  0.521515  0.216188  0.751870  1
  O  O26  1  0.521515  0.783812  0.248130  1
  O  O27  1  0.975730  0.285099  0.248955  1
  O  O28  1  0.047740  0.743708  0.590958  1
  O  O29  1  0.454624  0.236156  0.912734  1
  O  O30  1  0.454624  0.763844  0.087266  1
  O  O31  1  0.047740  0.256292  0.409042  1
  O  O32  1  0.966679  0.766353  0.409041  1
  O  O33  1  0.543155  0.264360  0.085974  1
  O  O34  1  0.543155  0.735640  0.914026  1
  O  O35  1  0.966679  0.233647  0.590959  1
