# generated using pymatgen
data_Tm10Sc10SiBi11
_symmetry_space_group_name_H-M   'P 1'
_cell_length_a   7.86904488
_cell_length_b   9.10774047
_cell_length_c   11.71246532
_cell_angle_alpha   90.06463632
_cell_angle_beta   89.92414747
_cell_angle_gamma   90.00521447
_symmetry_Int_Tables_number   1
_chemical_formula_structural   Tm10Sc10SiBi11
_chemical_formula_sum   'Tm10 Sc10 Si1 Bi11'
_cell_volume   839.42196380
_cell_formula_units_Z   1
loop_
 _symmetry_equiv_pos_site_id
 _symmetry_equiv_pos_as_xyz
  1  'x, y, z'
loop_
 _atom_site_type_symbol
 _atom_site_label
 _atom_site_symmetry_multiplicity
 _atom_site_fract_x
 _atom_site_fract_y
 _atom_site_fract_z
 _atom_site_occupancy
  Tm  Tm0  1  0.352127  0.248781  0.294216  1
  Tm  Tm1  1  0.654055  0.750043  0.719025  1
  Tm  Tm2  1  0.147746  0.751823  0.780893  1
  Tm  Tm3  1  0.850842  0.247988  0.215860  1
  Tm  Tm4  1  0.192969  0.248487  0.773367  1
  Tm  Tm5  1  0.813129  0.750886  0.219121  1
  Tm  Tm6  1  0.315979  0.750421  0.279107  1
  Tm  Tm7  1  0.666064  0.248650  0.709483  1
  Tm  Tm8  1  0.683894  0.427590  0.445814  1
  Tm  Tm9  1  0.310965  0.548091  0.558356  1
  Sc  Sc10  1  0.036283  0.247047  0.510879  1
  Sc  Sc11  1  0.983843  0.752400  0.491424  1
  Sc  Sc12  1  0.481122  0.750110  0.010420  1
  Sc  Sc13  1  0.521425  0.249770  0.989040  1
  Sc  Sc14  1  0.193787  0.067498  0.059318  1
  Sc  Sc15  1  0.806497  0.933774  0.942561  1
  Sc  Sc16  1  0.309421  0.951762  0.558194  1
  Sc  Sc17  1  0.806488  0.566498  0.942701  1
  Sc  Sc18  1  0.682080  0.075929  0.447400  1
  Sc  Sc19  1  0.193617  0.432135  0.059353  1
  Si  Si20  1  0.404747  0.242554  0.536710  1
  Bi  Bi21  1  0.597603  0.758938  0.459559  1
  Bi  Bi22  1  0.096778  0.749659  0.040034  1
  Bi  Bi23  1  0.907047  0.250306  0.955325  1
  Bi  Bi24  1  0.062263  0.002915  0.330320  1
  Bi  Bi25  1  0.934623  0.998957  0.669602  1
  Bi  Bi26  1  0.436396  0.994542  0.831510  1
  Bi  Bi27  1  0.933836  0.500919  0.671387  1
  Bi  Bi28  1  0.562745  0.005363  0.169010  1
  Bi  Bi29  1  0.062811  0.496790  0.328755  1
  Bi  Bi30  1  0.562554  0.494566  0.168653  1
  Bi  Bi31  1  0.436265  0.504808  0.832605  1
