# generated using pymatgen
data_Sc22Tc7Ir
_symmetry_space_group_name_H-M   'P 1'
_cell_length_a   9.51038971
_cell_length_b   9.51039003
_cell_length_c   9.51039000
_cell_angle_alpha   60.00000012
_cell_angle_beta   59.99999898
_cell_angle_gamma   60.00000046
_symmetry_Int_Tables_number   1
_chemical_formula_structural   Sc22Tc7Ir
_chemical_formula_sum   'Sc22 Tc7 Ir1'
_cell_volume   608.24699090
_cell_formula_units_Z   1
loop_
 _symmetry_equiv_pos_site_id
 _symmetry_equiv_pos_as_xyz
  1  'x, y, z'
loop_
 _atom_site_type_symbol
 _atom_site_label
 _atom_site_symmetry_multiplicity
 _atom_site_fract_x
 _atom_site_fract_y
 _atom_site_fract_z
 _atom_site_occupancy
  Sc  Sc0  1  0.801597  0.801597  0.198403  1
  Sc  Sc1  1  0.198403  0.801597  0.198403  1
  Sc  Sc2  1  0.801597  0.198403  0.198403  1
  Sc  Sc3  1  0.198403  0.198403  0.801597  1
  Sc  Sc4  1  0.801597  0.198403  0.801597  1
  Sc  Sc5  1  0.198403  0.801597  0.801597  1
  Sc  Sc6  1  0.617149  0.617149  0.148551  1
  Sc  Sc7  1  0.617149  0.148551  0.617149  1
  Sc  Sc8  1  0.148551  0.617149  0.617149  1
  Sc  Sc9  1  0.617149  0.617149  0.617149  1
  Sc  Sc10  1  0.382851  0.382851  0.851449  1
  Sc  Sc11  1  0.382851  0.851449  0.382851  1
  Sc  Sc12  1  0.851449  0.382851  0.382851  1
  Sc  Sc13  1  0.382851  0.382851  0.382851  1
  Sc  Sc14  1  0.843550  0.843550  0.469348  1
  Sc  Sc15  1  0.843550  0.469348  0.843550  1
  Sc  Sc16  1  0.469348  0.843550  0.843550  1
  Sc  Sc17  1  0.843550  0.843550  0.843550  1
  Sc  Sc18  1  0.156450  0.156450  0.530652  1
  Sc  Sc19  1  0.156450  0.530652  0.156450  1
  Sc  Sc20  1  0.530652  0.156450  0.156450  1
  Sc  Sc21  1  0.156450  0.156450  0.156450  1
  Tc  Tc22  1  0.000000  0.000000  0.000000  1
  Tc  Tc23  1  0.000000  0.000000  0.500000  1
  Tc  Tc24  1  0.500000  0.000000  0.500000  1
  Tc  Tc25  1  0.000000  0.500000  0.500000  1
  Tc  Tc26  1  0.500000  0.500000  0.000000  1
  Tc  Tc27  1  0.000000  0.500000  0.000000  1
  Tc  Tc28  1  0.500000  0.000000  0.000000  1
  Ir  Ir29  1  0.500000  0.500000  0.500000  1
