# generated using pymatgen
data_Tc2Hg3PbO10
_symmetry_space_group_name_H-M   'P 1'
_cell_length_a   8.84326408
_cell_length_b   9.85533163
_cell_length_c   9.69264239
_cell_angle_alpha   120.44689060
_cell_angle_beta   103.14901009
_cell_angle_gamma   84.25265192
_symmetry_Int_Tables_number   1
_chemical_formula_structural   Tc2Hg3PbO10
_chemical_formula_sum   'Tc4 Hg6 Pb2 O20'
_cell_volume   709.04588450
_cell_formula_units_Z   2
loop_
 _symmetry_equiv_pos_site_id
 _symmetry_equiv_pos_as_xyz
  1  'x, y, z'
loop_
 _atom_site_type_symbol
 _atom_site_label
 _atom_site_symmetry_multiplicity
 _atom_site_fract_x
 _atom_site_fract_y
 _atom_site_fract_z
 _atom_site_occupancy
  Tc  Tc0  1  0.893285  0.752863  0.479452  1
  Tc  Tc1  1  0.713125  0.328266  0.979665  1
  Tc  Tc2  1  0.286875  0.671734  0.020335  1
  Tc  Tc3  1  0.106715  0.247137  0.520548  1
  Hg  Hg4  1  0.365682  0.609683  0.423268  1
  Hg  Hg5  1  0.686356  0.678914  0.814089  1
  Hg  Hg6  1  0.634318  0.390317  0.576732  1
  Hg  Hg7  1  0.352098  0.959649  0.812627  1
  Hg  Hg8  1  0.313644  0.321086  0.185911  1
  Hg  Hg9  1  0.647902  0.040351  0.187373  1
  Pb  Pb10  1  0.000000  0.000000  0.000000  1
  Pb  Pb11  1  0.500000  0.000000  0.500000  1
  O  O12  1  0.239587  0.124415  0.568784  1
  O  O13  1  0.452877  0.838607  0.615457  1
  O  O14  1  0.099411  0.738464  0.980515  1
  O  O15  1  0.257316  0.079534  0.014277  1
  O  O16  1  0.029560  0.148421  0.308624  1
  O  O17  1  0.970440  0.851579  0.691376  1
  O  O18  1  0.361349  0.770433  0.233144  1
  O  O19  1  0.742684  0.920466  0.985723  1
  O  O20  1  0.900589  0.261536  0.019485  1
  O  O21  1  0.718799  0.527544  0.049363  1
  O  O22  1  0.044008  0.706081  0.377098  1
  O  O23  1  0.281201  0.472456  0.950637  1
  O  O24  1  0.760413  0.875585  0.431216  1
  O  O25  1  0.798051  0.583180  0.426617  1
  O  O26  1  0.201949  0.416820  0.573383  1
  O  O27  1  0.638651  0.229567  0.766856  1
  O  O28  1  0.547123  0.161393  0.384543  1
  O  O29  1  0.593735  0.287236  0.074589  1
  O  O30  1  0.955992  0.293919  0.622902  1
  O  O31  1  0.406265  0.712764  0.925411  1
