# generated using pymatgen
data_TbEr2In3Cu2Pt
_symmetry_space_group_name_H-M   'P 1'
_cell_length_a   7.54744354
_cell_length_b   7.56019037
_cell_length_c   3.90094900
_cell_angle_alpha   90.00000000
_cell_angle_beta   90.00000000
_cell_angle_gamma   119.90102394
_symmetry_Int_Tables_number   1
_chemical_formula_structural   TbEr2In3Cu2Pt
_chemical_formula_sum   'Tb1 Er2 In3 Cu2 Pt1'
_cell_volume   192.95933238
_cell_formula_units_Z   1
loop_
 _symmetry_equiv_pos_site_id
 _symmetry_equiv_pos_as_xyz
  1  'x, y, z'
loop_
 _atom_site_type_symbol
 _atom_site_label
 _atom_site_symmetry_multiplicity
 _atom_site_fract_x
 _atom_site_fract_y
 _atom_site_fract_z
 _atom_site_occupancy
  Tb  Tb0  1  0.584635  0.993262  0.500000  1
  Er  Er1  1  0.007221  0.591789  0.500000  1
  Er  Er2  1  0.408117  0.415701  0.500000  1
  In  In3  1  0.753057  0.744353  0.000000  1
  In  In4  1  0.992842  0.247838  0.000000  1
  In  In5  1  0.254694  0.008077  0.000000  1
  Cu  Cu6  1  0.000377  0.000016  0.500000  1
  Cu  Cu7  1  0.667017  0.334251  0.000000  1
  Pt  Pt8  1  0.332038  0.664714  0.000000  1
