# generated using pymatgen
data_Pr6Zn23S
_symmetry_space_group_name_H-M   'P 1'
_cell_length_a   9.25163754
_cell_length_b   9.25163821
_cell_length_c   9.25163900
_cell_angle_alpha   60.00000076
_cell_angle_beta   59.99999834
_cell_angle_gamma   59.99999925
_symmetry_Int_Tables_number   1
_chemical_formula_structural   Pr6Zn23S
_chemical_formula_sum   'Pr6 Zn23 S1'
_cell_volume   559.93926865
_cell_formula_units_Z   1
loop_
 _symmetry_equiv_pos_site_id
 _symmetry_equiv_pos_as_xyz
  1  'x, y, z'
loop_
 _atom_site_type_symbol
 _atom_site_label
 _atom_site_symmetry_multiplicity
 _atom_site_fract_x
 _atom_site_fract_y
 _atom_site_fract_z
 _atom_site_occupancy
  Pr  Pr0  1  0.717641  0.282359  0.282359  1
  Pr  Pr1  1  0.717641  0.282359  0.717641  1
  Pr  Pr2  1  0.717641  0.717641  0.282359  1
  Pr  Pr3  1  0.282359  0.717641  0.717641  1
  Pr  Pr4  1  0.282359  0.717641  0.282359  1
  Pr  Pr5  1  0.282359  0.282359  0.717641  1
  Zn  Zn6  1  0.621282  0.126240  0.126240  1
  Zn  Zn7  1  0.126240  0.621282  0.126240  1
  Zn  Zn8  1  0.126240  0.126240  0.621282  1
  Zn  Zn9  1  0.126240  0.126240  0.126240  1
  Zn  Zn10  1  0.378718  0.873760  0.873760  1
  Zn  Zn11  1  0.873760  0.378718  0.873760  1
  Zn  Zn12  1  0.873760  0.873760  0.378718  1
  Zn  Zn13  1  0.873760  0.873760  0.873760  1
  Zn  Zn14  1  0.500000  0.000000  0.000000  1
  Zn  Zn15  1  0.500000  0.000000  0.500000  1
  Zn  Zn16  1  0.500000  0.500000  0.000000  1
  Zn  Zn17  1  0.000000  0.500000  0.500000  1
  Zn  Zn18  1  0.000000  0.500000  0.000000  1
  Zn  Zn19  1  0.000000  0.000000  0.500000  1
  Zn  Zn20  1  0.000000  0.000000  0.000000  1
  Zn  Zn21  1  0.020440  0.326519  0.326519  1
  Zn  Zn22  1  0.326519  0.020440  0.326519  1
  Zn  Zn23  1  0.326519  0.326519  0.020440  1
  Zn  Zn24  1  0.326519  0.326519  0.326519  1
  Zn  Zn25  1  0.979560  0.673481  0.673481  1
  Zn  Zn26  1  0.673481  0.979560  0.673481  1
  Zn  Zn27  1  0.673481  0.673481  0.979560  1
  Zn  Zn28  1  0.673481  0.673481  0.673481  1
  S  S29  1  0.500000  0.500000  0.500000  1
