# generated using pymatgen
data_Nd3DySi4(Ag2Sn)2
_symmetry_space_group_name_H-M   'P 1'
_cell_length_a   9.80706020
_cell_length_b   9.80706116
_cell_length_c   7.10163400
_cell_angle_alpha   90.00000000
_cell_angle_beta   90.00000000
_cell_angle_gamma   153.39765971
_symmetry_Int_Tables_number   1
_chemical_formula_structural   Nd3DySi4(Ag2Sn)2
_chemical_formula_sum   'Nd3 Dy1 Si4 Ag4 Sn2'
_cell_volume   305.85518170
_cell_formula_units_Z   1
loop_
 _symmetry_equiv_pos_site_id
 _symmetry_equiv_pos_as_xyz
  1  'x, y, z'
loop_
 _atom_site_type_symbol
 _atom_site_label
 _atom_site_symmetry_multiplicity
 _atom_site_fract_x
 _atom_site_fract_y
 _atom_site_fract_z
 _atom_site_occupancy
  Nd  Nd0  1  0.647180  0.352820  0.750000  1
  Nd  Nd1  1  0.548015  0.451985  0.250000  1
  Nd  Nd2  1  0.450769  0.549231  0.750000  1
  Dy  Dy3  1  0.354247  0.645753  0.250000  1
  Si  Si4  1  0.053999  0.946001  0.920064  1
  Si  Si5  1  0.944756  0.055244  0.081347  1
  Si  Si6  1  0.944756  0.055244  0.418653  1
  Si  Si7  1  0.053999  0.946001  0.579936  1
  Ag  Ag8  1  0.177308  0.822692  0.052728  1
  Ag  Ag9  1  0.177308  0.822692  0.447272  1
  Ag  Ag10  1  0.823102  0.176898  0.950258  1
  Ag  Ag11  1  0.823102  0.176898  0.549742  1
  Sn  Sn12  1  0.723974  0.276026  0.250000  1
  Sn  Sn13  1  0.277482  0.722518  0.750000  1
