# generated using pymatgen
data_Pr2Y3Tm(IrO7)2
_symmetry_space_group_name_H-M   'P 1'
_cell_length_a   6.47101367
_cell_length_b   6.47784674
_cell_length_c   7.51655100
_cell_angle_alpha   90.00000000
_cell_angle_beta   90.00000000
_cell_angle_gamma   109.66232018
_symmetry_Int_Tables_number   1
_chemical_formula_structural   Pr2Y3Tm(IrO7)2
_chemical_formula_sum   'Pr2 Y3 Tm1 Ir2 O14'
_cell_volume   296.70884172
_cell_formula_units_Z   1
loop_
 _symmetry_equiv_pos_site_id
 _symmetry_equiv_pos_as_xyz
  1  'x, y, z'
loop_
 _atom_site_type_symbol
 _atom_site_label
 _atom_site_symmetry_multiplicity
 _atom_site_fract_x
 _atom_site_fract_y
 _atom_site_fract_z
 _atom_site_occupancy
  Pr  Pr0  1  0.001660  0.000918  0.001140  1
  Pr  Pr1  1  0.001660  0.000918  0.498860  1
  Y  Y2  1  0.485075  0.938295  0.750000  1
  Y  Y3  1  0.515081  0.061963  0.250000  1
  Y  Y4  1  0.939469  0.484586  0.750000  1
  Tm  Tm5  1  0.059725  0.512903  0.250000  1
  Ir  Ir6  1  0.500866  0.500997  0.000952  1
  Ir  Ir7  1  0.500866  0.500997  0.499048  1
  O  O8  1  0.585999  0.586462  0.750000  1
  O  O9  1  0.402674  0.410340  0.250000  1
  O  O10  1  0.841175  0.121553  0.750000  1
  O  O11  1  0.159882  0.872410  0.250000  1
  O  O12  1  0.121583  0.840322  0.750000  1
  O  O13  1  0.879473  0.163109  0.250000  1
  O  O14  1  0.438441  0.180564  0.967093  1
  O  O15  1  0.564028  0.820788  0.466498  1
  O  O16  1  0.180173  0.442185  0.970165  1
  O  O17  1  0.819765  0.558577  0.463511  1
  O  O18  1  0.438441  0.180564  0.532907  1
  O  O19  1  0.564028  0.820788  0.033502  1
  O  O20  1  0.819765  0.558577  0.036489  1
  O  O21  1  0.180173  0.442185  0.529835  1
