# generated using pymatgen
data_DyHo5TmRh3
_symmetry_space_group_name_H-M   'P 1'
_cell_length_a   9.74416900
_cell_length_b   9.74581867
_cell_length_c   6.16011600
_cell_angle_alpha   89.99742363
_cell_angle_beta   90.00000000
_cell_angle_gamma   119.99439737
_symmetry_Int_Tables_number   1
_chemical_formula_structural   DyHo5TmRh3
_chemical_formula_sum   'Dy2 Ho10 Tm2 Rh6'
_cell_volume   506.64897877
_cell_formula_units_Z   2
loop_
 _symmetry_equiv_pos_site_id
 _symmetry_equiv_pos_as_xyz
  1  'x, y, z'
loop_
 _atom_site_type_symbol
 _atom_site_label
 _atom_site_symmetry_multiplicity
 _atom_site_fract_x
 _atom_site_fract_y
 _atom_site_fract_z
 _atom_site_occupancy
  Dy  Dy0  1  0.123904  0.876237  0.253424  1
  Dy  Dy1  1  0.752334  0.876237  0.253424  1
  Ho  Ho2  1  0.123939  0.247876  0.253714  1
  Ho  Ho3  1  0.876264  0.123917  0.753697  1
  Ho  Ho4  1  0.247652  0.123917  0.753697  1
  Ho  Ho5  1  0.876144  0.752289  0.753706  1
  Ho  Ho6  1  0.540745  0.459089  0.447674  1
  Ho  Ho7  1  0.918345  0.459089  0.447674  1
  Ho  Ho8  1  0.540853  0.081705  0.447535  1
  Ho  Ho9  1  0.459093  0.540716  0.947499  1
  Ho  Ho10  1  0.081621  0.540716  0.947499  1
  Ho  Ho11  1  0.459182  0.918364  0.947411  1
  Tm  Tm12  1  0.333289  0.666579  0.456774  1
  Tm  Tm13  1  0.666663  0.333325  0.956696  1
  Rh  Rh14  1  0.809574  0.190759  0.180414  1
  Rh  Rh15  1  0.381184  0.190759  0.180414  1
  Rh  Rh16  1  0.809314  0.618629  0.180422  1
  Rh  Rh17  1  0.190538  0.809421  0.680725  1
  Rh  Rh18  1  0.618883  0.809421  0.680725  1
  Rh  Rh19  1  0.190478  0.380954  0.680417  1
