# generated using pymatgen
data_Sm3V(Ni4P3)2
_symmetry_space_group_name_H-M   'P 1'
_cell_length_a   3.82638500
_cell_length_b   10.76067300
_cell_length_c   12.39836800
_cell_angle_alpha   90.00000000
_cell_angle_beta   90.00000000
_cell_angle_gamma   90.00000000
_symmetry_Int_Tables_number   1
_chemical_formula_structural   Sm3V(Ni4P3)2
_chemical_formula_sum   'Sm6 V2 Ni16 P12'
_cell_volume   510.49632744
_cell_formula_units_Z   2
loop_
 _symmetry_equiv_pos_site_id
 _symmetry_equiv_pos_as_xyz
  1  'x, y, z'
loop_
 _atom_site_type_symbol
 _atom_site_label
 _atom_site_symmetry_multiplicity
 _atom_site_fract_x
 _atom_site_fract_y
 _atom_site_fract_z
 _atom_site_occupancy
  Sm  Sm0  1  0.000000  0.500000  0.519841  1
  Sm  Sm1  1  0.500000  0.000000  0.480159  1
  Sm  Sm2  1  0.500000  0.816496  0.205289  1
  Sm  Sm3  1  0.500000  0.183504  0.205289  1
  Sm  Sm4  1  0.000000  0.683504  0.794711  1
  Sm  Sm5  1  0.000000  0.316496  0.794711  1
  V  V6  1  0.500000  0.500000  0.148428  1
  V  V7  1  0.000000  0.000000  0.851572  1
  Ni  Ni8  1  0.000000  0.500000  0.983758  1
  Ni  Ni9  1  0.500000  0.000000  0.016242  1
  Ni  Ni10  1  0.500000  0.301743  0.425365  1
  Ni  Ni11  1  0.500000  0.698257  0.425365  1
  Ni  Ni12  1  0.000000  0.198257  0.574635  1
  Ni  Ni13  1  0.000000  0.801743  0.574635  1
  Ni  Ni14  1  0.500000  0.881865  0.712916  1
  Ni  Ni15  1  0.500000  0.118135  0.712916  1
  Ni  Ni16  1  0.000000  0.618135  0.287084  1
  Ni  Ni17  1  0.000000  0.381865  0.287084  1
  Ni  Ni18  1  0.500000  0.333119  0.990869  1
  Ni  Ni19  1  0.500000  0.666881  0.990869  1
  Ni  Ni20  1  0.000000  0.166881  0.009131  1
  Ni  Ni21  1  0.000000  0.833119  0.009131  1
  Ni  Ni22  1  0.500000  0.500000  0.700343  1
  Ni  Ni23  1  0.000000  0.000000  0.299657  1
  P  P24  1  0.500000  0.311646  0.612665  1
  P  P25  1  0.500000  0.688354  0.612665  1
  P  P26  1  0.000000  0.188354  0.387335  1
  P  P27  1  0.000000  0.811646  0.387335  1
  P  P28  1  0.500000  0.500000  0.880147  1
  P  P29  1  0.000000  0.000000  0.119853  1
  P  P30  1  0.500000  0.847832  0.895637  1
  P  P31  1  0.500000  0.152168  0.895637  1
  P  P32  1  0.000000  0.652168  0.104363  1
  P  P33  1  0.000000  0.347832  0.104363  1
  P  P34  1  0.500000  0.500000  0.339765  1
  P  P35  1  0.000000  0.000000  0.660235  1
