# generated using pymatgen
data_Lu2HfGaIr2
_symmetry_space_group_name_H-M   'P 1'
_cell_length_a   4.37756100
_cell_length_b   6.87296186
_cell_length_c   7.99941744
_cell_angle_alpha   88.46881450
_cell_angle_beta   90.00000000
_cell_angle_gamma   90.00000000
_symmetry_Int_Tables_number   1
_chemical_formula_structural   Lu2HfGaIr2
_chemical_formula_sum   'Lu4 Hf2 Ga2 Ir4'
_cell_volume   240.59101223
_cell_formula_units_Z   2
loop_
 _symmetry_equiv_pos_site_id
 _symmetry_equiv_pos_as_xyz
  1  'x, y, z'
loop_
 _atom_site_type_symbol
 _atom_site_label
 _atom_site_symmetry_multiplicity
 _atom_site_fract_x
 _atom_site_fract_y
 _atom_site_fract_z
 _atom_site_occupancy
  Lu  Lu0  1  0.250000  0.523378  0.163794  1
  Lu  Lu1  1  0.750000  0.476622  0.836206  1
  Lu  Lu2  1  0.750000  0.976386  0.702180  1
  Lu  Lu3  1  0.250000  0.023614  0.297820  1
  Hf  Hf4  1  0.250000  0.642409  0.577469  1
  Hf  Hf5  1  0.750000  0.357591  0.422531  1
  Ga  Ga6  1  0.750000  0.844474  0.072914  1
  Ga  Ga7  1  0.250000  0.155526  0.927086  1
  Ir  Ir8  1  0.250000  0.773764  0.887937  1
  Ir  Ir9  1  0.750000  0.226236  0.112063  1
  Ir  Ir10  1  0.750000  0.741590  0.396822  1
  Ir  Ir11  1  0.250000  0.258410  0.603178  1
