# generated using pymatgen
data_HoErInCuNi
_symmetry_space_group_name_H-M   'P 1'
_cell_length_a   7.31485608
_cell_length_b   7.31485553
_cell_length_c   3.56431300
_cell_angle_alpha   90.00000000
_cell_angle_beta   90.00000000
_cell_angle_gamma   147.39077694
_symmetry_Int_Tables_number   1
_chemical_formula_structural   HoErInCuNi
_chemical_formula_sum   'Ho1 Er1 In1 Cu1 Ni1'
_cell_volume   102.77812893
_cell_formula_units_Z   1
loop_
 _symmetry_equiv_pos_site_id
 _symmetry_equiv_pos_as_xyz
  1  'x, y, z'
loop_
 _atom_site_type_symbol
 _atom_site_label
 _atom_site_symmetry_multiplicity
 _atom_site_fract_x
 _atom_site_fract_y
 _atom_site_fract_z
 _atom_site_occupancy
  Ho  Ho0  1  0.365001  0.634999  0.500000  1
  Er  Er1  1  0.638102  0.361898  0.500000  1
  In  In2  1  0.998311  0.001689  0.000000  1
  Cu  Cu3  1  0.200507  0.799493  0.000000  1
  Ni  Ni4  1  0.798079  0.201921  0.000000  1
