# generated using pymatgen
data_La4LuInSn2
_symmetry_space_group_name_H-M   'P 1'
_cell_length_a   9.42126725
_cell_length_b   9.42126701
_cell_length_c   9.42126660
_cell_angle_alpha   96.46112032
_cell_angle_beta   96.46112059
_cell_angle_gamma   140.79976765
_symmetry_Int_Tables_number   1
_chemical_formula_structural   La4LuInSn2
_chemical_formula_sum   'La8 Lu2 In2 Sn4'
_cell_volume   497.90261802
_cell_formula_units_Z   2
loop_
 _symmetry_equiv_pos_site_id
 _symmetry_equiv_pos_as_xyz
  1  'x, y, z'
loop_
 _atom_site_type_symbol
 _atom_site_label
 _atom_site_symmetry_multiplicity
 _atom_site_fract_x
 _atom_site_fract_y
 _atom_site_fract_z
 _atom_site_occupancy
  La  La0  1  0.911096  0.224568  0.135664  1
  La  La1  1  0.224568  0.088904  0.313473  1
  La  La2  1  0.775432  0.911096  0.686527  1
  La  La3  1  0.088904  0.775432  0.864336  1
  La  La4  1  0.724568  0.411096  0.135664  1
  La  La5  1  0.275432  0.588904  0.864336  1
  La  La6  1  0.588904  0.724568  0.313473  1
  La  La7  1  0.411096  0.275432  0.686527  1
  Lu  Lu8  1  0.750000  0.250000  0.500000  1
  Lu  Lu9  1  0.250000  0.750000  0.500000  1
  In  In10  1  0.750000  0.750000  0.000000  1
  In  In11  1  0.250000  0.250000  0.000000  1
  Sn  Sn12  1  0.847009  0.652991  0.500000  1
  Sn  Sn13  1  0.652991  0.152991  0.805984  1
  Sn  Sn14  1  0.347009  0.847009  0.194016  1
  Sn  Sn15  1  0.152991  0.347009  0.500000  1
