# generated using pymatgen
data_Sm8Si12PtRh3
_symmetry_space_group_name_H-M   'P 1'
_cell_length_a   8.24388400
_cell_length_b   8.24387756
_cell_length_c   8.19306500
_cell_angle_alpha   89.99990009
_cell_angle_beta   90.00008366
_cell_angle_gamma   119.99992903
_symmetry_Int_Tables_number   1
_chemical_formula_structural   Sm8Si12PtRh3
_chemical_formula_sum   'Sm8 Si12 Pt1 Rh3'
_cell_volume   482.21503577
_cell_formula_units_Z   1
loop_
 _symmetry_equiv_pos_site_id
 _symmetry_equiv_pos_as_xyz
  1  'x, y, z'
loop_
 _atom_site_type_symbol
 _atom_site_label
 _atom_site_symmetry_multiplicity
 _atom_site_fract_x
 _atom_site_fract_y
 _atom_site_fract_z
 _atom_site_occupancy
  Sm  Sm0  1  0.000001  0.000000  0.249532  1
  Sm  Sm1  1  0.000000  0.000001  0.751068  1
  Sm  Sm2  1  0.507774  0.492226  0.247481  1
  Sm  Sm3  1  0.507774  0.015548  0.247482  1
  Sm  Sm4  1  0.984451  0.492225  0.247483  1
  Sm  Sm5  1  0.493502  0.506498  0.752230  1
  Sm  Sm6  1  0.493502  0.987004  0.752230  1
  Sm  Sm7  1  0.012996  0.506498  0.752229  1
  Si  Si8  1  0.164491  0.835510  0.500870  1
  Si  Si9  1  0.164490  0.328981  0.500870  1
  Si  Si10  1  0.671019  0.835510  0.500871  1
  Si  Si11  1  0.832098  0.167902  0.498717  1
  Si  Si12  1  0.832098  0.664195  0.498717  1
  Si  Si13  1  0.335804  0.167902  0.498717  1
  Si  Si14  1  0.833273  0.166727  0.000560  1
  Si  Si15  1  0.833273  0.666545  0.000560  1
  Si  Si16  1  0.333455  0.166727  0.000560  1
  Si  Si17  1  0.166615  0.833385  0.999680  1
  Si  Si18  1  0.166615  0.333231  0.999680  1
  Si  Si19  1  0.666769  0.833384  0.999680  1
  Pt  Pt20  1  0.333333  0.666667  0.474496  1
  Rh  Rh21  1  0.666666  0.333334  0.530623  1
  Rh  Rh22  1  0.666667  0.333333  0.969416  1
  Rh  Rh23  1  0.333333  0.666667  0.026241  1
