# generated using pymatgen
data_HoTi4Pt15
_symmetry_space_group_name_H-M   'P 1'
_cell_length_a   3.97198800
_cell_length_b   3.97198800
_cell_length_c   19.83512800
_cell_angle_alpha   90.00000000
_cell_angle_beta   90.00000000
_cell_angle_gamma   90.00000000
_symmetry_Int_Tables_number   1
_chemical_formula_structural   HoTi4Pt15
_chemical_formula_sum   'Ho1 Ti4 Pt15'
_cell_volume   312.93263923
_cell_formula_units_Z   1
loop_
 _symmetry_equiv_pos_site_id
 _symmetry_equiv_pos_as_xyz
  1  'x, y, z'
loop_
 _atom_site_type_symbol
 _atom_site_label
 _atom_site_symmetry_multiplicity
 _atom_site_fract_x
 _atom_site_fract_y
 _atom_site_fract_z
 _atom_site_occupancy
  Ho  Ho0  1  0.000000  0.000000  0.000000  1
  Ti  Ti1  1  0.000000  0.000000  0.202854  1
  Ti  Ti2  1  0.000000  0.000000  0.401238  1
  Ti  Ti3  1  0.000000  0.000000  0.598762  1
  Ti  Ti4  1  0.000000  0.000000  0.797146  1
  Pt  Pt5  1  0.500000  0.500000  0.000000  1
  Pt  Pt6  1  0.500000  0.500000  0.206875  1
  Pt  Pt7  1  0.500000  0.500000  0.402374  1
  Pt  Pt8  1  0.500000  0.500000  0.597626  1
  Pt  Pt9  1  0.500000  0.500000  0.793125  1
  Pt  Pt10  1  0.500000  0.000000  0.109442  1
  Pt  Pt11  1  0.500000  0.000000  0.304802  1
  Pt  Pt12  1  0.500000  0.000000  0.500000  1
  Pt  Pt13  1  0.500000  0.000000  0.695198  1
  Pt  Pt14  1  0.500000  0.000000  0.890558  1
  Pt  Pt15  1  0.000000  0.500000  0.109442  1
  Pt  Pt16  1  0.000000  0.500000  0.304802  1
  Pt  Pt17  1  0.000000  0.500000  0.500000  1
  Pt  Pt18  1  0.000000  0.500000  0.695198  1
  Pt  Pt19  1  0.000000  0.500000  0.890558  1
