# generated using pymatgen
data_Ho8Er2OsRu3
_symmetry_space_group_name_H-M   'P 1'
_cell_length_a   6.30838941
_cell_length_b   7.27106228
_cell_length_c   8.42138561
_cell_angle_alpha   96.73311338
_cell_angle_beta   112.09890928
_cell_angle_gamma   90.02138680
_symmetry_Int_Tables_number   1
_chemical_formula_structural   Ho8Er2OsRu3
_chemical_formula_sum   'Ho8 Er2 Os1 Ru3'
_cell_volume   355.01637046
_cell_formula_units_Z   1
loop_
 _symmetry_equiv_pos_site_id
 _symmetry_equiv_pos_as_xyz
  1  'x, y, z'
loop_
 _atom_site_type_symbol
 _atom_site_label
 _atom_site_symmetry_multiplicity
 _atom_site_fract_x
 _atom_site_fract_y
 _atom_site_fract_z
 _atom_site_occupancy
  Ho  Ho0  1  0.792217  0.583363  0.813568  1
  Ho  Ho1  1  0.975944  0.915296  0.183380  1
  Ho  Ho2  1  0.207627  0.415401  0.186111  1
  Ho  Ho3  1  0.023401  0.084424  0.814345  1
  Ho  Ho4  1  0.206805  0.685009  0.566282  1
  Ho  Ho5  1  0.639764  0.816238  0.435921  1
  Ho  Ho6  1  0.794260  0.315403  0.434014  1
  Ho  Ho7  1  0.359156  0.184363  0.565003  1
  Er  Er8  1  0.420609  0.749907  0.999234  1
  Er  Er9  1  0.579918  0.250283  0.000035  1
  Os  Os10  1  0.602705  0.923996  0.781616  1
  Ru  Ru11  1  0.823578  0.576679  0.220600  1
  Ru  Ru12  1  0.396879  0.076427  0.219904  1
  Ru  Ru13  1  0.177138  0.423212  0.779989  1
