# generated using pymatgen
data_Tb2Mg2IrRh
_symmetry_space_group_name_H-M   'P 1'
_cell_length_a   4.13376300
_cell_length_b   7.09156823
_cell_length_c   8.54576881
_cell_angle_alpha   90.84456103
_cell_angle_beta   90.00000000
_cell_angle_gamma   90.00000000
_symmetry_Int_Tables_number   1
_chemical_formula_structural   Tb2Mg2IrRh
_chemical_formula_sum   'Tb4 Mg4 Ir2 Rh2'
_cell_volume   250.49082094
_cell_formula_units_Z   2
loop_
 _symmetry_equiv_pos_site_id
 _symmetry_equiv_pos_as_xyz
  1  'x, y, z'
loop_
 _atom_site_type_symbol
 _atom_site_label
 _atom_site_symmetry_multiplicity
 _atom_site_fract_x
 _atom_site_fract_y
 _atom_site_fract_z
 _atom_site_occupancy
  Tb  Tb0  1  0.250000  0.540304  0.177642  1
  Tb  Tb1  1  0.750000  0.459696  0.822358  1
  Tb  Tb2  1  0.250000  0.034785  0.325093  1
  Tb  Tb3  1  0.750000  0.965215  0.674907  1
  Mg  Mg4  1  0.250000  0.136274  0.939743  1
  Mg  Mg5  1  0.750000  0.863726  0.060257  1
  Mg  Mg6  1  0.250000  0.635766  0.560221  1
  Mg  Mg7  1  0.750000  0.364234  0.439779  1
  Ir  Ir8  1  0.750000  0.746868  0.370504  1
  Ir  Ir9  1  0.250000  0.253132  0.629496  1
  Rh  Rh10  1  0.750000  0.250056  0.126437  1
  Rh  Rh11  1  0.250000  0.749944  0.873563  1
