# generated using pymatgen
data_Tm6Nb2Co16Si7P5
_symmetry_space_group_name_H-M   'P 1'
_cell_length_a   3.73298600
_cell_length_b   10.73435022
_cell_length_c   12.38656669
_cell_angle_alpha   90.22326855
_cell_angle_beta   90.00000000
_cell_angle_gamma   90.00000000
_symmetry_Int_Tables_number   1
_chemical_formula_structural   Tm6Nb2Co16Si7P5
_chemical_formula_sum   'Tm6 Nb2 Co16 Si7 P5'
_cell_volume   496.34056372
_cell_formula_units_Z   1
loop_
 _symmetry_equiv_pos_site_id
 _symmetry_equiv_pos_as_xyz
  1  'x, y, z'
loop_
 _atom_site_type_symbol
 _atom_site_label
 _atom_site_symmetry_multiplicity
 _atom_site_fract_x
 _atom_site_fract_y
 _atom_site_fract_z
 _atom_site_occupancy
  Tm  Tm0  1  0.000000  0.498596  0.529185  1
  Tm  Tm1  1  0.500000  0.997834  0.471400  1
  Tm  Tm2  1  0.500000  0.819013  0.205484  1
  Tm  Tm3  1  0.500000  0.181278  0.204396  1
  Tm  Tm4  1  0.000000  0.680373  0.795186  1
  Tm  Tm5  1  0.000000  0.318520  0.796165  1
  Nb  Nb6  1  0.500000  0.500910  0.149567  1
  Nb  Nb7  1  0.000000  0.999778  0.851337  1
  Co  Co8  1  0.500000  0.500088  0.697531  1
  Co  Co9  1  0.000000  0.995549  0.303569  1
  Co  Co10  1  0.000000  0.500247  0.988982  1
  Co  Co11  1  0.500000  0.999774  0.012122  1
  Co  Co12  1  0.500000  0.329980  0.994488  1
  Co  Co13  1  0.500000  0.670714  0.994330  1
  Co  Co14  1  0.000000  0.170145  0.007010  1
  Co  Co15  1  0.000000  0.829689  0.006210  1
  Co  Co16  1  0.500000  0.299936  0.431563  1
  Co  Co17  1  0.500000  0.706326  0.428881  1
  Co  Co18  1  0.000000  0.198642  0.567816  1
  Co  Co19  1  0.000000  0.800199  0.563275  1
  Co  Co20  1  0.500000  0.878849  0.707693  1
  Co  Co21  1  0.500000  0.119178  0.708583  1
  Co  Co22  1  0.000000  0.623855  0.293371  1
  Co  Co23  1  0.000000  0.381491  0.292169  1
  Si  Si24  1  0.500000  0.499979  0.882427  1
  Si  Si25  1  0.000000  0.999948  0.118592  1
  Si  Si26  1  0.500000  0.500744  0.353464  1
  Si  Si27  1  0.000000  0.999516  0.647288  1
  Si  Si28  1  0.500000  0.303828  0.615381  1
  Si  Si29  1  0.500000  0.694403  0.614163  1
  Si  Si30  1  0.000000  0.194010  0.384100  1
  P  P31  1  0.000000  0.806048  0.383062  1
  P  P32  1  0.500000  0.840062  0.893465  1
  P  P33  1  0.500000  0.159399  0.894035  1
  P  P34  1  0.000000  0.660162  0.106572  1
  P  P35  1  0.000000  0.340937  0.107138  1
