# generated using pymatgen
data_Ho16Al4RuRh3
_symmetry_space_group_name_H-M   'P 1'
_cell_length_a   9.48615097
_cell_length_b   9.49616950
_cell_length_c   9.48615100
_cell_angle_alpha   60.03489660
_cell_angle_beta   60.00000337
_cell_angle_gamma   60.03489547
_symmetry_Int_Tables_number   1
_chemical_formula_structural   Ho16Al4RuRh3
_chemical_formula_sum   'Ho16 Al4 Ru1 Rh3'
_cell_volume   604.56417041
_cell_formula_units_Z   1
loop_
 _symmetry_equiv_pos_site_id
 _symmetry_equiv_pos_as_xyz
  1  'x, y, z'
loop_
 _atom_site_type_symbol
 _atom_site_label
 _atom_site_symmetry_multiplicity
 _atom_site_fract_x
 _atom_site_fract_y
 _atom_site_fract_z
 _atom_site_occupancy
  Ho  Ho0  1  0.185972  0.186795  0.813616  1
  Ho  Ho1  1  0.602128  0.602544  0.193200  1
  Ho  Ho2  1  0.440884  0.057000  0.440884  1
  Ho  Ho3  1  0.440534  0.441966  0.058750  1
  Ho  Ho4  1  0.813616  0.186795  0.813616  1
  Ho  Ho5  1  0.187482  0.814797  0.187482  1
  Ho  Ho6  1  0.440884  0.057000  0.061231  1
  Ho  Ho7  1  0.187482  0.814797  0.810240  1
  Ho  Ho8  1  0.058750  0.441966  0.058750  1
  Ho  Ho9  1  0.810240  0.814797  0.187482  1
  Ho  Ho10  1  0.193200  0.602544  0.602128  1
  Ho  Ho11  1  0.058750  0.441966  0.440534  1
  Ho  Ho12  1  0.061231  0.057000  0.440884  1
  Ho  Ho13  1  0.813616  0.186795  0.185972  1
  Ho  Ho14  1  0.602657  0.192030  0.602657  1
  Ho  Ho15  1  0.602128  0.602544  0.602128  1
  Al  Al16  1  0.827769  0.828184  0.827769  1
  Al  Al17  1  0.827769  0.828184  0.516279  1
  Al  Al18  1  0.516279  0.828184  0.827769  1
  Al  Al19  1  0.827381  0.517860  0.827381  1
  Ru  Ru20  1  0.393089  0.820731  0.393089  1
  Rh  Rh21  1  0.392910  0.391842  0.392910  1
  Rh  Rh22  1  0.822336  0.391842  0.392910  1
  Rh  Rh23  1  0.392910  0.391842  0.822336  1
