# generated using pymatgen
data_Dy5Si8Tc3(PIr4)4
_symmetry_space_group_name_H-M   'P 1'
_cell_length_a   12.76847701
_cell_length_b   12.79491557
_cell_length_c   3.97601200
_cell_angle_alpha   90.00000000
_cell_angle_beta   90.00000000
_cell_angle_gamma   119.93621144
_symmetry_Int_Tables_number   1
_chemical_formula_structural   Dy5Si8Tc3(PIr4)4
_chemical_formula_sum   'Dy5 Si8 Tc3 P4 Ir16'
_cell_volume   562.90309525
_cell_formula_units_Z   1
loop_
 _symmetry_equiv_pos_site_id
 _symmetry_equiv_pos_as_xyz
  1  'x, y, z'
loop_
 _atom_site_type_symbol
 _atom_site_label
 _atom_site_symmetry_multiplicity
 _atom_site_fract_x
 _atom_site_fract_y
 _atom_site_fract_z
 _atom_site_occupancy
  Dy  Dy0  1  0.333296  0.666991  0.500000  1
  Dy  Dy1  1  0.666278  0.333183  0.500000  1
  Dy  Dy2  1  0.000154  0.811751  0.000000  1
  Dy  Dy3  1  0.187109  0.187651  0.000000  1
  Dy  Dy4  1  0.812666  0.999177  0.000000  1
  Si  Si5  1  0.001157  0.629866  0.500000  1
  Si  Si6  1  0.370921  0.371246  0.500000  1
  Si  Si7  1  0.629936  0.999685  0.500000  1
  Si  Si8  1  0.520291  0.684348  0.000000  1
  Si  Si9  1  0.316303  0.836036  0.000000  1
  Si  Si10  1  0.164009  0.480294  0.000000  1
  Si  Si11  1  0.479752  0.164434  0.000000  1
  Si  Si12  1  0.683765  0.519394  0.000000  1
  Tc  Tc13  1  0.001007  0.442963  0.500000  1
  Tc  Tc14  1  0.558078  0.558050  0.500000  1
  Tc  Tc15  1  0.443541  0.001797  0.500000  1
  P  P16  1  0.833271  0.314393  0.000000  1
  P  P17  1  0.999804  0.178600  0.500000  1
  P  P18  1  0.821720  0.820374  0.500000  1
  P  P19  1  0.179059  0.999871  0.500000  1
  Ir  Ir20  1  0.515260  0.873628  0.000000  1
  Ir  Ir21  1  0.127532  0.641780  0.000000  1
  Ir  Ir22  1  0.357619  0.486100  0.000000  1
  Ir  Ir23  1  0.485645  0.358030  0.000000  1
  Ir  Ir24  1  0.869906  0.508321  0.000000  1
  Ir  Ir25  1  0.644132  0.131305  0.000000  1
  Ir  Ir26  1  0.996710  0.277728  0.000000  1
  Ir  Ir27  1  0.724306  0.723059  0.000000  1
  Ir  Ir28  1  0.276669  0.000103  0.000000  1
  Ir  Ir29  1  0.628216  0.806775  0.500000  1
  Ir  Ir30  1  0.193909  0.821176  0.500000  1
  Ir  Ir31  1  0.177860  0.371025  0.500000  1
  Ir  Ir32  1  0.371806  0.179520  0.500000  1
  Ir  Ir33  1  0.807615  0.626233  0.500000  1
  Ir  Ir34  1  0.820659  0.194884  0.500000  1
  Ir  Ir35  1  0.000043  0.000228  0.500000  1
