# generated using pymatgen
data_Cs5Th2Se4I9
_symmetry_space_group_name_H-M   'P 1'
_cell_length_a   12.03493474
_cell_length_b   12.03493609
_cell_length_c   12.03493509
_cell_angle_alpha   138.89262947
_cell_angle_beta   119.73643822
_cell_angle_gamma   75.55267572
_symmetry_Int_Tables_number   1
_chemical_formula_structural   Cs5Th2Se4I9
_chemical_formula_sum   'Cs5 Th2 Se4 I9'
_cell_volume   971.29307034
_cell_formula_units_Z   1
loop_
 _symmetry_equiv_pos_site_id
 _symmetry_equiv_pos_as_xyz
  1  'x, y, z'
loop_
 _atom_site_type_symbol
 _atom_site_label
 _atom_site_symmetry_multiplicity
 _atom_site_fract_x
 _atom_site_fract_y
 _atom_site_fract_z
 _atom_site_occupancy
  Cs  Cs0  1  0.428167  0.656059  0.772108  1
  Cs  Cs1  1  0.883951  0.656059  0.227892  1
  Cs  Cs2  1  0.500000  0.000000  0.500000  1
  Cs  Cs3  1  0.571833  0.343941  0.227892  1
  Cs  Cs4  1  0.116049  0.343941  0.772108  1
  Th  Th5  1  0.104203  0.104203  0.000000  1
  Th  Th6  1  0.895797  0.895797  0.000000  1
  Se  Se7  1  0.098637  0.772574  0.871211  1
  Se  Se8  1  0.901363  0.772574  0.673937  1
  Se  Se9  1  0.901363  0.227426  0.128789  1
  Se  Se10  1  0.098637  0.227426  0.326063  1
  I  I11  1  0.222675  0.478701  0.256027  1
  I  I12  1  0.126149  0.862864  0.263285  1
  I  I13  1  0.400422  0.137136  0.263285  1
  I  I14  1  0.222675  0.966648  0.743973  1
  I  I15  1  0.777325  0.033352  0.256027  1
  I  I16  1  0.599578  0.862864  0.736715  1
  I  I17  1  0.777325  0.521299  0.743973  1
  I  I18  1  0.500000  0.500000  0.000000  1
  I  I19  1  0.873851  0.137136  0.736715  1
