# generated using pymatgen
data_V3Fe2SiN
_symmetry_space_group_name_H-M   'P 1'
_cell_length_a   7.55961693
_cell_length_b   7.55961676
_cell_length_c   7.55961700
_cell_angle_alpha   59.99999459
_cell_angle_beta   59.99999534
_cell_angle_gamma   59.99999868
_symmetry_Int_Tables_number   1
_chemical_formula_structural   V3Fe2SiN
_chemical_formula_sum   'V12 Fe8 Si4 N4'
_cell_volume   305.48108638
_cell_formula_units_Z   4
loop_
 _symmetry_equiv_pos_site_id
 _symmetry_equiv_pos_as_xyz
  1  'x, y, z'
loop_
 _atom_site_type_symbol
 _atom_site_label
 _atom_site_symmetry_multiplicity
 _atom_site_fract_x
 _atom_site_fract_y
 _atom_site_fract_z
 _atom_site_occupancy
  V  V0  1  0.805704  0.805704  0.194296  1
  V  V1  1  0.194296  0.194296  0.805704  1
  V  V2  1  0.805704  0.194296  0.805704  1
  V  V3  1  0.194296  0.805704  0.194296  1
  V  V4  1  0.194296  0.805704  0.805704  1
  V  V5  1  0.805704  0.194296  0.194296  1
  V  V6  1  0.444296  0.444296  0.055704  1
  V  V7  1  0.055704  0.055704  0.444296  1
  V  V8  1  0.444296  0.055704  0.444296  1
  V  V9  1  0.055704  0.444296  0.055704  1
  V  V10  1  0.055704  0.444296  0.444296  1
  V  V11  1  0.444296  0.055704  0.055704  1
  Fe  Fe12  1  0.749704  0.416765  0.416765  1
  Fe  Fe13  1  0.416765  0.749704  0.416765  1
  Fe  Fe14  1  0.416765  0.416765  0.749704  1
  Fe  Fe15  1  0.416765  0.416765  0.416765  1
  Fe  Fe16  1  0.500296  0.833235  0.833235  1
  Fe  Fe17  1  0.833235  0.500296  0.833235  1
  Fe  Fe18  1  0.833235  0.833235  0.500296  1
  Fe  Fe19  1  0.833235  0.833235  0.833235  1
  Si  Si20  1  0.125000  0.625000  0.625000  1
  Si  Si21  1  0.625000  0.125000  0.625000  1
  Si  Si22  1  0.625000  0.625000  0.125000  1
  Si  Si23  1  0.625000  0.625000  0.625000  1
  N  N24  1  0.625000  0.125000  0.125000  1
  N  N25  1  0.125000  0.625000  0.125000  1
  N  N26  1  0.125000  0.125000  0.625000  1
  N  N27  1  0.125000  0.125000  0.125000  1
