# generated using pymatgen
data_Dy2YCd3IrAu2
_symmetry_space_group_name_H-M   'P 1'
_cell_length_a   7.87961297
_cell_length_b   7.88264517
_cell_length_c   3.79805000
_cell_angle_alpha   90.00000000
_cell_angle_beta   90.00000000
_cell_angle_gamma   119.85867073
_symmetry_Int_Tables_number   1
_chemical_formula_structural   Dy2YCd3IrAu2
_chemical_formula_sum   'Dy2 Y1 Cd3 Ir1 Au2'
_cell_volume   204.59023622
_cell_formula_units_Z   1
loop_
 _symmetry_equiv_pos_site_id
 _symmetry_equiv_pos_as_xyz
  1  'x, y, z'
loop_
 _atom_site_type_symbol
 _atom_site_label
 _atom_site_symmetry_multiplicity
 _atom_site_fract_x
 _atom_site_fract_y
 _atom_site_fract_z
 _atom_site_occupancy
  Dy  Dy0  1  0.028577  0.610056  0.000000  1
  Dy  Dy1  1  0.390152  0.418640  0.000000  1
  Y  Y2  1  0.582666  0.972839  0.000000  1
  Cd  Cd3  1  0.270234  0.004374  0.500000  1
  Cd  Cd4  1  0.995661  0.265779  0.500000  1
  Cd  Cd5  1  0.734270  0.730061  0.500000  1
  Ir  Ir6  1  0.331044  0.663972  0.500000  1
  Au  Au7  1  0.666788  0.334240  0.500000  1
  Au  Au8  1  0.000609  0.000039  0.000000  1
