# generated using pymatgen
data_Li3(AcCd7)2
_symmetry_space_group_name_H-M   'P 1'
_cell_length_a   7.67143984
_cell_length_b   7.67144189
_cell_length_c   7.67144032
_cell_angle_alpha   82.59452412
_cell_angle_beta   82.59453337
_cell_angle_gamma   82.59451902
_symmetry_Int_Tables_number   1
_chemical_formula_structural   Li3(AcCd7)2
_chemical_formula_sum   'Li3 Ac2 Cd14'
_cell_volume   441.06854003
_cell_formula_units_Z   1
loop_
 _symmetry_equiv_pos_site_id
 _symmetry_equiv_pos_as_xyz
  1  'x, y, z'
loop_
 _atom_site_type_symbol
 _atom_site_label
 _atom_site_symmetry_multiplicity
 _atom_site_fract_x
 _atom_site_fract_y
 _atom_site_fract_z
 _atom_site_occupancy
  Li  Li0  1  0.000000  0.000000  0.500000  1
  Li  Li1  1  0.500000  0.000000  0.000000  1
  Li  Li2  1  0.000000  0.500000  0.000000  1
  Ac  Ac3  1  0.342865  0.342865  0.342865  1
  Ac  Ac4  1  0.657135  0.657135  0.657135  1
  Cd  Cd5  1  0.293175  0.706825  0.000000  1
  Cd  Cd6  1  0.852887  0.346515  0.346515  1
  Cd  Cd7  1  0.653485  0.147113  0.653485  1
  Cd  Cd8  1  0.108206  0.108206  0.108206  1
  Cd  Cd9  1  0.293175  0.000000  0.706825  1
  Cd  Cd10  1  0.706825  0.293175  0.000000  1
  Cd  Cd11  1  0.346515  0.346515  0.852887  1
  Cd  Cd12  1  0.891794  0.891794  0.891794  1
  Cd  Cd13  1  0.000000  0.706825  0.293175  1
  Cd  Cd14  1  0.706825  0.000000  0.293175  1
  Cd  Cd15  1  0.346515  0.852887  0.346515  1
  Cd  Cd16  1  0.147113  0.653485  0.653485  1
  Cd  Cd17  1  0.653485  0.653485  0.147113  1
  Cd  Cd18  1  0.000000  0.293175  0.706825  1
