# generated using pymatgen
data_Na2Tc(OF2)2
_symmetry_space_group_name_H-M   'P 1'
_cell_length_a   5.17627100
_cell_length_b   5.60709700
_cell_length_c   18.30985800
_cell_angle_alpha   90.00000000
_cell_angle_beta   90.00000000
_cell_angle_gamma   90.00000000
_symmetry_Int_Tables_number   1
_chemical_formula_structural   Na2Tc(OF2)2
_chemical_formula_sum   'Na8 Tc4 O8 F16'
_cell_volume   531.42263794
_cell_formula_units_Z   4
loop_
 _symmetry_equiv_pos_site_id
 _symmetry_equiv_pos_as_xyz
  1  'x, y, z'
loop_
 _atom_site_type_symbol
 _atom_site_label
 _atom_site_symmetry_multiplicity
 _atom_site_fract_x
 _atom_site_fract_y
 _atom_site_fract_z
 _atom_site_occupancy
  Na  Na0  1  0.000000  0.750000  0.774321  1
  Na  Na1  1  0.500000  0.250000  0.725679  1
  Na  Na2  1  0.000000  0.250000  0.225679  1
  Na  Na3  1  0.500000  0.750000  0.274321  1
  Na  Na4  1  0.000000  0.750000  0.445163  1
  Na  Na5  1  0.500000  0.250000  0.054837  1
  Na  Na6  1  0.000000  0.250000  0.554837  1
  Na  Na7  1  0.500000  0.750000  0.945163  1
  Tc  Tc8  1  0.000000  0.750000  0.108763  1
  Tc  Tc9  1  0.500000  0.250000  0.391237  1
  Tc  Tc10  1  0.000000  0.250000  0.891237  1
  Tc  Tc11  1  0.500000  0.750000  0.608763  1
  O  O12  1  0.768061  0.884275  0.053710  1
  O  O13  1  0.268061  0.115725  0.446290  1
  O  O14  1  0.731939  0.384275  0.446290  1
  O  O15  1  0.231939  0.615725  0.053710  1
  O  O16  1  0.231939  0.115725  0.946290  1
  O  O17  1  0.731939  0.884275  0.553710  1
  O  O18  1  0.268061  0.615725  0.553710  1
  O  O19  1  0.768061  0.384275  0.946290  1
  F  F20  1  0.705327  0.954177  0.380980  1
  F  F21  1  0.205327  0.045823  0.119020  1
  F  F22  1  0.794673  0.454177  0.119020  1
  F  F23  1  0.294673  0.545823  0.380980  1
  F  F24  1  0.294673  0.045823  0.619020  1
  F  F25  1  0.794673  0.954177  0.880980  1
  F  F26  1  0.205327  0.545823  0.880980  1
  F  F27  1  0.705327  0.454177  0.619020  1
  F  F28  1  0.806384  0.887950  0.196800  1
  F  F29  1  0.306384  0.112050  0.303200  1
  F  F30  1  0.693616  0.387950  0.303200  1
  F  F31  1  0.193616  0.612050  0.196800  1
  F  F32  1  0.193616  0.112050  0.803200  1
  F  F33  1  0.693616  0.887950  0.696800  1
  F  F34  1  0.306384  0.612050  0.696800  1
  F  F35  1  0.806384  0.387950  0.803200  1
