# generated using pymatgen
data_Er2AlHgPt2
_symmetry_space_group_name_H-M   'P 1'
_cell_length_a   4.23298300
_cell_length_b   7.01788457
_cell_length_c   8.35159828
_cell_angle_alpha   93.03641853
_cell_angle_beta   90.00000000
_cell_angle_gamma   90.00000000
_symmetry_Int_Tables_number   1
_chemical_formula_structural   Er2AlHgPt2
_chemical_formula_sum   'Er4 Al2 Hg2 Pt4'
_cell_volume   247.74916103
_cell_formula_units_Z   2
loop_
 _symmetry_equiv_pos_site_id
 _symmetry_equiv_pos_as_xyz
  1  'x, y, z'
loop_
 _atom_site_type_symbol
 _atom_site_label
 _atom_site_symmetry_multiplicity
 _atom_site_fract_x
 _atom_site_fract_y
 _atom_site_fract_z
 _atom_site_occupancy
  Er  Er0  1  0.250000  0.461716  0.185966  1
  Er  Er1  1  0.750000  0.538284  0.814034  1
  Er  Er2  1  0.750000  0.037277  0.682990  1
  Er  Er3  1  0.250000  0.962723  0.317010  1
  Al  Al4  1  0.750000  0.638903  0.441777  1
  Al  Al5  1  0.250000  0.361097  0.558223  1
  Hg  Hg6  1  0.250000  0.850711  0.933679  1
  Hg  Hg7  1  0.750000  0.149289  0.066321  1
  Pt  Pt8  1  0.250000  0.734477  0.597536  1
  Pt  Pt9  1  0.750000  0.265523  0.402464  1
  Pt  Pt10  1  0.750000  0.731826  0.150192  1
  Pt  Pt11  1  0.250000  0.268174  0.849808  1
