# generated using pymatgen
data_Pa6Al24Os7W
_symmetry_space_group_name_H-M   'P 1'
_cell_length_a   8.89494300
_cell_length_b   8.91867291
_cell_length_c   9.43338199
_cell_angle_alpha   89.61040421
_cell_angle_beta   90.00000000
_cell_angle_gamma   119.91202742
_symmetry_Int_Tables_number   1
_chemical_formula_structural   Pa6Al24Os7W
_chemical_formula_sum   'Pa6 Al24 Os7 W1'
_cell_volume   648.65295726
_cell_formula_units_Z   1
loop_
 _symmetry_equiv_pos_site_id
 _symmetry_equiv_pos_as_xyz
  1  'x, y, z'
loop_
 _atom_site_type_symbol
 _atom_site_label
 _atom_site_symmetry_multiplicity
 _atom_site_fract_x
 _atom_site_fract_y
 _atom_site_fract_z
 _atom_site_occupancy
  Pa  Pa0  1  0.197219  0.394438  0.252048  1
  Pa  Pa1  1  0.802781  0.605562  0.747952  1
  Pa  Pa2  1  0.603888  0.807793  0.245260  1
  Pa  Pa3  1  0.396112  0.192207  0.754740  1
  Pa  Pa4  1  0.203904  0.807793  0.245260  1
  Pa  Pa5  1  0.796096  0.192207  0.754740  1
  Al  Al6  1  0.330953  0.661908  0.014699  1
  Al  Al7  1  0.669047  0.338092  0.985301  1
  Al  Al8  1  0.666629  0.333257  0.517791  1
  Al  Al9  1  0.333371  0.666743  0.482209  1
  Al  Al10  1  0.161338  0.322676  0.580631  1
  Al  Al11  1  0.838662  0.677324  0.419369  1
  Al  Al12  1  0.676248  0.836887  0.577870  1
  Al  Al13  1  0.838497  0.676996  0.079575  1
  Al  Al14  1  0.323752  0.163113  0.422130  1
  Al  Al15  1  0.161503  0.323004  0.920425  1
  Al  Al16  1  0.160640  0.836887  0.577870  1
  Al  Al17  1  0.323124  0.165000  0.082865  1
  Al  Al18  1  0.839360  0.163113  0.422130  1
  Al  Al19  1  0.676876  0.835000  0.917135  1
  Al  Al20  1  0.841875  0.165000  0.082865  1
  Al  Al21  1  0.158125  0.835000  0.917135  1
  Al  Al22  1  0.565450  0.130900  0.253038  1
  Al  Al23  1  0.434550  0.869100  0.746962  1
  Al  Al24  1  0.878022  0.440627  0.250967  1
  Al  Al25  1  0.121978  0.559373  0.749033  1
  Al  Al26  1  0.562606  0.440627  0.250967  1
  Al  Al27  1  0.437394  0.559373  0.749033  1
  Al  Al28  1  0.999613  0.999227  0.250096  1
  Al  Al29  1  0.000387  0.000773  0.749904  1
  Os  Os30  1  0.000000  0.500000  0.000000  1
  Os  Os31  1  0.500000  0.000000  0.500000  1
  Os  Os32  1  0.500000  0.500000  0.000000  1
  Os  Os33  1  0.000000  0.500000  0.500000  1
  Os  Os34  1  0.500000  0.500000  0.500000  1
  Os  Os35  1  0.000000  0.000000  0.000000  1
  Os  Os36  1  0.000000  0.000000  0.500000  1
  W  W37  1  0.500000  0.000000  0.000000  1
