# generated using pymatgen
data_PrScP7IrRu11
_symmetry_space_group_name_H-M   'P 1'
_cell_length_a   9.40417802
_cell_length_b   9.43948484
_cell_length_c   3.94730800
_cell_angle_alpha   90.00000000
_cell_angle_beta   90.00000000
_cell_angle_gamma   119.82314252
_symmetry_Int_Tables_number   1
_chemical_formula_structural   PrScP7IrRu11
_chemical_formula_sum   'Pr1 Sc1 P7 Ir1 Ru11'
_cell_volume   303.99888931
_cell_formula_units_Z   1
loop_
 _symmetry_equiv_pos_site_id
 _symmetry_equiv_pos_as_xyz
  1  'x, y, z'
loop_
 _atom_site_type_symbol
 _atom_site_label
 _atom_site_symmetry_multiplicity
 _atom_site_fract_x
 _atom_site_fract_y
 _atom_site_fract_z
 _atom_site_occupancy
  Pr  Pr0  1  0.332073  0.664034  0.000000  1
  Sc  Sc1  1  0.666987  0.334245  0.500000  1
  P  P2  1  0.604821  0.714895  0.500000  1
  P  P3  1  0.999399  0.999941  0.000000  1
  P  P4  1  0.277425  0.883514  0.500000  1
  P  P5  1  0.114081  0.395325  0.500000  1
  P  P6  1  0.884846  0.570381  0.000000  1
  P  P7  1  0.431268  0.314753  0.000000  1
  P  P8  1  0.689167  0.120325  0.000000  1
  Ir  Ir9  1  0.557048  0.954178  0.500000  1
  Ru  Ru10  1  0.396395  0.438816  0.500000  1
  Ru  Ru11  1  0.913814  0.120905  0.500000  1
  Ru  Ru12  1  0.206466  0.085485  0.500000  1
  Ru  Ru13  1  0.879822  0.795908  0.500000  1
  Ru  Ru14  1  0.726683  0.893981  0.000000  1
  Ru  Ru15  1  0.108061  0.835943  0.000000  1
  Ru  Ru16  1  0.164807  0.270942  0.000000  1
  Ru  Ru17  1  0.427397  0.073438  0.000000  1
  Ru  Ru18  1  0.929238  0.353939  0.000000  1
  Ru  Ru19  1  0.647220  0.575991  0.000000  1
  Ru  Ru20  1  0.042981  0.603062  0.500000  1
