# generated using pymatgen
data_Sc4Ga18Ir5Pt
_symmetry_space_group_name_H-M   'P 1'
_cell_length_a   7.52017475
_cell_length_b   7.52017388
_cell_length_c   9.39202780
_cell_angle_alpha   89.95728231
_cell_angle_beta   89.95727970
_cell_angle_gamma   120.08746156
_symmetry_Int_Tables_number   1
_chemical_formula_structural   Sc4Ga18Ir5Pt
_chemical_formula_sum   'Sc4 Ga18 Ir5 Pt1'
_cell_volume   459.58082903
_cell_formula_units_Z   1
loop_
 _symmetry_equiv_pos_site_id
 _symmetry_equiv_pos_as_xyz
  1  'x, y, z'
loop_
 _atom_site_type_symbol
 _atom_site_label
 _atom_site_symmetry_multiplicity
 _atom_site_fract_x
 _atom_site_fract_y
 _atom_site_fract_z
 _atom_site_occupancy
  Sc  Sc0  1  0.996709  0.669104  0.251914  1
  Sc  Sc1  1  0.001308  0.329639  0.747985  1
  Sc  Sc2  1  0.670361  0.998692  0.252015  1
  Sc  Sc3  1  0.330896  0.003291  0.748086  1
  Ga  Ga4  1  0.124901  0.123635  0.250170  1
  Ga  Ga5  1  0.876365  0.875099  0.749830  1
  Ga  Ga6  1  0.998282  0.334013  0.084748  1
  Ga  Ga7  1  0.008271  0.668953  0.914545  1
  Ga  Ga8  1  0.004844  0.665588  0.583251  1
  Ga  Ga9  1  0.334412  0.995156  0.416749  1
  Ga  Ga10  1  0.995833  0.334008  0.416114  1
  Ga  Ga11  1  0.665992  0.004167  0.583886  1
  Ga  Ga12  1  0.665987  0.001718  0.915252  1
  Ga  Ga13  1  0.331047  0.991729  0.085455  1
  Ga  Ga14  1  0.328766  0.328652  0.570535  1
  Ga  Ga15  1  0.671348  0.671234  0.429465  1
  Ga  Ga16  1  0.671358  0.674620  0.074572  1
  Ga  Ga17  1  0.325380  0.328642  0.925428  1
  Ga  Ga18  1  0.340917  0.552070  0.250532  1
  Ga  Ga19  1  0.659701  0.451977  0.747847  1
  Ga  Ga20  1  0.548023  0.340299  0.252153  1
  Ga  Ga21  1  0.447930  0.659083  0.749468  1
  Ir  Ir22  1  0.329268  0.670732  0.000000  1
  Ir  Ir23  1  0.328695  0.671305  0.500000  1
  Ir  Ir24  1  0.671881  0.328119  0.500000  1
  Ir  Ir25  1  0.000363  0.999637  0.000000  1
  Ir  Ir26  1  0.000126  0.999874  0.500000  1
  Pt  Pt27  1  0.671039  0.328961  0.000000  1
