# generated using pymatgen
data_PrEr5Hf2(Co4P3)4
_symmetry_space_group_name_H-M   'P 1'
_cell_length_a   3.72031500
_cell_length_b   10.69008100
_cell_length_c   12.38340100
_cell_angle_alpha   90.00000000
_cell_angle_beta   90.00000000
_cell_angle_gamma   90.00000000
_symmetry_Int_Tables_number   1
_chemical_formula_structural   PrEr5Hf2(Co4P3)4
_chemical_formula_sum   'Pr1 Er5 Hf2 Co16 P12'
_cell_volume   492.49366181
_cell_formula_units_Z   1
loop_
 _symmetry_equiv_pos_site_id
 _symmetry_equiv_pos_as_xyz
  1  'x, y, z'
loop_
 _atom_site_type_symbol
 _atom_site_label
 _atom_site_symmetry_multiplicity
 _atom_site_fract_x
 _atom_site_fract_y
 _atom_site_fract_z
 _atom_site_occupancy
  Pr  Pr0  1  0.750000  0.250000  0.469622  1
  Er  Er1  1  0.250000  0.750000  0.528820  1
  Er  Er2  1  0.250000  0.927630  0.795921  1
  Er  Er3  1  0.250000  0.572370  0.795921  1
  Er  Er4  1  0.750000  0.071521  0.203406  1
  Er  Er5  1  0.750000  0.428479  0.203406  1
  Hf  Hf6  1  0.250000  0.250000  0.845169  1
  Hf  Hf7  1  0.750000  0.750000  0.157300  1
  Co  Co8  1  0.250000  0.250000  0.292384  1
  Co  Co9  1  0.750000  0.750000  0.704142  1
  Co  Co10  1  0.750000  0.250000  0.013072  1
  Co  Co11  1  0.250000  0.750000  0.986842  1
  Co  Co12  1  0.250000  0.418570  0.006608  1
  Co  Co13  1  0.250000  0.081430  0.006608  1
  Co  Co14  1  0.750000  0.582100  0.993589  1
  Co  Co15  1  0.750000  0.917900  0.993589  1
  Co  Co16  1  0.250000  0.458654  0.568131  1
  Co  Co17  1  0.250000  0.041346  0.568131  1
  Co  Co18  1  0.750000  0.548608  0.432664  1
  Co  Co19  1  0.750000  0.951392  0.432664  1
  Co  Co20  1  0.250000  0.871188  0.295510  1
  Co  Co21  1  0.250000  0.628812  0.295510  1
  Co  Co22  1  0.750000  0.126544  0.704850  1
  Co  Co23  1  0.750000  0.373456  0.704850  1
  P  P24  1  0.250000  0.250000  0.115469  1
  P  P25  1  0.750000  0.750000  0.883485  1
  P  P26  1  0.250000  0.250000  0.642501  1
  P  P27  1  0.750000  0.750000  0.362399  1
  P  P28  1  0.250000  0.444567  0.382293  1
  P  P29  1  0.250000  0.055433  0.382293  1
  P  P30  1  0.750000  0.561798  0.616440  1
  P  P31  1  0.750000  0.938202  0.616440  1
  P  P32  1  0.250000  0.911428  0.107405  1
  P  P33  1  0.250000  0.588572  0.107405  1
  P  P34  1  0.750000  0.087619  0.892580  1
  P  P35  1  0.750000  0.412381  0.892580  1
