# generated using pymatgen
data_Ho2Tm(Sn2Ir)2
_symmetry_space_group_name_H-M   'P 1'
_cell_length_a   7.49625997
_cell_length_b   7.49119029
_cell_length_c   4.19353400
_cell_angle_alpha   90.00000000
_cell_angle_beta   90.00000000
_cell_angle_gamma   120.08062488
_symmetry_Int_Tables_number   1
_chemical_formula_structural   Ho2Tm(Sn2Ir)2
_chemical_formula_sum   'Ho2 Tm1 Sn4 Ir2'
_cell_volume   203.77591943
_cell_formula_units_Z   1
loop_
 _symmetry_equiv_pos_site_id
 _symmetry_equiv_pos_as_xyz
  1  'x, y, z'
loop_
 _atom_site_type_symbol
 _atom_site_label
 _atom_site_symmetry_multiplicity
 _atom_site_fract_x
 _atom_site_fract_y
 _atom_site_fract_z
 _atom_site_occupancy
  Ho  Ho0  1  0.975499  0.391444  0.500000  1
  Ho  Ho1  1  0.608236  0.583868  0.500000  1
  Tm  Tm2  1  0.416149  0.025671  0.500000  1
  Sn  Sn3  1  0.981828  0.743059  0.000000  1
  Sn  Sn4  1  0.257264  0.238209  0.000000  1
  Sn  Sn5  1  0.760795  0.018009  0.000000  1
  Sn  Sn6  1  0.333635  0.667666  0.000000  1
  Ir  Ir7  1  0.665790  0.332152  0.000000  1
  Ir  Ir8  1  0.000802  0.999923  0.500000  1
