# generated using pymatgen
data_Zr8Ti2Si2Sn5Sb
_symmetry_space_group_name_H-M   'P 1'
_cell_length_a   8.63606500
_cell_length_b   8.62950456
_cell_length_c   5.80385020
_cell_angle_alpha   90.02565898
_cell_angle_beta   90.00000000
_cell_angle_gamma   120.02514000
_symmetry_Int_Tables_number   1
_chemical_formula_structural   Zr8Ti2Si2Sn5Sb
_chemical_formula_sum   'Zr8 Ti2 Si2 Sn5 Sb1'
_cell_volume   374.48847675
_cell_formula_units_Z   1
loop_
 _symmetry_equiv_pos_site_id
 _symmetry_equiv_pos_as_xyz
  1  'x, y, z'
loop_
 _atom_site_type_symbol
 _atom_site_label
 _atom_site_symmetry_multiplicity
 _atom_site_fract_x
 _atom_site_fract_y
 _atom_site_fract_z
 _atom_site_occupancy
  Zr  Zr0  1  0.259762  0.000000  0.250000  1
  Zr  Zr1  1  0.258097  0.257074  0.749241  1
  Zr  Zr2  1  0.001023  0.742926  0.750759  1
  Zr  Zr3  1  0.999912  0.258901  0.250398  1
  Zr  Zr4  1  0.741011  0.741099  0.249602  1
  Zr  Zr5  1  0.740914  0.000000  0.750000  1
  Zr  Zr6  1  0.665838  0.332181  0.000155  1
  Zr  Zr7  1  0.333656  0.667819  0.499845  1
  Ti  Ti8  1  0.333427  0.667885  0.000802  1
  Ti  Ti9  1  0.665542  0.332115  0.499198  1
  Si  Si10  1  0.999555  0.000183  0.001020  1
  Si  Si11  1  0.999371  0.999817  0.498980  1
  Sn  Sn12  1  0.605381  0.000000  0.250000  1
  Sn  Sn13  1  0.603151  0.602940  0.750060  1
  Sn  Sn14  1  0.000211  0.397060  0.749940  1
  Sn  Sn15  1  0.999075  0.602877  0.249878  1
  Sn  Sn16  1  0.396198  0.397123  0.250122  1
  Sb  Sb17  1  0.397875  0.000000  0.750000  1
