# generated using pymatgen
data_Pa6Co16Si7
_symmetry_space_group_name_H-M   'P 1'
_cell_length_a   8.27139458
_cell_length_b   8.27139466
_cell_length_c   8.27139400
_cell_angle_alpha   60.00000263
_cell_angle_beta   60.00000233
_cell_angle_gamma   60.00000878
_symmetry_Int_Tables_number   1
_chemical_formula_structural   Pa6Co16Si7
_chemical_formula_sum   'Pa6 Co16 Si7'
_cell_volume   400.14854111
_cell_formula_units_Z   1
loop_
 _symmetry_equiv_pos_site_id
 _symmetry_equiv_pos_as_xyz
  1  'x, y, z'
loop_
 _atom_site_type_symbol
 _atom_site_label
 _atom_site_symmetry_multiplicity
 _atom_site_fract_x
 _atom_site_fract_y
 _atom_site_fract_z
 _atom_site_occupancy
  Pa  Pa0  1  0.714603  0.714603  0.285397  1
  Pa  Pa1  1  0.285397  0.714603  0.285397  1
  Pa  Pa2  1  0.714603  0.285397  0.285397  1
  Pa  Pa3  1  0.285397  0.285397  0.714603  1
  Pa  Pa4  1  0.714603  0.285397  0.714603  1
  Pa  Pa5  1  0.285397  0.714603  0.714603  1
  Co  Co6  1  0.878776  0.878776  0.363672  1
  Co  Co7  1  0.878776  0.363672  0.878776  1
  Co  Co8  1  0.363672  0.878776  0.878776  1
  Co  Co9  1  0.878776  0.878776  0.878776  1
  Co  Co10  1  0.121224  0.121224  0.636328  1
  Co  Co11  1  0.121224  0.636328  0.121224  1
  Co  Co12  1  0.636328  0.121224  0.121224  1
  Co  Co13  1  0.121224  0.121224  0.121224  1
  Co  Co14  1  0.666128  0.666128  0.001617  1
  Co  Co15  1  0.666128  0.001617  0.666128  1
  Co  Co16  1  0.001617  0.666128  0.666128  1
  Co  Co17  1  0.666128  0.666128  0.666128  1
  Co  Co18  1  0.333872  0.333872  0.998383  1
  Co  Co19  1  0.333872  0.998383  0.333872  1
  Co  Co20  1  0.998383  0.333872  0.333872  1
  Co  Co21  1  0.333872  0.333872  0.333872  1
  Si  Si22  1  0.000000  0.000000  0.000000  1
  Si  Si23  1  0.000000  0.000000  0.500000  1
  Si  Si24  1  0.500000  0.000000  0.500000  1
  Si  Si25  1  0.000000  0.500000  0.500000  1
  Si  Si26  1  0.500000  0.500000  0.000000  1
  Si  Si27  1  0.000000  0.500000  0.000000  1
  Si  Si28  1  0.500000  0.000000  0.000000  1
