# generated using pymatgen
data_BaVBiO5
_symmetry_space_group_name_H-M   'P 1'
_cell_length_a   7.45073844
_cell_length_b   7.36591308
_cell_length_c   6.27762221
_cell_angle_alpha   110.01774952
_cell_angle_beta   102.11552733
_cell_angle_gamma   105.63845253
_symmetry_Int_Tables_number   1
_chemical_formula_structural   BaVBiO5
_chemical_formula_sum   'Ba2 V2 Bi2 O10'
_cell_volume   293.83214576
_cell_formula_units_Z   2
loop_
 _symmetry_equiv_pos_site_id
 _symmetry_equiv_pos_as_xyz
  1  'x, y, z'
loop_
 _atom_site_type_symbol
 _atom_site_label
 _atom_site_symmetry_multiplicity
 _atom_site_fract_x
 _atom_site_fract_y
 _atom_site_fract_z
 _atom_site_occupancy
  Ba  Ba0  1  0.378172  0.166518  0.310648  1
  Ba  Ba1  1  0.621827  0.833484  0.689356  1
  V  V2  1  0.844937  0.137514  0.325033  1
  V  V3  1  0.155064  0.862490  0.674968  1
  Bi  Bi4  1  0.747474  0.542461  0.109957  1
  Bi  Bi5  1  0.252524  0.457539  0.890040  1
  O  O6  1  0.827251  0.885180  0.147727  1
  O  O7  1  0.709004  0.208753  0.122545  1
  O  O8  1  0.499918  0.532155  0.229297  1
  O  O9  1  0.270343  0.863344  0.466265  1
  O  O10  1  0.094545  0.301875  0.464508  1
  O  O11  1  0.905451  0.698123  0.535486  1
  O  O12  1  0.729660  0.136659  0.533740  1
  O  O13  1  0.500081  0.467844  0.770700  1
  O  O14  1  0.291001  0.791247  0.877459  1
  O  O15  1  0.172751  0.114817  0.852271  1
