# generated using pymatgen
data_RbLi(TaBr3)3
_symmetry_space_group_name_H-M   'P 1'
_cell_length_a   10.00791350
_cell_length_b   10.04446492
_cell_length_c   10.09097406
_cell_angle_alpha   119.40631566
_cell_angle_beta   105.03187952
_cell_angle_gamma   96.74244605
_symmetry_Int_Tables_number   1
_chemical_formula_structural   RbLi(TaBr3)3
_chemical_formula_sum   'Rb2 Li2 Ta6 Br18'
_cell_volume   816.54464656
_cell_formula_units_Z   2
loop_
 _symmetry_equiv_pos_site_id
 _symmetry_equiv_pos_as_xyz
  1  'x, y, z'
loop_
 _atom_site_type_symbol
 _atom_site_label
 _atom_site_symmetry_multiplicity
 _atom_site_fract_x
 _atom_site_fract_y
 _atom_site_fract_z
 _atom_site_occupancy
  Rb  Rb0  1  0.337290  0.267068  0.480775  1
  Rb  Rb1  1  0.662710  0.732932  0.519225  1
  Li  Li2  1  0.617920  0.046542  0.187488  1
  Li  Li3  1  0.382080  0.953458  0.812512  1
  Ta  Ta4  1  0.131104  0.567210  0.231325  1
  Ta  Ta5  1  0.868896  0.432790  0.768675  1
  Ta  Ta6  1  0.123180  0.354258  0.898979  1
  Ta  Ta7  1  0.866926  0.312422  0.979903  1
  Ta  Ta8  1  0.876820  0.645742  0.101021  1
  Ta  Ta9  1  0.133074  0.687578  0.020097  1
  Br  Br10  1  0.003475  0.649969  0.737449  1
  Br  Br11  1  0.684031  0.598294  0.836736  1
  Br  Br12  1  0.328468  0.957750  0.055531  1
  Br  Br13  1  0.987791  0.085475  0.852009  1
  Br  Br14  1  0.010666  0.763204  0.411890  1
  Br  Br15  1  0.678914  0.337827  0.444943  1
  Br  Br16  1  0.318853  0.554952  0.903618  1
  Br  Br17  1  0.315969  0.401706  0.163264  1
  Br  Br18  1  0.293900  0.156613  0.757489  1
  Br  Br19  1  0.996525  0.350031  0.262551  1
  Br  Br20  1  0.681147  0.445048  0.096382  1
  Br  Br21  1  0.671618  0.180086  0.685555  1
  Br  Br22  1  0.706100  0.843387  0.242511  1
  Br  Br23  1  0.012209  0.914525  0.147991  1
  Br  Br24  1  0.989334  0.236796  0.588110  1
  Br  Br25  1  0.321086  0.662173  0.555057  1
  Br  Br26  1  0.671532  0.042250  0.944469  1
  Br  Br27  1  0.328382  0.819914  0.314445  1
