# generated using pymatgen
data_K5RbCa6Al12F54
_symmetry_space_group_name_H-M   'P 1'
_cell_length_a   7.26213048
_cell_length_b   7.26213064
_cell_length_c   23.04271751
_cell_angle_alpha   90.03596603
_cell_angle_beta   90.03596482
_cell_angle_gamma   119.74329768
_symmetry_Int_Tables_number   1
_chemical_formula_structural   K5RbCa6Al12F54
_chemical_formula_sum   'K5 Rb1 Ca6 Al12 F54'
_cell_volume   1055.13901508
_cell_formula_units_Z   1
loop_
 _symmetry_equiv_pos_site_id
 _symmetry_equiv_pos_as_xyz
  1  'x, y, z'
loop_
 _atom_site_type_symbol
 _atom_site_label
 _atom_site_symmetry_multiplicity
 _atom_site_fract_x
 _atom_site_fract_y
 _atom_site_fract_z
 _atom_site_occupancy
  K  K0  1  0.964445  0.006880  0.083003  1
  K  K1  1  0.989128  0.010872  0.750000  1
  K  K2  1  0.006590  0.964381  0.916538  1
  K  K3  1  0.993120  0.035555  0.416997  1
  K  K4  1  0.035619  0.993410  0.583462  1
  Rb  Rb5  1  0.010185  0.989815  0.250000  1
  Ca  Ca6  1  0.500208  0.988090  0.833381  1
  Ca  Ca7  1  0.515532  0.515354  0.500233  1
  Ca  Ca8  1  0.987834  0.500510  0.166135  1
  Ca  Ca9  1  0.484646  0.484468  0.999767  1
  Ca  Ca10  1  0.011910  0.499792  0.666619  1
  Ca  Ca11  1  0.499490  0.012166  0.333865  1
  Al  Al12  1  0.001454  0.484191  0.836261  1
  Al  Al13  1  0.520337  0.017427  0.503274  1
  Al  Al14  1  0.982573  0.479663  0.996726  1
  Al  Al15  1  0.484934  0.001790  0.163379  1
  Al  Al16  1  0.496170  0.512445  0.330688  1
  Al  Al17  1  0.998210  0.515066  0.336621  1
  Al  Al18  1  0.479587  0.982491  0.003078  1
  Al  Al19  1  0.017509  0.520413  0.496922  1
  Al  Al20  1  0.487555  0.503830  0.169312  1
  Al  Al21  1  0.512574  0.496836  0.669904  1
  Al  Al22  1  0.503164  0.487426  0.830096  1
  Al  Al23  1  0.515809  0.998546  0.663739  1
  F  F24  1  0.461260  0.522691  0.092629  1
  F  F25  1  0.227039  0.337031  0.665489  1
  F  F26  1  0.797079  0.658887  0.677918  1
  F  F27  1  0.521857  0.460585  0.906687  1
  F  F28  1  0.246757  0.714456  0.010745  1
  F  F29  1  0.417046  0.967978  0.926755  1
  F  F30  1  0.486373  0.513627  0.750000  1
  F  F31  1  0.885327  0.670777  0.482876  1
  F  F32  1  0.477309  0.538740  0.407371  1
  F  F33  1  0.203527  0.346351  0.176298  1
  F  F34  1  0.795699  0.131627  0.647521  1
  F  F35  1  0.539415  0.478143  0.593313  1
  F  F36  1  0.753279  0.285732  0.510904  1
  F  F37  1  0.639868  0.858391  0.992980  1
  F  F38  1  0.268822  0.518032  0.844207  1
  F  F39  1  0.006663  0.462624  0.416745  1
  F  F40  1  0.732883  0.485921  0.344195  1
  F  F41  1  0.582901  0.031934  0.427105  1
  F  F42  1  0.233337  0.872759  0.675654  1
  F  F43  1  0.513148  0.486852  0.250000  1
  F  F44  1  0.514079  0.267117  0.155805  1
  F  F45  1  0.670895  0.885356  0.517241  1
  F  F46  1  0.127241  0.766663  0.824346  1
  F  F47  1  0.987755  0.567077  0.260360  1
  F  F48  1  0.738805  0.456521  0.821766  1
  F  F49  1  0.868373  0.204301  0.852479  1
  F  F50  1  0.481968  0.731178  0.655793  1
  F  F51  1  0.653649  0.796473  0.323702  1
  F  F52  1  0.772542  0.659780  0.164208  1
  F  F53  1  0.869946  0.232491  0.325493  1
  F  F54  1  0.543479  0.261195  0.678234  1
  F  F55  1  0.285544  0.753243  0.489255  1
  F  F56  1  0.714268  0.246721  0.989096  1
  F  F57  1  0.132619  0.794967  0.352852  1
  F  F58  1  0.968066  0.417099  0.072895  1
  F  F59  1  0.993382  0.537361  0.916449  1
  F  F60  1  0.329223  0.114673  0.017124  1
  F  F61  1  0.462639  0.006618  0.583551  1
  F  F62  1  0.032022  0.582954  0.573245  1
  F  F63  1  0.011803  0.427908  0.760302  1
  F  F64  1  0.767509  0.130054  0.174507  1
  F  F65  1  0.662969  0.772961  0.834511  1
  F  F66  1  0.360069  0.141520  0.493117  1
  F  F67  1  0.340220  0.227458  0.335792  1
  F  F68  1  0.858480  0.639931  0.006883  1
  F  F69  1  0.460568  0.741076  0.178053  1
  F  F70  1  0.341113  0.202921  0.822082  1
  F  F71  1  0.114644  0.329105  0.982759  1
  F  F72  1  0.141609  0.360132  0.507020  1
  F  F73  1  0.205033  0.867381  0.147148  1
  F  F74  1  0.432923  0.012245  0.239640  1
  F  F75  1  0.572092  0.988197  0.739698  1
  F  F76  1  0.537376  0.993337  0.083255  1
  F  F77  1  0.258924  0.539432  0.321947  1
