# generated using pymatgen
data_UPaCo2(NiP2)2
_symmetry_space_group_name_H-M   'P 1'
_cell_length_a   4.00140300
_cell_length_b   4.00140300
_cell_length_c   8.87078200
_cell_angle_alpha   90.00000000
_cell_angle_beta   90.00000000
_cell_angle_gamma   90.00000000
_symmetry_Int_Tables_number   1
_chemical_formula_structural   UPaCo2(NiP2)2
_chemical_formula_sum   'U1 Pa1 Co2 Ni2 P4'
_cell_volume   142.03209512
_cell_formula_units_Z   1
loop_
 _symmetry_equiv_pos_site_id
 _symmetry_equiv_pos_as_xyz
  1  'x, y, z'
loop_
 _atom_site_type_symbol
 _atom_site_label
 _atom_site_symmetry_multiplicity
 _atom_site_fract_x
 _atom_site_fract_y
 _atom_site_fract_z
 _atom_site_occupancy
  U  U0  1  0.000000  0.500000  0.752811  1
  Pa  Pa1  1  0.500000  0.000000  0.246522  1
  Co  Co2  1  0.000000  0.500000  0.111198  1
  Co  Co3  1  0.500000  0.000000  0.891503  1
  Ni  Ni4  1  0.000000  0.000000  0.499509  1
  Ni  Ni5  1  0.500000  0.500000  0.499509  1
  P  P6  1  0.000000  0.500000  0.365537  1
  P  P7  1  0.500000  0.500000  0.997675  1
  P  P8  1  0.500000  0.000000  0.638064  1
  P  P9  1  0.000000  0.000000  0.997675  1
