# generated using pymatgen
data_Ta12Mn11FeN4
_symmetry_space_group_name_H-M   'P 1'
_cell_length_a   8.02078237
_cell_length_b   8.02078290
_cell_length_c   8.02078162
_cell_angle_alpha   59.94779569
_cell_angle_beta   59.94778946
_cell_angle_gamma   59.94780200
_symmetry_Int_Tables_number   1
_chemical_formula_structural   Ta12Mn11FeN4
_chemical_formula_sum   'Ta12 Mn11 Fe1 N4'
_cell_volume   364.43550678
_cell_formula_units_Z   1
loop_
 _symmetry_equiv_pos_site_id
 _symmetry_equiv_pos_as_xyz
  1  'x, y, z'
loop_
 _atom_site_type_symbol
 _atom_site_label
 _atom_site_symmetry_multiplicity
 _atom_site_fract_x
 _atom_site_fract_y
 _atom_site_fract_z
 _atom_site_occupancy
  Ta  Ta0  1  0.803375  0.803375  0.196816  1
  Ta  Ta1  1  0.195384  0.195384  0.804242  1
  Ta  Ta2  1  0.803375  0.196816  0.803375  1
  Ta  Ta3  1  0.195384  0.804242  0.195384  1
  Ta  Ta4  1  0.196816  0.803375  0.803375  1
  Ta  Ta5  1  0.804242  0.195384  0.195384  1
  Ta  Ta6  1  0.445539  0.445539  0.054283  1
  Ta  Ta7  1  0.053631  0.053631  0.445980  1
  Ta  Ta8  1  0.445539  0.054283  0.445539  1
  Ta  Ta9  1  0.053631  0.445980  0.053631  1
  Ta  Ta10  1  0.054283  0.445539  0.445539  1
  Ta  Ta11  1  0.445980  0.053631  0.053631  1
  Mn  Mn12  1  0.125463  0.624053  0.624053  1
  Mn  Mn13  1  0.624053  0.125463  0.624053  1
  Mn  Mn14  1  0.624053  0.624053  0.125463  1
  Mn  Mn15  1  0.625231  0.625231  0.625231  1
  Mn  Mn16  1  0.733148  0.422381  0.422381  1
  Mn  Mn17  1  0.422381  0.733148  0.422381  1
  Mn  Mn18  1  0.422381  0.422381  0.733148  1
  Mn  Mn19  1  0.422972  0.422972  0.422972  1
  Mn  Mn20  1  0.521298  0.826801  0.826801  1
  Mn  Mn21  1  0.826801  0.521298  0.826801  1
  Mn  Mn22  1  0.826801  0.826801  0.521298  1
  Fe  Fe23  1  0.828815  0.828815  0.828815  1
  N  N24  1  0.625022  0.124637  0.124637  1
  N  N25  1  0.124637  0.625022  0.124637  1
  N  N26  1  0.124637  0.124637  0.625022  1
  N  N27  1  0.125129  0.125129  0.125129  1
