# generated using pymatgen
data_K3RbNb11Al2O20F
_symmetry_space_group_name_H-M   'P 1'
_cell_length_a   8.99270417
_cell_length_b   8.99270433
_cell_length_c   8.99270400
_cell_angle_alpha   120.62409008
_cell_angle_beta   120.62409069
_cell_angle_gamma   88.92239915
_symmetry_Int_Tables_number   1
_chemical_formula_structural   K3RbNb11Al2O20F
_chemical_formula_sum   'K3 Rb1 Nb11 Al2 O20 F1'
_cell_volume   509.27977761
_cell_formula_units_Z   1
loop_
 _symmetry_equiv_pos_site_id
 _symmetry_equiv_pos_as_xyz
  1  'x, y, z'
loop_
 _atom_site_type_symbol
 _atom_site_label
 _atom_site_symmetry_multiplicity
 _atom_site_fract_x
 _atom_site_fract_y
 _atom_site_fract_z
 _atom_site_occupancy
  K  K0  1  0.499779  0.192739  0.692518  1
  K  K1  1  0.499779  0.807261  0.307040  1
  K  K2  1  0.193541  0.500000  0.693541  1
  Rb  Rb3  1  0.811393  0.500000  0.311393  1
  Nb  Nb4  1  0.999069  0.676199  0.000048  1
  Nb  Nb5  1  0.676008  0.998651  0.999756  1
  Nb  Nb6  1  0.676008  0.676253  0.677357  1
  Nb  Nb7  1  0.001104  0.001349  0.677357  1
  Nb  Nb8  1  0.999069  0.999021  0.322871  1
  Nb  Nb9  1  0.323850  0.323801  0.322871  1
  Nb  Nb10  1  0.323850  0.000979  0.000048  1
  Nb  Nb11  1  0.000133  0.000000  0.000133  1
  Nb  Nb12  1  0.684736  0.684982  0.999754  1
  Nb  Nb13  1  0.314772  0.315018  0.999754  1
  Nb  Nb14  1  0.001104  0.323747  0.999756  1
  Al  Al15  1  0.749976  0.249765  0.500211  1
  Al  Al16  1  0.250445  0.750235  0.500211  1
  O  O17  1  0.159655  0.490417  0.999885  1
  O  O18  1  0.840174  0.509456  0.998825  1
  O  O19  1  0.167130  0.828233  0.661608  1
  O  O20  1  0.167130  0.505522  0.338897  1
  O  O21  1  0.159655  0.159771  0.669239  1
  O  O22  1  0.509468  0.509583  0.669239  1
  O  O23  1  0.830106  0.831458  0.661563  1
  O  O24  1  0.169855  0.830036  0.999890  1
  O  O25  1  0.509468  0.840229  0.999885  1
  O  O26  1  0.830106  0.168542  0.998648  1
  O  O27  1  0.489369  0.158651  0.998825  1
  O  O28  1  0.169855  0.169964  0.339820  1
  O  O29  1  0.833375  0.494478  0.661608  1
  O  O30  1  0.489369  0.490544  0.330719  1
  O  O31  1  0.840174  0.841349  0.330719  1
  O  O32  1  0.505439  0.166311  0.339128  1
  O  O33  1  0.833375  0.171767  0.338897  1
  O  O34  1  0.827280  0.166231  0.661050  1
  O  O35  1  0.494819  0.833769  0.661050  1
  O  O36  1  0.172817  0.833689  0.339128  1
  F  F37  1  0.496762  0.500000  0.996762  1
