# generated using pymatgen
data_Cs4K2YInBi4
_symmetry_space_group_name_H-M   'P 1'
_cell_length_a   10.62855072
_cell_length_b   10.62854939
_cell_length_c   10.62855097
_cell_angle_alpha   133.62544752
_cell_angle_beta   137.70542066
_cell_angle_gamma   64.55554964
_symmetry_Int_Tables_number   1
_chemical_formula_structural   Cs4K2YInBi4
_chemical_formula_sum   'Cs4 K2 Y1 In1 Bi4'
_cell_volume   576.78420134
_cell_formula_units_Z   1
loop_
 _symmetry_equiv_pos_site_id
 _symmetry_equiv_pos_as_xyz
  1  'x, y, z'
loop_
 _atom_site_type_symbol
 _atom_site_label
 _atom_site_symmetry_multiplicity
 _atom_site_fract_x
 _atom_site_fract_y
 _atom_site_fract_z
 _atom_site_occupancy
  Cs  Cs0  1  0.685952  0.436580  0.768074  1
  Cs  Cs1  1  0.814048  0.082121  0.250628  1
  Cs  Cs2  1  0.168506  0.917879  0.731926  1
  Cs  Cs3  1  0.331494  0.563420  0.249372  1
  K  K4  1  0.750000  0.000000  0.750000  1
  K  K5  1  0.250000  0.000000  0.250000  1
  Y  Y6  1  0.250000  0.500000  0.750000  1
  In  In7  1  0.750000  0.500000  0.250000  1
  Bi  Bi8  1  0.405783  0.198491  0.802420  1
  Bi  Bi9  1  0.603929  0.801509  0.207292  1
  Bi  Bi10  1  0.094217  0.396638  0.292708  1
  Bi  Bi11  1  0.896071  0.603362  0.697580  1
