# generated using pymatgen
data_Ho2TmThMgRu
_symmetry_space_group_name_H-M   'P 1'
_cell_length_a   9.70366121
_cell_length_b   9.70366042
_cell_length_c   9.70628500
_cell_angle_alpha   59.99104901
_cell_angle_beta   59.99105171
_cell_angle_gamma   60.01789251
_symmetry_Int_Tables_number   1
_chemical_formula_structural   Ho2TmThMgRu
_chemical_formula_sum   'Ho8 Tm4 Th4 Mg4 Ru4'
_cell_volume   646.26281942
_cell_formula_units_Z   4
loop_
 _symmetry_equiv_pos_site_id
 _symmetry_equiv_pos_as_xyz
  1  'x, y, z'
loop_
 _atom_site_type_symbol
 _atom_site_label
 _atom_site_symmetry_multiplicity
 _atom_site_fract_x
 _atom_site_fract_y
 _atom_site_fract_z
 _atom_site_occupancy
  Ho  Ho0  1  0.185790  0.185790  0.814210  1
  Ho  Ho1  1  0.814210  0.814210  0.185790  1
  Ho  Ho2  1  0.935136  0.564864  0.564864  1
  Ho  Ho3  1  0.564864  0.935136  0.935136  1
  Ho  Ho4  1  0.564864  0.935136  0.564864  1
  Ho  Ho5  1  0.935136  0.564864  0.935136  1
  Ho  Ho6  1  0.564823  0.564823  0.935177  1
  Ho  Ho7  1  0.935177  0.935177  0.564823  1
  Tm  Tm8  1  0.814076  0.185924  0.185924  1
  Tm  Tm9  1  0.185924  0.814076  0.814076  1
  Tm  Tm10  1  0.185924  0.814076  0.185924  1
  Tm  Tm11  1  0.814076  0.185924  0.814076  1
  Th  Th12  1  0.346765  0.346765  0.346379  1
  Th  Th13  1  0.346765  0.346765  0.960090  1
  Th  Th14  1  0.346379  0.960090  0.346765  1
  Th  Th15  1  0.960090  0.346379  0.346765  1
  Mg  Mg16  1  0.579852  0.579852  0.580024  1
  Mg  Mg17  1  0.579852  0.579852  0.260273  1
  Mg  Mg18  1  0.580024  0.260273  0.579852  1
  Mg  Mg19  1  0.260273  0.580024  0.579852  1
  Ru  Ru20  1  0.142943  0.142943  0.143474  1
  Ru  Ru21  1  0.142943  0.142943  0.570639  1
  Ru  Ru22  1  0.143474  0.570639  0.142943  1
  Ru  Ru23  1  0.570639  0.143474  0.142943  1
