# generated using pymatgen
data_Li2NpSe3
_symmetry_space_group_name_H-M   'P 1'
_cell_length_a   6.97853439
_cell_length_b   6.97853370
_cell_length_c   6.80905362
_cell_angle_alpha   80.17172658
_cell_angle_beta   80.17173182
_cell_angle_gamma   119.99343918
_symmetry_Int_Tables_number   1
_chemical_formula_structural   Li2NpSe3
_chemical_formula_sum   'Li4 Np2 Se6'
_cell_volume   269.94273000
_cell_formula_units_Z   2
loop_
 _symmetry_equiv_pos_site_id
 _symmetry_equiv_pos_as_xyz
  1  'x, y, z'
loop_
 _atom_site_type_symbol
 _atom_site_label
 _atom_site_symmetry_multiplicity
 _atom_site_fract_x
 _atom_site_fract_y
 _atom_site_fract_z
 _atom_site_occupancy
  Li  Li0  1  0.000000  0.000000  0.000000  1
  Li  Li1  1  0.500000  0.500000  0.500000  1
  Li  Li2  1  0.834114  0.165886  0.500000  1
  Li  Li3  1  0.165886  0.834114  0.500000  1
  Np  Np4  1  0.666608  0.333392  0.000000  1
  Np  Np5  1  0.333392  0.666608  0.000000  1
  Se  Se6  1  0.256194  0.256194  0.253689  1
  Se  Se7  1  0.422977  0.083532  0.749841  1
  Se  Se8  1  0.083532  0.422977  0.749841  1
  Se  Se9  1  0.743806  0.743806  0.746311  1
  Se  Se10  1  0.577023  0.916468  0.250159  1
  Se  Se11  1  0.916468  0.577023  0.250159  1
