# generated using pymatgen
data_Pu4B16Os3Ru
_symmetry_space_group_name_H-M   'P 1'
_cell_length_a   5.99946202
_cell_length_b   11.62711305
_cell_length_c   3.54120900
_cell_angle_alpha   90.00000000
_cell_angle_beta   90.00000000
_cell_angle_gamma   89.98982431
_symmetry_Int_Tables_number   1
_chemical_formula_structural   Pu4B16Os3Ru
_chemical_formula_sum   'Pu4 B16 Os3 Ru1'
_cell_volume   247.02206962
_cell_formula_units_Z   1
loop_
 _symmetry_equiv_pos_site_id
 _symmetry_equiv_pos_as_xyz
  1  'x, y, z'
loop_
 _atom_site_type_symbol
 _atom_site_label
 _atom_site_symmetry_multiplicity
 _atom_site_fract_x
 _atom_site_fract_y
 _atom_site_fract_z
 _atom_site_occupancy
  Pu  Pu0  1  0.626601  0.350034  0.000000  1
  Pu  Pu1  1  0.373098  0.650036  0.000000  1
  Pu  Pu2  1  0.126978  0.149711  0.000000  1
  Pu  Pu3  1  0.873209  0.850312  0.000000  1
  B  B4  1  0.786039  0.186644  0.500000  1
  B  B5  1  0.213790  0.813230  0.500000  1
  B  B6  1  0.286293  0.313101  0.500000  1
  B  B7  1  0.713565  0.686913  0.500000  1
  B  B8  1  0.864559  0.031379  0.500000  1
  B  B9  1  0.135477  0.968601  0.500000  1
  B  B10  1  0.364514  0.468772  0.500000  1
  B  B11  1  0.635472  0.531268  0.500000  1
  B  B12  1  0.885802  0.453292  0.500000  1
  B  B13  1  0.114237  0.546763  0.500000  1
  B  B14  1  0.385960  0.046491  0.500000  1
  B  B15  1  0.613860  0.953258  0.500000  1
  B  B16  1  0.971899  0.308375  0.500000  1
  B  B17  1  0.028040  0.691562  0.500000  1
  B  B18  1  0.472544  0.191634  0.500000  1
  B  B19  1  0.527747  0.808391  0.500000  1
  Os  Os20  1  0.362693  0.907776  0.000000  1
  Os  Os21  1  0.138342  0.407666  0.000000  1
  Os  Os22  1  0.861762  0.592622  0.000000  1
  Ru  Ru23  1  0.637519  0.092171  0.000000  1
