# generated using pymatgen
data_PmThCd4
_symmetry_space_group_name_H-M   'P 1'
_cell_length_a   5.06655900
_cell_length_b   5.06655905
_cell_length_c   7.04586400
_cell_angle_alpha   90.00000000
_cell_angle_beta   90.00000000
_cell_angle_gamma   120.00001924
_symmetry_Int_Tables_number   1
_chemical_formula_structural   PmThCd4
_chemical_formula_sum   'Pm1 Th1 Cd4'
_cell_volume   156.63579548
_cell_formula_units_Z   1
loop_
 _symmetry_equiv_pos_site_id
 _symmetry_equiv_pos_as_xyz
  1  'x, y, z'
loop_
 _atom_site_type_symbol
 _atom_site_label
 _atom_site_symmetry_multiplicity
 _atom_site_fract_x
 _atom_site_fract_y
 _atom_site_fract_z
 _atom_site_occupancy
  Pm  Pm0  1  0.000000  0.000000  0.500000  1
  Th  Th1  1  0.000000  0.000000  0.000000  1
  Cd  Cd2  1  0.666666  0.333332  0.249543  1
  Cd  Cd3  1  0.333333  0.666667  0.249543  1
  Cd  Cd4  1  0.666666  0.333332  0.750457  1
  Cd  Cd5  1  0.333333  0.666667  0.750457  1
