# generated using pymatgen
data_Li8Dy5Er3Sn7Sb
_symmetry_space_group_name_H-M   'P 1'
_cell_length_a   9.38115100
_cell_length_b   9.38098425
_cell_length_c   7.28852400
_cell_angle_alpha   90.07485539
_cell_angle_beta   90.00000000
_cell_angle_gamma   120.00059154
_symmetry_Int_Tables_number   1
_chemical_formula_structural   Li8Dy5Er3Sn7Sb
_chemical_formula_sum   'Li8 Dy5 Er3 Sn7 Sb1'
_cell_volume   555.48414832
_cell_formula_units_Z   1
loop_
 _symmetry_equiv_pos_site_id
 _symmetry_equiv_pos_as_xyz
  1  'x, y, z'
loop_
 _atom_site_type_symbol
 _atom_site_label
 _atom_site_symmetry_multiplicity
 _atom_site_fract_x
 _atom_site_fract_y
 _atom_site_fract_z
 _atom_site_occupancy
  Li  Li0  1  0.166792  0.333584  0.288735  1
  Li  Li1  1  0.166964  0.833138  0.289203  1
  Li  Li2  1  0.666173  0.833138  0.289203  1
  Li  Li3  1  0.833283  0.666566  0.788206  1
  Li  Li4  1  0.832386  0.166347  0.789253  1
  Li  Li5  1  0.333959  0.166347  0.789253  1
  Li  Li6  1  0.333672  0.667344  0.669011  1
  Li  Li7  1  0.666672  0.333343  0.170450  1
  Dy  Dy8  1  0.487667  0.975335  0.994468  1
  Dy  Dy9  1  0.489807  0.512795  0.995232  1
  Dy  Dy10  1  0.022987  0.512795  0.995232  1
  Dy  Dy11  1  0.998939  0.997878  0.498632  1
  Dy  Dy12  1  0.999012  0.998023  0.001593  1
  Er  Er13  1  0.512587  0.025173  0.493870  1
  Er  Er14  1  0.515310  0.489422  0.491752  1
  Er  Er15  1  0.974113  0.489422  0.491752  1
  Sn  Sn16  1  0.166640  0.832654  0.729535  1
  Sn  Sn17  1  0.666014  0.832654  0.729535  1
  Sn  Sn18  1  0.833137  0.666274  0.230918  1
  Sn  Sn19  1  0.833623  0.167352  0.230541  1
  Sn  Sn20  1  0.333728  0.167352  0.230541  1
  Sn  Sn21  1  0.332831  0.665664  0.261985  1
  Sn  Sn22  1  0.666872  0.333745  0.761367  1
  Sb  Sb23  1  0.166828  0.333657  0.731728  1
