# generated using pymatgen
data_La2Sc3Pb4
_symmetry_space_group_name_H-M   'P 1'
_cell_length_a   8.11460900
_cell_length_b   8.20778700
_cell_length_c   15.42439100
_cell_angle_alpha   90.00000000
_cell_angle_beta   90.00000000
_cell_angle_gamma   90.00000000
_symmetry_Int_Tables_number   1
_chemical_formula_structural   La2Sc3Pb4
_chemical_formula_sum   'La8 Sc12 Pb16'
_cell_volume   1027.31044015
_cell_formula_units_Z   4
loop_
 _symmetry_equiv_pos_site_id
 _symmetry_equiv_pos_as_xyz
  1  'x, y, z'
loop_
 _atom_site_type_symbol
 _atom_site_label
 _atom_site_symmetry_multiplicity
 _atom_site_fract_x
 _atom_site_fract_y
 _atom_site_fract_z
 _atom_site_occupancy
  La  La0  1  0.019602  0.175325  0.094814  1
  La  La1  1  0.519602  0.324675  0.405186  1
  La  La2  1  0.480398  0.675325  0.905186  1
  La  La3  1  0.980398  0.824675  0.594814  1
  La  La4  1  0.980398  0.824675  0.905186  1
  La  La5  1  0.480398  0.675325  0.594814  1
  La  La6  1  0.519602  0.324675  0.094814  1
  La  La7  1  0.019602  0.175325  0.405186  1
  Sc  Sc8  1  0.857835  0.656249  0.125621  1
  Sc  Sc9  1  0.357835  0.843751  0.374379  1
  Sc  Sc10  1  0.642165  0.156249  0.874379  1
  Sc  Sc11  1  0.142165  0.343751  0.625621  1
  Sc  Sc12  1  0.142165  0.343751  0.874379  1
  Sc  Sc13  1  0.642165  0.156249  0.625621  1
  Sc  Sc14  1  0.357835  0.843751  0.125621  1
  Sc  Sc15  1  0.857835  0.656249  0.374379  1
  Sc  Sc16  1  0.692104  0.992315  0.250000  1
  Sc  Sc17  1  0.192104  0.507685  0.250000  1
  Sc  Sc18  1  0.807896  0.492315  0.750000  1
  Sc  Sc19  1  0.307896  0.007685  0.750000  1
  Pb  Pb20  1  0.052008  0.861455  0.250000  1
  Pb  Pb21  1  0.552008  0.638545  0.250000  1
  Pb  Pb22  1  0.447992  0.361455  0.750000  1
  Pb  Pb23  1  0.947992  0.138545  0.750000  1
  Pb  Pb24  1  0.832462  0.355465  0.250000  1
  Pb  Pb25  1  0.332462  0.144535  0.250000  1
  Pb  Pb26  1  0.667538  0.855465  0.750000  1
  Pb  Pb27  1  0.167538  0.644535  0.750000  1
  Pb  Pb28  1  0.808621  0.451353  0.953881  1
  Pb  Pb29  1  0.308621  0.048647  0.546119  1
  Pb  Pb30  1  0.691379  0.951353  0.046119  1
  Pb  Pb31  1  0.191379  0.548647  0.453881  1
  Pb  Pb32  1  0.191379  0.548647  0.046119  1
  Pb  Pb33  1  0.691379  0.951353  0.453881  1
  Pb  Pb34  1  0.308621  0.048647  0.953881  1
  Pb  Pb35  1  0.808621  0.451353  0.546119  1
