# generated using pymatgen
data_Ho5ZnIn4Ir
_symmetry_space_group_name_H-M   'P 1'
_cell_length_a   3.62065000
_cell_length_b   8.16463429
_cell_length_c   18.23950514
_cell_angle_alpha   89.45512997
_cell_angle_beta   90.00000000
_cell_angle_gamma   90.00000000
_symmetry_Int_Tables_number   1
_chemical_formula_structural   Ho5ZnIn4Ir
_chemical_formula_sum   'Ho10 Zn2 In8 Ir2'
_cell_volume   539.15879547
_cell_formula_units_Z   2
loop_
 _symmetry_equiv_pos_site_id
 _symmetry_equiv_pos_as_xyz
  1  'x, y, z'
loop_
 _atom_site_type_symbol
 _atom_site_label
 _atom_site_symmetry_multiplicity
 _atom_site_fract_x
 _atom_site_fract_y
 _atom_site_fract_z
 _atom_site_occupancy
  Ho  Ho0  1  0.000000  0.500000  0.500000  1
  Ho  Ho1  1  0.000000  0.000000  0.000000  1
  Ho  Ho2  1  0.000000  0.716769  0.276990  1
  Ho  Ho3  1  0.000000  0.283231  0.723010  1
  Ho  Ho4  1  0.000000  0.740543  0.782102  1
  Ho  Ho5  1  0.000000  0.259457  0.217898  1
  Ho  Ho6  1  0.000000  0.613883  0.085635  1
  Ho  Ho7  1  0.000000  0.386117  0.914365  1
  Ho  Ho8  1  0.000000  0.881344  0.580445  1
  Ho  Ho9  1  0.000000  0.118656  0.419555  1
  Zn  Zn10  1  0.500000  0.981071  0.698612  1
  Zn  Zn11  1  0.500000  0.018929  0.301388  1
  In  In12  1  0.500000  0.708509  0.932634  1
  In  In13  1  0.500000  0.291491  0.067366  1
  In  In14  1  0.500000  0.790699  0.430459  1
  In  In15  1  0.500000  0.209301  0.569541  1
  In  In16  1  0.500000  0.580887  0.647667  1
  In  In17  1  0.500000  0.419113  0.352333  1
  In  In18  1  0.500000  0.919753  0.149815  1
  In  In19  1  0.500000  0.080247  0.850185  1
  Ir  Ir20  1  0.500000  0.520985  0.196080  1
  Ir  Ir21  1  0.500000  0.479015  0.803920  1
