# generated using pymatgen
data_Gd3Tm13(InIr)4
_symmetry_space_group_name_H-M   'P 1'
_cell_length_a   9.60093739
_cell_length_b   9.58693233
_cell_length_c   9.61058500
_cell_angle_alpha   59.34418430
_cell_angle_beta   59.31720090
_cell_angle_gamma   59.28284331
_symmetry_Int_Tables_number   1
_chemical_formula_structural   Gd3Tm13(InIr)4
_chemical_formula_sum   'Gd3 Tm13 In4 Ir4'
_cell_volume   615.74174460
_cell_formula_units_Z   1
loop_
 _symmetry_equiv_pos_site_id
 _symmetry_equiv_pos_as_xyz
  1  'x, y, z'
loop_
 _atom_site_type_symbol
 _atom_site_label
 _atom_site_symmetry_multiplicity
 _atom_site_fract_x
 _atom_site_fract_y
 _atom_site_fract_z
 _atom_site_occupancy
  Gd  Gd0  1  0.059692  0.060044  0.440509  1
  Gd  Gd1  1  0.436353  0.065556  0.435187  1
  Gd  Gd2  1  0.064581  0.437382  0.063264  1
  Tm  Tm3  1  0.045767  0.649247  0.653426  1
  Tm  Tm4  1  0.441955  0.442628  0.057549  1
  Tm  Tm5  1  0.649663  0.045425  0.648338  1
  Tm  Tm6  1  0.193014  0.809749  0.192068  1
  Tm  Tm7  1  0.191525  0.191342  0.811504  1
  Tm  Tm8  1  0.810082  0.809574  0.191117  1
  Tm  Tm9  1  0.445370  0.056482  0.054915  1
  Tm  Tm10  1  0.811709  0.190594  0.190557  1
  Tm  Tm11  1  0.055071  0.446239  0.443999  1
  Tm  Tm12  1  0.808095  0.192299  0.809508  1
  Tm  Tm13  1  0.190827  0.809657  0.811328  1
  Tm  Tm14  1  0.652776  0.647743  0.046149  1
  Tm  Tm15  1  0.648096  0.653888  0.650899  1
  In  In16  1  0.415834  0.416947  0.416948  1
  In  In17  1  0.746867  0.418064  0.418507  1
  In  In18  1  0.418477  0.746320  0.415797  1
  In  In19  1  0.418689  0.416163  0.748673  1
  Ir  Ir20  1  0.860646  0.854057  0.422275  1
  Ir  Ir21  1  0.855616  0.861282  0.860365  1
  Ir  Ir22  1  0.422849  0.856360  0.861195  1
  Ir  Ir23  1  0.856450  0.422959  0.855918  1
