# generated using pymatgen
data_Ac3YbZn8
_symmetry_space_group_name_H-M   'P 1'
_cell_length_a   4.70789700
_cell_length_b   7.72103343
_cell_length_c   7.90789661
_cell_angle_alpha   89.85895243
_cell_angle_beta   90.00000000
_cell_angle_gamma   90.00000000
_symmetry_Int_Tables_number   1
_chemical_formula_structural   Ac3YbZn8
_chemical_formula_sum   'Ac3 Yb1 Zn8'
_cell_volume   287.44982732
_cell_formula_units_Z   1
loop_
 _symmetry_equiv_pos_site_id
 _symmetry_equiv_pos_as_xyz
  1  'x, y, z'
loop_
 _atom_site_type_symbol
 _atom_site_label
 _atom_site_symmetry_multiplicity
 _atom_site_fract_x
 _atom_site_fract_y
 _atom_site_fract_z
 _atom_site_occupancy
  Ac  Ac0  1  0.250000  0.499007  0.215663  1
  Ac  Ac1  1  0.750000  0.500850  0.784401  1
  Ac  Ac2  1  0.250000  0.000558  0.291102  1
  Yb  Yb3  1  0.750000  0.999159  0.718515  1
  Zn  Zn4  1  0.250000  0.706887  0.587148  1
  Zn  Zn5  1  0.750000  0.294868  0.424714  1
  Zn  Zn6  1  0.250000  0.190378  0.908116  1
  Zn  Zn7  1  0.750000  0.813807  0.076691  1
  Zn  Zn8  1  0.750000  0.704896  0.422365  1
  Zn  Zn9  1  0.250000  0.293885  0.588180  1
  Zn  Zn10  1  0.750000  0.184192  0.074213  1
  Zn  Zn11  1  0.250000  0.811512  0.908893  1
