# generated using pymatgen
data_Yb7Tc12Ge16Pb
_symmetry_space_group_name_H-M   'P 1'
_cell_length_a   6.90199239
_cell_length_b   6.92934415
_cell_length_c   12.76173100
_cell_angle_alpha   90.19178988
_cell_angle_beta   89.98074089
_cell_angle_gamma   90.05623288
_symmetry_Int_Tables_number   1
_chemical_formula_structural   Yb7Tc12Ge16Pb
_chemical_formula_sum   'Yb7 Tc12 Ge16 Pb1'
_cell_volume   610.34238052
_cell_formula_units_Z   1
loop_
 _symmetry_equiv_pos_site_id
 _symmetry_equiv_pos_as_xyz
  1  'x, y, z'
loop_
 _atom_site_type_symbol
 _atom_site_label
 _atom_site_symmetry_multiplicity
 _atom_site_fract_x
 _atom_site_fract_y
 _atom_site_fract_z
 _atom_site_occupancy
  Yb  Yb0  1  0.484790  0.665401  0.588504  1
  Yb  Yb1  1  0.986420  0.837245  0.911144  1
  Yb  Yb2  1  0.514771  0.336718  0.089050  1
  Yb  Yb3  1  0.013165  0.157644  0.412925  1
  Yb  Yb4  1  0.515499  0.337813  0.410696  1
  Yb  Yb5  1  0.014838  0.164982  0.088524  1
  Yb  Yb6  1  0.484801  0.661265  0.913338  1
  Tc  Tc7  1  0.676194  0.145129  0.628682  1
  Tc  Tc8  1  0.179187  0.354280  0.873918  1
  Tc  Tc9  1  0.326371  0.853542  0.127791  1
  Tc  Tc10  1  0.825155  0.645508  0.369776  1
  Tc  Tc11  1  0.323191  0.851549  0.368283  1
  Tc  Tc12  1  0.824633  0.647700  0.128549  1
  Tc  Tc13  1  0.677555  0.149342  0.871793  1
  Tc  Tc14  1  0.176705  0.352071  0.630461  1
  Tc  Tc15  1  0.829804  0.499929  0.749843  1
  Tc  Tc16  1  0.330362  0.003623  0.750713  1
  Tc  Tc17  1  0.170958  0.501612  0.248890  1
  Tc  Tc18  1  0.671483  0.997707  0.248759  1
  Ge  Ge19  1  0.654019  0.950635  0.445428  1
  Ge  Ge20  1  0.162935  0.551578  0.050482  1
  Ge  Ge21  1  0.338613  0.050836  0.949386  1
  Ge  Ge22  1  0.837806  0.441635  0.548609  1
  Ge  Ge23  1  0.338950  0.053545  0.550223  1
  Ge  Ge24  1  0.838755  0.451303  0.949487  1
  Ge  Ge25  1  0.663378  0.950175  0.049584  1
  Ge  Ge26  1  0.165306  0.544742  0.447648  1
  Ge  Ge27  1  0.477789  0.361590  0.749764  1
  Ge  Ge28  1  0.976481  0.145191  0.754812  1
  Ge  Ge29  1  0.525238  0.638214  0.249930  1
  Ge  Ge30  1  0.024810  0.861743  0.249250  1
  Ge  Ge31  1  0.674029  0.848983  0.754355  1
  Ge  Ge32  1  0.186222  0.650855  0.750780  1
  Ge  Ge33  1  0.317247  0.152279  0.249738  1
  Ge  Ge34  1  0.819050  0.347674  0.250316  1
  Pb  Pb35  1  0.973487  0.835961  0.588566  1
