# generated using pymatgen
data_LiAc4CoSi6
_symmetry_space_group_name_H-M   'P 1'
_cell_length_a   8.39781400
_cell_length_b   8.39781377
_cell_length_c   4.56996500
_cell_angle_alpha   90.00000000
_cell_angle_beta   90.00000000
_cell_angle_gamma   120.00000089
_symmetry_Int_Tables_number   1
_chemical_formula_structural   LiAc4CoSi6
_chemical_formula_sum   'Li1 Ac4 Co1 Si6'
_cell_volume   279.11038312
_cell_formula_units_Z   1
loop_
 _symmetry_equiv_pos_site_id
 _symmetry_equiv_pos_as_xyz
  1  'x, y, z'
loop_
 _atom_site_type_symbol
 _atom_site_label
 _atom_site_symmetry_multiplicity
 _atom_site_fract_x
 _atom_site_fract_y
 _atom_site_fract_z
 _atom_site_occupancy
  Li  Li0  1  0.333333  0.666667  0.500000  1
  Ac  Ac1  1  0.506514  0.493486  0.000000  1
  Ac  Ac2  1  0.986972  0.493486  0.000000  1
  Ac  Ac3  1  0.506514  0.013028  0.000000  1
  Ac  Ac4  1  0.000000  0.000000  0.000000  1
  Co  Co5  1  0.666667  0.333333  0.500000  1
  Si  Si6  1  0.827961  0.655922  0.500000  1
  Si  Si7  1  0.162973  0.837027  0.500000  1
  Si  Si8  1  0.674055  0.837027  0.500000  1
  Si  Si9  1  0.162973  0.325945  0.500000  1
  Si  Si10  1  0.827961  0.172039  0.500000  1
  Si  Si11  1  0.344078  0.172039  0.500000  1
