# generated using pymatgen
data_Sm7Y13Sn16
_symmetry_space_group_name_H-M   'P 1'
_cell_length_a   8.10103594
_cell_length_b   8.25228351
_cell_length_c   15.59002613
_cell_angle_alpha   90.01831468
_cell_angle_beta   90.13526505
_cell_angle_gamma   89.89591133
_symmetry_Int_Tables_number   1
_chemical_formula_structural   Sm7Y13Sn16
_chemical_formula_sum   'Sm7 Y13 Sn16'
_cell_volume   1042.22045773
_cell_formula_units_Z   1
loop_
 _symmetry_equiv_pos_site_id
 _symmetry_equiv_pos_as_xyz
  1  'x, y, z'
loop_
 _atom_site_type_symbol
 _atom_site_label
 _atom_site_symmetry_multiplicity
 _atom_site_fract_x
 _atom_site_fract_y
 _atom_site_fract_z
 _atom_site_occupancy
  Sm  Sm0  1  0.017582  0.179122  0.597592  1
  Sm  Sm1  1  0.482547  0.678849  0.403268  1
  Sm  Sm2  1  0.981928  0.821212  0.096672  1
  Sm  Sm3  1  0.481759  0.678082  0.096498  1
  Sm  Sm4  1  0.982610  0.821124  0.403292  1
  Sm  Sm5  1  0.516956  0.321423  0.596457  1
  Sm  Sm6  1  0.017625  0.179578  0.903106  1
  Y  Y7  1  0.365174  0.836441  0.877477  1
  Y  Y8  1  0.864562  0.663286  0.622777  1
  Y  Y9  1  0.635266  0.163510  0.377453  1
  Y  Y10  1  0.134254  0.336708  0.122053  1
  Y  Y11  1  0.634226  0.163567  0.122244  1
  Y  Y12  1  0.135419  0.336505  0.377586  1
  Y  Y13  1  0.364697  0.836879  0.623136  1
  Y  Y14  1  0.865328  0.662985  0.877786  1
  Y  Y15  1  0.520247  0.322100  0.902340  1
  Y  Y16  1  0.198711  0.501688  0.750756  1
  Y  Y17  1  0.698226  0.997981  0.750459  1
  Y  Y18  1  0.801347  0.497811  0.249756  1
  Y  Y19  1  0.301599  0.002155  0.249768  1
  Sn  Sn20  1  0.297217  0.037911  0.041691  1
  Sn  Sn21  1  0.797670  0.461540  0.458369  1
  Sn  Sn22  1  0.702395  0.961819  0.541953  1
  Sn  Sn23  1  0.205584  0.535863  0.957530  1
  Sn  Sn24  1  0.701969  0.963286  0.957777  1
  Sn  Sn25  1  0.202087  0.539020  0.541880  1
  Sn  Sn26  1  0.297686  0.038148  0.458478  1
  Sn  Sn27  1  0.794903  0.460441  0.040703  1
  Sn  Sn28  1  0.564030  0.620067  0.750018  1
  Sn  Sn29  1  0.063907  0.879232  0.750153  1
  Sn  Sn30  1  0.435646  0.379569  0.249895  1
  Sn  Sn31  1  0.935842  0.120869  0.249891  1
  Sn  Sn32  1  0.329077  0.145928  0.750995  1
  Sn  Sn33  1  0.826519  0.355419  0.750334  1
  Sn  Sn34  1  0.672705  0.855402  0.249883  1
  Sn  Sn35  1  0.172701  0.644479  0.249976  1
