# generated using pymatgen
data_Ti5SnRh10
_symmetry_space_group_name_H-M   'P 1'
_cell_length_a   4.06233000
_cell_length_b   5.47655654
_cell_length_c   10.75449067
_cell_angle_alpha   90.56582851
_cell_angle_beta   90.00000000
_cell_angle_gamma   90.00000000
_symmetry_Int_Tables_number   1
_chemical_formula_structural   Ti5SnRh10
_chemical_formula_sum   'Ti5 Sn1 Rh10'
_cell_volume   239.24972353
_cell_formula_units_Z   1
loop_
 _symmetry_equiv_pos_site_id
 _symmetry_equiv_pos_as_xyz
  1  'x, y, z'
loop_
 _atom_site_type_symbol
 _atom_site_label
 _atom_site_symmetry_multiplicity
 _atom_site_fract_x
 _atom_site_fract_y
 _atom_site_fract_z
 _atom_site_occupancy
  Ti  Ti0  1  0.000000  0.500000  0.500000  1
  Ti  Ti1  1  0.500000  0.326496  0.146246  1
  Ti  Ti2  1  0.500000  0.673504  0.853754  1
  Ti  Ti3  1  0.500000  0.833437  0.358592  1
  Ti  Ti4  1  0.500000  0.166563  0.641408  1
  Sn  Sn5  1  0.000000  0.000000  0.000000  1
  Rh  Rh6  1  0.000000  0.000000  0.500000  1
  Rh  Rh7  1  0.000000  0.500000  0.000000  1
  Rh  Rh8  1  0.000000  0.075864  0.248554  1
  Rh  Rh9  1  0.000000  0.924136  0.751446  1
  Rh  Rh10  1  0.000000  0.576086  0.261003  1
  Rh  Rh11  1  0.000000  0.423914  0.738997  1
  Rh  Rh12  1  0.500000  0.310147  0.393948  1
  Rh  Rh13  1  0.500000  0.689853  0.606052  1
  Rh  Rh14  1  0.500000  0.788847  0.120362  1
  Rh  Rh15  1  0.500000  0.211153  0.879638  1
