# generated using pymatgen
data_GaSiNi4
_symmetry_space_group_name_H-M   'P 1'
_cell_length_a   3.73263400
_cell_length_b   5.03216198
_cell_length_c   7.26068775
_cell_angle_alpha   87.81650404
_cell_angle_beta   90.00000000
_cell_angle_gamma   90.00000000
_symmetry_Int_Tables_number   1
_chemical_formula_structural   GaSiNi4
_chemical_formula_sum   'Ga2 Si2 Ni8'
_cell_volume   136.28006691
_cell_formula_units_Z   2
loop_
 _symmetry_equiv_pos_site_id
 _symmetry_equiv_pos_as_xyz
  1  'x, y, z'
loop_
 _atom_site_type_symbol
 _atom_site_label
 _atom_site_symmetry_multiplicity
 _atom_site_fract_x
 _atom_site_fract_y
 _atom_site_fract_z
 _atom_site_occupancy
  Ga  Ga0  1  0.250000  0.312189  0.606466  1
  Ga  Ga1  1  0.750000  0.687811  0.393534  1
  Si  Si2  1  0.250000  0.791637  0.887602  1
  Si  Si3  1  0.750000  0.208363  0.112398  1
  Ni  Ni4  1  0.250000  0.438823  0.272030  1
  Ni  Ni5  1  0.750000  0.561177  0.727970  1
  Ni  Ni6  1  0.250000  0.948400  0.200965  1
  Ni  Ni7  1  0.750000  0.051600  0.799035  1
  Ni  Ni8  1  0.250000  0.331987  0.939273  1
  Ni  Ni9  1  0.750000  0.668013  0.060727  1
  Ni  Ni10  1  0.250000  0.841138  0.570150  1
  Ni  Ni11  1  0.750000  0.158862  0.429850  1
