# generated using pymatgen
data_Pr2NdTh5(ZnRh)8
_symmetry_space_group_name_H-M   'P 1'
_cell_length_a   3.94783700
_cell_length_b   7.54346127
_cell_length_c   16.56835935
_cell_angle_alpha   90.41328190
_cell_angle_beta   90.00000000
_cell_angle_gamma   90.00000000
_symmetry_Int_Tables_number   1
_chemical_formula_structural   Pr2NdTh5(ZnRh)8
_chemical_formula_sum   'Pr2 Nd1 Th5 Zn8 Rh8'
_cell_volume   493.39879574
_cell_formula_units_Z   1
loop_
 _symmetry_equiv_pos_site_id
 _symmetry_equiv_pos_as_xyz
  1  'x, y, z'
loop_
 _atom_site_type_symbol
 _atom_site_label
 _atom_site_symmetry_multiplicity
 _atom_site_fract_x
 _atom_site_fract_y
 _atom_site_fract_z
 _atom_site_occupancy
  Pr  Pr0  1  0.750000  0.445548  0.214665  1
  Pr  Pr1  1  0.250000  0.053144  0.713967  1
  Nd  Nd2  1  0.250000  0.553096  0.785846  1
  Th  Th3  1  0.250000  0.173795  0.938437  1
  Th  Th4  1  0.250000  0.673161  0.561552  1
  Th  Th5  1  0.750000  0.326437  0.439218  1
  Th  Th6  1  0.750000  0.946085  0.284548  1
  Th  Th7  1  0.750000  0.829350  0.060132  1
  Zn  Zn8  1  0.750000  0.006954  0.560740  1
  Zn  Zn9  1  0.250000  0.616514  0.345664  1
  Zn  Zn10  1  0.750000  0.381034  0.654698  1
  Zn  Zn11  1  0.250000  0.496636  0.061692  1
  Zn  Zn12  1  0.750000  0.506976  0.938704  1
  Zn  Zn13  1  0.250000  0.992352  0.441442  1
  Zn  Zn14  1  0.250000  0.122764  0.151964  1
  Zn  Zn15  1  0.750000  0.880492  0.845413  1
  Rh  Rh16  1  0.750000  0.741455  0.438453  1
  Rh  Rh17  1  0.250000  0.231832  0.319557  1
  Rh  Rh18  1  0.750000  0.247557  0.820898  1
  Rh  Rh19  1  0.750000  0.747411  0.678464  1
  Rh  Rh20  1  0.250000  0.262079  0.559032  1
  Rh  Rh21  1  0.250000  0.762542  0.185377  1
  Rh  Rh22  1  0.750000  0.242489  0.058407  1
  Rh  Rh23  1  0.250000  0.760297  0.941129  1
