# generated using pymatgen
data_Er4LuRu2
_symmetry_space_group_name_H-M   'P 1'
_cell_length_a   6.27004429
_cell_length_b   7.19690665
_cell_length_c   8.38551314
_cell_angle_alpha   96.68464600
_cell_angle_beta   111.95397698
_cell_angle_gamma   89.99999868
_symmetry_Int_Tables_number   1
_chemical_formula_structural   Er4LuRu2
_chemical_formula_sum   'Er8 Lu2 Ru4'
_cell_volume   348.18102925
_cell_formula_units_Z   2
loop_
 _symmetry_equiv_pos_site_id
 _symmetry_equiv_pos_as_xyz
  1  'x, y, z'
loop_
 _atom_site_type_symbol
 _atom_site_label
 _atom_site_symmetry_multiplicity
 _atom_site_fract_x
 _atom_site_fract_y
 _atom_site_fract_z
 _atom_site_occupancy
  Er  Er0  1  0.523452  0.083506  0.814610  1
  Er  Er1  1  0.476548  0.916494  0.185390  1
  Er  Er2  1  0.708843  0.416494  0.185390  1
  Er  Er3  1  0.291157  0.583506  0.814610  1
  Er  Er4  1  0.297379  0.313519  0.432821  1
  Er  Er5  1  0.702621  0.686481  0.567179  1
  Er  Er6  1  0.864560  0.186481  0.567179  1
  Er  Er7  1  0.135440  0.813519  0.432821  1
  Lu  Lu8  1  0.078207  0.250000  0.000000  1
  Lu  Lu9  1  0.921793  0.750000  0.000000  1
  Ru  Ru10  1  0.320318  0.575641  0.219229  1
  Ru  Ru11  1  0.679682  0.424359  0.780771  1
  Ru  Ru12  1  0.101090  0.924359  0.780771  1
  Ru  Ru13  1  0.898910  0.075641  0.219229  1
