# generated using pymatgen
data_NaSr21Ga8(Si2Sn)2
_symmetry_space_group_name_H-M   'P 1'
_cell_length_a   11.98447755
_cell_length_b   11.98447868
_cell_length_c   12.00565000
_cell_angle_alpha   59.94155092
_cell_angle_beta   59.94154779
_cell_angle_gamma   60.11691203
_symmetry_Int_Tables_number   1
_chemical_formula_structural   NaSr21Ga8(Si2Sn)2
_chemical_formula_sum   'Na1 Sr21 Ga8 Si4 Sn2'
_cell_volume   1219.28787170
_cell_formula_units_Z   1
loop_
 _symmetry_equiv_pos_site_id
 _symmetry_equiv_pos_as_xyz
  1  'x, y, z'
loop_
 _atom_site_type_symbol
 _atom_site_label
 _atom_site_symmetry_multiplicity
 _atom_site_fract_x
 _atom_site_fract_y
 _atom_site_fract_z
 _atom_site_occupancy
  Na  Na0  1  0.500000  0.500000  0.500000  1
  Sr  Sr1  1  0.875032  0.875032  0.384628  1
  Sr  Sr2  1  0.615372  0.134693  0.124968  1
  Sr  Sr3  1  0.865307  0.384628  0.875032  1
  Sr  Sr4  1  0.124968  0.124968  0.134693  1
  Sr  Sr5  1  0.384628  0.865307  0.875032  1
  Sr  Sr6  1  0.875032  0.875032  0.865307  1
  Sr  Sr7  1  0.170935  0.829065  0.500000  1
  Sr  Sr8  1  0.830422  0.493586  0.506414  1
  Sr  Sr9  1  0.124968  0.124968  0.615372  1
  Sr  Sr10  1  0.829065  0.170935  0.500000  1
  Sr  Sr11  1  0.169578  0.506414  0.493586  1
  Sr  Sr12  1  0.134693  0.615372  0.124968  1
  Sr  Sr13  1  0.500000  0.500000  0.170935  1
  Sr  Sr14  1  0.506414  0.169578  0.830422  1
  Sr  Sr15  1  0.493586  0.830422  0.169578  1
  Sr  Sr16  1  0.500000  0.500000  0.829065  1
  Sr  Sr17  1  0.506414  0.169578  0.493586  1
  Sr  Sr18  1  0.169578  0.506414  0.830422  1
  Sr  Sr19  1  0.000000  0.000000  0.000000  1
  Sr  Sr20  1  0.493586  0.830422  0.506414  1
  Sr  Sr21  1  0.830422  0.493586  0.169578  1
  Ga  Ga22  1  0.692604  0.920436  0.693480  1
  Ga  Ga23  1  0.693480  0.693480  0.920436  1
  Ga  Ga24  1  0.693480  0.693480  0.692604  1
  Ga  Ga25  1  0.307396  0.079564  0.306520  1
  Ga  Ga26  1  0.920436  0.692604  0.693480  1
  Ga  Ga27  1  0.306520  0.306520  0.079564  1
  Ga  Ga28  1  0.079564  0.307396  0.306520  1
  Ga  Ga29  1  0.306520  0.306520  0.307396  1
  Si  Si30  1  0.784104  0.215896  0.784104  1
  Si  Si31  1  0.784104  0.215896  0.215896  1
  Si  Si32  1  0.215896  0.784104  0.215896  1
  Si  Si33  1  0.215896  0.784104  0.784104  1
  Sn  Sn34  1  0.783427  0.783427  0.216573  1
  Sn  Sn35  1  0.216573  0.216573  0.783427  1
