# generated using pymatgen
data_Li6Co12Si5P
_symmetry_space_group_name_H-M   'P 1'
_cell_length_a   3.86117700
_cell_length_b   5.44414500
_cell_length_c   11.56483600
_cell_angle_alpha   90.00000000
_cell_angle_beta   90.00044057
_cell_angle_gamma   90.00000000
_symmetry_Int_Tables_number   1
_chemical_formula_structural   Li6Co12Si5P
_chemical_formula_sum   'Li6 Co12 Si5 P1'
_cell_volume   243.10219084
_cell_formula_units_Z   1
loop_
 _symmetry_equiv_pos_site_id
 _symmetry_equiv_pos_as_xyz
  1  'x, y, z'
loop_
 _atom_site_type_symbol
 _atom_site_label
 _atom_site_symmetry_multiplicity
 _atom_site_fract_x
 _atom_site_fract_y
 _atom_site_fract_z
 _atom_site_occupancy
  Li  Li0  1  0.000001  0.000000  0.000100  1
  Li  Li1  1  0.499784  0.500001  0.168157  1
  Li  Li2  1  0.999727  0.000000  0.331485  1
  Li  Li3  1  0.500001  0.500001  0.499931  1
  Li  Li4  1  0.000274  0.000000  0.668431  1
  Li  Li5  1  0.500214  0.500001  0.831910  1
  Co  Co6  1  0.500000  0.256424  0.000031  1
  Co  Co7  1  0.500000  0.743576  0.000031  1
  Co  Co8  1  0.999806  0.253602  0.163136  1
  Co  Co9  1  0.999806  0.746398  0.163136  1
  Co  Co10  1  0.499787  0.249843  0.332646  1
  Co  Co11  1  0.499787  0.750157  0.332646  1
  Co  Co12  1  0.000001  0.249567  0.499980  1
  Co  Co13  1  0.000001  0.750433  0.499980  1
  Co  Co14  1  0.500213  0.249846  0.667326  1
  Co  Co15  1  0.500213  0.750154  0.667326  1
  Co  Co16  1  0.000196  0.253591  0.836885  1
  Co  Co17  1  0.000196  0.746409  0.836885  1
  Si  Si18  1  0.499815  0.000000  0.166428  1
  Si  Si19  1  0.999807  0.500001  0.332996  1
  Si  Si20  1  0.500000  0.000000  0.499979  1
  Si  Si21  1  0.000195  0.500001  0.666975  1
  Si  Si22  1  0.500184  0.000000  0.833595  1
  P  P23  1  0.000001  0.500001  0.000001  1
