# generated using pymatgen
data_Ta6Nb2ReOs3
_symmetry_space_group_name_H-M   'P 1'
_cell_length_a   4.54581800
_cell_length_b   6.44853700
_cell_length_c   13.76419200
_cell_angle_alpha   90.00000000
_cell_angle_beta   90.00084932
_cell_angle_gamma   90.00000000
_symmetry_Int_Tables_number   1
_chemical_formula_structural   Ta6Nb2ReOs3
_chemical_formula_sum   'Ta12 Nb4 Re2 Os6'
_cell_volume   403.48181156
_cell_formula_units_Z   2
loop_
 _symmetry_equiv_pos_site_id
 _symmetry_equiv_pos_as_xyz
  1  'x, y, z'
loop_
 _atom_site_type_symbol
 _atom_site_label
 _atom_site_symmetry_multiplicity
 _atom_site_fract_x
 _atom_site_fract_y
 _atom_site_fract_z
 _atom_site_occupancy
  Ta  Ta0  1  0.499984  0.251603  0.999520  1
  Ta  Ta1  1  0.499984  0.748397  0.999520  1
  Ta  Ta2  1  0.000000  0.249123  0.166680  1
  Ta  Ta3  1  0.000000  0.750876  0.166680  1
  Ta  Ta4  1  0.499998  0.250883  0.333317  1
  Ta  Ta5  1  0.499998  0.749116  0.333317  1
  Ta  Ta6  1  0.000007  0.248396  0.500482  1
  Ta  Ta7  1  0.000007  0.751604  0.500482  1
  Ta  Ta8  1  0.500014  0.249414  0.666954  1
  Ta  Ta9  1  0.500014  0.750585  0.666954  1
  Ta  Ta10  1  0.000009  0.250560  0.833041  1
  Ta  Ta11  1  0.000009  0.749439  0.833041  1
  Nb  Nb12  1  0.000010  0.000000  0.997510  1
  Nb  Nb13  1  0.499987  0.500000  0.165328  1
  Nb  Nb14  1  0.999988  0.000000  0.334685  1
  Nb  Nb15  1  0.499989  0.500000  0.502487  1
  Re  Re16  1  0.000025  0.000000  0.667845  1
  Re  Re17  1  0.500030  0.500000  0.832160  1
  Os  Os18  1  0.000010  0.500000  0.997035  1
  Os  Os19  1  0.499994  0.000000  0.166292  1
  Os  Os20  1  0.999977  0.500000  0.333702  1
  Os  Os21  1  0.499986  0.000000  0.502968  1
  Os  Os22  1  0.999982  0.500000  0.669586  1
  Os  Os23  1  0.500003  0.000000  0.830412  1
