# generated using pymatgen
data_Er3ZnIn3CuRu
_symmetry_space_group_name_H-M   'P 1'
_cell_length_a   7.55896300
_cell_length_b   7.55896413
_cell_length_c   3.87929900
_cell_angle_alpha   90.00000000
_cell_angle_beta   90.00000000
_cell_angle_gamma   119.99999943
_symmetry_Int_Tables_number   1
_chemical_formula_structural   Er3ZnIn3CuRu
_chemical_formula_sum   'Er3 Zn1 In3 Cu1 Ru1'
_cell_volume   191.95896190
_cell_formula_units_Z   1
loop_
 _symmetry_equiv_pos_site_id
 _symmetry_equiv_pos_as_xyz
  1  'x, y, z'
loop_
 _atom_site_type_symbol
 _atom_site_label
 _atom_site_symmetry_multiplicity
 _atom_site_fract_x
 _atom_site_fract_y
 _atom_site_fract_z
 _atom_site_occupancy
  Er  Er0  1  0.024290  0.602629  0.500000  1
  Er  Er1  1  0.397371  0.421660  0.500000  1
  Er  Er2  1  0.578340  0.975710  0.500000  1
  Zn  Zn3  1  0.666667  0.333333  0.000000  1
  In  In4  1  0.747221  0.746617  0.000000  1
  In  In5  1  0.999397  0.252779  0.000000  1
  In  In6  1  0.253383  0.000603  0.000000  1
  Cu  Cu7  1  0.000000  0.000000  0.500000  1
  Ru  Ru8  1  0.333333  0.666667  0.000000  1
