# generated using pymatgen
data_Ho2Er10Os3Pd
_symmetry_space_group_name_H-M   'P 1'
_cell_length_a   6.36508615
_cell_length_b   7.31174773
_cell_length_c   8.99948600
_cell_angle_alpha   90.00000000
_cell_angle_beta   90.00000000
_cell_angle_gamma   90.33914170
_symmetry_Int_Tables_number   1
_chemical_formula_structural   Ho2Er10Os3Pd
_chemical_formula_sum   'Ho2 Er10 Os3 Pd1'
_cell_volume   418.82787918
_cell_formula_units_Z   1
loop_
 _symmetry_equiv_pos_site_id
 _symmetry_equiv_pos_as_xyz
  1  'x, y, z'
loop_
 _atom_site_type_symbol
 _atom_site_label
 _atom_site_symmetry_multiplicity
 _atom_site_fract_x
 _atom_site_fract_y
 _atom_site_fract_z
 _atom_site_occupancy
  Ho  Ho0  1  0.872879  0.532463  0.250000  1
  Ho  Ho1  1  0.620842  0.039028  0.250000  1
  Er  Er2  1  0.338274  0.669920  0.057568  1
  Er  Er3  1  0.171463  0.183853  0.442169  1
  Er  Er4  1  0.671042  0.323129  0.562382  1
  Er  Er5  1  0.823357  0.823235  0.932238  1
  Er  Er6  1  0.671042  0.323129  0.937618  1
  Er  Er7  1  0.823357  0.823235  0.567762  1
  Er  Er8  1  0.338274  0.669920  0.442432  1
  Er  Er9  1  0.171463  0.183853  0.057831  1
  Er  Er10  1  0.122608  0.463322  0.750000  1
  Er  Er11  1  0.370023  0.962784  0.750000  1
  Os  Os12  1  0.462293  0.384317  0.250000  1
  Os  Os13  1  0.963545  0.114771  0.750000  1
  Os  Os14  1  0.533001  0.614679  0.750000  1
  Pd  Pd15  1  0.046537  0.888359  0.250000  1
