# generated using pymatgen
data_Y2NbCo9As7Ru2
_symmetry_space_group_name_H-M   'P 1'
_cell_length_a   3.82705300
_cell_length_b   9.42317862
_cell_length_c   9.44230492
_cell_angle_alpha   119.64196921
_cell_angle_beta   90.00000000
_cell_angle_gamma   90.00000000
_symmetry_Int_Tables_number   1
_chemical_formula_structural   Y2NbCo9As7Ru2
_chemical_formula_sum   'Y2 Nb1 Co9 As7 Ru2'
_cell_volume   295.95528717
_cell_formula_units_Z   1
loop_
 _symmetry_equiv_pos_site_id
 _symmetry_equiv_pos_as_xyz
  1  'x, y, z'
loop_
 _atom_site_type_symbol
 _atom_site_label
 _atom_site_symmetry_multiplicity
 _atom_site_fract_x
 _atom_site_fract_y
 _atom_site_fract_z
 _atom_site_occupancy
  Y  Y0  1  0.000000  0.667675  0.337448  1
  Y  Y1  1  0.500000  0.329835  0.664080  1
  Nb  Nb2  1  0.500000  0.782643  0.896604  1
  Co  Co3  1  0.000000  0.568717  0.938915  1
  Co  Co4  1  0.000000  0.368198  0.428214  1
  Co  Co5  1  0.000000  0.059139  0.629839  1
  Co  Co6  1  0.000000  0.876273  0.159571  1
  Co  Co7  1  0.000000  0.286545  0.126211  1
  Co  Co8  1  0.000000  0.844387  0.721028  1
  Co  Co9  1  0.500000  0.948362  0.384948  1
  Co  Co10  1  0.500000  0.433996  0.052015  1
  Co  Co11  1  0.500000  0.617615  0.563259  1
  As  As12  1  0.000000  0.010797  0.006313  1
  As  As13  1  0.500000  0.706124  0.123226  1
  As  As14  1  0.500000  0.408707  0.291083  1
  As  As15  1  0.500000  0.882739  0.590665  1
  As  As16  1  0.000000  0.580759  0.694014  1
  As  As17  1  0.000000  0.112076  0.411722  1
  As  As18  1  0.000000  0.299243  0.887267  1
  Ru  Ru19  1  0.500000  0.118186  0.218223  1
  Ru  Ru20  1  0.500000  0.097984  0.875355  1
